MODEL 1
REMARK VINA RESULT: -11.147921910      0.000      0.000
REMARK  16 active torsions:
REMARK  status: ('A' for Active; 'I' for Inactive)
REMARK    1  A    between atoms: C3_3  and  N1_4 
REMARK    2  A    between atoms: N1_4  and  C4_5 
REMARK    3  A    between atoms: N1_4  and  C21_34 
REMARK    4  A    between atoms: C7_8  and  C8_9 
REMARK       I    between atoms: C8_9  and  N2_11 
REMARK    5  A    between atoms: N2_11  and  C9_13 
REMARK    6  A    between atoms: C9_13  and  C10_14 
REMARK    7  A    between atoms: C9_13  and  C18_29 
REMARK    8  A    between atoms: C10_14  and  C11_15 
REMARK    9  A    between atoms: C11_15  and  C12_16 
REMARK       I    between atoms: C12_16  and  N3_18 
REMARK   10  A    between atoms: N3_18  and  C13_20 
REMARK   11  A    between atoms: C13_20  and  C14_21 
REMARK   12  A    between atoms: C13_20  and  C17_26 
REMARK   13  A    between atoms: C14_21  and  C15_22 
REMARK   14  A    between atoms: C15_22  and  C16_23 
REMARK   15  A    between atoms: C27_42  and  C28_43 
REMARK   16  A    between atoms: C28_43  and  O9_44 
ROOT
HETATM    1  C1  UNL     1      66.824  24.078 -69.343  1.00  0.00     0.014 C 
HETATM    2  C2  UNL     1      66.115  23.766 -68.417  1.00  0.00    -0.098 C 
HETATM    3  C3  UNL     1      65.280  23.390 -67.275  1.00  0.00     0.217 C 
ENDROOT
BRANCH   3   4
HETATM    4  N1  UNL     1      65.671  22.065 -66.825  1.00  0.00    -0.361 N 
BRANCH   4   5
HETATM    5  C4  UNL     1      66.775  21.968 -65.949  1.00  0.00     0.031 A 
HETATM    6  C5  UNL     1      68.077  22.119 -66.335  1.00  0.00     0.030 A 
HETATM    7  C6  UNL     1      69.131  22.006 -65.411  1.00  0.00     0.019 A 
HETATM    8  C7  UNL     1      68.884  21.739 -64.097  1.00  0.00     0.032 A 
HETATM    9  C19 UNL     1      67.545  21.588 -63.718  1.00  0.00     0.019 A 
HETATM   10  C20 UNL     1      66.506  21.701 -64.624  1.00  0.00     0.030 A 
BRANCH   8  11
HETATM   11  C8  UNL     1      69.935  21.609 -63.068  1.00  0.00     0.252 C 
HETATM   12  O1  UNL     1      70.953  22.303 -63.158  1.00  0.00    -0.268 OA
HETATM   13  N2  UNL     1      69.804  20.718 -61.992  1.00  0.00    -0.342 N 
ATOM     14  H2  UNL     1      68.950  20.160 -61.967  1.00  0.00     0.163 HD
BRANCH  13  15
HETATM   15  C9  UNL     1      70.743  20.501 -60.917  1.00  0.00     0.186 C 
BRANCH  15  16
HETATM   16  C10 UNL     1      70.579  21.575 -59.879  1.00  0.00     0.045 C 
BRANCH  16  17
HETATM   17  C11 UNL     1      69.194  22.064 -59.808  1.00  0.00     0.105 C 
BRANCH  17  18
HETATM   18  C12 UNL     1      68.753  22.797 -58.625  1.00  0.00     0.218 C 
HETATM   19  O2  UNL     1      68.128  23.878 -58.603  1.00  0.00    -0.274 OA
HETATM   20  N3  UNL     1      69.056  22.248 -57.317  1.00  0.00    -0.347 N 
ATOM     21  H3  UNL     1      69.564  21.369 -57.217  1.00  0.00     0.163 HD
BRANCH  20  22
HETATM   22  C13 UNL     1      68.608  22.999 -56.153  1.00  0.00     0.186 C 
BRANCH  22  23
HETATM   23  C14 UNL     1      69.845  23.443 -55.397  1.00  0.00     0.046 C 
BRANCH  23  24
HETATM   24  C15 UNL     1      70.142  24.892 -55.551  1.00  0.00     0.116 C 
BRANCH  24  25
HETATM   25  C16 UNL     1      69.818  25.584 -54.278  1.00  0.00     0.172 C 
HETATM   26  O3  UNL     1      68.952  25.151 -53.486  1.00  0.00    -0.648 OA
HETATM   27  O4  UNL     1      70.512  26.759 -53.968  1.00  0.00    -0.648 OA
ENDBRANCH  24  25
ENDBRANCH  23  24
ENDBRANCH  22  23
BRANCH  22  28
HETATM   28  C17 UNL     1      67.786  22.129 -55.286  1.00  0.00     0.196 C 
HETATM   29  O5  UNL     1      68.259  21.030 -54.859  1.00  0.00    -0.646 OA
HETATM   30  O6  UNL     1      66.513  22.457 -54.912  1.00  0.00    -0.646 OA
ENDBRANCH  22  28
ENDBRANCH  20  22
ENDBRANCH  17  18
ENDBRANCH  16  17
ENDBRANCH  15  16
BRANCH  15  31
HETATM   31  C18 UNL     1      70.798  19.123 -60.446  1.00  0.00     0.196 C 
HETATM   32  O7  UNL     1      71.512  18.203 -60.904  1.00  0.00    -0.646 OA
HETATM   33  O8  UNL     1      69.965  18.783 -59.353  1.00  0.00    -0.646 OA
ENDBRANCH  15  31
ENDBRANCH  13  15
ENDBRANCH   8  11
ENDBRANCH   4   5
BRANCH   4  34
HETATM   34  C21 UNL     1      64.995  20.865 -67.256  1.00  0.00     0.119 C 
HETATM   35  C22 UNL     1      63.619  21.185 -67.752  1.00  0.00     0.035 C 
HETATM   36  C23 UNL     1      63.718  21.230 -69.261  1.00  0.00     0.041 C 
HETATM   37  C24 UNL     1      64.925  20.383 -69.543  1.00  0.00    -0.048 A 
HETATM   38  C25 UNL     1      65.360  19.819 -70.753  1.00  0.00     0.038 A 
HETATM   39  C32 UNL     1      65.636  20.180 -68.392  1.00  0.00    -0.028 A 
HETATM   40  C26 UNL     1      66.501  19.052 -70.838  1.00  0.00     0.049 A 
HETATM   41  N4  UNL     1      66.938  18.502 -71.990  1.00  0.00    -0.343 N 
HETATM   42  C30 UNL     1      67.217  18.849 -69.676  1.00  0.00     0.059 A 
HETATM   43  C27 UNL     1      68.053  17.761 -72.034  1.00  0.00     0.108 A 
ATOM     44  H4  UNL     1      66.406  18.653 -72.847  1.00  0.00     0.167 HD
HETATM   45  N5  UNL     1      68.774  17.546 -70.920  1.00  0.00    -0.310 N 
HETATM   46  C29 UNL     1      68.371  18.076 -69.757  1.00  0.00     0.259 A 
ATOM     47  H5  UNL     1      69.623  16.981 -70.960  1.00  0.00     0.170 HD
HETATM   48  O10 UNL     1      69.044  17.872 -68.721  1.00  0.00    -0.267 OA
HETATM   49  C31 UNL     1      66.797  19.398 -68.489  1.00  0.00     0.029 A 
BRANCH  43  50
HETATM   50  C28 UNL     1      68.521  17.162 -73.302  1.00  0.00     0.240 C 
BRANCH  50  51
HETATM   51  O9  UNL     1      67.787  16.024 -73.634  1.00  0.00    -0.393 OA
ATOM     52  H9  UNL     1      67.797  15.384 -72.933  1.00  0.00     0.209 HD
ENDBRANCH  50  51
ENDBRANCH  43  50
ENDBRANCH   4  34
ENDBRANCH   3   4
TORSDOF 16
ENDMDL
