MODEL 4
REMARK VINA RESULT: -10.907950094      1.661      3.086
REMARK  16 active torsions:
REMARK  status: ('A' for Active; 'I' for Inactive)
REMARK    1  A    between atoms: C3_3  and  N1_4 
REMARK    2  A    between atoms: N1_4  and  C4_5 
REMARK    3  A    between atoms: N1_4  and  C21_34 
REMARK    4  A    between atoms: C7_8  and  C8_9 
REMARK       I    between atoms: C8_9  and  N2_11 
REMARK    5  A    between atoms: N2_11  and  C9_13 
REMARK    6  A    between atoms: C9_13  and  C10_14 
REMARK    7  A    between atoms: C9_13  and  C18_29 
REMARK    8  A    between atoms: C10_14  and  C11_15 
REMARK    9  A    between atoms: C11_15  and  C12_16 
REMARK       I    between atoms: C12_16  and  N3_18 
REMARK   10  A    between atoms: N3_18  and  C13_20 
REMARK   11  A    between atoms: C13_20  and  C14_21 
REMARK   12  A    between atoms: C13_20  and  C17_26 
REMARK   13  A    between atoms: C14_21  and  C15_22 
REMARK   14  A    between atoms: C15_22  and  C16_23 
REMARK   15  A    between atoms: C27_42  and  C28_43 
REMARK   16  A    between atoms: C28_43  and  O9_44 
ROOT
HETATM    1  C1  UNL     1      64.429  25.104 -66.941  1.00  0.00     0.014 C 
HETATM    2  C2  UNL     1      65.234  24.258 -67.247  1.00  0.00    -0.098 C 
HETATM    3  C3  UNL     1      66.188  23.216 -67.630  1.00  0.00     0.217 C 
ENDROOT
BRANCH   3   4
HETATM    4  N1  UNL     1      65.943  22.035 -66.819  1.00  0.00    -0.361 N 
BRANCH   4   5
HETATM    5  C4  UNL     1      66.518  21.994 -65.529  1.00  0.00     0.031 A 
HETATM    6  C5  UNL     1      67.863  21.995 -65.288  1.00  0.00     0.030 A 
HETATM    7  C6  UNL     1      68.370  21.949 -63.977  1.00  0.00     0.019 A 
HETATM    8  C7  UNL     1      67.531  21.899 -62.904  1.00  0.00     0.032 A 
HETATM    9  C19 UNL     1      66.156  21.898 -63.168  1.00  0.00     0.019 A 
HETATM   10  C20 UNL     1      65.655  21.946 -64.456  1.00  0.00     0.030 A 
BRANCH   8  11
HETATM   11  C8  UNL     1      67.986  21.851 -61.499  1.00  0.00     0.252 C 
HETATM   12  O1  UNL     1      67.363  21.155 -60.690  1.00  0.00    -0.268 OA
HETATM   13  N2  UNL     1      69.105  22.575 -61.064  1.00  0.00    -0.342 N 
ATOM     14  H2  UNL     1      69.580  23.142 -61.768  1.00  0.00     0.163 HD
BRANCH  13  15
HETATM   15  C9  UNL     1      69.661  22.608 -59.732  1.00  0.00     0.186 C 
BRANCH  15  16
HETATM   16  C10 UNL     1      71.151  22.423 -59.802  1.00  0.00     0.045 C 
BRANCH  16  17
HETATM   17  C11 UNL     1      71.525  21.005 -59.911  1.00  0.00     0.105 C 
BRANCH  17  18
HETATM   18  C12 UNL     1      70.757  20.003 -59.179  1.00  0.00     0.218 C 
HETATM   19  O2  UNL     1      70.060  19.088 -59.667  1.00  0.00    -0.274 OA
HETATM   20  N3  UNL     1      70.773  20.041 -57.729  1.00  0.00    -0.347 N 
ATOM     21  H3  UNL     1      71.309  20.747 -57.224  1.00  0.00     0.163 HD
BRANCH  20  22
HETATM   22  C13 UNL     1      69.997  19.032 -57.021  1.00  0.00     0.186 C 
BRANCH  22  23
HETATM   23  C14 UNL     1      69.231  19.740 -55.921  1.00  0.00     0.046 C 
BRANCH  23  24
HETATM   24  C15 UNL     1      68.258  20.741 -56.431  1.00  0.00     0.116 C 
BRANCH  24  25
HETATM   25  C16 UNL     1      68.338  21.959 -55.585  1.00  0.00     0.172 C 
HETATM   26  O3  UNL     1      69.415  22.565 -55.390  1.00  0.00    -0.648 OA
HETATM   27  O4  UNL     1      67.162  22.434 -54.994  1.00  0.00    -0.648 OA
ENDBRANCH  24  25
ENDBRANCH  23  24
ENDBRANCH  22  23
BRANCH  22  28
HETATM   28  C17 UNL     1      70.907  18.032 -56.424  1.00  0.00     0.196 C 
HETATM   29  O5  UNL     1      70.691  16.792 -56.603  1.00  0.00    -0.646 OA
HETATM   30  O6  UNL     1      71.994  18.382 -55.674  1.00  0.00    -0.646 OA
ENDBRANCH  22  28
ENDBRANCH  20  22
ENDBRANCH  17  18
ENDBRANCH  16  17
ENDBRANCH  15  16
BRANCH  15  31
HETATM   31  C18 UNL     1      69.165  23.705 -58.910  1.00  0.00     0.196 C 
HETATM   32  O7  UNL     1      67.974  23.924 -58.595  1.00  0.00    -0.646 OA
HETATM   33  O8  UNL     1      70.124  24.615 -58.405  1.00  0.00    -0.646 OA
ENDBRANCH  15  31
ENDBRANCH  13  15
ENDBRANCH   8  11
ENDBRANCH   4   5
BRANCH   4  34
HETATM   34  C21 UNL     1      65.166  20.914 -67.290  1.00  0.00     0.119 C 
HETATM   35  C22 UNL     1      63.840  21.373 -67.811  1.00  0.00     0.035 C 
HETATM   36  C23 UNL     1      63.981  21.437 -69.316  1.00  0.00     0.041 C 
HETATM   37  C24 UNL     1      65.108  20.483 -69.588  1.00  0.00    -0.048 A 
HETATM   38  C25 UNL     1      65.517  19.902 -70.799  1.00  0.00     0.038 A 
HETATM   39  C32 UNL     1      65.767  20.192 -68.425  1.00  0.00    -0.028 A 
HETATM   40  C26 UNL     1      66.581  19.030 -70.873  1.00  0.00     0.049 A 
HETATM   41  N4  UNL     1      66.991  18.462 -72.026  1.00  0.00    -0.343 N 
HETATM   42  C30 UNL     1      67.246  18.739 -69.699  1.00  0.00     0.059 A 
HETATM   43  C27 UNL     1      68.032  17.619 -72.060  1.00  0.00     0.108 A 
ATOM     44  H4  UNL     1      66.498  18.680 -72.892  1.00  0.00     0.167 HD
HETATM   45  N5  UNL     1      68.701  17.315 -70.934  1.00  0.00    -0.310 N 
HETATM   46  C29 UNL     1      68.322  17.860 -69.770  1.00  0.00     0.259 A 
ATOM     47  H5  UNL     1      69.493  16.672 -70.966  1.00  0.00     0.170 HD
HETATM   48  O10 UNL     1      68.946  17.573 -68.723  1.00  0.00    -0.267 OA
HETATM   49  C31 UNL     1      66.850  19.304 -68.512  1.00  0.00     0.029 A 
BRANCH  43  50
HETATM   50  C28 UNL     1      68.472  17.001 -73.328  1.00  0.00     0.240 C 
BRANCH  50  51
HETATM   51  O9  UNL     1      67.649  15.935 -73.693  1.00  0.00    -0.393 OA
ATOM     52  H9  UNL     1      67.639  15.258 -73.028  1.00  0.00     0.209 HD
ENDBRANCH  50  51
ENDBRANCH  43  50
ENDBRANCH   4  34
ENDBRANCH   3   4
TORSDOF 16
ENDMDL
