MODEL 15
REMARK VINA RESULT: -6.302064480      1.860      2.367
REMARK  3 active torsions:
REMARK  status: ('A' for Active; 'I' for Inactive)
REMARK    1  A    between atoms: C1_2  and  C2_4 
REMARK    2  A    between atoms: C2_4  and  C3_5 
REMARK    3  A    between atoms: C11_20  and  C12_21 
ROOT
HETATM    1  C3  UNL     1      -7.297  29.444   2.375  1.00  0.00     0.115 C 
HETATM    2  O3  UNL     1      -5.914  29.489   2.558  1.00  0.00    -0.365 OA
HETATM    3  C4  UNL     1      -5.300  29.790   1.307  1.00  0.00     0.177 C 
HETATM    4  C5  UNL     1      -4.527  28.613   0.834  1.00  0.00     0.004 C 
HETATM    5  C6  UNL     1      -4.593  28.134  -0.378  1.00  0.00    -0.001 C 
HETATM    6  C7  UNL     1      -5.479  28.819  -1.393  1.00  0.00     0.260 C 
HETATM    7  N1  UNL     1      -6.704  29.064  -0.628  1.00  0.00    -0.064 N 
ATOM      8  H11 UNL     1      -7.097  28.221  -0.208  1.00  0.00     0.278 HD
ATOM      9  H12 UNL     1      -7.508  29.299  -1.210  1.00  0.00     0.278 HD
HETATM   10  C8  UNL     1      -6.370  30.086   0.336  1.00  0.00     0.234 C 
HETATM   11  C9  UNL     1      -7.569  30.284   1.225  1.00  0.00     0.149 C 
HETATM   12  C10 UNL     1      -7.476  31.656   1.817  1.00  0.00     0.227 C 
HETATM   13  O4  UNL     1      -7.585  32.725   1.172  1.00  0.00    -0.273 OA
HETATM   14  N2  UNL     1      -7.224  31.587   3.246  1.00  0.00    -0.343 N 
ATOM     15  H2  UNL     1      -6.759  32.240   3.877  1.00  0.00     0.163 HD
HETATM   16  C11 UNL     1      -7.861  30.260   3.501  1.00  0.00     0.221 C 
ENDROOT
BRANCH   1  17
HETATM   17  C2  UNL     1      -7.674  28.009   2.413  1.00  0.00     0.154 C 
BRANCH  17  18
HETATM   18  C1  UNL     1      -8.920  27.588   1.786  1.00  0.00     0.175 C 
HETATM   19  O1  UNL     1     -10.008  27.558   2.376  1.00  0.00    -0.648 OA
HETATM   20  O2  UNL     1      -8.891  27.199   0.454  1.00  0.00    -0.648 OA
ENDBRANCH  17  18
ENDBRANCH   1  17
BRANCH  16  21
HETATM   21  C12 UNL     1      -9.270  30.574   3.563  1.00  0.00     0.199 C 
HETATM   22  O5  UNL     1      -9.945  30.720   4.665  1.00  0.00    -0.646 OA
HETATM   23  O6  UNL     1     -10.062  30.794   2.414  1.00  0.00    -0.646 OA
ENDBRANCH  16  21
TORSDOF 3
ENDMDL
