MODEL 12
REMARK VINA RESULT: -6.333512179      2.556      3.810
REMARK  3 active torsions:
REMARK  status: ('A' for Active; 'I' for Inactive)
REMARK    1  A    between atoms: C1_2  and  C2_4 
REMARK    2  A    between atoms: C2_4  and  C3_5 
REMARK    3  A    between atoms: C11_20  and  C12_21 
ROOT
HETATM    1  C3  UNL     1      -9.250  28.783   4.282  1.00  0.00     0.115 C 
HETATM    2  O3  UNL     1      -8.498  29.749   4.954  1.00  0.00    -0.365 OA
HETATM    3  C4  UNL     1      -8.139  30.770   4.028  1.00  0.00     0.177 C 
HETATM    4  C5  UNL     1      -6.671  30.747   3.804  1.00  0.00     0.004 C 
HETATM    5  C6  UNL     1      -6.110  30.785   2.625  1.00  0.00    -0.001 C 
HETATM    6  C7  UNL     1      -6.985  30.891   1.398  1.00  0.00     0.260 C 
HETATM    7  N1  UNL     1      -8.045  29.922   1.681  1.00  0.00    -0.064 N 
ATOM      8  H11 UNL     1      -7.696  28.985   1.883  1.00  0.00     0.278 HD
ATOM      9  H12 UNL     1      -8.599  29.673   0.861  1.00  0.00     0.278 HD
HETATM   10  C8  UNL     1      -8.826  30.490   2.753  1.00  0.00     0.234 C 
HETATM   11  C9  UNL     1      -9.858  29.471   3.159  1.00  0.00     0.149 C 
HETATM   12  C10 UNL     1     -10.986  30.200   3.817  1.00  0.00     0.227 C 
HETATM   13  O4  UNL     1     -11.770  30.987   3.236  1.00  0.00    -0.273 OA
HETATM   14  N2  UNL     1     -11.047  29.888   5.235  1.00  0.00    -0.343 N 
ATOM     15  H2  UNL     1     -11.399  30.428   6.026  1.00  0.00     0.163 HD
HETATM   16  C11 UNL     1     -10.432  28.528   5.171  1.00  0.00     0.221 C 
ENDROOT
BRANCH   1  17
HETATM   17  C2  UNL     1      -8.357  27.612   4.103  1.00  0.00     0.154 C 
BRANCH  17  18
HETATM   18  C1  UNL     1      -8.034  26.785   5.258  1.00  0.00     0.175 C 
HETATM   19  O1  UNL     1      -7.305  27.159   6.186  1.00  0.00    -0.648 OA
HETATM   20  O2  UNL     1      -8.572  25.507   5.327  1.00  0.00    -0.648 OA
ENDBRANCH  17  18
ENDBRANCH   1  17
BRANCH  16  21
HETATM   21  C12 UNL     1     -11.526  27.690   4.736  1.00  0.00     0.199 C 
HETATM   22  O5  UNL     1     -11.404  26.678   3.929  1.00  0.00    -0.646 OA
HETATM   23  O6  UNL     1     -12.856  27.866   5.180  1.00  0.00    -0.646 OA
ENDBRANCH  16  21
TORSDOF 3
ENDMDL
