MODEL 5
REMARK VINA RESULT: -6.558494491      2.241      4.313
REMARK  3 active torsions:
REMARK  status: ('A' for Active; 'I' for Inactive)
REMARK    1  A    between atoms: C1_2  and  C2_4 
REMARK    2  A    between atoms: C2_4  and  C3_5 
REMARK    3  A    between atoms: C11_20  and  C12_21 
ROOT
HETATM    1  C3  UNL     1      -8.758  28.800   2.206  1.00  0.00     0.115 C 
HETATM    2  O3  UNL     1     -10.027  28.383   2.614  1.00  0.00    -0.365 OA
HETATM    3  C4  UNL     1      -9.932  27.874   3.941  1.00  0.00     0.177 C 
HETATM    4  C5  UNL     1     -10.186  26.411   3.935  1.00  0.00     0.004 C 
HETATM    5  C6  UNL     1      -9.437  25.535   4.549  1.00  0.00    -0.001 C 
HETATM    6  C7  UNL     1      -8.250  26.017   5.350  1.00  0.00     0.260 C 
HETATM    7  N1  UNL     1      -7.647  27.007   4.456  1.00  0.00    -0.064 N 
ATOM      8  H11 UNL     1      -7.424  26.639   3.531  1.00  0.00     0.278 HD
ATOM      9  H12 UNL     1      -6.695  27.266   4.718  1.00  0.00     0.278 HD
HETATM   10  C8  UNL     1      -8.562  28.123   4.427  1.00  0.00     0.234 C 
HETATM   11  C9  UNL     1      -8.039  29.118   3.425  1.00  0.00     0.149 C 
HETATM   12  C10 UNL     1      -8.603  30.458   3.775  1.00  0.00     0.227 C 
HETATM   13  O4  UNL     1      -8.314  31.113   4.805  1.00  0.00    -0.273 OA
HETATM   14  N2  UNL     1      -9.551  30.902   2.767  1.00  0.00    -0.343 N 
ATOM     15  H2  UNL     1     -10.356  31.524   2.832  1.00  0.00     0.163 HD
HETATM   16  C11 UNL     1      -8.974  30.159   1.606  1.00  0.00     0.221 C 
ENDROOT
BRANCH   1  17
HETATM   17  C2  UNL     1      -8.274  27.779   1.245  1.00  0.00     0.154 C 
BRANCH  17  18
HETATM   18  C1  UNL     1      -8.775  27.800  -0.123  1.00  0.00     0.175 C 
HETATM   19  O1  UNL     1      -9.961  27.610  -0.421  1.00  0.00    -0.648 OA
HETATM   20  O2  UNL     1      -7.876  28.047  -1.152  1.00  0.00    -0.648 OA
ENDBRANCH  17  18
ENDBRANCH   1  17
BRANCH  16  21
HETATM   21  C12 UNL     1      -7.858  30.984   1.205  1.00  0.00     0.199 C 
HETATM   22  O5  UNL     1      -6.725  30.527   0.761  1.00  0.00    -0.646 OA
HETATM   23  O6  UNL     1      -7.899  32.396   1.221  1.00  0.00    -0.646 OA
ENDBRANCH  16  21
TORSDOF 3
ENDMDL
