MODEL 4
REMARK VINA RESULT: -6.564208006      2.740      4.861
REMARK  3 active torsions:
REMARK  status: ('A' for Active; 'I' for Inactive)
REMARK    1  A    between atoms: C1_2  and  C2_4 
REMARK    2  A    between atoms: C2_4  and  C3_5 
REMARK    3  A    between atoms: C11_20  and  C12_21 
ROOT
HETATM    1  C3  UNL     1      -8.259  28.772   3.992  1.00  0.00     0.115 C 
HETATM    2  O3  UNL     1      -7.498  28.037   3.082  1.00  0.00    -0.365 OA
HETATM    3  C4  UNL     1      -7.418  26.690   3.540  1.00  0.00     0.177 C 
HETATM    4  C5  UNL     1      -6.021  26.379   3.937  1.00  0.00     0.004 C 
HETATM    5  C6  UNL     1      -5.692  25.790   5.055  1.00  0.00    -0.001 C 
HETATM    6  C7  UNL     1      -6.783  25.358   6.007  1.00  0.00     0.260 C 
HETATM    7  N1  UNL     1      -7.671  26.522   6.019  1.00  0.00    -0.064 N 
ATOM      8  H11 UNL     1      -7.199  27.392   6.268  1.00  0.00     0.278 HD
ATOM      9  H12 UNL     1      -8.337  26.518   6.792  1.00  0.00     0.278 HD
HETATM   10  C8  UNL     1      -8.295  26.558   4.718  1.00  0.00     0.234 C 
HETATM   11  C9  UNL     1      -9.128  27.810   4.644  1.00  0.00     0.149 C 
HETATM   12  C10 UNL     1     -10.184  27.595   3.606  1.00  0.00     0.227 C 
HETATM   13  O4  UNL     1     -11.136  26.785   3.706  1.00  0.00    -0.273 OA
HETATM   14  N2  UNL     1      -9.953  28.443   2.449  1.00  0.00    -0.343 N 
ATOM     15  H2  UNL     1     -10.207  28.323   1.469  1.00  0.00     0.163 HD
HETATM   16  C11 UNL     1      -9.228  29.547   3.147  1.00  0.00     0.221 C 
ENDROOT
BRANCH   1  17
HETATM   17  C2  UNL     1      -7.301  29.614   4.751  1.00  0.00     0.154 C 
BRANCH  17  18
HETATM   18  C1  UNL     1      -6.949  30.928   4.231  1.00  0.00     0.175 C 
HETATM   19  O1  UNL     1      -6.238  31.103   3.234  1.00  0.00    -0.648 OA
HETATM   20  O2  UNL     1      -7.437  32.050   4.888  1.00  0.00    -0.648 OA
ENDBRANCH  17  18
ENDBRANCH   1  17
BRANCH  16  21
HETATM   21  C12 UNL     1     -10.293  30.317   3.748  1.00  0.00     0.199 C 
HETATM   22  O5  UNL     1     -10.440  30.499   5.027  1.00  0.00    -0.646 OA
HETATM   23  O6  UNL     1     -11.278  30.990   2.991  1.00  0.00    -0.646 OA
ENDBRANCH  16  21
TORSDOF 3
ENDMDL
