MODEL 1
REMARK VINA RESULT: -7.710268073      0.000      0.000
REMARK  6 active torsions:
REMARK  status: ('A' for Active; 'I' for Inactive)
REMARK    1  A    between atoms: N1_1  and  S1_4 
REMARK    2  A    between atoms: S1_4  and  C1_7 
REMARK    3  A    between atoms: C4_10  and  C5_11 
REMARK    4  A    between atoms: C5_11  and  N2_12 
REMARK       I    between atoms: N2_12  and  C6_14 
REMARK    5  A    between atoms: C6_14  and  C7_16 
REMARK    6  A    between atoms: C7_16  and  C8_17 
ROOT
HETATM    1  C1  UNL     1      15.424   2.521  16.420  1.00  0.00     0.079 A 
HETATM    2  C2  UNL     1      14.670   3.674  16.319  1.00  0.00     0.026 A 
HETATM    3  C3  UNL     1      15.030   4.714  15.454  1.00  0.00     0.010 A 
HETATM    4  C4  UNL     1      16.156   4.603  14.680  1.00  0.00    -0.040 A 
HETATM    5  C14 UNL     1      16.927   3.460  14.761  1.00  0.00     0.010 A 
HETATM    6  C15 UNL     1      16.561   2.441  15.619  1.00  0.00     0.026 A 
ENDROOT
BRANCH   4   7
HETATM    7  C5  UNL     1      16.648   5.669  13.745  1.00  0.00     0.161 C 
BRANCH   7   8
HETATM    8  N2  UNL     1      17.457   5.010  12.708  1.00  0.00    -0.357 N 
HETATM    9  C6  UNL     1      16.998   4.822  11.376  1.00  0.00     0.222 C 
HETATM   10  O3  UNL     1      15.845   5.233  11.115  1.00  0.00    -0.273 OA
ATOM     11  H2  UNL     1      18.388   4.673  12.956  1.00  0.00     0.162 HD
BRANCH   9  12
HETATM   12  C7  UNL     1      17.857   4.175  10.370  1.00  0.00     0.141 C 
BRANCH  12  13
HETATM   13  C8  UNL     1      18.272   2.804  10.661  1.00  0.00    -0.050 A 
HETATM   14  C9  UNL     1      17.270   1.877  10.935  1.00  0.00     0.007 A 
HETATM   15  C10 UNL     1      17.573   0.570  11.231  1.00  0.00     0.001 A 
HETATM   16  C11 UNL     1      18.886   0.161  11.260  1.00  0.00     0.000 A 
HETATM   17  C12 UNL     1      19.904   1.062  10.991  1.00  0.00     0.001 A 
HETATM   18  C13 UNL     1      19.558   2.361  10.699  1.00  0.00     0.007 A 
ENDBRANCH  12  13
ENDBRANCH   9  12
ENDBRANCH   7   8
ENDBRANCH   4   7
BRANCH   1  19
HETATM   19  S1  UNL     1      14.968   1.239  17.520  1.00  0.00     0.256 S 
HETATM   20  O1  UNL     1      13.641   0.707  17.074  1.00  0.00    -0.201 OA
HETATM   21  O2  UNL     1      15.973   0.150  17.513  1.00  0.00    -0.201 OA
BRANCH  19  22
HETATM   22  N1  UNL     1      14.795   1.841  19.130  1.00  0.00    -0.324 N 
ATOM     23  H12 UNL     1      15.199   2.710  19.479  1.00  0.00     0.169 HD
ATOM     24  H11 UNL     1      14.225   1.180  19.658  1.00  0.00     0.169 HD
ENDBRANCH  19  22
ENDBRANCH   1  19
TORSDOF 6
ENDMDL
