MODEL 2
REMARK VINA RESULT: -7.570742814      0.343      1.080
REMARK  6 active torsions:
REMARK  status: ('A' for Active; 'I' for Inactive)
REMARK    1  A    between atoms: N1_1  and  S1_4 
REMARK    2  A    between atoms: S1_4  and  C1_7 
REMARK    3  A    between atoms: C4_10  and  C5_11 
REMARK    4  A    between atoms: C5_11  and  N2_12 
REMARK       I    between atoms: N2_12  and  C6_14 
REMARK    5  A    between atoms: C6_14  and  C7_16 
REMARK    6  A    between atoms: C7_16  and  C8_17 
ROOT
HETATM    1  C1  UNL     1      15.377   2.492  16.364  1.00  0.00     0.079 A 
HETATM    2  C2  UNL     1      14.635   3.657  16.339  1.00  0.00     0.026 A 
HETATM    3  C3  UNL     1      14.927   4.695  15.446  1.00  0.00     0.010 A 
HETATM    4  C4  UNL     1      15.971   4.570  14.567  1.00  0.00    -0.040 A 
HETATM    5  C14 UNL     1      16.728   3.415  14.571  1.00  0.00     0.010 A 
HETATM    6  C15 UNL     1      16.430   2.397  15.457  1.00  0.00     0.026 A 
ENDROOT
BRANCH   4   7
HETATM    7  C5  UNL     1      16.388   5.633  13.593  1.00  0.00     0.161 C 
BRANCH   7   8
HETATM    8  N2  UNL     1      17.215   4.987  12.561  1.00  0.00    -0.357 N 
HETATM    9  C6  UNL     1      16.839   4.937  11.191  1.00  0.00     0.222 C 
HETATM   10  O3  UNL     1      15.742   5.460  10.889  1.00  0.00    -0.273 OA
ATOM     11  H2  UNL     1      18.097   4.557  12.841  1.00  0.00     0.162 HD
BRANCH   9  12
HETATM   12  C7  UNL     1      17.714   4.297  10.195  1.00  0.00     0.141 C 
BRANCH  12  13
HETATM   13  C8  UNL     1      18.283   3.004  10.570  1.00  0.00    -0.050 A 
HETATM   14  C9  UNL     1      19.668   2.875  10.511  1.00  0.00     0.007 A 
HETATM   15  C10 UNL     1      20.284   1.689  10.833  1.00  0.00     0.001 A 
HETATM   16  C11 UNL     1      19.529   0.607  11.222  1.00  0.00     0.000 A 
HETATM   17  C12 UNL     1      18.148   0.709  11.291  1.00  0.00     0.001 A 
HETATM   18  C13 UNL     1      17.571   1.912  10.960  1.00  0.00     0.007 A 
ENDBRANCH  12  13
ENDBRANCH   9  12
ENDBRANCH   7   8
ENDBRANCH   4   7
BRANCH   1  19
HETATM   19  S1  UNL     1      15.008   1.213  17.499  1.00  0.00     0.256 S 
HETATM   20  O1  UNL     1      13.679   0.636  17.119  1.00  0.00    -0.201 OA
HETATM   21  O2  UNL     1      16.043   0.153  17.460  1.00  0.00    -0.201 OA
BRANCH  19  22
HETATM   22  N1  UNL     1      14.888   1.831  19.107  1.00  0.00    -0.324 N 
ATOM     23  H12 UNL     1      14.122   1.641  19.753  1.00  0.00     0.169 HD
ATOM     24  H11 UNL     1      15.709   2.409  19.289  1.00  0.00     0.169 HD
ENDBRANCH  19  22
ENDBRANCH   1  19
TORSDOF 6
ENDMDL
