MODEL 10
REMARK VINA RESULT: -7.092162981      3.219      5.422
REMARK  6 active torsions:
REMARK  status: ('A' for Active; 'I' for Inactive)
REMARK    1  A    between atoms: N1_1  and  S1_4 
REMARK    2  A    between atoms: S1_4  and  C1_7 
REMARK    3  A    between atoms: C4_10  and  C5_11 
REMARK    4  A    between atoms: C5_11  and  N2_12 
REMARK       I    between atoms: N2_12  and  C6_14 
REMARK    5  A    between atoms: C6_14  and  C7_16 
REMARK    6  A    between atoms: C7_16  and  C8_17 
ROOT
HETATM    1  C1  UNL     1      15.618   2.261  16.288  1.00  0.00     0.079 A 
HETATM    2  C2  UNL     1      16.857   2.065  15.710  1.00  0.00     0.026 A 
HETATM    3  C3  UNL     1      17.358   2.937  14.735  1.00  0.00     0.010 A 
HETATM    4  C4  UNL     1      16.614   4.016  14.332  1.00  0.00    -0.040 A 
HETATM    5  C14 UNL     1      15.373   4.234  14.896  1.00  0.00     0.010 A 
HETATM    6  C15 UNL     1      14.889   3.367  15.857  1.00  0.00     0.026 A 
ENDROOT
BRANCH   4   7
HETATM    7  C5  UNL     1      17.043   4.990  13.275  1.00  0.00     0.161 C 
BRANCH   7   8
HETATM    8  N2  UNL     1      17.597   6.169  13.958  1.00  0.00    -0.357 N 
HETATM    9  C6  UNL     1      18.993   6.393  14.100  1.00  0.00     0.222 C 
HETATM   10  O3  UNL     1      19.754   5.520  13.625  1.00  0.00    -0.273 OA
ATOM     11  H2  UNL     1      16.951   6.856  14.348  1.00  0.00     0.162 HD
BRANCH   9  12
HETATM   12  C7  UNL     1      19.496   7.601  14.775  1.00  0.00     0.141 C 
BRANCH  12  13
HETATM   13  C8  UNL     1      19.377   8.854  14.030  1.00  0.00    -0.050 A 
HETATM   14  C9  UNL     1      19.423  10.038  14.760  1.00  0.00     0.007 A 
HETATM   15  C10 UNL     1      19.305  11.259  14.140  1.00  0.00     0.001 A 
HETATM   16  C11 UNL     1      19.137  11.322  12.777  1.00  0.00     0.000 A 
HETATM   17  C12 UNL     1      19.088  10.158  12.025  1.00  0.00     0.001 A 
HETATM   18  C13 UNL     1      19.210   8.957  12.683  1.00  0.00     0.007 A 
ENDBRANCH  12  13
ENDBRANCH   9  12
ENDBRANCH   7   8
ENDBRANCH   4   7
BRANCH   1  19
HETATM   19  S1  UNL     1      15.000   1.152  17.492  1.00  0.00     0.256 S 
HETATM   20  O1  UNL     1      13.638   0.711  17.049  1.00  0.00    -0.201 OA
HETATM   21  O2  UNL     1      15.886  -0.028  17.634  1.00  0.00    -0.201 OA
BRANCH  19  22
HETATM   22  N1  UNL     1      14.843   1.931  19.026  1.00  0.00    -0.324 N 
ATOM     23  H12 UNL     1      14.832   2.940  19.173  1.00  0.00     0.169 HD
ATOM     24  H11 UNL     1      14.763   1.210  19.743  1.00  0.00     0.169 HD
ENDBRANCH  19  22
ENDBRANCH   1  19
TORSDOF 6
ENDMDL
