MODEL 19
REMARK VINA RESULT: -6.918124372      2.865      4.833
REMARK  6 active torsions:
REMARK  status: ('A' for Active; 'I' for Inactive)
REMARK    1  A    between atoms: N1_1  and  S1_4 
REMARK    2  A    between atoms: S1_4  and  C1_7 
REMARK    3  A    between atoms: C4_10  and  C5_11 
REMARK    4  A    between atoms: C5_11  and  N2_12 
REMARK       I    between atoms: N2_12  and  C6_14 
REMARK    5  A    between atoms: C6_14  and  C7_16 
REMARK    6  A    between atoms: C7_16  and  C8_17 
ROOT
HETATM    1  C1  UNL     1      15.433   2.380  15.967  1.00  0.00     0.079 A 
HETATM    2  C2  UNL     1      14.863   3.628  16.129  1.00  0.00     0.026 A 
HETATM    3  C3  UNL     1      15.055   4.650  15.192  1.00  0.00     0.010 A 
HETATM    4  C4  UNL     1      15.825   4.425  14.079  1.00  0.00    -0.040 A 
HETATM    5  C14 UNL     1      16.404   3.186  13.894  1.00  0.00     0.010 A 
HETATM    6  C15 UNL     1      16.207   2.185  14.825  1.00  0.00     0.026 A 
ENDROOT
BRANCH   4   7
HETATM    7  C5  UNL     1      16.119   5.459  13.033  1.00  0.00     0.161 C 
BRANCH   7   8
HETATM    8  N2  UNL     1      17.400   6.092  13.385  1.00  0.00    -0.357 N 
HETATM    9  C6  UNL     1      18.600   5.861  12.658  1.00  0.00     0.222 C 
HETATM   10  O3  UNL     1      18.529   5.066  11.694  1.00  0.00    -0.273 OA
ATOM     11  H2  UNL     1      17.428   6.724  14.185  1.00  0.00     0.162 HD
BRANCH   9  12
HETATM   12  C7  UNL     1      19.851   6.537  13.039  1.00  0.00     0.141 C 
BRANCH  12  13
HETATM   13  C8  UNL     1      19.733   7.941  13.429  1.00  0.00    -0.050 A 
HETATM   14  C9  UNL     1      19.945   8.252  14.769  1.00  0.00     0.007 A 
HETATM   15  C10 UNL     1      19.841   9.545  15.222  1.00  0.00     0.001 A 
HETATM   16  C11 UNL     1      19.522  10.556  14.346  1.00  0.00     0.000 A 
HETATM   17  C12 UNL     1      19.307  10.275  13.005  1.00  0.00     0.001 A 
HETATM   18  C13 UNL     1      19.421   8.968  12.592  1.00  0.00     0.007 A 
ENDBRANCH  12  13
ENDBRANCH   9  12
ENDBRANCH   7   8
ENDBRANCH   4   7
BRANCH   1  19
HETATM   19  S1  UNL     1      15.196   1.119  17.157  1.00  0.00     0.256 S 
HETATM   20  O1  UNL     1      13.988   0.332  16.753  1.00  0.00    -0.201 OA
HETATM   21  O2  UNL     1      16.376   0.225  17.227  1.00  0.00    -0.201 OA
BRANCH  19  22
HETATM   22  N1  UNL     1      14.903   1.794  18.720  1.00  0.00    -0.324 N 
ATOM     23  H12 UNL     1      14.893   2.791  18.937  1.00  0.00     0.169 HD
ATOM     24  H11 UNL     1      14.745   1.028  19.374  1.00  0.00     0.169 HD
ENDBRANCH  19  22
ENDBRANCH   1  19
TORSDOF 6
ENDMDL
