MODEL 11
REMARK VINA RESULT: -7.077642396      3.878      5.878
REMARK  6 active torsions:
REMARK  status: ('A' for Active; 'I' for Inactive)
REMARK    1  A    between atoms: N1_1  and  S1_4 
REMARK    2  A    between atoms: S1_4  and  C1_7 
REMARK    3  A    between atoms: C4_10  and  C5_11 
REMARK    4  A    between atoms: C5_11  and  N2_12 
REMARK       I    between atoms: N2_12  and  C6_14 
REMARK    5  A    between atoms: C6_14  and  C7_16 
REMARK    6  A    between atoms: C7_16  and  C8_17 
ROOT
HETATM    1  C1  UNL     1      15.656   2.218  16.127  1.00  0.00     0.079 A 
HETATM    2  C2  UNL     1      14.904   3.340  15.836  1.00  0.00     0.026 A 
HETATM    3  C3  UNL     1      15.426   4.401  15.087  1.00  0.00     0.010 A 
HETATM    4  C4  UNL     1      16.714   4.343  14.622  1.00  0.00    -0.040 A 
HETATM    5  C14 UNL     1      17.487   3.233  14.898  1.00  0.00     0.010 A 
HETATM    6  C15 UNL     1      16.960   2.192  15.638  1.00  0.00     0.026 A 
ENDROOT
BRANCH   4   7
HETATM    7  C5  UNL     1      17.380   5.437  13.839  1.00  0.00     0.161 C 
BRANCH   7   8
HETATM    8  N2  UNL     1      17.888   6.425  14.804  1.00  0.00    -0.357 N 
HETATM    9  C6  UNL     1      18.991   7.277  14.526  1.00  0.00     0.222 C 
HETATM   10  O3  UNL     1      19.538   7.142  13.408  1.00  0.00    -0.273 OA
ATOM     11  H2  UNL     1      17.429   6.501  15.712  1.00  0.00     0.162 HD
BRANCH   9  12
HETATM   12  C7  UNL     1      19.446   8.264  15.518  1.00  0.00     0.141 C 
BRANCH  12  13
HETATM   13  C8  UNL     1      20.055   9.482  14.986  1.00  0.00    -0.050 A 
HETATM   14  C9  UNL     1      19.211  10.402  14.370  1.00  0.00     0.007 A 
HETATM   15  C10 UNL     1      19.703  11.566  13.831  1.00  0.00     0.001 A 
HETATM   16  C11 UNL     1      21.050  11.836  13.895  1.00  0.00     0.000 A 
HETATM   17  C12 UNL     1      21.914  10.938  14.503  1.00  0.00     0.001 A 
HETATM   18  C13 UNL     1      21.381   9.784  15.030  1.00  0.00     0.007 A 
ENDBRANCH  12  13
ENDBRANCH   9  12
ENDBRANCH   7   8
ENDBRANCH   4   7
BRANCH   1  19
HETATM   19  S1  UNL     1      14.993   0.909  17.080  1.00  0.00     0.256 S 
HETATM   20  O1  UNL     1      13.522   0.845  16.802  1.00  0.00    -0.201 OA
HETATM   21  O2  UNL     1      15.626  -0.382  16.724  1.00  0.00    -0.201 OA
BRANCH  19  22
HETATM   22  N1  UNL     1      15.211   1.203  18.768  1.00  0.00    -0.324 N 
ATOM     23  H12 UNL     1      14.587   1.758  19.353  1.00  0.00     0.169 HD
ATOM     24  H11 UNL     1      16.063   0.728  19.066  1.00  0.00     0.169 HD
ENDBRANCH  19  22
ENDBRANCH   1  19
TORSDOF 6
ENDMDL
