MODEL 4
REMARK VINA RESULT: -7.408196132      4.020      6.110
REMARK  6 active torsions:
REMARK  status: ('A' for Active; 'I' for Inactive)
REMARK    1  A    between atoms: N1_1  and  S1_4 
REMARK    2  A    between atoms: S1_4  and  C1_7 
REMARK    3  A    between atoms: C4_10  and  C5_11 
REMARK    4  A    between atoms: C5_11  and  N2_12 
REMARK       I    between atoms: N2_12  and  C6_14 
REMARK    5  A    between atoms: C6_14  and  C7_16 
REMARK    6  A    between atoms: C7_16  and  C8_17 
ROOT
HETATM    1  C1  UNL     1      15.852   2.253  16.074  1.00  0.00     0.079 A 
HETATM    2  C2  UNL     1      15.086   3.386  15.882  1.00  0.00     0.026 A 
HETATM    3  C3  UNL     1      15.564   4.481  15.153  1.00  0.00     0.010 A 
HETATM    4  C4  UNL     1      16.821   4.446  14.608  1.00  0.00    -0.040 A 
HETATM    5  C14 UNL     1      17.607   3.325  14.785  1.00  0.00     0.010 A 
HETATM    6  C15 UNL     1      17.124   2.250  15.507  1.00  0.00     0.026 A 
ENDROOT
BRANCH   4   7
HETATM    7  C5  UNL     1      17.440   5.575  13.838  1.00  0.00     0.161 C 
BRANCH   7   8
HETATM    8  N2  UNL     1      17.964   6.543  14.815  1.00  0.00    -0.357 N 
HETATM    9  C6  UNL     1      19.162   7.277  14.608  1.00  0.00     0.222 C 
HETATM   10  O3  UNL     1      19.782   7.053  13.543  1.00  0.00    -0.273 OA
ATOM     11  H2  UNL     1      17.443   6.693  15.680  1.00  0.00     0.162 HD
BRANCH   9  12
HETATM   12  C7  UNL     1      19.631   8.250  15.608  1.00  0.00     0.141 C 
BRANCH  12  13
HETATM   13  C8  UNL     1      20.072   9.545  15.094  1.00  0.00    -0.050 A 
HETATM   14  C9  UNL     1      21.378   9.934  15.377  1.00  0.00     0.007 A 
HETATM   15  C10 UNL     1      21.868  11.142  14.943  1.00  0.00     0.001 A 
HETATM   16  C11 UNL     1      21.064  11.988  14.216  1.00  0.00     0.000 A 
HETATM   17  C12 UNL     1      19.759  11.625  13.919  1.00  0.00     0.001 A 
HETATM   18  C13 UNL     1      19.306  10.408  14.372  1.00  0.00     0.007 A 
ENDBRANCH  12  13
ENDBRANCH   9  12
ENDBRANCH   7   8
ENDBRANCH   4   7
BRANCH   1  19
HETATM   19  S1  UNL     1      15.245   0.900  17.004  1.00  0.00     0.256 S 
HETATM   20  O1  UNL     1      15.719  -0.356  16.341  1.00  0.00    -0.201 OA
HETATM   21  O2  UNL     1      15.741   0.948  18.399  1.00  0.00    -0.201 OA
BRANCH  19  22
HETATM   22  N1  UNL     1      13.518   0.886  17.015  1.00  0.00    -0.324 N 
ATOM     23  H12 UNL     1      12.930   0.390  16.345  1.00  0.00     0.169 HD
ATOM     24  H11 UNL     1      13.199   1.452  17.801  1.00  0.00     0.169 HD
ENDBRANCH  19  22
ENDBRANCH   1  19
TORSDOF 6
ENDMDL
