MODEL 4
REMARK VINA RESULT: -11.239230144      0.923      1.025
REMARK  1 active torsions:
REMARK  status: ('A' for Active; 'I' for Inactive)
REMARK    1  A    between atoms: C7_10  and  C8_11 
ROOT
HETATM    1  C1  UNL     1       5.804 -12.050 -13.270  1.00  0.00     0.049 C 
HETATM    2  C2  UNL     1       4.332 -11.993 -13.071  1.00  0.00    -0.044 A 
HETATM    3  C3  UNL     1       3.464 -12.116 -14.148  1.00  0.00     0.082 A 
HETATM    4  C4  UNL     1       2.105 -12.052 -13.878  1.00  0.00     0.246 A 
HETATM    5  O1  UNL     1       1.297 -12.159 -14.832  1.00  0.00    -0.268 OA
HETATM    6  N1  UNL     1       1.676 -11.876 -12.617  1.00  0.00    -0.323 N 
ATOM      7  H1  UNL     1       0.671 -11.832 -12.449  1.00  0.00     0.169 HD
HETATM    8  C5  UNL     1       2.507 -11.756 -11.568  1.00  0.00     0.046 A 
HETATM    9  C6  UNL     1       2.072 -11.577 -10.282  1.00  0.00     0.042 A 
HETATM   10  C7  UNL     1       2.906 -11.451  -9.191  1.00  0.00    -0.021 A 
HETATM   11  C14 UNL     1       4.283 -11.511  -9.429  1.00  0.00     0.013 A 
HETATM   12  C15 UNL     1       4.761 -11.691 -10.715  1.00  0.00     0.015 A 
HETATM   13  C16 UNL     1       3.885 -11.813 -11.776  1.00  0.00    -0.003 A 
ENDROOT
BRANCH  10  14
HETATM   14  C8  UNL     1       2.385 -11.262  -7.839  1.00  0.00     0.013 A 
HETATM   15  C9  UNL     1       2.437 -10.041  -7.197  1.00  0.00     0.015 A 
HETATM   16  C10 UNL     1       1.939  -9.880  -5.913  1.00  0.00     0.001 A 
HETATM   17  C11 UNL     1       1.372 -10.937  -5.232  1.00  0.00     0.003 A 
HETATM   18  C12 UNL     1       1.317 -12.161  -5.863  1.00  0.00     0.043 A 
HETATM   19  C13 UNL     1       1.816 -12.309  -7.144  1.00  0.00     0.127 A 
HETATM   20  F1  UNL     1       1.761 -13.513  -7.765  1.00  0.00    -0.205 F 
ENDBRANCH  10  14
TORSDOF 1
ENDMDL
