MODEL 5
REMARK VINA RESULT: -11.139158123      2.852      6.305
REMARK  1 active torsions:
REMARK  status: ('A' for Active; 'I' for Inactive)
REMARK    1  A    between atoms: C7_10  and  C8_11 
ROOT
HETATM    1  C1  UNL     1       3.961 -10.702  -6.417  1.00  0.00     0.049 C 
HETATM    2  C2  UNL     1       2.789 -10.580  -7.324  1.00  0.00    -0.044 A 
HETATM    3  C3  UNL     1       1.558 -10.153  -6.842  1.00  0.00     0.082 A 
HETATM    4  C4  UNL     1       0.517 -10.065  -7.753  1.00  0.00     0.246 A 
HETATM    5  O1  UNL     1      -0.607  -9.683  -7.346  1.00  0.00    -0.268 OA
HETATM    6  N1  UNL     1       0.718 -10.387  -9.041  1.00  0.00    -0.323 N 
ATOM      7  H1  UNL     1      -0.067 -10.314  -9.688  1.00  0.00     0.169 HD
HETATM    8  C5  UNL     1       1.904 -10.802  -9.519  1.00  0.00     0.046 A 
HETATM    9  C6  UNL     1       2.112 -11.130 -10.831  1.00  0.00     0.042 A 
HETATM   10  C7  UNL     1       3.320 -11.557 -11.342  1.00  0.00    -0.021 A 
HETATM   11  C14 UNL     1       4.392 -11.657 -10.450  1.00  0.00     0.013 A 
HETATM   12  C15 UNL     1       4.221 -11.333  -9.116  1.00  0.00     0.015 A 
HETATM   13  C16 UNL     1       2.991 -10.910  -8.651  1.00  0.00    -0.003 A 
ENDROOT
BRANCH  10  14
HETATM   14  C8  UNL     1       3.484 -11.895 -12.755  1.00  0.00     0.013 A 
HETATM   15  C9  UNL     1       2.406 -12.055 -13.601  1.00  0.00     0.015 A 
HETATM   16  C10 UNL     1       2.582 -12.377 -14.938  1.00  0.00     0.001 A 
HETATM   17  C11 UNL     1       3.843 -12.548 -15.470  1.00  0.00     0.003 A 
HETATM   18  C12 UNL     1       4.926 -12.391 -14.633  1.00  0.00     0.043 A 
HETATM   19  C13 UNL     1       4.739 -12.070 -13.301  1.00  0.00     0.127 A 
HETATM   20  F1  UNL     1       5.806 -11.916 -12.478  1.00  0.00    -0.205 F 
ENDBRANCH  10  14
TORSDOF 1
ENDMDL
