MODEL 9
REMARK VINA RESULT: -9.248469925      3.237      6.680
REMARK  1 active torsions:
REMARK  status: ('A' for Active; 'I' for Inactive)
REMARK    1  A    between atoms: C7_10  and  C8_11 
ROOT
HETATM    1  C1  UNL     1       2.083  -9.499  -5.728  1.00  0.00     0.049 C 
HETATM    2  C2  UNL     1       1.975 -10.885  -6.253  1.00  0.00    -0.044 A 
HETATM    3  C3  UNL     1       1.659 -11.943  -5.409  1.00  0.00     0.082 A 
HETATM    4  C4  UNL     1       1.577 -13.205  -5.978  1.00  0.00     0.246 A 
HETATM    5  O1  UNL     1       1.294 -14.179  -5.240  1.00  0.00    -0.268 OA
HETATM    6  N1  UNL     1       1.800 -13.367  -7.292  1.00  0.00    -0.323 N 
ATOM      7  H1  UNL     1       1.733 -14.308  -7.683  1.00  0.00     0.169 HD
HETATM    8  C5  UNL     1       2.106 -12.352  -8.118  1.00  0.00     0.046 A 
HETATM    9  C6  UNL     1       2.333 -12.516  -9.458  1.00  0.00     0.042 A 
HETATM   10  C7  UNL     1       2.649 -11.489 -10.323  1.00  0.00    -0.021 A 
HETATM   11  C14 UNL     1       2.739 -10.203  -9.781  1.00  0.00     0.013 A 
HETATM   12  C15 UNL     1       2.516  -9.998  -8.431  1.00  0.00     0.015 A 
HETATM   13  C16 UNL     1       2.203 -11.059  -7.605  1.00  0.00    -0.003 A 
ENDROOT
BRANCH  10  14
HETATM   14  C8  UNL     1       2.881 -11.722 -11.747  1.00  0.00     0.013 A 
HETATM   15  C9  UNL     1       1.846 -11.794 -12.657  1.00  0.00     0.015 A 
HETATM   16  C10 UNL     1       2.086 -12.017 -14.004  1.00  0.00     0.001 A 
HETATM   17  C11 UNL     1       3.371 -12.175 -14.482  1.00  0.00     0.003 A 
HETATM   18  C12 UNL     1       4.411 -12.106 -13.582  1.00  0.00     0.043 A 
HETATM   19  C13 UNL     1       4.160 -11.883 -12.240  1.00  0.00     0.127 A 
HETATM   20  F1  UNL     1       5.184 -11.814 -11.354  1.00  0.00    -0.205 F 
ENDBRANCH  10  14
TORSDOF 1
ENDMDL
