MODEL 2
REMARK VINA RESULT: -11.962457228      1.055      1.505
REMARK  1 active torsions:
REMARK  status: ('A' for Active; 'I' for Inactive)
REMARK    1  A    between atoms: C7_10  and  C8_11 
ROOT
HETATM    1  C1  UNL     1       6.243 -12.241 -14.103  1.00  0.00     0.049 C 
HETATM    2  C2  UNL     1       4.771 -12.048 -14.028  1.00  0.00    -0.044 A 
HETATM    3  C3  UNL     1       3.997 -12.024 -15.182  1.00  0.00     0.082 A 
HETATM    4  C4  UNL     1       2.632 -11.840 -15.025  1.00  0.00     0.246 A 
HETATM    5  O1  UNL     1       1.908 -11.813 -16.050  1.00  0.00    -0.268 OA
HETATM    6  N1  UNL     1       2.108 -11.693 -13.797  1.00  0.00    -0.323 N 
ATOM      7  H1  UNL     1       1.100 -11.559 -13.713  1.00  0.00     0.169 HD
HETATM    8  C5  UNL     1       2.846 -11.715 -12.675  1.00  0.00     0.046 A 
HETATM    9  C6  UNL     1       2.313 -11.566 -11.423  1.00  0.00     0.042 A 
HETATM   10  C7  UNL     1       3.052 -11.586 -10.258  1.00  0.00    -0.021 A 
HETATM   11  C14 UNL     1       4.433 -11.769 -10.381  1.00  0.00     0.013 A 
HETATM   12  C15 UNL     1       5.008 -11.924 -11.629  1.00  0.00     0.015 A 
HETATM   13  C16 UNL     1       4.226 -11.897 -12.767  1.00  0.00    -0.003 A 
ENDROOT
BRANCH  10  14
HETATM   14  C8  UNL     1       2.430 -11.421  -8.946  1.00  0.00     0.013 A 
HETATM   15  C9  UNL     1       1.524 -12.334  -8.445  1.00  0.00     0.015 A 
HETATM   16  C10 UNL     1       0.943 -12.161  -7.198  1.00  0.00     0.001 A 
HETATM   17  C11 UNL     1       1.252 -11.069  -6.413  1.00  0.00     0.003 A 
HETATM   18  C12 UNL     1       2.154 -10.152  -6.905  1.00  0.00     0.043 A 
HETATM   19  C13 UNL     1       2.728 -10.334  -8.150  1.00  0.00     0.127 A 
HETATM   20  F1  UNL     1       3.617  -9.432  -8.633  1.00  0.00    -0.205 F 
ENDBRANCH  10  14
TORSDOF 1
ENDMDL
