MODEL 1
REMARK VINA RESULT: -12.181173766      0.000      0.000
REMARK  1 active torsions:
REMARK  status: ('A' for Active; 'I' for Inactive)
REMARK    1  A    between atoms: C7_10  and  C8_11 
ROOT
HETATM    1  C1  UNL     1       6.039 -12.311 -14.145  1.00  0.00     0.049 C 
HETATM    2  C2  UNL     1       4.584 -12.064 -13.962  1.00  0.00    -0.044 A 
HETATM    3  C3  UNL     1       3.725 -12.036 -15.054  1.00  0.00     0.082 A 
HETATM    4  C4  UNL     1       2.383 -11.801 -14.798  1.00  0.00     0.246 A 
HETATM    5  O1  UNL     1       1.584 -11.769 -15.765  1.00  0.00    -0.268 OA
HETATM    6  N1  UNL     1       1.960 -11.610 -13.538  1.00  0.00    -0.323 N 
ATOM      7  H1  UNL     1       0.967 -11.439 -13.380  1.00  0.00     0.169 HD
HETATM    8  C5  UNL     1       2.781 -11.635 -12.474  1.00  0.00     0.046 A 
HETATM    9  C6  UNL     1       2.352 -11.441 -11.189  1.00  0.00     0.042 A 
HETATM   10  C7  UNL     1       3.177 -11.463 -10.084  1.00  0.00    -0.021 A 
HETATM   11  C14 UNL     1       4.538 -11.698 -10.307  1.00  0.00     0.013 A 
HETATM   12  C15 UNL     1       5.009 -11.898 -11.592  1.00  0.00     0.015 A 
HETATM   13  C16 UNL     1       4.143 -11.868 -12.667  1.00  0.00    -0.003 A 
ENDROOT
BRANCH  10  14
HETATM   14  C8  UNL     1       2.663 -11.249  -8.732  1.00  0.00     0.013 A 
HETATM   15  C9  UNL     1       3.178 -10.278  -7.897  1.00  0.00     0.015 A 
HETATM   16  C10 UNL     1       2.678 -10.091  -6.618  1.00  0.00     0.001 A 
HETATM   17  C11 UNL     1       1.647 -10.870  -6.134  1.00  0.00     0.003 A 
HETATM   18  C12 UNL     1       1.128 -11.843  -6.960  1.00  0.00     0.043 A 
HETATM   19  C13 UNL     1       1.633 -12.021  -8.235  1.00  0.00     0.127 A 
HETATM   20  F1  UNL     1       1.121 -12.978  -9.047  1.00  0.00    -0.205 F 
ENDBRANCH  10  14
TORSDOF 1
ENDMDL
