MODEL 7
REMARK VINA RESULT: -9.878677044      3.268      6.673
REMARK  1 active torsions:
REMARK  status: ('A' for Active; 'I' for Inactive)
REMARK    1  A    between atoms: C7_10  and  C8_11 
ROOT
HETATM    1  C1  UNL     1       0.139 -10.164  -7.237  1.00  0.00     0.049 C 
HETATM    2  C2  UNL     1       1.604 -10.419  -7.236  1.00  0.00    -0.044 A 
HETATM    3  C3  UNL     1       2.341 -10.325  -6.062  1.00  0.00     0.082 A 
HETATM    4  C4  UNL     1       3.702 -10.578  -6.147  1.00  0.00     0.246 A 
HETATM    5  O1  UNL     1       4.393 -10.501  -5.102  1.00  0.00    -0.268 OA
HETATM    6  N1  UNL     1       4.256 -10.896  -7.327  1.00  0.00    -0.323 N 
ATOM      7  H1  UNL     1       5.260 -11.077  -7.358  1.00  0.00     0.169 HD
HETATM    8  C5  UNL     1       3.554 -10.990  -8.469  1.00  0.00     0.046 A 
HETATM    9  C6  UNL     1       4.118 -11.314  -9.673  1.00  0.00     0.042 A 
HETATM   10  C7  UNL     1       3.416 -11.416 -10.856  1.00  0.00    -0.021 A 
HETATM   11  C14 UNL     1       2.040 -11.166 -10.806  1.00  0.00     0.013 A 
HETATM   12  C15 UNL     1       1.435 -10.836  -9.607  1.00  0.00     0.015 A 
HETATM   13  C16 UNL     1       2.181 -10.747  -8.448  1.00  0.00    -0.003 A 
ENDROOT
BRANCH  10  14
HETATM   14  C8  UNL     1       4.070 -11.766 -12.115  1.00  0.00     0.013 A 
HETATM   15  C9  UNL     1       5.443 -11.858 -12.227  1.00  0.00     0.015 A 
HETATM   16  C10 UNL     1       6.046 -12.191 -13.430  1.00  0.00     0.001 A 
HETATM   17  C11 UNL     1       5.294 -12.443 -14.559  1.00  0.00     0.003 A 
HETATM   18  C12 UNL     1       3.923 -12.353 -14.458  1.00  0.00     0.043 A 
HETATM   19  C13 UNL     1       3.331 -12.021 -13.252  1.00  0.00     0.127 A 
HETATM   20  F1  UNL     1       1.982 -11.933 -13.153  1.00  0.00    -0.205 F 
ENDBRANCH  10  14
TORSDOF 1
ENDMDL
