MODEL 1
REMARK VINA RESULT: -7.358444054      0.000      0.000
REMARK  5 active torsions:
REMARK  status: ('A' for Active; 'I' for Inactive)
REMARK    1  A    between atoms: C1_2  and  C2_4 
REMARK    2  A    between atoms: C2_4  and  O3_5 
REMARK    3  A    between atoms: C4_8  and  O4_9 
REMARK    4  A    between atoms: C5_11  and  O5_12 
REMARK    5  A    between atoms: C6_14  and  O6_15 
ROOT
HETATM    1  C2  UNL     1       2.573   0.157   0.517  1.00  0.00     0.150 C 
HETATM    2  C3  UNL     1       3.247  -0.911   1.278  1.00  0.00     0.083 C 
HETATM    3  C4  UNL     1       2.823  -1.137   2.669  1.00  0.00     0.152 C 
HETATM    4  C5  UNL     1       1.419  -0.749   2.994  1.00  0.00     0.175 C 
HETATM    5  C6  UNL     1       1.243   0.680   2.474  1.00  0.00     0.152 C 
HETATM    6  C7  UNL     1       1.214   0.545   0.979  1.00  0.00     0.083 C 
ENDROOT
BRANCH   1   7
HETATM    7  C1  UNL     1       2.463  -0.277  -0.910  1.00  0.00     0.209 C 
HETATM    8  O1  UNL     1       2.085   0.578  -1.748  1.00  0.00    -0.646 OA
HETATM    9  O2  UNL     1       2.747  -1.540  -1.350  1.00  0.00    -0.646 OA
ENDBRANCH   1   7
BRANCH   1  10
HETATM   10  O3  UNL     1       3.360   1.333   0.496  1.00  0.00    -0.379 OA
ATOM     11  H3  UNL     1       3.185   1.771   1.321  1.00  0.00     0.211 HD
ENDBRANCH   1  10
BRANCH   3  12
HETATM   12  O4  UNL     1       3.660  -0.465   3.589  1.00  0.00    -0.393 OA
ATOM     13  H4  UNL     1       3.291  -0.463   4.464  1.00  0.00     0.210 HD
ENDBRANCH   3  12
BRANCH   5  14
HETATM   14  O6  UNL     1       0.166   1.315   3.015  1.00  0.00    -0.393 OA
ATOM     15  H6  UNL     1       0.072   2.210   2.712  1.00  0.00     0.210 HD
ENDBRANCH   5  14
BRANCH   4  16
HETATM   16  O5  UNL     1       1.160  -0.855   4.333  1.00  0.00    -0.390 OA
ATOM     17  H5  UNL     1       0.227  -0.885   4.510  1.00  0.00     0.210 HD
ENDBRANCH   4  16
TORSDOF 5
ENDMDL
