MODEL 4
REMARK VINA RESULT: -6.601487667      1.477      2.352
REMARK  5 active torsions:
REMARK  status: ('A' for Active; 'I' for Inactive)
REMARK    1  A    between atoms: C1_2  and  C2_4 
REMARK    2  A    between atoms: C2_4  and  O3_5 
REMARK    3  A    between atoms: C4_8  and  O4_9 
REMARK    4  A    between atoms: C5_11  and  O5_12 
REMARK    5  A    between atoms: C6_14  and  O6_15 
ROOT
HETATM    1  C2  UNL     1       2.356  -0.472   0.750  1.00  0.00     0.150 C 
HETATM    2  C3  UNL     1       1.152  -1.144   1.272  1.00  0.00     0.083 C 
HETATM    3  C4  UNL     1       1.145  -1.545   2.688  1.00  0.00     0.152 C 
HETATM    4  C5  UNL     1       2.015  -0.741   3.596  1.00  0.00     0.175 C 
HETATM    5  C6  UNL     1       3.392  -0.691   2.929  1.00  0.00     0.152 C 
HETATM    6  C7  UNL     1       3.216   0.218   1.748  1.00  0.00     0.083 C 
ENDROOT
BRANCH   1   7
HETATM    7  C1  UNL     1       1.930   0.541  -0.264  1.00  0.00     0.209 C 
HETATM    8  O1  UNL     1       1.311   1.550   0.150  1.00  0.00    -0.646 OA
HETATM    9  O2  UNL     1       2.175   0.432  -1.606  1.00  0.00    -0.646 OA
ENDBRANCH   1   7
BRANCH   1  10
HETATM   10  O3  UNL     1       3.178  -1.387   0.051  1.00  0.00    -0.379 OA
ATOM     11  H3  UNL     1       3.777  -1.738   0.699  1.00  0.00     0.211 HD
ENDBRANCH   1  10
BRANCH   3  12
HETATM   12  O4  UNL     1       1.517  -2.898   2.851  1.00  0.00    -0.393 OA
ATOM     13  H4  UNL     1       2.332  -2.984   3.331  1.00  0.00     0.210 HD
ENDBRANCH   3  12
BRANCH   5  14
HETATM   14  O6  UNL     1       4.387  -0.330   3.788  1.00  0.00    -0.393 OA
ATOM     15  H6  UNL     1       4.483   0.611   3.871  1.00  0.00     0.210 HD
ENDBRANCH   5  14
BRANCH   4  16
HETATM   16  O5  UNL     1       2.062  -1.273   4.856  1.00  0.00    -0.390 OA
ATOM     17  H5  UNL     1       2.481  -2.125   4.863  1.00  0.00     0.210 HD
ENDBRANCH   4  16
TORSDOF 5
ENDMDL
