MODEL 3
REMARK VINA RESULT: -6.815032803      1.352      1.933
REMARK  5 active torsions:
REMARK  status: ('A' for Active; 'I' for Inactive)
REMARK    1  A    between atoms: C1_2  and  C2_4 
REMARK    2  A    between atoms: C2_4  and  O3_5 
REMARK    3  A    between atoms: C4_8  and  O4_9 
REMARK    4  A    between atoms: C5_11  and  O5_12 
REMARK    5  A    between atoms: C6_14  and  O6_15 
ROOT
HETATM    1  C2  UNL     1       2.204   0.105   0.198  1.00  0.00     0.150 C 
HETATM    2  C3  UNL     1       3.504   0.590   0.696  1.00  0.00     0.083 C 
HETATM    3  C4  UNL     1       3.857   0.302   2.096  1.00  0.00     0.152 C 
HETATM    4  C5  UNL     1       3.228  -0.915   2.688  1.00  0.00     0.175 C 
HETATM    5  C6  UNL     1       1.729  -0.803   2.394  1.00  0.00     0.152 C 
HETATM    6  C7  UNL     1       1.607  -1.051   0.918  1.00  0.00     0.083 C 
ENDROOT
BRANCH   1   7
HETATM    7  C1  UNL     1       2.363  -0.284  -1.237  1.00  0.00     0.209 C 
HETATM    8  O1  UNL     1       2.599  -1.490  -1.488  1.00  0.00    -0.646 OA
HETATM    9  O2  UNL     1       2.269   0.593  -2.283  1.00  0.00    -0.646 OA
ENDBRANCH   1   7
BRANCH   1  10
HETATM   10  O3  UNL     1       1.244   1.144   0.205  1.00  0.00    -0.379 OA
ATOM     11  H3  UNL     1       1.011   1.270   1.118  1.00  0.00     0.211 HD
ENDBRANCH   1  10
BRANCH   3  12
HETATM   12  O4  UNL     1       3.546   1.384   2.949  1.00  0.00    -0.393 OA
ATOM     13  H4  UNL     1       4.329   1.815   3.271  1.00  0.00     0.210 HD
ENDBRANCH   3  12
BRANCH   5  14
HETATM   14  O6  UNL     1       0.970  -1.619   3.177  1.00  0.00    -0.393 OA
ATOM     15  H6  UNL     1       0.038  -1.471   3.075  1.00  0.00     0.210 HD
ENDBRANCH   5  14
BRANCH   4  16
HETATM   16  O5  UNL     1       3.492  -1.023   4.026  1.00  0.00    -0.390 OA
ATOM     17  H5  UNL     1       3.362  -0.198   4.478  1.00  0.00     0.210 HD
ENDBRANCH   4  16
TORSDOF 5
ENDMDL
