MODEL 9
REMARK VINA RESULT: -6.074501376      1.470      2.212
REMARK  5 active torsions:
REMARK  status: ('A' for Active; 'I' for Inactive)
REMARK    1  A    between atoms: C1_2  and  C2_4 
REMARK    2  A    between atoms: C2_4  and  O3_5 
REMARK    3  A    between atoms: C4_8  and  O4_9 
REMARK    4  A    between atoms: C5_11  and  O5_12 
REMARK    5  A    between atoms: C6_14  and  O6_15 
ROOT
HETATM    1  C2  UNL     1       1.943  -0.419   0.271  1.00  0.00     0.150 C 
HETATM    2  C3  UNL     1       2.701   0.640   0.961  1.00  0.00     0.083 C 
HETATM    3  C4  UNL     1       3.098   0.406   2.359  1.00  0.00     0.152 C 
HETATM    4  C5  UNL     1       3.263  -1.024   2.757  1.00  0.00     0.175 C 
HETATM    5  C6  UNL     1       1.989  -1.741   2.302  1.00  0.00     0.152 C 
HETATM    6  C7  UNL     1       2.094  -1.798   0.805  1.00  0.00     0.083 C 
ENDROOT
BRANCH   1   7
HETATM    7  C1  UNL     1       2.357  -0.437  -1.166  1.00  0.00     0.209 C 
HETATM    8  O1  UNL     1       2.257   0.635  -1.811  1.00  0.00    -0.646 OA
HETATM    9  O2  UNL     1       2.834  -1.545  -1.811  1.00  0.00    -0.646 OA
ENDBRANCH   1   7
BRANCH   1  10
HETATM   10  O3  UNL     1       0.560  -0.122   0.264  1.00  0.00    -0.379 OA
ATOM     11  H3  UNL     1       0.119  -0.963   0.219  1.00  0.00     0.211 HD
ENDBRANCH   1  10
BRANCH   3  12
HETATM   12  O4  UNL     1       2.183   0.984   3.268  1.00  0.00    -0.393 OA
ATOM     13  H4  UNL     1       1.324   0.583   3.206  1.00  0.00     0.210 HD
ENDBRANCH   3  12
BRANCH   5  14
HETATM   14  O6  UNL     1       1.809  -2.946   2.911  1.00  0.00    -0.393 OA
ATOM     15  H6  UNL     1       1.177  -3.497   2.466  1.00  0.00     0.210 HD
ENDBRANCH   5  14
BRANCH   4  16
HETATM   16  O5  UNL     1       3.485  -1.154   4.101  1.00  0.00    -0.390 OA
ATOM     17  H5  UNL     1       4.201  -0.603   4.394  1.00  0.00     0.210 HD
ENDBRANCH   4  16
TORSDOF 5
ENDMDL
