MODEL 2
REMARK VINA RESULT: -6.960025245      1.117      1.225
REMARK  5 active torsions:
REMARK  status: ('A' for Active; 'I' for Inactive)
REMARK    1  A    between atoms: C1_2  and  C2_4 
REMARK    2  A    between atoms: C2_4  and  O3_5 
REMARK    3  A    between atoms: C4_8  and  O4_9 
REMARK    4  A    between atoms: C5_11  and  O5_12 
REMARK    5  A    between atoms: C6_14  and  O6_15 
ROOT
HETATM    1  C2  UNL     1       2.262   0.261   0.303  1.00  0.00     0.150 C 
HETATM    2  C3  UNL     1       3.599   0.312   0.923  1.00  0.00     0.083 C 
HETATM    3  C4  UNL     1       3.692   0.117   2.379  1.00  0.00     0.152 C 
HETATM    4  C5  UNL     1       2.603  -0.695   2.997  1.00  0.00     0.175 C 
HETATM    5  C6  UNL     1       1.288  -0.096   2.493  1.00  0.00     0.152 C 
HETATM    6  C7  UNL     1       1.215  -0.489   1.046  1.00  0.00     0.083 C 
ENDROOT
BRANCH   1   7
HETATM    7  C1  UNL     1       2.393  -0.358  -1.052  1.00  0.00     0.209 C 
HETATM    8  O1  UNL     1       2.175   0.375  -2.047  1.00  0.00    -0.646 OA
HETATM    9  O2  UNL     1       2.733  -1.665  -1.267  1.00  0.00    -0.646 OA
ENDBRANCH   1   7
BRANCH   1  10
HETATM   10  O3  UNL     1       1.763   1.565   0.078  1.00  0.00    -0.379 OA
ATOM     11  H3  UNL     1       1.332   1.531  -0.769  1.00  0.00     0.211 HD
ENDBRANCH   1  10
BRANCH   3  12
HETATM   12  O4  UNL     1       3.732   1.348   3.071  1.00  0.00    -0.393 OA
ATOM     13  H4  UNL     1       2.935   1.849   2.945  1.00  0.00     0.210 HD
ENDBRANCH   3  12
BRANCH   5  14
HETATM   14  O6  UNL     1       0.212  -0.465   3.243  1.00  0.00    -0.393 OA
ATOM     15  H6  UNL     1      -0.261  -1.202   2.876  1.00  0.00     0.210 HD
ENDBRANCH   5  14
BRANCH   4  16
HETATM   16  O5  UNL     1       2.687  -0.700   4.363  1.00  0.00    -0.390 OA
ATOM     17  H5  UNL     1       1.844  -0.870   4.766  1.00  0.00     0.210 HD
ENDBRANCH   4  16
TORSDOF 5
ENDMDL
