MODEL 5
REMARK VINA RESULT: -8.127871766      1.046      1.609
REMARK  3 active torsions:
REMARK  status: ('A' for Active; 'I' for Inactive)
REMARK    1  A    between atoms: C2_2  and  O1_3 
REMARK    2  A    between atoms: C2_2  and  C3_5 
REMARK    3  A    between atoms: N4_19  and  C11_20 
ROOT
HETATM    1  C11 UNL     1     -14.603 -10.295 -11.128  1.00  0.00     0.091 C 
HETATM    2  C12 UNL     1     -15.117 -11.056  -9.939  1.00  0.00     0.027 C 
HETATM    3  C13 UNL     1     -14.763 -12.490  -9.856  1.00  0.00     0.021 C 
HETATM    4  C14 UNL     1     -13.341 -12.617 -10.358  1.00  0.00     0.093 C 
HETATM    5  C15 UNL     1     -12.440 -11.664  -9.761  1.00  0.00     0.064 C 
HETATM    6  N5  UNL     1     -11.702 -10.913  -9.271  1.00  0.00    -0.197 NA
HETATM    7  C16 UNL     1     -13.435 -12.412 -11.851  1.00  0.00     0.021 C 
HETATM    8  C17 UNL     1     -14.020 -11.110 -12.240  1.00  0.00     0.027 C 
ENDROOT
BRANCH   1   9
HETATM    9  N4  UNL     1     -15.613  -9.368 -11.535  1.00  0.00    -0.327 N 
HETATM   10  C3  UNL     1     -16.846  -9.777 -11.978  1.00  0.00     0.114 A 
HETATM   11  N1  UNL     1     -17.595  -8.698 -12.308  1.00  0.00    -0.341 N 
HETATM   12  C4  UNL     1     -16.864  -7.606 -12.083  1.00  0.00     0.077 A 
ATOM     13  H1  UNL     1     -18.550  -8.718 -12.665  1.00  0.00     0.167 HD
HETATM   14  C5  UNL     1     -17.183  -6.296 -12.261  1.00  0.00     0.121 A 
HETATM   15  C10 UNL     1     -15.653  -8.018 -11.610  1.00  0.00     0.078 A 
HETATM   16  N2  UNL     1     -16.280  -5.370 -11.964  1.00  0.00    -0.349 N 
HETATM   17  C6  UNL     1     -15.078  -5.747 -11.496  1.00  0.00     0.117 A 
ATOM     18  H2  UNL     1     -16.497  -4.381 -12.089  1.00  0.00     0.167 HD
HETATM   19  N3  UNL     1     -13.996  -4.992 -11.123  1.00  0.00    -0.352 N 
HETATM   20  C9  UNL     1     -14.681  -7.061 -11.288  1.00  0.00     0.038 A 
HETATM   21  C7  UNL     1     -12.999  -5.771 -10.714  1.00  0.00     0.090 A 
ATOM     22  H3  UNL     1     -13.960  -3.973 -11.155  1.00  0.00     0.166 HD
HETATM   23  C8  UNL     1     -13.402  -7.109 -10.806  1.00  0.00     0.034 A 
BRANCH  10  24
HETATM   24  C2  UNL     1     -17.397 -11.126 -12.134  1.00  0.00     0.181 C 
HETATM   25  C1  UNL     1     -18.900 -11.033 -11.770  1.00  0.00     0.047 C 
BRANCH  24  26
HETATM   26  O1  UNL     1     -17.469 -11.487 -13.511  1.00  0.00    -0.388 OA
ATOM     27  H1  UNL     1     -17.859 -12.351 -13.454  1.00  0.00     0.210 HD
ENDBRANCH  24  26
ENDBRANCH  10  24
ENDBRANCH   1   9
TORSDOF 3
ENDMDL
