MODEL 8
REMARK VINA RESULT: -7.982585721      2.445      6.006
REMARK  3 active torsions:
REMARK  status: ('A' for Active; 'I' for Inactive)
REMARK    1  A    between atoms: C2_2  and  O1_3 
REMARK    2  A    between atoms: C2_2  and  C3_5 
REMARK    3  A    between atoms: N4_19  and  C11_20 
ROOT
HETATM    1  C11 UNL     1     -14.968  -9.854 -11.790  1.00  0.00     0.091 C 
HETATM    2  C12 UNL     1     -15.659  -9.592 -10.482  1.00  0.00     0.027 C 
HETATM    3  C13 UNL     1     -15.130  -8.487  -9.651  1.00  0.00     0.021 C 
HETATM    4  C14 UNL     1     -14.730  -7.381 -10.603  1.00  0.00     0.093 C 
HETATM    5  C15 UNL     1     -15.750  -7.067 -11.572  1.00  0.00     0.064 C 
HETATM    6  N5  UNL     1     -16.573  -6.794 -12.344  1.00  0.00    -0.197 NA
HETATM    7  C16 UNL     1     -13.476  -7.882 -11.279  1.00  0.00     0.021 C 
HETATM    8  C17 UNL     1     -13.657  -9.161 -12.001  1.00  0.00     0.027 C 
ENDROOT
BRANCH   1   9
HETATM    9  N4  UNL     1     -14.935 -11.267 -12.002  1.00  0.00    -0.327 N 
HETATM   10  C3  UNL     1     -13.825 -12.023 -11.724  1.00  0.00     0.114 A 
HETATM   11  N1  UNL     1     -14.066 -13.320 -12.030  1.00  0.00    -0.341 N 
HETATM   12  C4  UNL     1     -15.311 -13.407 -12.499  1.00  0.00     0.077 A 
ATOM     13  H1  UNL     1     -13.411 -14.094 -11.921  1.00  0.00     0.167 HD
HETATM   14  C5  UNL     1     -16.000 -14.496 -12.934  1.00  0.00     0.121 A 
HETATM   15  C10 UNL     1     -15.840 -12.151 -12.481  1.00  0.00     0.078 A 
HETATM   16  N2  UNL     1     -17.246 -14.337 -13.362  1.00  0.00    -0.349 N 
HETATM   17  C6  UNL     1     -17.795 -13.109 -13.355  1.00  0.00     0.117 A 
ATOM     18  H2  UNL     1     -17.784 -15.138 -13.692  1.00  0.00     0.167 HD
HETATM   19  N3  UNL     1     -19.043 -12.694 -13.741  1.00  0.00    -0.352 N 
HETATM   20  C9  UNL     1     -17.154 -11.954 -12.927  1.00  0.00     0.038 A 
HETATM   21  C7  UNL     1     -19.176 -11.382 -13.567  1.00  0.00     0.090 A 
ATOM     22  H3  UNL     1     -19.771 -13.308 -14.109  1.00  0.00     0.166 HD
HETATM   23  C8  UNL     1     -17.981 -10.871 -13.046  1.00  0.00     0.034 A 
BRANCH  10  24
HETATM   24  C2  UNL     1     -12.518 -11.629 -11.190  1.00  0.00     0.181 C 
HETATM   25  C1  UNL     1     -12.565 -11.894  -9.665  1.00  0.00     0.047 C 
BRANCH  24  26
HETATM   26  O1  UNL     1     -11.507 -12.546 -11.598  1.00  0.00    -0.388 OA
ATOM     27  H1  UNL     1     -11.019 -12.018 -12.219  1.00  0.00     0.210 HD
ENDBRANCH  24  26
ENDBRANCH  10  24
ENDBRANCH   1   9
TORSDOF 3
ENDMDL
