MODEL 2
REMARK VINA RESULT: -8.311288766      1.203      1.473
REMARK  3 active torsions:
REMARK  status: ('A' for Active; 'I' for Inactive)
REMARK    1  A    between atoms: C2_2  and  O1_3 
REMARK    2  A    between atoms: C2_2  and  C3_5 
REMARK    3  A    between atoms: N4_19  and  C11_20 
ROOT
HETATM    1  C11 UNL     1     -15.364 -11.207 -11.273  1.00  0.00     0.091 C 
HETATM    2  C12 UNL     1     -14.179 -11.035 -12.179  1.00  0.00     0.027 C 
HETATM    3  C13 UNL     1     -12.852 -10.920 -11.535  1.00  0.00     0.021 C 
HETATM    4  C14 UNL     1     -12.855 -11.873 -10.359  1.00  0.00     0.093 C 
HETATM    5  C15 UNL     1     -13.327 -13.192 -10.698  1.00  0.00     0.064 C 
HETATM    6  N5  UNL     1     -13.688 -14.263 -10.965  1.00  0.00    -0.197 NA
HETATM    7  C16 UNL     1     -13.751 -11.224  -9.332  1.00  0.00     0.021 C 
HETATM    8  C17 UNL     1     -15.127 -10.972  -9.813  1.00  0.00     0.027 C 
ENDROOT
BRANCH   1   9
HETATM    9  N4  UNL     1     -16.458 -10.468 -11.825  1.00  0.00    -0.327 N 
HETATM   10  C3  UNL     1     -17.547 -11.085 -12.387  1.00  0.00     0.114 A 
HETATM   11  N1  UNL     1     -18.419 -10.152 -12.838  1.00  0.00    -0.341 N 
HETATM   12  C4  UNL     1     -17.907  -8.949 -12.573  1.00  0.00     0.077 A 
ATOM     13  H1  UNL     1     -19.310 -10.336 -13.298  1.00  0.00     0.167 HD
HETATM   14  C5  UNL     1     -18.413  -7.714 -12.835  1.00  0.00     0.121 A 
HETATM   15  C10 UNL     1     -16.709  -9.146 -11.953  1.00  0.00     0.078 A 
HETATM   16  N2  UNL     1     -17.714  -6.646 -12.472  1.00  0.00    -0.349 N 
HETATM   17  C6  UNL     1     -16.529  -6.809 -11.860  1.00  0.00     0.117 A 
ATOM     18  H2  UNL     1     -18.073  -5.709 -12.658  1.00  0.00     0.167 HD
HETATM   19  N3  UNL     1     -15.635  -5.877 -11.397  1.00  0.00    -0.352 N 
HETATM   20  C9  UNL     1     -15.950  -8.035 -11.561  1.00  0.00     0.038 A 
HETATM   21  C7  UNL     1     -14.579  -6.473 -10.850  1.00  0.00     0.090 A 
ATOM     22  H3  UNL     1     -15.763  -4.867 -11.463  1.00  0.00     0.166 HD
HETATM   23  C8  UNL     1     -14.745  -7.861 -10.937  1.00  0.00     0.034 A 
BRANCH  10  24
HETATM   24  C2  UNL     1     -17.849 -12.509 -12.554  1.00  0.00     0.181 C 
HETATM   25  C1  UNL     1     -19.346 -12.688 -12.198  1.00  0.00     0.047 C 
BRANCH  24  26
HETATM   26  O1  UNL     1     -17.849 -12.868 -13.933  1.00  0.00    -0.388 OA
ATOM     27  H1  UNL     1     -17.304 -13.647 -13.920  1.00  0.00     0.210 HD
ENDBRANCH  24  26
ENDBRANCH  10  24
ENDBRANCH   1   9
TORSDOF 3
ENDMDL
