MODEL 1
REMARK VINA RESULT: -8.978109181      0.000      0.000
REMARK  3 active torsions:
REMARK  status: ('A' for Active; 'I' for Inactive)
REMARK    1  A    between atoms: C2_2  and  O1_3 
REMARK    2  A    between atoms: C2_2  and  C3_5 
REMARK    3  A    between atoms: N4_19  and  C11_20 
ROOT
HETATM    1  C11 UNL     1     -14.499 -10.376 -11.183  1.00  0.00     0.091 C 
HETATM    2  C12 UNL     1     -13.473 -10.378 -12.279  1.00  0.00     0.027 C 
HETATM    3  C13 UNL     1     -12.054 -10.483 -11.872  1.00  0.00     0.021 C 
HETATM    4  C14 UNL     1     -12.007 -11.443 -10.703  1.00  0.00     0.093 C 
HETATM    5  C15 UNL     1     -12.731 -12.665 -10.941  1.00  0.00     0.064 C 
HETATM    6  N5  UNL     1     -13.297 -13.662 -11.131  1.00  0.00    -0.197 NA
HETATM    7  C16 UNL     1     -12.601 -10.678  -9.545  1.00  0.00     0.021 C 
HETATM    8  C17 UNL     1     -13.983 -10.205  -9.787  1.00  0.00     0.027 C 
ENDROOT
BRANCH   1   9
HETATM    9  N4  UNL     1     -15.540  -9.466 -11.548  1.00  0.00    -0.327 N 
HETATM   10  C3  UNL     1     -16.775  -9.897 -11.962  1.00  0.00     0.114 A 
HETATM   11  N1  UNL     1     -17.557  -8.830 -12.255  1.00  0.00    -0.341 N 
HETATM   12  C4  UNL     1     -16.844  -7.726 -12.034  1.00  0.00     0.077 A 
ATOM     13  H1  UNL     1     -18.521  -8.866 -12.585  1.00  0.00     0.167 HD
HETATM   14  C5  UNL     1     -17.198  -6.420 -12.184  1.00  0.00     0.121 A 
HETATM   15  C10 UNL     1     -15.612  -8.117 -11.601  1.00  0.00     0.078 A 
HETATM   16  N2  UNL     1     -16.307  -5.479 -11.897  1.00  0.00    -0.349 N 
HETATM   17  C6  UNL     1     -15.084  -5.835 -11.469  1.00  0.00     0.117 A 
ATOM     18  H2  UNL     1     -16.549  -4.493 -12.002  1.00  0.00     0.167 HD
HETATM   19  N3  UNL     1     -14.009  -5.061 -11.115  1.00  0.00    -0.352 N 
HETATM   20  C9  UNL     1     -14.653  -7.143 -11.292  1.00  0.00     0.038 A 
HETATM   21  C7  UNL     1     -12.984  -5.824 -10.745  1.00  0.00     0.090 A 
ATOM     22  H3  UNL     1     -13.997  -4.042 -11.133  1.00  0.00     0.166 HD
HETATM   23  C8  UNL     1     -13.360  -7.169 -10.846  1.00  0.00     0.034 A 
BRANCH  10  24
HETATM   24  C2  UNL     1     -17.301 -11.255 -12.123  1.00  0.00     0.181 C 
HETATM   25  C1  UNL     1     -18.815 -11.183 -11.804  1.00  0.00     0.047 C 
BRANCH  24  26
HETATM   26  O1  UNL     1     -17.326 -11.628 -13.498  1.00  0.00    -0.388 OA
ATOM     27  H1  UNL     1     -17.327 -10.777 -13.920  1.00  0.00     0.210 HD
ENDBRANCH  24  26
ENDBRANCH  10  24
ENDBRANCH   1   9
TORSDOF 3
ENDMDL
