MODEL 10
REMARK VINA RESULT: -7.961867451      2.295      4.602
REMARK  3 active torsions:
REMARK  status: ('A' for Active; 'I' for Inactive)
REMARK    1  A    between atoms: C2_2  and  O1_3 
REMARK    2  A    between atoms: C2_2  and  C3_5 
REMARK    3  A    between atoms: N4_19  and  C11_20 
ROOT
HETATM    1  C11 UNL     1     -14.712 -11.481 -11.243  1.00  0.00     0.091 C 
HETATM    2  C12 UNL     1     -15.935 -11.136 -10.442  1.00  0.00     0.027 C 
HETATM    3  C13 UNL     1     -17.190 -10.910 -11.193  1.00  0.00     0.021 C 
HETATM    4  C14 UNL     1     -17.207 -11.916 -12.324  1.00  0.00     0.093 C 
HETATM    5  C15 UNL     1     -16.912 -13.259 -11.894  1.00  0.00     0.064 C 
HETATM    6  N5  UNL     1     -16.694 -14.349 -11.554  1.00  0.00    -0.197 NA
HETATM    7  C16 UNL     1     -16.170 -11.420 -13.304  1.00  0.00     0.021 C 
HETATM    8  C17 UNL     1     -14.813 -11.296 -12.726  1.00  0.00     0.027 C 
ENDROOT
BRANCH   1   9
HETATM    9  N4  UNL     1     -13.587 -10.839 -10.639  1.00  0.00    -0.327 N 
HETATM   10  C3  UNL     1     -12.548 -11.548 -10.091  1.00  0.00     0.114 A 
HETATM   11  N1  UNL     1     -11.629 -10.693  -9.581  1.00  0.00    -0.341 N 
HETATM   12  C4  UNL     1     -12.062  -9.450  -9.793  1.00  0.00     0.077 A 
ATOM     13  H1  UNL     1     -10.760 -10.955  -9.117  1.00  0.00     0.167 HD
HETATM   14  C5  UNL     1     -11.487  -8.262  -9.463  1.00  0.00     0.121 A 
HETATM   15  C10 UNL     1     -13.258  -9.542 -10.441  1.00  0.00     0.078 A 
HETATM   16  N2  UNL     1     -12.113  -7.137  -9.783  1.00  0.00    -0.349 N 
HETATM   17  C6  UNL     1     -13.294  -7.197 -10.421  1.00  0.00     0.117 A 
ATOM     18  H2  UNL     1     -11.701  -6.234  -9.546  1.00  0.00     0.167 HD
HETATM   19  N3  UNL     1     -14.121  -6.191 -10.851  1.00  0.00    -0.352 N 
HETATM   20  C9  UNL     1     -13.941  -8.369 -10.790  1.00  0.00     0.038 A 
HETATM   21  C7  UNL     1     -15.201  -6.693 -11.443  1.00  0.00     0.090 A 
ATOM     22  H3  UNL     1     -13.933  -5.195 -10.733  1.00  0.00     0.166 HD
HETATM   23  C8  UNL     1     -15.121  -8.091 -11.422  1.00  0.00     0.034 A 
BRANCH  10  24
HETATM   24  C2  UNL     1     -12.335 -12.995  -9.990  1.00  0.00     0.181 C 
HETATM   25  C1  UNL     1     -10.943 -13.193  -9.342  1.00  0.00     0.047 C 
BRANCH  24  26
HETATM   26  O1  UNL     1     -13.185 -13.562  -8.998  1.00  0.00    -0.388 OA
ATOM     27  H1  UNL     1     -14.042 -13.310  -9.323  1.00  0.00     0.210 HD
ENDBRANCH  24  26
ENDBRANCH  10  24
ENDBRANCH   1   9
TORSDOF 3
ENDMDL
