MODEL 12
REMARK VINA RESULT: -7.828109014      2.265      3.955
REMARK  3 active torsions:
REMARK  status: ('A' for Active; 'I' for Inactive)
REMARK    1  A    between atoms: C2_2  and  O1_3 
REMARK    2  A    between atoms: C2_2  and  C3_5 
REMARK    3  A    between atoms: N4_19  and  C11_20 
ROOT
HETATM    1  C11 UNL     1     -16.039 -10.338 -12.042  1.00  0.00     0.091 C 
HETATM    2  C12 UNL     1     -15.189 -11.000 -13.088  1.00  0.00     0.027 C 
HETATM    3  C13 UNL     1     -15.015 -12.467 -12.983  1.00  0.00     0.021 C 
HETATM    4  C14 UNL     1     -16.344 -13.031 -12.529  1.00  0.00     0.093 C 
HETATM    5  C15 UNL     1     -17.462 -12.538 -13.293  1.00  0.00     0.064 C 
HETATM    6  N5  UNL     1     -18.368 -12.160 -13.915  1.00  0.00    -0.197 NA
HETATM    7  C16 UNL     1     -16.462 -12.633 -11.077  1.00  0.00     0.021 C 
HETATM    8  C17 UNL     1     -16.402 -11.171 -10.852  1.00  0.00     0.027 C 
ENDROOT
BRANCH   1   9
HETATM    9  N4  UNL     1     -15.454  -9.072 -11.727  1.00  0.00    -0.327 N 
HETATM   10  C3  UNL     1     -16.024  -7.886 -12.116  1.00  0.00     0.114 A 
HETATM   11  N1  UNL     1     -15.257  -6.852 -11.697  1.00  0.00    -0.341 N 
HETATM   12  C4  UNL     1     -14.208  -7.355 -11.047  1.00  0.00     0.077 A 
ATOM     13  H1  UNL     1     -15.450  -5.862 -11.851  1.00  0.00     0.167 HD
HETATM   14  C5  UNL     1     -13.168  -6.712 -10.449  1.00  0.00     0.121 A 
HETATM   15  C10 UNL     1     -14.331  -8.712 -11.066  1.00  0.00     0.078 A 
HETATM   16  N2  UNL     1     -12.227  -7.434  -9.854  1.00  0.00    -0.349 N 
HETATM   17  C6  UNL     1     -12.322  -8.775  -9.857  1.00  0.00     0.117 A 
ATOM     18  H2  UNL     1     -11.438  -6.975  -9.398  1.00  0.00     0.167 HD
HETATM   19  N3  UNL     1     -11.490  -9.724  -9.320  1.00  0.00    -0.352 N 
HETATM   20  C9  UNL     1     -13.350  -9.498 -10.446  1.00  0.00     0.038 A 
HETATM   21  C7  UNL     1     -11.960 -10.946  -9.553  1.00  0.00     0.090 A 
ATOM     22  H3  UNL     1     -10.630  -9.520  -8.811  1.00  0.00     0.166 HD
HETATM   23  C8  UNL     1     -13.156 -10.841 -10.275  1.00  0.00     0.034 A 
BRANCH  10  24
HETATM   24  C2  UNL     1     -17.251  -7.627 -12.874  1.00  0.00     0.181 C 
HETATM   25  C1  UNL     1     -18.414  -8.238 -12.054  1.00  0.00     0.047 C 
BRANCH  24  26
HETATM   26  O1  UNL     1     -17.586  -6.243 -12.837  1.00  0.00    -0.388 OA
ATOM     27  H1  UNL     1     -18.248  -6.195 -13.517  1.00  0.00     0.210 HD
ENDBRANCH  24  26
ENDBRANCH  10  24
ENDBRANCH   1   9
TORSDOF 3
ENDMDL
