MODEL 1
REMARK VINA RESULT: -9.382136388      0.000      0.000
REMARK  3 active torsions:
REMARK  status: ('A' for Active; 'I' for Inactive)
REMARK    1  A    between atoms: C2_2  and  O1_3 
REMARK    2  A    between atoms: C2_2  and  C3_5 
REMARK    3  A    between atoms: N4_19  and  C11_20 
ROOT
HETATM    1  C11 UNL     1       7.298  55.932   0.920  1.00  0.00     0.091 C 
HETATM    2  C12 UNL     1       7.465  56.094   2.404  1.00  0.00     0.027 C 
HETATM    3  C13 UNL     1       6.544  55.327   3.272  1.00  0.00     0.021 C 
HETATM    4  C14 UNL     1       6.346  53.980   2.612  1.00  0.00     0.093 C 
HETATM    5  C15 UNL     1       7.581  53.351   2.219  1.00  0.00     0.064 C 
HETATM    6  N5  UNL     1       8.573  52.828   1.916  1.00  0.00    -0.197 NA
HETATM    7  C16 UNL     1       5.473  54.258   1.412  1.00  0.00     0.021 C 
HETATM    8  C17 UNL     1       6.055  55.232   0.462  1.00  0.00     0.027 C 
ENDROOT
BRANCH   1   9
HETATM    9  N4  UNL     1       7.528  57.201   0.303  1.00  0.00    -0.327 N 
HETATM   10  C3  UNL     1       8.666  57.469  -0.415  1.00  0.00     0.114 A 
HETATM   11  N1  UNL     1       8.628  58.743  -0.873  1.00  0.00    -0.341 N 
HETATM   12  C4  UNL     1       7.485  59.294  -0.462  1.00  0.00     0.077 A 
ATOM     13  H1  UNL     1       9.346  59.200  -1.435  1.00  0.00     0.167 HD
HETATM   14  C5  UNL     1       7.001  60.548  -0.672  1.00  0.00     0.121 A 
HETATM   15  C10 UNL     1       6.815  58.349   0.257  1.00  0.00     0.078 A 
HETATM   16  N2  UNL     1       5.822  60.874  -0.157  1.00  0.00    -0.349 N 
HETATM   17  C6  UNL     1       5.138  59.962   0.556  1.00  0.00     0.117 A 
ATOM     18  H2  UNL     1       5.439  61.808  -0.301  1.00  0.00     0.167 HD
HETATM   19  N3  UNL     1       3.921  60.057   1.179  1.00  0.00    -0.352 N 
HETATM   20  C9  UNL     1       5.568  58.667   0.812  1.00  0.00     0.038 A 
HETATM   21  C7  UNL     1       3.610  58.911   1.778  1.00  0.00     0.090 A 
ATOM     22  H3  UNL     1       3.334  60.891   1.183  1.00  0.00     0.166 HD
HETATM   23  C8  UNL     1       4.646  57.992   1.564  1.00  0.00     0.034 A 
BRANCH  10  24
HETATM   24  C2  UNL     1       9.823  56.620  -0.710  1.00  0.00     0.181 C 
HETATM   25  C1  UNL     1      10.616  57.330  -1.835  1.00  0.00     0.047 C 
BRANCH  24  26
HETATM   26  O1  UNL     1      10.765  56.659   0.358  1.00  0.00    -0.388 OA
ATOM     27  H1  UNL     1      10.745  57.580   0.588  1.00  0.00     0.210 HD
ENDBRANCH  24  26
ENDBRANCH  10  24
ENDBRANCH   1   9
TORSDOF 3
ENDMDL
