MODEL 6
REMARK VINA RESULT: -8.169168980      2.222      4.799
REMARK  3 active torsions:
REMARK  status: ('A' for Active; 'I' for Inactive)
REMARK    1  A    between atoms: C2_2  and  O1_3 
REMARK    2  A    between atoms: C2_2  and  C3_5 
REMARK    3  A    between atoms: N4_19  and  C11_20 
ROOT
HETATM    1  C11 UNL     1       6.593  56.296   1.066  1.00  0.00     0.091 C 
HETATM    2  C12 UNL     1       6.096  55.183   0.190  1.00  0.00     0.027 C 
HETATM    3  C13 UNL     1       5.870  53.870   0.835  1.00  0.00     0.021 C 
HETATM    4  C14 UNL     1       5.296  54.153   2.207  1.00  0.00     0.093 C 
HETATM    5  C15 UNL     1       4.202  55.090   2.183  1.00  0.00     0.064 C 
HETATM    6  N5  UNL     1       3.306  55.829   2.172  1.00  0.00    -0.197 NA
HETATM    7  C16 UNL     1       6.455  54.693   3.011  1.00  0.00     0.021 C 
HETATM    8  C17 UNL     1       7.068  55.909   2.432  1.00  0.00     0.027 C 
ENDROOT
BRANCH   1   9
HETATM    9  N4  UNL     1       7.525  57.076   0.311  1.00  0.00    -0.327 N 
HETATM   10  C3  UNL     1       7.266  58.375  -0.051  1.00  0.00     0.114 A 
HETATM   11  N1  UNL     1       8.307  58.865  -0.766  1.00  0.00    -0.341 N 
HETATM   12  C4  UNL     1       9.226  57.904  -0.867  1.00  0.00     0.077 A 
ATOM     13  H1  UNL     1       8.375  59.804  -1.157  1.00  0.00     0.167 HD
HETATM   14  C5  UNL     1      10.436  57.923  -1.488  1.00  0.00     0.121 A 
HETATM   15  C10 UNL     1       8.745  56.812  -0.207  1.00  0.00     0.078 A 
HETATM   16  N2  UNL     1      11.189  56.831  -1.455  1.00  0.00    -0.349 N 
HETATM   17  C6  UNL     1      10.741  55.739  -0.812  1.00  0.00     0.117 A 
ATOM     18  H2  UNL     1      12.100  56.820  -1.913  1.00  0.00     0.167 HD
HETATM   19  N3  UNL     1      11.325  54.510  -0.640  1.00  0.00    -0.352 N 
HETATM   20  C9  UNL     1       9.521  55.646  -0.157  1.00  0.00     0.038 A 
HETATM   21  C7  UNL     1      10.532  53.709   0.067  1.00  0.00     0.090 A 
ATOM     22  H3  UNL     1      12.240  54.246  -1.004  1.00  0.00     0.166 HD
HETATM   23  C8  UNL     1       9.362  54.405   0.396  1.00  0.00     0.034 A 
BRANCH  10  24
HETATM   24  C2  UNL     1       6.097  59.218   0.211  1.00  0.00     0.181 C 
HETATM   25  C1  UNL     1       6.351  60.563  -0.514  1.00  0.00     0.047 C 
BRANCH  24  26
HETATM   26  O1  UNL     1       4.957  58.735  -0.494  1.00  0.00    -0.388 OA
ATOM     27  H1  UNL     1       4.638  58.070   0.105  1.00  0.00     0.210 HD
ENDBRANCH  24  26
ENDBRANCH  10  24
ENDBRANCH   1   9
TORSDOF 3
ENDMDL
