MODEL 5
REMARK VINA RESULT: -8.244256913      1.083      1.621
REMARK  3 active torsions:
REMARK  status: ('A' for Active; 'I' for Inactive)
REMARK    1  A    between atoms: C2_2  and  O1_3 
REMARK    2  A    between atoms: C2_2  and  C3_5 
REMARK    3  A    between atoms: N4_19  and  C11_20 
ROOT
HETATM    1  C11 UNL     1       7.012  56.118   0.891  1.00  0.00     0.091 C 
HETATM    2  C12 UNL     1       6.908  55.146  -0.249  1.00  0.00     0.027 C 
HETATM    3  C13 UNL     1       7.486  53.800  -0.039  1.00  0.00     0.021 C 
HETATM    4  C14 UNL     1       7.187  53.418   1.395  1.00  0.00     0.093 C 
HETATM    5  C15 UNL     1       5.810  53.625   1.764  1.00  0.00     0.064 C 
HETATM    6  N5  UNL     1       4.697  53.771   2.065  1.00  0.00    -0.197 NA
HETATM    7  C16 UNL     1       8.107  54.278   2.228  1.00  0.00     0.021 C 
HETATM    8  C17 UNL     1       7.920  55.731   2.017  1.00  0.00     0.027 C 
ENDROOT
BRANCH   1   9
HETATM    9  N4  UNL     1       7.259  57.418   0.348  1.00  0.00    -0.327 N 
HETATM   10  C3  UNL     1       8.407  57.716  -0.343  1.00  0.00     0.114 A 
HETATM   11  N1  UNL     1       8.384  59.014  -0.730  1.00  0.00    -0.341 N 
HETATM   12  C4  UNL     1       7.242  59.551  -0.300  1.00  0.00     0.077 A 
ATOM     13  H1  UNL     1       9.111  59.495  -1.258  1.00  0.00     0.167 HD
HETATM   14  C5  UNL     1       6.770  60.819  -0.444  1.00  0.00     0.121 A 
HETATM   15  C10 UNL     1       6.556  58.573   0.358  1.00  0.00     0.078 A 
HETATM   16  N2  UNL     1       5.588  61.126   0.076  1.00  0.00    -0.349 N 
HETATM   17  C6  UNL     1       4.890  60.182   0.731  1.00  0.00     0.117 A 
ATOM     18  H2  UNL     1       5.214  62.069  -0.019  1.00  0.00     0.167 HD
HETATM   19  N3  UNL     1       3.666  60.252   1.346  1.00  0.00    -0.352 N 
HETATM   20  C9  UNL     1       5.306  58.871   0.918  1.00  0.00     0.038 A 
HETATM   21  C7  UNL     1       3.341  59.077   1.877  1.00  0.00     0.090 A 
ATOM     22  H3  UNL     1       3.086  61.090   1.390  1.00  0.00     0.166 HD
HETATM   23  C8  UNL     1       4.371  58.163   1.622  1.00  0.00     0.034 A 
BRANCH  10  24
HETATM   24  C2  UNL     1       9.560  56.875  -0.674  1.00  0.00     0.181 C 
HETATM   25  C1  UNL     1      10.154  57.438  -1.989  1.00  0.00     0.047 C 
BRANCH  24  26
HETATM   26  O1  UNL     1      10.633  57.106   0.235  1.00  0.00    -0.388 OA
ATOM     27  H1  UNL     1      10.158  57.323   1.029  1.00  0.00     0.210 HD
ENDBRANCH  24  26
ENDBRANCH  10  24
ENDBRANCH   1   9
TORSDOF 3
ENDMDL
