MODEL 8
REMARK VINA RESULT: -7.877601527      1.719      5.403
REMARK  3 active torsions:
REMARK  status: ('A' for Active; 'I' for Inactive)
REMARK    1  A    between atoms: C2_2  and  O1_3 
REMARK    2  A    between atoms: C2_2  and  C3_5 
REMARK    3  A    between atoms: N4_19  and  C11_20 
ROOT
HETATM    1  C11 UNL     1       7.423  56.473   0.643  1.00  0.00     0.091 C 
HETATM    2  C12 UNL     1       6.377  56.464  -0.434  1.00  0.00     0.027 C 
HETATM    3  C13 UNL     1       5.029  56.954  -0.066  1.00  0.00     0.021 C 
HETATM    4  C14 UNL     1       5.234  58.126   0.869  1.00  0.00     0.093 C 
HETATM    5  C15 UNL     1       6.189  59.086   0.377  1.00  0.00     0.064 C 
HETATM    6  N5  UNL     1       6.944  59.875  -0.020  1.00  0.00    -0.197 NA
HETATM    7  C16 UNL     1       5.701  57.513   2.167  1.00  0.00     0.021 C 
HETATM    8  C17 UNL     1       6.941  56.715   2.039  1.00  0.00     0.027 C 
ENDROOT
BRANCH   1   9
HETATM    9  N4  UNL     1       8.234  55.305   0.487  1.00  0.00    -0.327 N 
HETATM   10  C3  UNL     1       9.533  55.369   0.049  1.00  0.00     0.114 A 
HETATM   11  N1  UNL     1      10.055  54.122  -0.017  1.00  0.00    -0.341 N 
HETATM   12  C4  UNL     1       9.114  53.261   0.373  1.00  0.00     0.077 A 
ATOM     13  H1  UNL     1      11.002  53.883  -0.311  1.00  0.00     0.167 HD
HETATM   14  C5  UNL     1       9.167  51.905   0.474  1.00  0.00     0.121 A 
HETATM   15  C10 UNL     1       8.002  53.987   0.680  1.00  0.00     0.078 A 
HETATM   16  N2  UNL     1       8.090  51.252   0.891  1.00  0.00    -0.349 N 
HETATM   17  C6  UNL     1       6.978  51.942   1.202  1.00  0.00     0.117 A 
ATOM     18  H2  UNL     1       8.104  50.236   0.975  1.00  0.00     0.167 HD
HETATM   19  N3  UNL     1       5.758  51.502   1.648  1.00  0.00    -0.352 N 
HETATM   20  C9  UNL     1       6.851  53.322   1.123  1.00  0.00     0.038 A 
HETATM   21  C7  UNL     1       4.931  52.527   1.835  1.00  0.00     0.090 A 
ATOM     22  H3  UNL     1       5.519  50.525   1.813  1.00  0.00     0.166 HD
HETATM   23  C8  UNL     1       5.598  53.714   1.508  1.00  0.00     0.034 A 
BRANCH  10  24
HETATM   24  C2  UNL     1      10.348  56.525  -0.334  1.00  0.00     0.181 C 
HETATM   25  C1  UNL     1       9.619  57.207  -1.518  1.00  0.00     0.047 C 
BRANCH  24  26
HETATM   26  O1  UNL     1      10.278  57.544   0.658  1.00  0.00    -0.388 OA
ATOM     27  H1  UNL     1      10.865  57.198   1.320  1.00  0.00     0.210 HD
ENDBRANCH  24  26
ENDBRANCH  10  24
ENDBRANCH   1   9
TORSDOF 3
ENDMDL
