MODEL 9
REMARK VINA RESULT: -7.864974098      2.685      5.999
REMARK  3 active torsions:
REMARK  status: ('A' for Active; 'I' for Inactive)
REMARK    1  A    between atoms: C2_2  and  O1_3 
REMARK    2  A    between atoms: C2_2  and  C3_5 
REMARK    3  A    between atoms: N4_19  and  C11_20 
ROOT
HETATM    1  C11 UNL     1       6.502  55.027   1.131  1.00  0.00     0.091 C 
HETATM    2  C12 UNL     1       6.606  55.916   2.337  1.00  0.00     0.027 C 
HETATM    3  C13 UNL     1       6.236  57.338   2.157  1.00  0.00     0.021 C 
HETATM    4  C14 UNL     1       5.049  57.364   1.219  1.00  0.00     0.093 C 
HETATM    5  C15 UNL     1       4.009  56.440   1.593  1.00  0.00     0.064 C 
HETATM    6  N5  UNL     1       3.156  55.711   1.897  1.00  0.00    -0.197 NA
HETATM    7  C16 UNL     1       5.616  57.021  -0.138  1.00  0.00     0.021 C 
HETATM    8  C17 UNL     1       6.301  55.710  -0.186  1.00  0.00     0.027 C 
ENDROOT
BRANCH   1   9
HETATM    9  N4  UNL     1       7.594  54.104   1.162  1.00  0.00    -0.327 N 
HETATM   10  C3  UNL     1       8.820  54.403   0.625  1.00  0.00     0.114 A 
HETATM   11  N1  UNL     1       9.657  53.350   0.782  1.00  0.00    -0.341 N 
HETATM   12  C4  UNL     1       8.988  52.384   1.410  1.00  0.00     0.077 A 
ATOM     13  H1  UNL     1      10.628  53.306   0.473  1.00  0.00     0.167 HD
HETATM   14  C5  UNL     1       9.404  51.144   1.787  1.00  0.00     0.121 A 
HETATM   15  C10 UNL     1       7.728  52.847   1.642  1.00  0.00     0.078 A 
HETATM   16  N2  UNL     1       8.549  50.343   2.410  1.00  0.00    -0.349 N 
HETATM   17  C6  UNL     1       7.298  50.774   2.652  1.00  0.00     0.117 A 
ATOM     18  H2  UNL     1       8.837  49.410   2.702  1.00  0.00     0.167 HD
HETATM   19  N3  UNL     1       6.249  50.143   3.269  1.00  0.00    -0.352 N 
HETATM   20  C9  UNL     1       6.804  52.021   2.298  1.00  0.00     0.038 A 
HETATM   21  C7  UNL     1       5.180  50.934   3.300  1.00  0.00     0.090 A 
ATOM     22  H3  UNL     1       6.283  49.198   3.652  1.00  0.00     0.166 HD
HETATM   23  C8  UNL     1       5.498  52.151   2.684  1.00  0.00     0.034 A 
BRANCH  10  24
HETATM   24  C2  UNL     1       9.289  55.617  -0.050  1.00  0.00     0.181 C 
HETATM   25  C1  UNL     1       9.806  56.567   1.058  1.00  0.00     0.047 C 
BRANCH  24  26
HETATM   26  O1  UNL     1      10.488  55.360  -0.775  1.00  0.00    -0.388 OA
ATOM     27  H1  UNL     1      10.210  55.547  -1.664  1.00  0.00     0.210 HD
ENDBRANCH  24  26
ENDBRANCH  10  24
ENDBRANCH   1   9
TORSDOF 3
ENDMDL
