MODEL 5
REMARK VINA RESULT: -8.569002318      3.035      7.677
REMARK  4 active torsions:
REMARK  status: ('A' for Active; 'I' for Inactive)
REMARK    1  A    between atoms: C2_2  and  O1_3 
REMARK    2  A    between atoms: C2_2  and  C3_5 
REMARK    3  A    between atoms: N4_19  and  C11_20 
REMARK    4  A    between atoms: C14_23  and  C15_24 
ROOT
HETATM    1  C15 UNL     1       5.126  57.910   0.590  1.00  0.00     0.128 C 
HETATM    2  C16 UNL     1       4.061  58.642   1.247  1.00  0.00     0.059 C 
HETATM    3  N5  UNL     1       3.201  59.214   1.771  1.00  0.00    -0.197 NA
ENDROOT
BRANCH   1   4
HETATM    4  C14 UNL     1       5.100  56.439   0.887  1.00  0.00    -0.001 C 
HETATM    5  C13 UNL     1       5.849  55.640  -0.148  1.00  0.00     0.007 C 
HETATM    6  C12 UNL     1       5.772  54.182   0.243  1.00  0.00     0.026 C 
HETATM    7  C11 UNL     1       6.518  54.014   1.528  1.00  0.00     0.092 C 
HETATM    8  C18 UNL     1       5.709  54.724   2.599  1.00  0.00     0.026 C 
HETATM    9  C17 UNL     1       5.816  56.234   2.223  1.00  0.00     0.007 C 
BRANCH   7  10
HETATM   10  N4  UNL     1       6.989  52.708   1.826  1.00  0.00    -0.324 N 
HETATM   11  C3  UNL     1       6.326  51.712   2.438  1.00  0.00     0.138 A 
HETATM   12  N1  UNL     1       7.189  50.655   2.561  1.00  0.00    -0.337 N 
HETATM   13  C4  UNL     1       8.385  50.948   2.041  1.00  0.00     0.077 A 
ATOM     14  H1  UNL     1       6.949  49.762   2.991  1.00  0.00     0.167 HD
HETATM   15  C5  UNL     1       9.571  50.251   1.905  1.00  0.00     0.121 A 
HETATM   16  C10 UNL     1       8.250  52.252   1.575  1.00  0.00     0.079 A 
HETATM   17  N2  UNL     1      10.642  50.805   1.315  1.00  0.00    -0.349 N 
HETATM   18  C6  UNL     1      10.572  52.047   0.848  1.00  0.00     0.117 A 
ATOM     19  H2  UNL     1      11.507  50.274   1.225  1.00  0.00     0.167 HD
HETATM   20  N3  UNL     1      11.473  52.806   0.215  1.00  0.00    -0.352 N 
HETATM   21  C9  UNL     1       9.399  52.755   0.975  1.00  0.00     0.038 A 
HETATM   22  C7  UNL     1      10.950  53.985  -0.084  1.00  0.00     0.090 A 
ATOM     23  H3  UNL     1      12.426  52.518  -0.005  1.00  0.00     0.166 HD
HETATM   24  C8  UNL     1       9.633  53.966   0.392  1.00  0.00     0.034 A 
BRANCH  11  25
HETATM   25  C2  UNL     1       4.926  51.661   2.903  1.00  0.00     0.083 C 
HETATM   26  C1  UNL     1       3.919  51.290   1.870  1.00  0.00     0.080 C 
BRANCH  25  27
HETATM   27  O1  UNL     1       4.754  51.055   4.144  1.00  0.00    -0.362 OA
ATOM     28  H1  UNL     1       3.907  51.198   4.550  1.00  0.00     0.217 HD
ENDBRANCH  25  27
ENDBRANCH  11  25
ENDBRANCH   7  10
ENDBRANCH   1   4
TORSDOF 4
ENDMDL
