MODEL 10
REMARK VINA RESULT: -8.382258965      2.580      6.664
REMARK  4 active torsions:
REMARK  status: ('A' for Active; 'I' for Inactive)
REMARK    1  A    between atoms: C2_2  and  O1_3 
REMARK    2  A    between atoms: C2_2  and  C3_5 
REMARK    3  A    between atoms: N4_19  and  C11_20 
REMARK    4  A    between atoms: C14_23  and  C15_24 
ROOT
HETATM    1  C15 UNL     1       3.943  59.317   1.219  1.00  0.00     0.128 C 
HETATM    2  C16 UNL     1       4.941  60.202   0.652  1.00  0.00     0.059 C 
HETATM    3  N5  UNL     1       5.750  60.899   0.202  1.00  0.00    -0.197 NA
ENDROOT
BRANCH   1   4
HETATM    4  C14 UNL     1       4.282  57.865   1.055  1.00  0.00    -0.001 C 
HETATM    5  C13 UNL     1       5.217  57.630  -0.104  1.00  0.00     0.007 C 
HETATM    6  C12 UNL     1       5.503  56.148  -0.179  1.00  0.00     0.026 C 
HETATM    7  C11 UNL     1       6.256  55.765   1.055  1.00  0.00     0.092 C 
HETATM    8  C18 UNL     1       5.285  55.892   2.216  1.00  0.00     0.026 C 
HETATM    9  C17 UNL     1       5.015  57.424   2.324  1.00  0.00     0.007 C 
BRANCH   7  10
HETATM   10  N4  UNL     1       7.036  54.580   0.984  1.00  0.00    -0.324 N 
HETATM   11  C3  UNL     1       6.716  53.355   1.434  1.00  0.00     0.138 A 
HETATM   12  N1  UNL     1       7.789  52.535   1.200  1.00  0.00    -0.337 N 
HETATM   13  C4  UNL     1       8.785  53.204   0.611  1.00  0.00     0.077 A 
ATOM     14  H1  UNL     1       7.822  51.546   1.444  1.00  0.00     0.167 HD
HETATM   15  C5  UNL     1      10.048  52.856   0.168  1.00  0.00     0.121 A 
HETATM   16  C10 UNL     1       8.299  54.501   0.475  1.00  0.00     0.079 A 
HETATM   17  N2  UNL     1      10.855  53.756  -0.414  1.00  0.00    -0.349 N 
HETATM   18  C6  UNL     1      10.444  55.009  -0.574  1.00  0.00     0.117 A 
ATOM     19  H2  UNL     1      11.783  53.478  -0.733  1.00  0.00     0.167 HD
HETATM   20  N3  UNL     1      11.038  56.071  -1.128  1.00  0.00    -0.352 N 
HETATM   21  C9  UNL     1       9.191  55.373  -0.137  1.00  0.00     0.038 A 
HETATM   22  C7  UNL     1      10.235  57.122  -1.080  1.00  0.00     0.090 A 
ATOM     23  H3  UNL     1      11.977  56.071  -1.529  1.00  0.00     0.166 HD
HETATM   24  C8  UNL     1       9.058  56.694  -0.455  1.00  0.00     0.034 A 
BRANCH  11  25
HETATM   25  C2  UNL     1       5.464  52.877   2.052  1.00  0.00     0.083 C 
HETATM   26  C1  UNL     1       4.515  52.189   1.133  1.00  0.00     0.080 C 
BRANCH  25  27
HETATM   27  O1  UNL     1       5.630  52.271   3.295  1.00  0.00    -0.362 OA
ATOM     28  H1  UNL     1       6.309  52.649   3.841  1.00  0.00     0.217 HD
ENDBRANCH  25  27
ENDBRANCH  11  25
ENDBRANCH   7  10
ENDBRANCH   1   4
TORSDOF 4
ENDMDL
