MODEL 2
REMARK VINA RESULT: -9.138106229      1.156      1.548
REMARK  4 active torsions:
REMARK  status: ('A' for Active; 'I' for Inactive)
REMARK    1  A    between atoms: C2_2  and  O1_3 
REMARK    2  A    between atoms: C2_2  and  C3_5 
REMARK    3  A    between atoms: N4_19  and  C11_20 
REMARK    4  A    between atoms: C14_23  and  C15_24 
ROOT
HETATM    1  C15 UNL     1       5.789  52.176   2.350  1.00  0.00     0.128 C 
HETATM    2  C16 UNL     1       4.558  51.438   2.153  1.00  0.00     0.059 C 
HETATM    3  N5  UNL     1       3.565  50.860   2.000  1.00  0.00    -0.197 NA
ENDROOT
BRANCH   1   4
HETATM    4  C14 UNL     1       5.668  53.628   1.992  1.00  0.00    -0.001 C 
HETATM    5  C13 UNL     1       6.706  54.471   2.689  1.00  0.00     0.007 C 
HETATM    6  C12 UNL     1       6.507  55.905   2.258  1.00  0.00     0.026 C 
HETATM    7  C11 UNL     1       6.807  55.989   0.794  1.00  0.00     0.092 C 
HETATM    8  C18 UNL     1       5.701  55.234   0.078  1.00  0.00     0.026 C 
HETATM    9  C17 UNL     1       5.924  53.747   0.488  1.00  0.00     0.007 C 
BRANCH   7  10
HETATM   10  N4  UNL     1       7.158  57.268   0.288  1.00  0.00    -0.324 N 
HETATM   11  C3  UNL     1       8.305  57.632  -0.310  1.00  0.00     0.138 A 
HETATM   12  N1  UNL     1       8.223  58.972  -0.583  1.00  0.00    -0.337 N 
HETATM   13  C4  UNL     1       7.052  59.474  -0.178  1.00  0.00     0.077 A 
ATOM     14  H1  UNL     1       8.959  59.514  -1.036  1.00  0.00     0.167 HD
HETATM   15  C5  UNL     1       6.479  60.731  -0.220  1.00  0.00     0.121 A 
HETATM   16  C10 UNL     1       6.381  58.386   0.373  1.00  0.00     0.079 A 
HETATM   17  N2  UNL     1       5.248  60.952   0.266  1.00  0.00    -0.349 N 
HETATM   18  C6  UNL     1       4.557  59.951   0.801  1.00  0.00     0.117 A 
ATOM     19  H2  UNL     1       4.843  61.887   0.225  1.00  0.00     0.167 HD
HETATM   20  N3  UNL     1       3.329  59.906   1.328  1.00  0.00    -0.352 N 
HETATM   21  C9  UNL     1       5.114  58.694   0.852  1.00  0.00     0.038 A 
HETATM   22  C7  UNL     1       3.045  58.675   1.725  1.00  0.00     0.090 A 
ATOM     23  H3  UNL     1       2.701  60.706   1.412  1.00  0.00     0.166 HD
HETATM   24  C8  UNL     1       4.169  57.894   1.428  1.00  0.00     0.034 A 
BRANCH  11  25
HETATM   25  C2  UNL     1       9.479  56.812  -0.671  1.00  0.00     0.083 C 
HETATM   26  C1  UNL     1      10.191  57.222  -1.913  1.00  0.00     0.080 C 
BRANCH  25  27
HETATM   27  O1  UNL     1      10.302  56.481   0.402  1.00  0.00    -0.362 OA
ATOM     28  H1  UNL     1       9.853  56.140   1.166  1.00  0.00     0.217 HD
ENDBRANCH  25  27
ENDBRANCH  11  25
ENDBRANCH   7  10
ENDBRANCH   1   4
TORSDOF 4
ENDMDL
