MODEL 1
REMARK VINA RESULT: -9.214895245      0.000      0.000
REMARK  4 active torsions:
REMARK  status: ('A' for Active; 'I' for Inactive)
REMARK    1  A    between atoms: C2_2  and  O1_3 
REMARK    2  A    between atoms: C2_2  and  C3_5 
REMARK    3  A    between atoms: N4_19  and  C11_20 
REMARK    4  A    between atoms: C14_23  and  C15_24 
ROOT
HETATM    1  C15 UNL     1       6.108  52.041   1.776  1.00  0.00     0.128 C 
HETATM    2  C16 UNL     1       7.088  51.294   2.539  1.00  0.00     0.059 C 
HETATM    3  N5  UNL     1       7.882  50.699   3.137  1.00  0.00    -0.197 NA
ENDROOT
BRANCH   1   4
HETATM    4  C14 UNL     1       6.707  53.175   0.998  1.00  0.00    -0.001 C 
HETATM    5  C13 UNL     1       5.660  53.967   0.256  1.00  0.00     0.007 C 
HETATM    6  C12 UNL     1       6.359  55.084  -0.484  1.00  0.00     0.026 C 
HETATM    7  C11 UNL     1       6.947  56.009   0.534  1.00  0.00     0.092 C 
HETATM    8  C18 UNL     1       8.078  55.253   1.209  1.00  0.00     0.026 C 
HETATM    9  C17 UNL     1       7.361  54.122   2.006  1.00  0.00     0.007 C 
BRANCH   7  10
HETATM   10  N4  UNL     1       7.213  57.338   0.109  1.00  0.00    -0.324 N 
HETATM   11  C3  UNL     1       8.322  57.806  -0.488  1.00  0.00     0.138 A 
HETATM   12  N1  UNL     1       8.159  59.155  -0.666  1.00  0.00    -0.337 N 
HETATM   13  C4  UNL     1       6.973  59.561  -0.199  1.00  0.00     0.077 A 
ATOM     14  H1  UNL     1       8.851  59.767  -1.097  1.00  0.00     0.167 HD
HETATM   15  C5  UNL     1       6.330  60.783  -0.142  1.00  0.00     0.121 A 
HETATM   16  C10 UNL     1       6.378  58.401   0.289  1.00  0.00     0.079 A 
HETATM   17  N2  UNL     1       5.102  60.900   0.387  1.00  0.00    -0.349 N 
HETATM   18  C6  UNL     1       4.482  59.827   0.867  1.00  0.00     0.117 A 
ATOM     19  H2  UNL     1       4.646  61.811   0.421  1.00  0.00     0.167 HD
HETATM   20  N3  UNL     1       3.273  59.677   1.418  1.00  0.00    -0.352 N 
HETATM   21  C9  UNL     1       5.109  58.603   0.818  1.00  0.00     0.038 A 
HETATM   22  C7  UNL     1       3.069  58.408   1.735  1.00  0.00     0.090 A 
ATOM     23  H3  UNL     1       2.605  60.432   1.572  1.00  0.00     0.166 HD
HETATM   24  C8  UNL     1       4.226  57.714   1.359  1.00  0.00     0.034 A 
BRANCH  11  25
HETATM   25  C2  UNL     1       9.529  57.081  -0.932  1.00  0.00     0.083 C 
HETATM   26  C1  UNL     1       9.999  57.399  -2.309  1.00  0.00     0.080 C 
BRANCH  25  27
HETATM   27  O1  UNL     1      10.531  56.988   0.030  1.00  0.00    -0.362 OA
ATOM     28  H1  UNL     1      10.277  57.254   0.905  1.00  0.00     0.217 HD
ENDBRANCH  25  27
ENDBRANCH  11  25
ENDBRANCH   7  10
ENDBRANCH   1   4
TORSDOF 4
ENDMDL
