MODEL 7
REMARK VINA RESULT: -8.501856528      2.960      7.585
REMARK  4 active torsions:
REMARK  status: ('A' for Active; 'I' for Inactive)
REMARK    1  A    between atoms: C2_2  and  O1_3 
REMARK    2  A    between atoms: C2_2  and  C3_5 
REMARK    3  A    between atoms: N4_19  and  C11_20 
REMARK    4  A    between atoms: C14_23  and  C15_24 
ROOT
HETATM    1  C15 UNL     1       4.807  57.803   1.376  1.00  0.00     0.128 C 
HETATM    2  C16 UNL     1       5.849  58.266   0.483  1.00  0.00     0.059 C 
HETATM    3  N5  UNL     1       6.693  58.626  -0.226  1.00  0.00    -0.197 NA
ENDROOT
BRANCH   1   4
HETATM    4  C14 UNL     1       4.881  56.330   1.654  1.00  0.00    -0.001 C 
HETATM    5  C13 UNL     1       5.366  55.552   0.457  1.00  0.00     0.007 C 
HETATM    6  C12 UNL     1       5.415  54.091   0.839  1.00  0.00     0.026 C 
HETATM    7  C11 UNL     1       6.458  53.931   1.900  1.00  0.00     0.092 C 
HETATM    8  C18 UNL     1       5.924  54.617   3.145  1.00  0.00     0.026 C 
HETATM    9  C17 UNL     1       5.908  56.131   2.770  1.00  0.00     0.007 C 
BRANCH   7  10
HETATM   10  N4  UNL     1       7.011  52.632   2.057  1.00  0.00    -0.324 N 
HETATM   11  C3  UNL     1       6.446  51.561   2.640  1.00  0.00     0.138 A 
HETATM   12  N1  UNL     1       7.364  50.543   2.613  1.00  0.00    -0.337 N 
HETATM   13  C4  UNL     1       8.499  50.936   2.027  1.00  0.00     0.077 A 
ATOM     14  H1  UNL     1       7.201  49.610   2.991  1.00  0.00     0.167 HD
HETATM   15  C5  UNL     1       9.701  50.313   1.746  1.00  0.00     0.121 A 
HETATM   16  C10 UNL     1       8.267  52.262   1.675  1.00  0.00     0.079 A 
HETATM   17  N2  UNL     1      10.694  50.965   1.120  1.00  0.00    -0.349 N 
HETATM   18  C6  UNL     1      10.529  52.232   0.757  1.00  0.00     0.117 A 
ATOM     19  H2  UNL     1      11.573  50.487   0.922  1.00  0.00     0.167 HD
HETATM   20  N3  UNL     1      11.340  53.082   0.117  1.00  0.00    -0.352 N 
HETATM   21  C9  UNL     1       9.339  52.867   1.029  1.00  0.00     0.038 A 
HETATM   22  C7  UNL     1      10.740  54.251  -0.048  1.00  0.00     0.090 A 
ATOM     23  H3  UNL     1      12.285  52.861  -0.197  1.00  0.00     0.166 HD
HETATM   24  C8  UNL     1       9.469  54.129   0.526  1.00  0.00     0.034 A 
BRANCH  11  25
HETATM   25  C2  UNL     1       5.092  51.403   3.207  1.00  0.00     0.083 C 
HETATM   26  C1  UNL     1       4.023  51.056   2.229  1.00  0.00     0.080 C 
BRANCH  25  27
HETATM   27  O1  UNL     1       5.049  50.698   4.407  1.00  0.00    -0.362 OA
ATOM     28  H1  UNL     1       5.008  49.753   4.319  1.00  0.00     0.217 HD
ENDBRANCH  25  27
ENDBRANCH  11  25
ENDBRANCH   7  10
ENDBRANCH   1   4
TORSDOF 4
ENDMDL
