MODEL 1
REMARK VINA RESULT: -9.183085919      0.000      0.000
REMARK  5 active torsions:
REMARK  status: ('A' for Active; 'I' for Inactive)
REMARK    1  A    between atoms: C2_2  and  O1_3 
REMARK    2  A    between atoms: C2_2  and  C3_5 
REMARK    3  A    between atoms: N4_19  and  C11_20 
REMARK    4  A    between atoms: C14_23  and  C15_24 
REMARK    5  A    between atoms: C15_24  and  C16_25 
ROOT
HETATM    1  C16 UNL     1       5.192  51.893   1.664  1.00  0.00     0.124 C 
HETATM    2  C17 UNL     1       3.990  51.176   2.079  1.00  0.00     0.059 C 
HETATM    3  N5  UNL     1       3.044  50.589   2.399  1.00  0.00    -0.197 NA
ENDROOT
BRANCH   1   4
HETATM    4  C15 UNL     1       5.266  53.191   2.432  1.00  0.00     0.018 C 
BRANCH   4   5
HETATM    5  C14 UNL     1       5.808  54.334   1.604  1.00  0.00    -0.014 C 
HETATM    6  C13 UNL     1       7.066  54.935   2.195  1.00  0.00     0.007 C 
HETATM    7  C12 UNL     1       8.078  55.031   1.064  1.00  0.00     0.026 C 
HETATM    8  C11 UNL     1       7.814  55.838  -0.050  1.00  0.00     0.091 C 
HETATM    9  C19 UNL     1       6.489  55.178  -0.588  1.00  0.00     0.026 C 
HETATM   10  C18 UNL     1       5.985  53.997   0.181  1.00  0.00     0.007 C 
BRANCH   8  11
HETATM   11  N4  UNL     1       7.697  57.219  -0.291  1.00  0.00    -0.327 N 
HETATM   12  C3  UNL     1       8.685  57.854  -1.010  1.00  0.00     0.114 A 
HETATM   13  N1  UNL     1       8.298  59.119  -1.169  1.00  0.00    -0.341 N 
HETATM   14  C4  UNL     1       7.132  59.396  -0.613  1.00  0.00     0.077 A 
ATOM     15  H1  UNL     1       8.852  59.811  -1.674  1.00  0.00     0.167 HD
HETATM   16  C5  UNL     1       6.356  60.530  -0.498  1.00  0.00     0.121 A 
HETATM   17  C10 UNL     1       6.765  58.159  -0.048  1.00  0.00     0.078 A 
HETATM   18  N2  UNL     1       5.210  60.494   0.166  1.00  0.00    -0.349 N 
HETATM   19  C6  UNL     1       4.814  59.326   0.736  1.00  0.00     0.117 A 
ATOM     20  H2  UNL     1       4.634  61.332   0.248  1.00  0.00     0.167 HD
HETATM   21  N3  UNL     1       3.740  59.008   1.493  1.00  0.00    -0.352 N 
HETATM   22  C9  UNL     1       5.566  58.179   0.638  1.00  0.00     0.038 A 
HETATM   23  C7  UNL     1       3.804  57.728   1.862  1.00  0.00     0.090 A 
ATOM     24  H3  UNL     1       2.990  59.652   1.744  1.00  0.00     0.166 HD
HETATM   25  C8  UNL     1       4.980  57.170   1.321  1.00  0.00     0.034 A 
BRANCH  12  26
HETATM   26  C2  UNL     1      10.012  57.427  -1.532  1.00  0.00     0.181 C 
HETATM   27  C1  UNL     1      10.579  58.553  -2.449  1.00  0.00     0.047 C 
BRANCH  26  28
HETATM   28  O1  UNL     1      10.999  57.376  -0.525  1.00  0.00    -0.388 OA
ATOM     29  H1  UNL     1      10.543  56.890   0.152  1.00  0.00     0.210 HD
ENDBRANCH  26  28
ENDBRANCH  12  26
ENDBRANCH   8  11
ENDBRANCH   4   5
ENDBRANCH   1   4
TORSDOF 5
ENDMDL
