MODEL 5
REMARK VINA RESULT: -8.588640192      3.111      6.487
REMARK  5 active torsions:
REMARK  status: ('A' for Active; 'I' for Inactive)
REMARK    1  A    between atoms: C2_2  and  O1_3 
REMARK    2  A    between atoms: C2_2  and  C3_5 
REMARK    3  A    between atoms: N4_19  and  C11_20 
REMARK    4  A    between atoms: C14_23  and  C15_24 
REMARK    5  A    between atoms: C15_24  and  C16_25 
ROOT
HETATM    1  C16 UNL     1       4.641  58.444   0.503  1.00  0.00     0.124 C 
HETATM    2  C17 UNL     1       5.857  59.160   0.131  1.00  0.00     0.059 C 
HETATM    3  N5  UNL     1       6.812  59.740  -0.178  1.00  0.00    -0.197 NA
ENDROOT
BRANCH   1   4
HETATM    4  C15 UNL     1       4.884  57.726   1.808  1.00  0.00     0.018 C 
BRANCH   4   5
HETATM    5  C14 UNL     1       5.742  56.492   1.650  1.00  0.00    -0.014 C 
HETATM    6  C13 UNL     1       6.730  56.319   2.784  1.00  0.00     0.007 C 
HETATM    7  C12 UNL     1       6.604  54.880   3.259  1.00  0.00     0.026 C 
HETATM    8  C11 UNL     1       6.907  53.824   2.390  1.00  0.00     0.091 C 
HETATM    9  C19 UNL     1       5.871  54.085   1.232  1.00  0.00     0.026 C 
HETATM   10  C18 UNL     1       4.965  55.262   1.416  1.00  0.00     0.007 C 
BRANCH   8  11
HETATM   11  N4  UNL     1       8.069  53.321   1.778  1.00  0.00    -0.327 N 
HETATM   12  C3  UNL     1       8.338  51.974   1.867  1.00  0.00     0.114 A 
HETATM   13  N1  UNL     1       9.434  51.748   1.143  1.00  0.00    -0.341 N 
HETATM   14  C4  UNL     1       9.934  52.830   0.575  1.00  0.00     0.077 A 
ATOM     15  H1  UNL     1       9.848  50.822   1.037  1.00  0.00     0.167 HD
HETATM   16  C5  UNL     1      11.027  53.092  -0.223  1.00  0.00     0.121 A 
HETATM   17  C10 UNL     1       9.043  53.835   1.002  1.00  0.00     0.078 A 
HETATM   18  N2  UNL     1      11.286  54.328  -0.623  1.00  0.00    -0.349 N 
HETATM   19  C6  UNL     1      10.461  55.334  -0.232  1.00  0.00     0.117 A 
ATOM     20  H2  UNL     1      12.094  54.521  -1.215  1.00  0.00     0.167 HD
HETATM   21  N3  UNL     1      10.498  56.669  -0.445  1.00  0.00    -0.352 N 
HETATM   22  C9  UNL     1       9.362  55.105   0.562  1.00  0.00     0.038 A 
HETATM   23  C7  UNL     1       9.481  57.261   0.182  1.00  0.00     0.090 A 
ATOM     24  H3  UNL     1      11.201  57.152  -1.004  1.00  0.00     0.166 HD
HETATM   25  C8  UNL     1       8.731  56.267   0.843  1.00  0.00     0.034 A 
BRANCH  12  26
HETATM   26  C2  UNL     1       7.712  50.849   2.613  1.00  0.00     0.181 C 
HETATM   27  C1  UNL     1       8.469  49.531   2.266  1.00  0.00     0.047 C 
BRANCH  26  28
HETATM   28  O1  UNL     1       7.937  50.931   4.005  1.00  0.00    -0.388 OA
ATOM     29  H1  UNL     1       8.863  51.141   4.027  1.00  0.00     0.210 HD
ENDBRANCH  26  28
ENDBRANCH  12  26
ENDBRANCH   8  11
ENDBRANCH   4   5
ENDBRANCH   1   4
TORSDOF 5
ENDMDL
