MODEL 4
REMARK VINA RESULT: -8.606192859      2.516      6.563
REMARK  5 active torsions:
REMARK  status: ('A' for Active; 'I' for Inactive)
REMARK    1  A    between atoms: C2_2  and  O1_3 
REMARK    2  A    between atoms: C2_2  and  C3_5 
REMARK    3  A    between atoms: N4_19  and  C11_20 
REMARK    4  A    between atoms: C14_23  and  C15_24 
REMARK    5  A    between atoms: C15_24  and  C16_25 
ROOT
HETATM    1  C16 UNL     1       5.432  58.818  -0.197  1.00  0.00     0.124 C 
HETATM    2  C17 UNL     1       5.632  60.215   0.174  1.00  0.00     0.059 C 
HETATM    3  N5  UNL     1       5.788  61.330   0.449  1.00  0.00    -0.197 NA
ENDROOT
BRANCH   1   4
HETATM    4  C15 UNL     1       5.201  58.014   1.060  1.00  0.00     0.018 C 
BRANCH   4   5
HETATM    5  C14 UNL     1       6.101  56.804   1.158  1.00  0.00    -0.014 C 
HETATM    6  C13 UNL     1       5.456  55.553   0.600  1.00  0.00     0.007 C 
HETATM    7  C12 UNL     1       6.473  54.916  -0.335  1.00  0.00     0.026 C 
HETATM    8  C11 UNL     1       7.701  54.464   0.164  1.00  0.00     0.091 C 
HETATM    9  C19 UNL     1       8.294  55.800   0.749  1.00  0.00     0.026 C 
HETATM   10  C18 UNL     1       7.443  57.021   0.590  1.00  0.00     0.007 C 
BRANCH   8  11
HETATM   11  N4  UNL     1       8.125  53.432   1.020  1.00  0.00    -0.327 N 
HETATM   12  C3  UNL     1       9.468  53.302   1.292  1.00  0.00     0.114 A 
HETATM   13  N1  UNL     1       9.592  52.319   2.182  1.00  0.00    -0.341 N 
HETATM   14  C4  UNL     1       8.445  51.765   2.532  1.00  0.00     0.077 A 
ATOM     15  H1  UNL     1      10.492  52.020   2.559  1.00  0.00     0.167 HD
HETATM   16  C5  UNL     1       8.079  50.738   3.376  1.00  0.00     0.121 A 
HETATM   17  C10 UNL     1       7.512  52.494   1.768  1.00  0.00     0.078 A 
HETATM   18  N2  UNL     1       6.807  50.389   3.497  1.00  0.00    -0.349 N 
HETATM   19  C6  UNL     1       5.868  51.056   2.775  1.00  0.00     0.117 A 
ATOM     20  H2  UNL     1       6.536  49.631   4.123  1.00  0.00     0.167 HD
HETATM   21  N3  UNL     1       4.530  50.897   2.664  1.00  0.00    -0.352 N 
HETATM   22  C9  UNL     1       6.201  52.086   1.927  1.00  0.00     0.038 A 
HETATM   23  C7  UNL     1       4.036  51.774   1.790  1.00  0.00     0.090 A 
ATOM     24  H3  UNL     1       3.980  50.207   3.175  1.00  0.00     0.166 HD
HETATM   25  C8  UNL     1       5.101  52.555   1.297  1.00  0.00     0.034 A 
BRANCH  12  26
HETATM   26  C2  UNL     1      10.691  53.966   0.765  1.00  0.00     0.181 C 
HETATM   27  C1  UNL     1      11.945  53.252   1.353  1.00  0.00     0.047 C 
BRANCH  26  28
HETATM   28  O1  UNL     1      10.876  53.741  -0.617  1.00  0.00    -0.388 OA
ATOM     29  H1  UNL     1      10.086  54.133  -0.972  1.00  0.00     0.210 HD
ENDBRANCH  26  28
ENDBRANCH  12  26
ENDBRANCH   8  11
ENDBRANCH   4   5
ENDBRANCH   1   4
TORSDOF 5
ENDMDL
