MODEL 2
REMARK VINA RESULT: -8.913896801      3.141      7.262
REMARK  5 active torsions:
REMARK  status: ('A' for Active; 'I' for Inactive)
REMARK    1  A    between atoms: C2_2  and  O1_3 
REMARK    2  A    between atoms: C2_2  and  C3_5 
REMARK    3  A    between atoms: N4_19  and  C11_20 
REMARK    4  A    between atoms: C14_23  and  C15_24 
REMARK    5  A    between atoms: C15_24  and  C16_25 
ROOT
HETATM    1  C16 UNL     1       5.384  58.623  -0.122  1.00  0.00     0.124 C 
HETATM    2  C17 UNL     1       6.007  59.929   0.065  1.00  0.00     0.059 C 
HETATM    3  N5  UNL     1       6.499  60.971   0.194  1.00  0.00    -0.197 NA
ENDROOT
BRANCH   1   4
HETATM    4  C15 UNL     1       5.044  58.053   1.234  1.00  0.00     0.018 C 
BRANCH   4   5
HETATM    5  C14 UNL     1       5.434  56.600   1.376  1.00  0.00    -0.014 C 
HETATM    6  C13 UNL     1       6.677  56.411   2.220  1.00  0.00     0.007 C 
HETATM    7  C12 UNL     1       6.355  55.326   3.237  1.00  0.00     0.026 C 
HETATM    8  C11 UNL     1       6.043  54.031   2.809  1.00  0.00     0.091 C 
HETATM    9  C19 UNL     1       4.772  54.309   1.920  1.00  0.00     0.026 C 
HETATM   10  C18 UNL     1       4.331  55.736   1.834  1.00  0.00     0.007 C 
BRANCH   8  11
HETATM   11  N4  UNL     1       6.739  52.977   2.188  1.00  0.00    -0.327 N 
HETATM   12  C3  UNL     1       6.227  51.702   2.271  1.00  0.00     0.114 A 
HETATM   13  N1  UNL     1       7.017  50.917   1.540  1.00  0.00    -0.341 N 
HETATM   14  C4  UNL     1       8.027  51.553   0.972  1.00  0.00     0.077 A 
ATOM     15  H1  UNL     1       6.857  49.916   1.428  1.00  0.00     0.167 HD
HETATM   16  C5  UNL     1       9.083  51.178   0.169  1.00  0.00     0.121 A 
HETATM   17  C10 UNL     1       7.832  52.879   1.407  1.00  0.00     0.078 A 
HETATM   18  N2  UNL     1       9.975  52.073  -0.228  1.00  0.00    -0.349 N 
HETATM   19  C6  UNL     1       9.836  53.365   0.170  1.00  0.00     0.117 A 
ATOM     20  H2  UNL     1      10.754  51.796  -0.825  1.00  0.00     0.167 HD
HETATM   21  N3  UNL     1      10.597  54.463  -0.038  1.00  0.00    -0.352 N 
HETATM   22  C9  UNL     1       8.793  53.770   0.970  1.00  0.00     0.038 A 
HETATM   23  C7  UNL     1      10.072  55.511   0.597  1.00  0.00     0.090 A 
ATOM     24  H3  UNL     1      11.448  54.486  -0.600  1.00  0.00     0.166 HD
HETATM   25  C8  UNL     1       8.902  55.086   1.259  1.00  0.00     0.034 A 
BRANCH  12  26
HETATM   26  C2  UNL     1       5.089  51.098   3.017  1.00  0.00     0.181 C 
HETATM   27  C1  UNL     1       4.868  49.643   2.506  1.00  0.00     0.047 C 
BRANCH  26  28
HETATM   28  O1  UNL     1       5.396  50.864   4.375  1.00  0.00    -0.388 OA
ATOM     29  H1  UNL     1       4.663  50.320   4.636  1.00  0.00     0.210 HD
ENDBRANCH  26  28
ENDBRANCH  12  26
ENDBRANCH   8  11
ENDBRANCH   4   5
ENDBRANCH   1   4
TORSDOF 5
ENDMDL
