MODEL 9
REMARK VINA RESULT: -6.481125596      1.734      1.734
REMARK  5 active torsions:
REMARK  status: ('A' for Active; 'I' for Inactive)
REMARK    1  A    between atoms: N1_1  and  S1_4 
REMARK    2  A    between atoms: S1_4  and  C1_7 
REMARK    3  A    between atoms: C2_12  and  N4_13 
REMARK       I    between atoms: N4_13  and  C3_15 
REMARK    4  A    between atoms: C3_15  and  C4_17 
REMARK    5  A    between atoms: C4_17  and  C5_18 
ROOT
HETATM    1  C1  UNL     1      15.754   2.497  16.023  1.00  0.00     0.208 A 
HETATM    2  N2  UNL     1      17.033   2.502  15.666  1.00  0.00    -0.281 N 
ATOM      3  H2  UNL     1      17.701   1.898  16.145  1.00  0.00     0.188 HD
HETATM    4  N3  UNL     1      17.420   3.257  14.731  1.00  0.00    -0.278 N 
ATOM      5  H3  UNL     1      18.402   3.263  14.454  1.00  0.00     0.189 HD
HETATM    6  C2  UNL     1      16.550   4.043  14.107  1.00  0.00     0.168 A 
HETATM    7  S3  UNL     1      15.105   3.647  14.939  1.00  0.00    -0.020 SA
ENDROOT
BRANCH   6   8
HETATM    8  N4  UNL     1      16.781   4.966  13.032  1.00  0.00    -0.306 N 
HETATM    9  C3  UNL     1      17.240   6.273  13.341  1.00  0.00     0.228 C 
HETATM   10  O3  UNL     1      17.437   6.598  14.567  1.00  0.00    -0.273 OA
ATOM     11  H4  UNL     1      16.619   4.688  12.064  1.00  0.00     0.171 HD
BRANCH   9  12
HETATM   12  C4  UNL     1      17.490   7.245  12.278  1.00  0.00     0.149 C 
BRANCH  12  13
HETATM   13  C5  UNL     1      16.254   7.309  11.411  1.00  0.00    -0.009 A 
HETATM   14  C6  UNL     1      15.042   7.850  11.738  1.00  0.00     0.015 A 
HETATM   15  C7  UNL     1      14.071   7.800  10.807  1.00  0.00     0.008 A 
HETATM   16  C8  UNL     1      14.382   7.209   9.614  1.00  0.00     0.050 A 
HETATM   17  S2  UNL     1      16.007   6.746   9.822  1.00  0.00    -0.106 SA
ENDBRANCH  12  13
ENDBRANCH   9  12
ENDBRANCH   6   8
BRANCH   1  18
HETATM   18  S1  UNL     1      15.025   1.524  17.291  1.00  0.00     0.280 S 
HETATM   19  O1  UNL     1      13.652   1.059  16.831  1.00  0.00    -0.199 OA
HETATM   20  O2  UNL     1      15.847   0.278  17.537  1.00  0.00    -0.199 OA
BRANCH  18  21
HETATM   21  N1  UNL     1      14.912   2.386  18.764  1.00  0.00    -0.323 N 
ATOM     22  H12 UNL     1      14.707   3.384  18.822  1.00  0.00     0.169 HD
ATOM     23  H11 UNL     1      15.077   1.770  19.559  1.00  0.00     0.169 HD
ENDBRANCH  18  21
ENDBRANCH   1  18
TORSDOF 5
ENDMDL
