MODEL 1
REMARK VINA RESULT: -6.803004074      0.000      0.000
REMARK  5 active torsions:
REMARK  status: ('A' for Active; 'I' for Inactive)
REMARK    1  A    between atoms: N1_1  and  S1_4 
REMARK    2  A    between atoms: S1_4  and  C1_7 
REMARK    3  A    between atoms: C2_12  and  N4_13 
REMARK       I    between atoms: N4_13  and  C3_15 
REMARK    4  A    between atoms: C3_15  and  C4_17 
REMARK    5  A    between atoms: C4_17  and  C5_18 
ROOT
HETATM    1  C1  UNL     1      15.897   2.223  15.510  1.00  0.00     0.208 A 
HETATM    2  N2  UNL     1      16.947   2.005  14.726  1.00  0.00    -0.281 N 
ATOM      3  H2  UNL     1      17.459   1.125  14.790  1.00  0.00     0.188 HD
HETATM    4  N3  UNL     1      17.308   2.891  13.902  1.00  0.00    -0.278 N 
ATOM      5  H3  UNL     1      18.115   2.727  13.299  1.00  0.00     0.189 HD
HETATM    6  C2  UNL     1      16.640   4.036  13.820  1.00  0.00     0.168 A 
HETATM    7  S3  UNL     1      15.431   3.789  15.009  1.00  0.00    -0.020 SA
ENDROOT
BRANCH   6   8
HETATM    8  N4  UNL     1      16.884   5.160  12.961  1.00  0.00    -0.306 N 
HETATM    9  C3  UNL     1      16.602   5.035  11.576  1.00  0.00     0.228 C 
HETATM   10  O3  UNL     1      16.139   3.926  11.125  1.00  0.00    -0.273 OA
ATOM     11  H4  UNL     1      17.252   6.032  13.339  1.00  0.00     0.171 HD
BRANCH   9  12
HETATM   12  C4  UNL     1      16.835   6.154  10.664  1.00  0.00     0.149 C 
BRANCH  12  13
HETATM   13  C5  UNL     1      15.566   6.971  10.603  1.00  0.00    -0.009 A 
HETATM   14  C6  UNL     1      14.956   7.629  11.634  1.00  0.00     0.015 A 
HETATM   15  C7  UNL     1      13.824   8.303  11.354  1.00  0.00     0.008 A 
HETATM   16  C8  UNL     1      13.382   8.268  10.061  1.00  0.00     0.050 A 
HETATM   17  S2  UNL     1      14.548   7.306   9.278  1.00  0.00    -0.106 SA
ENDBRANCH  12  13
ENDBRANCH   9  12
ENDBRANCH   6   8
BRANCH   1  18
HETATM   18  S1  UNL     1      15.242   1.122  16.713  1.00  0.00     0.280 S 
HETATM   19  O1  UNL     1      15.605  -0.304  16.327  1.00  0.00    -0.199 OA
HETATM   20  O2  UNL     1      15.872   1.382  18.063  1.00  0.00    -0.199 OA
BRANCH  18  21
HETATM   21  N1  UNL     1      13.548   1.295  16.873  1.00  0.00    -0.323 N 
ATOM     22  H12 UNL     1      13.060   2.188  16.795  1.00  0.00     0.169 HD
ATOM     23  H11 UNL     1      13.107   0.394  17.053  1.00  0.00     0.169 HD
ENDBRANCH  18  21
ENDBRANCH   1  18
TORSDOF 5
ENDMDL
