MODEL 8
REMARK VINA RESULT: -6.494874778      2.923      4.068
REMARK  5 active torsions:
REMARK  status: ('A' for Active; 'I' for Inactive)
REMARK    1  A    between atoms: N1_1  and  S1_4 
REMARK    2  A    between atoms: S1_4  and  C1_7 
REMARK    3  A    between atoms: C2_12  and  N4_13 
REMARK       I    between atoms: N4_13  and  C3_15 
REMARK    4  A    between atoms: C3_15  and  C4_17 
REMARK    5  A    between atoms: C4_17  and  C5_18 
ROOT
HETATM    1  C1  UNL     1      16.028   1.768  15.450  1.00  0.00     0.208 A 
HETATM    2  N2  UNL     1      16.692   1.034  14.564  1.00  0.00    -0.281 N 
ATOM      3  H2  UNL     1      16.740   0.021  14.673  1.00  0.00     0.188 HD
HETATM    4  N3  UNL     1      17.262   1.594  13.587  1.00  0.00    -0.278 N 
ATOM      5  H3  UNL     1      17.773   1.033  12.905  1.00  0.00     0.189 HD
HETATM    6  C2  UNL     1      17.198   2.914  13.446  1.00  0.00     0.168 A 
HETATM    7  S3  UNL     1      16.256   3.337  14.814  1.00  0.00    -0.020 SA
ENDROOT
BRANCH   6   8
HETATM    8  N4  UNL     1      17.770   3.737  12.420  1.00  0.00    -0.306 N 
HETATM    9  C3  UNL     1      17.213   3.689  11.115  1.00  0.00     0.228 C 
HETATM   10  O3  UNL     1      16.216   2.915  10.885  1.00  0.00    -0.273 OA
ATOM     11  H4  UNL     1      18.563   4.346  12.623  1.00  0.00     0.171 HD
BRANCH   9  12
HETATM   12  C4  UNL     1      17.764   4.511  10.039  1.00  0.00     0.149 C 
BRANCH  12  13
HETATM   13  C5  UNL     1      19.262   4.312  10.027  1.00  0.00    -0.009 A 
HETATM   14  C6  UNL     1      19.942   3.176   9.687  1.00  0.00     0.015 A 
HETATM   15  C7  UNL     1      21.286   3.219   9.746  1.00  0.00     0.008 A 
HETATM   16  C8  UNL     1      21.855   4.397  10.142  1.00  0.00     0.050 A 
HETATM   17  S2  UNL     1      20.510   5.404  10.418  1.00  0.00    -0.106 SA
ENDBRANCH  12  13
ENDBRANCH   9  12
ENDBRANCH   6   8
BRANCH   1  18
HETATM   18  S1  UNL     1      15.173   1.179  16.868  1.00  0.00     0.280 S 
HETATM   19  O1  UNL     1      15.405  -0.319  16.997  1.00  0.00    -0.199 OA
HETATM   20  O2  UNL     1      15.731   1.816  18.120  1.00  0.00    -0.199 OA
BRANCH  18  21
HETATM   21  N1  UNL     1      13.501   1.531  16.789  1.00  0.00    -0.323 N 
ATOM     22  H12 UNL     1      12.920   1.340  15.973  1.00  0.00     0.169 HD
ATOM     23  H11 UNL     1      13.178   1.951  17.660  1.00  0.00     0.169 HD
ENDBRANCH  18  21
ENDBRANCH   1  18
TORSDOF 5
ENDMDL
