MODEL 4
REMARK VINA RESULT: -6.616523982      3.882      7.272
REMARK  5 active torsions:
REMARK  status: ('A' for Active; 'I' for Inactive)
REMARK    1  A    between atoms: N1_1  and  S1_4 
REMARK    2  A    between atoms: S1_4  and  C1_7 
REMARK    3  A    between atoms: C2_12  and  N4_13 
REMARK       I    between atoms: N4_13  and  C3_15 
REMARK    4  A    between atoms: C3_15  and  C4_17 
REMARK    5  A    between atoms: C4_17  and  C5_18 
ROOT
HETATM    1  C1  UNL     1      19.174   3.327  10.460  1.00  0.00     0.208 A 
HETATM    2  N2  UNL     1      19.334   2.605  11.564  1.00  0.00    -0.281 N 
ATOM      3  H2  UNL     1      20.191   2.069  11.706  1.00  0.00     0.188 HD
HETATM    4  N3  UNL     1      18.423   2.584  12.437  1.00  0.00    -0.278 N 
ATOM      5  H3  UNL     1      18.542   2.030  13.286  1.00  0.00     0.189 HD
HETATM    6  C2  UNL     1      17.308   3.283  12.252  1.00  0.00     0.168 A 
HETATM    7  S3  UNL     1      17.625   3.996  10.726  1.00  0.00    -0.020 SA
ENDROOT
BRANCH   6   8
HETATM    8  N4  UNL     1      16.163   3.393  13.110  1.00  0.00    -0.306 N 
HETATM    9  C3  UNL     1      16.296   4.089  14.340  1.00  0.00     0.228 C 
HETATM   10  O3  UNL     1      17.430   4.601  14.654  1.00  0.00    -0.273 OA
ATOM     11  H4  UNL     1      15.270   2.980  12.842  1.00  0.00     0.171 HD
BRANCH   9  12
HETATM   12  C4  UNL     1      15.156   4.226  15.245  1.00  0.00     0.149 C 
BRANCH  12  13
HETATM   13  C5  UNL     1      15.033   2.942  16.031  1.00  0.00    -0.009 A 
HETATM   14  C6  UNL     1      13.902   2.422  16.595  1.00  0.00     0.015 A 
HETATM   15  C7  UNL     1      14.019   1.256  17.255  1.00  0.00     0.008 A 
HETATM   16  C8  UNL     1      15.263   0.691  17.306  1.00  0.00     0.050 A 
HETATM   17  S2  UNL     1      16.225   1.794  16.436  1.00  0.00    -0.106 SA
ENDBRANCH  12  13
ENDBRANCH   9  12
ENDBRANCH   6   8
BRANCH   1  18
HETATM   18  S1  UNL     1      20.320   3.484   9.137  1.00  0.00     0.280 S 
HETATM   19  O1  UNL     1      20.664   2.097   8.614  1.00  0.00    -0.199 OA
HETATM   20  O2  UNL     1      19.695   4.241   7.987  1.00  0.00    -0.199 OA
BRANCH  18  21
HETATM   21  N1  UNL     1      21.733   4.318   9.620  1.00  0.00    -0.323 N 
ATOM     22  H12 UNL     1      21.814   5.335   9.632  1.00  0.00     0.169 HD
ATOM     23  H11 UNL     1      22.466   3.663   9.890  1.00  0.00     0.169 HD
ENDBRANCH  18  21
ENDBRANCH   1  18
TORSDOF 5
ENDMDL
