MODEL 5
REMARK VINA RESULT: -6.606234102      1.406      1.647
REMARK  5 active torsions:
REMARK  status: ('A' for Active; 'I' for Inactive)
REMARK    1  A    between atoms: N1_1  and  S1_4 
REMARK    2  A    between atoms: S1_4  and  C1_7 
REMARK    3  A    between atoms: C2_12  and  N4_13 
REMARK       I    between atoms: N4_13  and  C3_15 
REMARK    4  A    between atoms: C3_15  and  C4_17 
REMARK    5  A    between atoms: C4_17  and  C5_18 
ROOT
HETATM    1  C1  UNL     1      16.669   2.634  14.506  1.00  0.00     0.208 A 
HETATM    2  N2  UNL     1      17.307   2.736  13.345  1.00  0.00    -0.281 N 
ATOM      3  H2  UNL     1      17.738   1.912  12.924  1.00  0.00     0.188 HD
HETATM    4  N3  UNL     1      17.378   3.855  12.765  1.00  0.00    -0.278 N 
ATOM      5  H3  UNL     1      17.868   3.936  11.874  1.00  0.00     0.189 HD
HETATM    6  C2  UNL     1      16.816   4.926  13.314  1.00  0.00     0.168 A 
HETATM    7  S3  UNL     1      16.159   4.246  14.744  1.00  0.00    -0.020 SA
ENDROOT
BRANCH   6   8
HETATM    8  N4  UNL     1      16.783   6.275  12.825  1.00  0.00    -0.306 N 
HETATM    9  C3  UNL     1      16.266   6.518  11.526  1.00  0.00     0.228 C 
HETATM   10  O3  UNL     1      15.842   5.531  10.823  1.00  0.00    -0.273 OA
ATOM     11  H4  UNL     1      17.125   7.045  13.400  1.00  0.00     0.171 HD
BRANCH   9  12
HETATM   12  C4  UNL     1      16.213   7.876  10.987  1.00  0.00     0.149 C 
BRANCH  12  13
HETATM   13  C5  UNL     1      15.028   7.955  10.053  1.00  0.00    -0.009 A 
HETATM   14  C6  UNL     1      13.733   8.238  10.383  1.00  0.00     0.015 A 
HETATM   15  C7  UNL     1      12.830   8.258   9.384  1.00  0.00     0.008 A 
HETATM   16  C8  UNL     1      13.289   7.992   8.125  1.00  0.00     0.050 A 
HETATM   17  S2  UNL     1      14.953   7.725   8.367  1.00  0.00    -0.106 SA
ENDBRANCH  12  13
ENDBRANCH   9  12
ENDBRANCH   6   8
BRANCH   1  18
HETATM   18  S1  UNL     1      16.463   1.174  15.462  1.00  0.00     0.280 S 
HETATM   19  O1  UNL     1      16.417  -0.026  14.528  1.00  0.00    -0.199 OA
HETATM   20  O2  UNL     1      17.651   0.971  16.375  1.00  0.00    -0.199 OA
BRANCH  18  21
HETATM   21  N1  UNL     1      15.054   1.246  16.429  1.00  0.00    -0.323 N 
ATOM     22  H12 UNL     1      14.793   0.528  17.105  1.00  0.00     0.169 HD
ATOM     23  H11 UNL     1      14.523   2.094  16.233  1.00  0.00     0.169 HD
ENDBRANCH  18  21
ENDBRANCH   1  18
TORSDOF 5
ENDMDL
