MODEL 6
REMARK VINA RESULT: -6.509718665      3.374      4.442
REMARK  5 active torsions:
REMARK  status: ('A' for Active; 'I' for Inactive)
REMARK    1  A    between atoms: N1_1  and  S1_4 
REMARK    2  A    between atoms: S1_4  and  C1_7 
REMARK    3  A    between atoms: C2_12  and  N4_13 
REMARK       I    between atoms: N4_13  and  C3_15 
REMARK    4  A    between atoms: C3_15  and  C4_17 
REMARK    5  A    between atoms: C4_17  and  C5_18 
ROOT
HETATM    1  C1  UNL     1      15.751   1.918  15.714  1.00  0.00     0.208 A 
HETATM    2  N2  UNL     1      16.756   1.370  15.039  1.00  0.00    -0.281 N 
ATOM      3  H2  UNL     1      17.121   0.458  15.315  1.00  0.00     0.188 HD
HETATM    4  N3  UNL     1      17.257   1.981  14.054  1.00  0.00    -0.278 N 
ATOM      5  H3  UNL     1      18.028   1.563  13.534  1.00  0.00     0.189 HD
HETATM    6  C2  UNL     1      16.779   3.168  13.695  1.00  0.00     0.168 A 
HETATM    7  S3  UNL     1      15.543   3.383  14.861  1.00  0.00    -0.020 SA
ENDROOT
BRANCH   6   8
HETATM    8  N4  UNL     1      17.202   4.019  12.619  1.00  0.00    -0.306 N 
HETATM    9  C3  UNL     1      18.546   4.475  12.598  1.00  0.00     0.228 C 
HETATM   10  O3  UNL     1      19.347   4.119  13.535  1.00  0.00    -0.273 OA
ATOM     11  H4  UNL     1      16.550   4.290  11.884  1.00  0.00     0.171 HD
BRANCH   9  12
HETATM   12  C4  UNL     1      19.020   5.343  11.521  1.00  0.00     0.149 C 
BRANCH  12  13
HETATM   13  C5  UNL     1      20.007   4.554  10.693  1.00  0.00    -0.009 A 
HETATM   14  C6  UNL     1      19.728   3.552   9.807  1.00  0.00     0.015 A 
HETATM   15  C7  UNL     1      20.768   2.980   9.171  1.00  0.00     0.008 A 
HETATM   16  C8  UNL     1      22.016   3.452   9.469  1.00  0.00     0.050 A 
HETATM   17  S2  UNL     1      21.705   4.670  10.618  1.00  0.00    -0.106 SA
ENDBRANCH  12  13
ENDBRANCH   9  12
ENDBRANCH   6   8
BRANCH   1  18
HETATM   18  S1  UNL     1      14.925   1.229  17.104  1.00  0.00     0.280 S 
HETATM   19  O1  UNL     1      13.449   1.068  16.772  1.00  0.00    -0.199 OA
HETATM   20  O2  UNL     1      15.459  -0.155  17.400  1.00  0.00    -0.199 OA
BRANCH  18  21
HETATM   21  N1  UNL     1      15.132   2.191  18.502  1.00  0.00    -0.323 N 
ATOM     22  H12 UNL     1      15.461   3.157  18.482  1.00  0.00     0.169 HD
ATOM     23  H11 UNL     1      14.885   1.668  19.342  1.00  0.00     0.169 HD
ENDBRANCH  18  21
ENDBRANCH   1  18
TORSDOF 5
ENDMDL
