MODEL 7
REMARK VINA RESULT: -6.502445734      1.610      1.751
REMARK  5 active torsions:
REMARK  status: ('A' for Active; 'I' for Inactive)
REMARK    1  A    between atoms: N1_1  and  S1_4 
REMARK    2  A    between atoms: S1_4  and  C1_7 
REMARK    3  A    between atoms: C2_12  and  N4_13 
REMARK       I    between atoms: N4_13  and  C3_15 
REMARK    4  A    between atoms: C3_15  and  C4_17 
REMARK    5  A    between atoms: C4_17  and  C5_18 
ROOT
HETATM    1  C1  UNL     1      16.085   2.654  15.126  1.00  0.00     0.208 A 
HETATM    2  N2  UNL     1      14.946   3.336  15.195  1.00  0.00    -0.281 N 
ATOM      3  H2  UNL     1      14.134   2.930  15.658  1.00  0.00     0.188 HD
HETATM    4  N3  UNL     1      14.874   4.489  14.685  1.00  0.00    -0.278 N 
ATOM      5  H3  UNL     1      14.002   5.015  14.736  1.00  0.00     0.189 HD
HETATM    6  C2  UNL     1      15.934   5.017  14.082  1.00  0.00     0.168 A 
HETATM    7  S3  UNL     1      17.078   3.757  14.279  1.00  0.00    -0.020 SA
ENDROOT
BRANCH   6   8
HETATM    8  N4  UNL     1      16.061   6.297  13.445  1.00  0.00    -0.306 N 
HETATM    9  C3  UNL     1      16.178   6.348  12.032  1.00  0.00     0.228 C 
HETATM   10  O3  UNL     1      16.168   5.254  11.359  1.00  0.00    -0.273 OA
ATOM     11  H4  UNL     1      16.066   7.154  13.997  1.00  0.00     0.171 HD
BRANCH   9  12
HETATM   12  C4  UNL     1      16.308   7.629  11.340  1.00  0.00     0.149 C 
BRANCH  12  13
HETATM   13  C5  UNL     1      15.140   7.763  10.392  1.00  0.00    -0.009 A 
HETATM   14  C6  UNL     1      13.880   8.203  10.688  1.00  0.00     0.015 A 
HETATM   15  C7  UNL     1      12.986   8.243   9.682  1.00  0.00     0.008 A 
HETATM   16  C8  UNL     1      13.417   7.839   8.450  1.00  0.00     0.050 A 
HETATM   17  S2  UNL     1      15.044   7.418   8.726  1.00  0.00    -0.106 SA
ENDBRANCH  12  13
ENDBRANCH   9  12
ENDBRANCH   6   8
BRANCH   1  18
HETATM   18  S1  UNL     1      16.383   1.047  15.771  1.00  0.00     0.280 S 
HETATM   19  O1  UNL     1      16.321   0.039  14.633  1.00  0.00    -0.199 OA
HETATM   20  O2  UNL     1      17.776   0.963  16.352  1.00  0.00    -0.199 OA
BRANCH  18  21
HETATM   21  N1  UNL     1      15.266   0.644  17.002  1.00  0.00    -0.323 N 
ATOM     22  H12 UNL     1      14.265   0.524  16.842  1.00  0.00     0.169 HD
ATOM     23  H11 UNL     1      15.738   0.542  17.900  1.00  0.00     0.169 HD
ENDBRANCH  18  21
ENDBRANCH   1  18
TORSDOF 5
ENDMDL
