MODEL 16
REMARK VINA RESULT: -8.727951558      2.632      2.864
REMARK  6 active torsions:
REMARK  status: ('A' for Active; 'I' for Inactive)
REMARK    1  A    between atoms: N4_13  and  C6_14 
REMARK    2  A    between atoms: C7_16  and  C8_17 
REMARK    3  A    between atoms: C8_17  and  O3_18 
REMARK    4  A    between atoms: O3_18  and  P1_19 
REMARK    5  A    between atoms: C9_23  and  O7_24 
REMARK    6  A    between atoms: C10_26  and  O8_27 
ROOT
HETATM    1  C6  UNL     1      17.684 -33.452   5.468  1.00  0.00     0.262 C 
HETATM    2  O2  UNL     1      16.784 -34.194   4.638  1.00  0.00    -0.353 OA
HETATM    3  C7  UNL     1      17.615 -35.072   4.071  1.00  0.00     0.180 C 
HETATM    4  C9  UNL     1      18.688 -35.511   5.001  1.00  0.00     0.182 C 
HETATM    5  C10 UNL     1      18.336 -34.637   6.214  1.00  0.00     0.198 C 
ENDROOT
BRANCH   1   6
HETATM    6  N4  UNL     1      17.033 -32.581   6.360  1.00  0.00    -0.297 N 
HETATM    7  C3  UNL     1      17.384 -31.285   6.568  1.00  0.00     0.144 A 
HETATM    8  N2  UNL     1      18.336 -30.491   6.039  1.00  0.00    -0.336 N 
HETATM    9  C4  UNL     1      16.515 -30.800   7.559  1.00  0.00     0.146 A 
HETATM   10  C2  UNL     1      18.449 -29.226   6.473  1.00  0.00     0.185 A 
ATOM     11  H2  UNL     1      18.963 -30.847   5.318  1.00  0.00     0.168 HD
HETATM   12  N1  UNL     1      17.642 -28.725   7.411  1.00  0.00    -0.318 N 
HETATM   13  C1  UNL     1      16.681 -29.508   7.948  1.00  0.00     0.277 A 
ATOM     14  H1  UNL     1      17.751 -27.759   7.721  1.00  0.00     0.169 HD
HETATM   15  O1  UNL     1      15.915 -29.097   8.827  1.00  0.00    -0.266 OA
HETATM   16  N3  UNL     1      15.720 -31.820   7.883  1.00  0.00    -0.345 N 
HETATM   17  C5  UNL     1      16.015 -32.908   7.166  1.00  0.00     0.188 A 
ATOM     18  H3  UNL     1      14.983 -31.775   8.586  1.00  0.00     0.167 HD
ENDBRANCH   1   6
BRANCH   5  19
HETATM   19  O8  UNL     1      19.450 -34.226   6.890  1.00  0.00    -0.388 OA
ATOM     20  H8  UNL     1      19.633 -34.807   7.619  1.00  0.00     0.210 HD
ENDBRANCH   5  19
BRANCH   3  21
HETATM   21  C8  UNL     1      17.095 -36.236   3.285  1.00  0.00     0.217 C 
BRANCH  21  22
HETATM   22  O3  UNL     1      18.179 -36.386   2.328  1.00  0.00    -0.280 OA
BRANCH  22  23
HETATM   23  P1  UNL     1      17.450 -36.782   0.842  1.00  0.00     0.422 P 
HETATM   24  O4  UNL     1      15.948 -36.301   0.996  1.00  0.00    -0.617 OA
HETATM   25  O5  UNL     1      17.274 -38.461   0.714  1.00  0.00    -0.617 OA
HETATM   26  O6  UNL     1      18.049 -36.000  -0.459  1.00  0.00    -0.617 OA
ENDBRANCH  22  23
ENDBRANCH  21  22
ENDBRANCH   3  21
BRANCH   4  27
HETATM   27  O7  UNL     1      19.960 -35.014   4.592  1.00  0.00    -0.390 OA
ATOM     28  H7  UNL     1      20.312 -35.523   3.872  1.00  0.00     0.210 HD
ENDBRANCH   4  27
TORSDOF 6
ENDMDL
