MODEL 20
REMARK VINA RESULT: -8.585050837      3.511      6.943
REMARK  6 active torsions:
REMARK  status: ('A' for Active; 'I' for Inactive)
REMARK    1  A    between atoms: N4_13  and  C6_14 
REMARK    2  A    between atoms: C7_16  and  C8_17 
REMARK    3  A    between atoms: C8_17  and  O3_18 
REMARK    4  A    between atoms: O3_18  and  P1_19 
REMARK    5  A    between atoms: C9_23  and  O7_24 
REMARK    6  A    between atoms: C10_26  and  O8_27 
ROOT
HETATM    1  C6  UNL     1      18.382 -33.609   8.787  1.00  0.00     0.262 C 
HETATM    2  O2  UNL     1      17.933 -32.351   8.275  1.00  0.00    -0.353 OA
HETATM    3  C7  UNL     1      18.431 -31.506   9.180  1.00  0.00     0.180 C 
HETATM    4  C9  UNL     1      19.757 -31.946   9.689  1.00  0.00     0.182 C 
HETATM    5  C10 UNL     1      19.884 -33.274   8.928  1.00  0.00     0.198 C 
ENDROOT
BRANCH   1   6
HETATM    6  N4  UNL     1      18.178 -34.681   7.900  1.00  0.00    -0.297 N 
HETATM    7  C3  UNL     1      18.029 -34.553   6.556  1.00  0.00     0.144 A 
HETATM    8  N2  UNL     1      18.047 -33.494   5.723  1.00  0.00    -0.336 N 
HETATM    9  C4  UNL     1      17.804 -35.848   6.063  1.00  0.00     0.146 A 
HETATM   10  C2  UNL     1      17.844 -33.689   4.410  1.00  0.00     0.185 A 
ATOM     11  H2  UNL     1      18.212 -32.555   6.085  1.00  0.00     0.168 HD
HETATM   12  N1  UNL     1      17.630 -34.904   3.901  1.00  0.00    -0.318 N 
HETATM   13  C1  UNL     1      17.612 -35.976   4.723  1.00  0.00     0.277 A 
ATOM     14  H1  UNL     1      17.481 -35.023   2.899  1.00  0.00     0.169 HD
HETATM   15  O1  UNL     1      17.408 -37.121   4.305  1.00  0.00    -0.266 OA
HETATM   16  N3  UNL     1      17.824 -36.654   7.125  1.00  0.00    -0.345 N 
HETATM   17  C5  UNL     1      18.053 -35.967   8.248  1.00  0.00     0.188 A 
ATOM     18  H3  UNL     1      17.683 -37.663   7.085  1.00  0.00     0.167 HD
ENDBRANCH   1   6
BRANCH   5  19
HETATM   19  O8  UNL     1      20.523 -34.229   9.667  1.00  0.00    -0.388 OA
ATOM     20  H8  UNL     1      19.895 -34.818  10.069  1.00  0.00     0.210 HD
ENDBRANCH   5  19
BRANCH   3  21
HETATM   21  C8  UNL     1      18.426 -30.026   8.947  1.00  0.00     0.217 C 
BRANCH  21  22
HETATM   22  O3  UNL     1      17.312 -29.931   8.018  1.00  0.00    -0.280 OA
BRANCH  22  23
HETATM   23  P1  UNL     1      17.945 -29.273   6.582  1.00  0.00     0.422 P 
HETATM   24  O4  UNL     1      16.691 -29.134   5.623  1.00  0.00    -0.617 OA
HETATM   25  O5  UNL     1      18.880 -30.433   5.779  1.00  0.00    -0.617 OA
HETATM   26  O6  UNL     1      18.581 -27.777   6.720  1.00  0.00    -0.617 OA
ENDBRANCH  22  23
ENDBRANCH  21  22
ENDBRANCH   3  21
BRANCH   4  27
HETATM   27  O7  UNL     1      19.676 -32.352  11.054  1.00  0.00    -0.390 OA
ATOM     28  H7  UNL     1      20.522 -32.640  11.376  1.00  0.00     0.210 HD
ENDBRANCH   4  27
TORSDOF 6
ENDMDL
