MODEL 15
REMARK VINA RESULT: -8.822603585      3.607      7.427
REMARK  6 active torsions:
REMARK  status: ('A' for Active; 'I' for Inactive)
REMARK    1  A    between atoms: N4_13  and  C6_14 
REMARK    2  A    between atoms: C7_16  and  C8_17 
REMARK    3  A    between atoms: C8_17  and  O3_18 
REMARK    4  A    between atoms: O3_18  and  P1_19 
REMARK    5  A    between atoms: C9_23  and  O7_24 
REMARK    6  A    between atoms: C10_26  and  O8_27 
ROOT
HETATM    1  C6  UNL     1      18.510 -33.480   8.709  1.00  0.00     0.262 C 
HETATM    2  O2  UNL     1      18.205 -32.212   8.120  1.00  0.00    -0.353 OA
HETATM    3  C7  UNL     1      18.736 -31.373   9.013  1.00  0.00     0.180 C 
HETATM    4  C9  UNL     1      19.990 -31.908   9.608  1.00  0.00     0.182 C 
HETATM    5  C10 UNL     1      20.027 -33.277   8.913  1.00  0.00     0.198 C 
ENDROOT
BRANCH   1   6
HETATM    6  N4  UNL     1      18.248 -34.569   7.859  1.00  0.00    -0.297 N 
HETATM    7  C3  UNL     1      18.077 -34.476   6.515  1.00  0.00     0.144 A 
HETATM    8  N2  UNL     1      18.116 -33.444   5.649  1.00  0.00    -0.336 N 
HETATM    9  C4  UNL     1      17.795 -35.777   6.067  1.00  0.00     0.146 A 
HETATM   10  C2  UNL     1      17.881 -33.672   4.347  1.00  0.00     0.185 A 
ATOM     11  H2  UNL     1      18.324 -32.502   5.979  1.00  0.00     0.168 HD
HETATM   12  N1  UNL     1      17.611 -34.892   3.880  1.00  0.00    -0.318 N 
HETATM   13  C1  UNL     1      17.571 -35.937   4.735  1.00  0.00     0.277 A 
ATOM     14  H1  UNL     1      17.438 -35.036   2.885  1.00  0.00     0.169 HD
HETATM   15  O1  UNL     1      17.316 -37.087   4.356  1.00  0.00    -0.266 OA
HETATM   16  N3  UNL     1      17.807 -36.551   7.153  1.00  0.00    -0.345 N 
HETATM   17  C5  UNL     1      18.083 -35.839   8.249  1.00  0.00     0.188 A 
ATOM     18  H3  UNL     1      17.629 -37.555   7.146  1.00  0.00     0.167 HD
ENDBRANCH   1   6
BRANCH   5  19
HETATM   19  O8  UNL     1      20.538 -34.250   9.724  1.00  0.00    -0.388 OA
ATOM     20  H8  UNL     1      21.486 -34.270   9.668  1.00  0.00     0.210 HD
ENDBRANCH   5  19
BRANCH   3  21
HETATM   21  C8  UNL     1      18.881 -29.912   8.716  1.00  0.00     0.217 C 
BRANCH  21  22
HETATM   22  O3  UNL     1      20.313 -29.853   8.478  1.00  0.00    -0.280 OA
BRANCH  22  23
HETATM   23  P1  UNL     1      20.542 -28.722   7.228  1.00  0.00     0.422 P 
HETATM   24  O4  UNL     1      21.102 -27.432   7.957  1.00  0.00    -0.617 OA
HETATM   25  O5  UNL     1      19.043 -28.184   6.654  1.00  0.00    -0.617 OA
HETATM   26  O6  UNL     1      21.657 -29.133   6.109  1.00  0.00    -0.617 OA
ENDBRANCH  22  23
ENDBRANCH  21  22
ENDBRANCH   3  21
BRANCH   4  27
HETATM   27  O7  UNL     1      19.806 -32.240  10.983  1.00  0.00    -0.390 OA
ATOM     28  H7  UNL     1      20.593 -32.066  11.486  1.00  0.00     0.210 HD
ENDBRANCH   4  27
TORSDOF 6
ENDMDL
