MODEL 4
REMARK VINA RESULT: -9.282695316      1.811      2.522
REMARK  9 active torsions:
REMARK  status: ('A' for Active; 'I' for Inactive)
REMARK    1  A    between atoms: C2_2  and  C4_4 
REMARK    2  A    between atoms: C4_4  and  C6_6 
REMARK    3  A    between atoms: C6_6  and  O1_7 
REMARK    4  A    between atoms: C6_6  and  C7_9 
REMARK    5  A    between atoms: C7_9  and  O2_10 
REMARK    6  A    between atoms: C7_9  and  C8_12 
REMARK    7  A    between atoms: C8_12  and  C10_14 
REMARK    8  A    between atoms: C19_25  and  O5_26 
REMARK    9  A    between atoms: C20_28  and  O6_29 
ROOT
HETATM    1  C10 UNL     1       8.150  22.629-104.562  1.00  0.00     0.000 C 
HETATM    2  C11 UNL     1       8.864  23.111-103.311  1.00  0.00     0.006 C 
HETATM    3  C12 UNL     1      10.013  22.126-103.078  1.00  0.00     0.006 C 
HETATM    4  C13 UNL     1      10.272  21.748-104.507  1.00  0.00     0.001 C 
HETATM    5  C14 UNL     1      11.296  20.730-104.736  1.00  0.00     0.020 C 
HETATM    6  C15 UNL     1      12.610  21.349-104.222  1.00  0.00     0.184 C 
HETATM    7  O3  UNL     1      13.619  20.328-104.173  1.00  0.00    -0.321 OA
HETATM    8  C16 UNL     1      14.249  19.706-105.250  1.00  0.00     0.263 C 
HETATM    9  O4  UNL     1      15.346  19.136-105.049  1.00  0.00    -0.265 OA
HETATM   10  C17 UNL     1      13.706  19.672-106.627  1.00  0.00     0.096 C 
HETATM   11  C18 UNL     1      14.524  18.909-107.589  1.00  0.00     0.050 C 
HETATM   12  C19 UNL     1      14.109  17.487-107.797  1.00  0.00     0.147 C 
HETATM   13  C20 UNL     1      12.678  17.445-108.202  1.00  0.00     0.147 C 
HETATM   14  C21 UNL     1      11.900  18.691-107.908  1.00  0.00     0.044 C 
HETATM   15  C22 UNL     1      12.259  19.256-106.542  1.00  0.00    -0.025 C 
HETATM   16  C23 UNL     1      11.986  18.201-105.521  1.00  0.00     0.016 C 
HETATM   17  C24 UNL     1      11.409  20.456-106.222  1.00  0.00     0.001 C 
HETATM   18  C25 UNL     1      10.084  20.290-106.881  1.00  0.00     0.007 C 
HETATM   19  C26 UNL     1       9.070  21.336-106.505  1.00  0.00     0.010 C 
HETATM   20  C27 UNL     1       8.854  21.396-105.006  1.00  0.00    -0.036 C 
HETATM   21  C28 UNL     1       8.383  20.100-104.503  1.00  0.00     0.016 C 
ENDROOT
BRANCH   1  22
HETATM   22  C8  UNL     1       6.710  22.665-104.336  1.00  0.00     0.017 C 
HETATM   23  C9  UNL     1       5.809  23.098-105.438  1.00  0.00     0.013 C 
BRANCH  22  24
HETATM   24  C7  UNL     1       6.240  23.254-103.034  1.00  0.00     0.151 C 
BRANCH  24  25
HETATM   25  C6  UNL     1       5.507  22.359-102.123  1.00  0.00     0.151 C 
BRANCH  25  26
HETATM   26  C4  UNL     1       5.211  20.977-102.460  1.00  0.00     0.016 C 
HETATM   27  C5  UNL     1       5.182  20.191-101.126  1.00  0.00     0.013 C 
BRANCH  26  28
HETATM   28  C2  UNL     1       3.910  20.671-103.113  1.00  0.00    -0.016 C 
HETATM   29  C1  UNL     1       3.101  19.639-102.312  1.00  0.00     0.010 C 
HETATM   30  C3  UNL     1       4.123  20.004-104.481  1.00  0.00     0.010 C 
ENDBRANCH  26  28
ENDBRANCH  25  26
BRANCH  25  31
HETATM   31  O1  UNL     1       6.189  22.395-100.881  1.00  0.00    -0.393 OA
ATOM     32  H1  UNL     1       6.201  23.288-100.559  1.00  0.00     0.210 HD
ENDBRANCH  25  31
ENDBRANCH  24  25
BRANCH  24  33
HETATM   33  O2  UNL     1       5.522  24.438-103.154  1.00  0.00    -0.393 OA
ATOM     34  H2  UNL     1       5.450  24.652-104.076  1.00  0.00     0.210 HD
ENDBRANCH  24  33
ENDBRANCH  22  24
ENDBRANCH   1  22
BRANCH  13  35
HETATM   35  O6  UNL     1      12.655  17.286-109.609  1.00  0.00    -0.393 OA
ATOM     36  H6  UNL     1      11.932  16.702-109.808  1.00  0.00     0.210 HD
ENDBRANCH  13  35
BRANCH  12  37
HETATM   37  O5  UNL     1      14.944  16.966-108.814  1.00  0.00    -0.393 OA
ATOM     38  H5  UNL     1      14.488  16.218-109.184  1.00  0.00     0.210 HD
ENDBRANCH  12  37
TORSDOF 9
ENDMDL
