MODEL 9
REMARK VINA RESULT: -9.052001634      2.211      9.003
REMARK  9 active torsions:
REMARK  status: ('A' for Active; 'I' for Inactive)
REMARK    1  A    between atoms: C2_2  and  C4_4 
REMARK    2  A    between atoms: C4_4  and  C6_6 
REMARK    3  A    between atoms: C6_6  and  O1_7 
REMARK    4  A    between atoms: C6_6  and  C7_9 
REMARK    5  A    between atoms: C7_9  and  O2_10 
REMARK    6  A    between atoms: C7_9  and  C8_12 
REMARK    7  A    between atoms: C8_12  and  C10_14 
REMARK    8  A    between atoms: C19_25  and  O5_26 
REMARK    9  A    between atoms: C20_28  and  O6_29 
ROOT
HETATM    1  C10 UNL     1      13.329  18.468-105.030  1.00  0.00     0.000 C 
HETATM    2  C11 UNL     1      14.376  19.569-104.965  1.00  0.00     0.006 C 
HETATM    3  C12 UNL     1      13.615  20.883-105.164  1.00  0.00     0.006 C 
HETATM    4  C13 UNL     1      12.304  20.471-104.562  1.00  0.00     0.001 C 
HETATM    5  C14 UNL     1      11.225  21.458-104.614  1.00  0.00     0.020 C 
HETATM    6  C15 UNL     1      11.719  22.647-103.768  1.00  0.00     0.184 C 
HETATM    7  O3  UNL     1      10.837  23.762-103.970  1.00  0.00    -0.321 OA
HETATM    8  C16 UNL     1       9.524  23.896-103.523  1.00  0.00     0.263 C 
HETATM    9  O4  UNL     1       9.036  25.048-103.447  1.00  0.00    -0.265 OA
HETATM   10  C17 UNL     1       8.658  22.763-103.128  1.00  0.00     0.096 C 
HETATM   11  C18 UNL     1       7.287  23.145-102.739  1.00  0.00     0.050 C 
HETATM   12  C19 UNL     1       6.263  23.055-103.825  1.00  0.00     0.147 C 
HETATM   13  C20 UNL     1       6.264  21.679-104.391  1.00  0.00     0.147 C 
HETATM   14  C21 UNL     1       7.489  20.871-104.088  1.00  0.00     0.044 C 
HETATM   15  C22 UNL     1       8.749  21.714-104.208  1.00  0.00    -0.025 C 
HETATM   16  C23 UNL     1       8.803  22.268-105.593  1.00  0.00     0.016 C 
HETATM   17  C24 UNL     1       9.977  20.871-103.988  1.00  0.00     0.001 C 
HETATM   18  C25 UNL     1       9.693  19.486-104.455  1.00  0.00     0.007 C 
HETATM   19  C26 UNL     1      10.890  18.575-104.454  1.00  0.00     0.010 C 
HETATM   20  C27 UNL     1      12.025  19.137-105.286  1.00  0.00    -0.036 C 
HETATM   21  C28 UNL     1      11.595  19.327-106.677  1.00  0.00     0.016 C 
ENDROOT
BRANCH   1  22
HETATM   22  C8  UNL     1      13.826  17.384-105.868  1.00  0.00     0.017 C 
HETATM   23  C9  UNL     1      13.643  15.976-105.424  1.00  0.00     0.013 C 
BRANCH  22  24
HETATM   24  C7  UNL     1      15.197  17.555-106.462  1.00  0.00     0.151 C 
BRANCH  24  25
HETATM   25  C6  UNL     1      15.297  17.529-107.931  1.00  0.00     0.151 C 
BRANCH  25  26
HETATM   26  C4  UNL     1      14.691  18.549-108.769  1.00  0.00     0.016 C 
HETATM   27  C5  UNL     1      15.853  19.395-109.348  1.00  0.00     0.013 C 
BRANCH  26  28
HETATM   28  C2  UNL     1      13.908  18.116-109.956  1.00  0.00    -0.016 C 
HETATM   29  C1  UNL     1      13.079  19.268-110.543  1.00  0.00     0.010 C 
HETATM   30  C3  UNL     1      12.861  17.058-109.570  1.00  0.00     0.010 C 
ENDBRANCH  26  28
ENDBRANCH  25  26
BRANCH  25  31
HETATM   31  O1  UNL     1      16.677  17.433-108.244  1.00  0.00    -0.393 OA
ATOM     32  H1  UNL     1      17.178  17.887-107.576  1.00  0.00     0.210 HD
ENDBRANCH  25  31
ENDBRANCH  24  25
BRANCH  24  33
HETATM   33  O2  UNL     1      16.169  16.708-105.943  1.00  0.00    -0.393 OA
ATOM     34  H2  UNL     1      15.733  15.987-105.503  1.00  0.00     0.210 HD
ENDBRANCH  24  33
ENDBRANCH  22  24
ENDBRANCH   1  22
BRANCH  13  35
HETATM   35  O6  UNL     1       5.178  20.991-103.797  1.00  0.00    -0.393 OA
ATOM     36  H6  UNL     1       5.515  20.567-103.016  1.00  0.00     0.210 HD
ENDBRANCH  13  35
BRANCH  12  37
HETATM   37  O5  UNL     1       5.015  23.363-103.233  1.00  0.00    -0.393 OA
ATOM     38  H5  UNL     1       4.355  22.889-103.726  1.00  0.00     0.210 HD
ENDBRANCH  12  37
TORSDOF 9
ENDMDL
