MODEL 3
REMARK VINA RESULT: -9.322246939      2.130      8.774
REMARK  9 active torsions:
REMARK  status: ('A' for Active; 'I' for Inactive)
REMARK    1  A    between atoms: C2_2  and  C4_4 
REMARK    2  A    between atoms: C4_4  and  C6_6 
REMARK    3  A    between atoms: C6_6  and  O1_7 
REMARK    4  A    between atoms: C6_6  and  C7_9 
REMARK    5  A    between atoms: C7_9  and  O2_10 
REMARK    6  A    between atoms: C7_9  and  C8_12 
REMARK    7  A    between atoms: C8_12  and  C10_14 
REMARK    8  A    between atoms: C19_25  and  O5_26 
REMARK    9  A    between atoms: C20_28  and  O6_29 
ROOT
HETATM    1  C10 UNL     1      12.600  20.923-104.526  1.00  0.00     0.000 C 
HETATM    2  C11 UNL     1      12.933  22.345-104.950  1.00  0.00     0.006 C 
HETATM    3  C12 UNL     1      11.588  23.052-105.135  1.00  0.00     0.006 C 
HETATM    4  C13 UNL     1      10.793  22.284-104.120  1.00  0.00     0.001 C 
HETATM    5  C14 UNL     1       9.372  22.614-104.020  1.00  0.00     0.020 C 
HETATM    6  C15 UNL     1       9.325  24.084-103.563  1.00  0.00     0.184 C 
HETATM    7  O3  UNL     1       7.978  24.568-103.683  1.00  0.00    -0.321 OA
HETATM    8  C16 UNL     1       6.878  24.215-102.904  1.00  0.00     0.263 C 
HETATM    9  O4  UNL     1       5.892  24.988-102.882  1.00  0.00    -0.265 OA
HETATM   10  C17 UNL     1       6.793  22.979-102.093  1.00  0.00     0.096 C 
HETATM   11  C18 UNL     1       5.507  22.793-101.393  1.00  0.00     0.050 C 
HETATM   12  C19 UNL     1       4.506  21.941-102.106  1.00  0.00     0.147 C 
HETATM   13  C20 UNL     1       5.113  20.617-102.412  1.00  0.00     0.147 C 
HETATM   14  C21 UNL     1       6.609  20.578-102.347  1.00  0.00     0.044 C 
HETATM   15  C22 UNL     1       7.221  21.825-102.964  1.00  0.00    -0.025 C 
HETATM   16  C23 UNL     1       6.750  21.919-104.377  1.00  0.00     0.016 C 
HETATM   17  C24 UNL     1       8.724  21.733-102.972  1.00  0.00     0.001 C 
HETATM   18  C25 UNL     1       9.112  20.301-103.101  1.00  0.00     0.007 C 
HETATM   19  C26 UNL     1      10.586  20.074-103.295  1.00  0.00     0.010 C 
HETATM   20  C27 UNL     1      11.116  20.824-104.501  1.00  0.00    -0.036 C 
HETATM   21  C28 UNL     1      10.422  20.390-105.719  1.00  0.00     0.016 C 
ENDROOT
BRANCH   1  22
HETATM   22  C8  UNL     1      13.431  19.993-105.280  1.00  0.00     0.017 C 
HETATM   23  C9  UNL     1      14.608  19.366-104.620  1.00  0.00     0.013 C 
BRANCH  22  24
HETATM   24  C7  UNL     1      13.786  20.383-106.689  1.00  0.00     0.151 C 
BRANCH  24  25
HETATM   25  C6  UNL     1      13.365  19.468-107.762  1.00  0.00     0.151 C 
BRANCH  25  26
HETATM   26  C4  UNL     1      12.777  18.168-107.490  1.00  0.00     0.016 C 
HETATM   27  C5  UNL     1      11.564  18.022-108.442  1.00  0.00     0.013 C 
BRANCH  26  28
HETATM   28  C2  UNL     1      13.599  16.953-107.730  1.00  0.00    -0.016 C 
HETATM   29  C1  UNL     1      13.799  16.137-106.444  1.00  0.00     0.010 C 
HETATM   30  C3  UNL     1      15.026  17.330-108.162  1.00  0.00     0.010 C 
ENDBRANCH  26  28
ENDBRANCH  25  26
BRANCH  25  31
HETATM   31  O1  UNL     1      12.493  20.202-108.605  1.00  0.00    -0.393 OA
ATOM     32  H1  UNL     1      11.702  20.411-108.124  1.00  0.00     0.210 HD
ENDBRANCH  25  31
ENDBRANCH  24  25
BRANCH  24  33
HETATM   33  O2  UNL     1      15.125  20.702-106.887  1.00  0.00    -0.393 OA
ATOM     34  H2  UNL     1      15.253  21.612-106.649  1.00  0.00     0.210 HD
ENDBRANCH  24  33
ENDBRANCH  22  24
ENDBRANCH   1  22
BRANCH  13  35
HETATM   35  O6  UNL     1       4.649  19.716-101.423  1.00  0.00    -0.393 OA
ATOM     36  H6  UNL     1       5.103  18.894-101.566  1.00  0.00     0.210 HD
ENDBRANCH  13  35
BRANCH  12  37
HETATM   37  O5  UNL     1       3.397  21.806-101.237  1.00  0.00    -0.393 OA
ATOM     38  H5  UNL     1       2.645  22.161-101.698  1.00  0.00     0.210 HD
ENDBRANCH  12  37
TORSDOF 9
ENDMDL
