MODEL 7
REMARK VINA RESULT: -9.146623101      2.888      5.124
REMARK  9 active torsions:
REMARK  status: ('A' for Active; 'I' for Inactive)
REMARK    1  A    between atoms: C2_2  and  C4_4 
REMARK    2  A    between atoms: C4_4  and  C6_6 
REMARK    3  A    between atoms: C6_6  and  O1_7 
REMARK    4  A    between atoms: C6_6  and  C7_9 
REMARK    5  A    between atoms: C7_9  and  O2_10 
REMARK    6  A    between atoms: C7_9  and  C8_12 
REMARK    7  A    between atoms: C8_12  and  C10_14 
REMARK    8  A    between atoms: C19_25  and  O5_26 
REMARK    9  A    between atoms: C20_28  and  O6_29 
ROOT
HETATM    1  C10 UNL     1      10.719  17.942-106.776  1.00  0.00     0.000 C 
HETATM    2  C11 UNL     1      11.198  18.771-107.957  1.00  0.00     0.006 C 
HETATM    3  C12 UNL     1      12.725  18.808-107.851  1.00  0.00     0.006 C 
HETATM    4  C13 UNL     1      12.932  17.479-107.188  1.00  0.00     0.001 C 
HETATM    5  C14 UNL     1      14.308  17.136-106.831  1.00  0.00     0.020 C 
HETATM    6  C15 UNL     1      15.070  17.060-108.168  1.00  0.00     0.184 C 
HETATM    7  O3  UNL     1      16.479  16.980-107.899  1.00  0.00    -0.321 OA
HETATM    8  C16 UNL     1      17.178  15.904-107.356  1.00  0.00     0.263 C 
HETATM    9  O4  UNL     1      18.417  15.847-107.539  1.00  0.00    -0.265 OA
HETATM   10  C17 UNL     1      16.555  14.815-106.571  1.00  0.00     0.096 C 
HETATM   11  C18 UNL     1      17.504  13.812-106.052  1.00  0.00     0.050 C 
HETATM   12  C19 UNL     1      17.976  14.038-104.651  1.00  0.00     0.147 C 
HETATM   13  C20 UNL     1      16.799  14.138-103.745  1.00  0.00     0.147 C 
HETATM   14  C21 UNL     1      15.495  14.415-104.430  1.00  0.00     0.044 C 
HETATM   15  C22 UNL     1      15.660  15.447-105.534  1.00  0.00    -0.025 C 
HETATM   16  C23 UNL     1      16.218  16.690-104.923  1.00  0.00     0.016 C 
HETATM   17  C24 UNL     1      14.330  15.781-106.154  1.00  0.00     0.001 C 
HETATM   18  C25 UNL     1      13.271  15.636-105.117  1.00  0.00     0.007 C 
HETATM   19  C26 UNL     1      11.910  16.105-105.552  1.00  0.00     0.010 C 
HETATM   20  C27 UNL     1      11.934  17.549-106.013  1.00  0.00    -0.036 C 
HETATM   21  C28 UNL     1      12.395  18.425-104.930  1.00  0.00     0.016 C 
ENDROOT
BRANCH   1  22
HETATM   22  C8  UNL     1       9.587  18.613-106.149  1.00  0.00     0.017 C 
HETATM   23  C9  UNL     1       8.246  17.969-106.184  1.00  0.00     0.013 C 
BRANCH  22  24
HETATM   24  C7  UNL     1       9.448  20.090-106.395  1.00  0.00     0.151 C 
BRANCH  24  25
HETATM   25  C6  UNL     1       9.777  20.988-105.276  1.00  0.00     0.151 C 
BRANCH  25  26
HETATM   26  C4  UNL     1       9.778  20.540-103.894  1.00  0.00     0.016 C 
HETATM   27  C5  UNL     1      10.884  21.347-103.168  1.00  0.00     0.013 C 
BRANCH  26  28
HETATM   28  C2  UNL     1       8.553  20.753-103.079  1.00  0.00    -0.016 C 
HETATM   29  C1  UNL     1       8.220  22.246-102.931  1.00  0.00     0.010 C 
HETATM   30  C3  UNL     1       8.759  20.268-101.636  1.00  0.00     0.010 C 
ENDBRANCH  26  28
ENDBRANCH  25  26
BRANCH  25  31
HETATM   31  O1  UNL     1      11.036  21.568-105.575  1.00  0.00    -0.393 OA
ATOM     32  H1  UNL     1      11.487  21.763-104.762  1.00  0.00     0.210 HD
ENDBRANCH  25  31
ENDBRANCH  24  25
BRANCH  24  33
HETATM   33  O2  UNL     1       8.223  20.482-106.924  1.00  0.00    -0.393 OA
ATOM     34  H2  UNL     1       7.925  21.249-106.450  1.00  0.00     0.210 HD
ENDBRANCH  24  33
ENDBRANCH  22  24
ENDBRANCH   1  22
BRANCH  13  35
HETATM   35  O6  UNL     1      16.657  12.877-103.117  1.00  0.00    -0.393 OA
ATOM     36  H6  UNL     1      16.095  13.007-102.363  1.00  0.00     0.210 HD
ENDBRANCH  13  35
BRANCH  12  37
HETATM   37  O5  UNL     1      18.788  12.930-104.313  1.00  0.00    -0.393 OA
ATOM     38  H5  UNL     1      19.013  12.498-105.128  1.00  0.00     0.210 HD
ENDBRANCH  12  37
TORSDOF 9
ENDMDL
