MODEL 4
REMARK VINA RESULT: -8.845784838      3.029      6.976
REMARK  0 active torsions:
REMARK  status: ('A' for Active; 'I' for Inactive)
ROOT
HETATM    1  C1  UNL     1      -9.982   1.452   2.593  1.00  0.00     0.049 C 
HETATM    2  C2  UNL     1     -10.038   2.757   3.291  1.00  0.00    -0.044 A 
HETATM    3  C3  UNL     1      -9.867   3.969   2.667  1.00  0.00     0.082 A 
HETATM    4  C4  UNL     1      -9.938   5.133   3.408  1.00  0.00     0.246 A 
HETATM    5  O1  UNL     1      -9.781   6.252   2.836  1.00  0.00    -0.268 OA
HETATM    6  N1  UNL     1     -10.168   5.147   4.727  1.00  0.00    -0.323 N 
ATOM      7  H1  UNL     1     -10.214   6.028   5.239  1.00  0.00     0.169 HD
HETATM    8  C5  UNL     1     -10.339   3.968   5.364  1.00  0.00     0.046 A 
HETATM    9  C6  UNL     1     -10.580   3.935   6.732  1.00  0.00     0.042 A 
HETATM   10  C7  UNL     1     -10.757   2.741   7.392  1.00  0.00    -0.022 A 
HETATM   11  C8  UNL     1     -11.001   2.769   8.805  1.00  0.00    -0.004 A 
HETATM   12  C9  UNL     1     -10.228   3.577   9.627  1.00  0.00     0.016 A 
HETATM   13  C10 UNL     1     -10.412   3.646  10.992  1.00  0.00     0.027 A 
HETATM   14  C11 UNL     1     -11.404   2.884  11.571  1.00  0.00     0.048 A 
HETATM   15  N2  UNL     1     -11.638   2.918  12.979  1.00  0.00    -0.102 NA
HETATM   16  C12 UNL     1     -12.168   2.083  10.738  1.00  0.00     0.051 A 
HETATM   17  C13 UNL     1     -11.994   2.004   9.374  1.00  0.00     0.046 A 
HETATM   18 CL1  UNL     1     -13.025   0.949   8.393  1.00  0.00    -0.083 Cl
HETATM   19  C14 UNL     1     -10.695   1.558   6.694  1.00  0.00     0.013 A 
HETATM   20  C15 UNL     1     -10.456   1.597   5.341  1.00  0.00     0.015 A 
HETATM   21  C16 UNL     1     -10.276   2.784   4.661  1.00  0.00    -0.003 A 
ENDROOT
TORSDOF 0
ENDMDL
