MODEL 3
REMARK VINA RESULT: -9.461653858      2.363      3.359
REMARK  0 active torsions:
REMARK  status: ('A' for Active; 'I' for Inactive)
ROOT
HETATM    1  C1  UNL     1     -12.630   6.340  14.189  1.00  0.00     0.049 C 
HETATM    2  C2  UNL     1     -12.346   4.889  14.261  1.00  0.00    -0.044 A 
HETATM    3  C3  UNL     1     -12.371   4.159  15.425  1.00  0.00     0.082 A 
HETATM    4  C4  UNL     1     -12.091   2.806  15.387  1.00  0.00     0.246 A 
HETATM    5  O1  UNL     1     -12.113   2.130  16.457  1.00  0.00    -0.268 OA
HETATM    6  N1  UNL     1     -11.792   2.153  14.257  1.00  0.00    -0.323 N 
ATOM      7  H1  UNL     1     -11.592   1.153  14.270  1.00  0.00     0.169 HD
HETATM    8  C5  UNL     1     -11.761   2.848  13.100  1.00  0.00     0.046 A 
HETATM    9  C6  UNL     1     -11.455   2.212  11.903  1.00  0.00     0.042 A 
HETATM   10  C7  UNL     1     -11.421   2.909  10.718  1.00  0.00    -0.022 A 
HETATM   11  C8  UNL     1     -11.098   2.198   9.515  1.00  0.00    -0.004 A 
HETATM   12  C9  UNL     1     -10.027   1.314   9.496  1.00  0.00     0.016 A 
HETATM   13  C10 UNL     1      -9.664   0.604   8.372  1.00  0.00     0.027 A 
HETATM   14  C11 UNL     1     -10.391   0.773   7.213  1.00  0.00     0.048 A 
HETATM   15  N2  UNL     1     -10.060   0.063   6.020  1.00  0.00    -0.102 NA
HETATM   16  C12 UNL     1     -11.457   1.658   7.245  1.00  0.00     0.051 A 
HETATM   17  C13 UNL     1     -11.829   2.374   8.361  1.00  0.00     0.046 A 
HETATM   18 CL1  UNL     1     -13.210   3.482   8.303  1.00  0.00    -0.083 Cl
HETATM   19  C14 UNL     1     -11.693   4.256  10.708  1.00  0.00     0.013 A 
HETATM   20  C15 UNL     1     -11.995   4.881  11.895  1.00  0.00     0.015 A 
HETATM   21  C16 UNL     1     -12.034   4.200  13.094  1.00  0.00    -0.003 A 
ENDROOT
TORSDOF 0
ENDMDL
