MODEL 2
REMARK VINA RESULT: -9.550673355      3.310      7.125
REMARK  0 active torsions:
REMARK  status: ('A' for Active; 'I' for Inactive)
ROOT
HETATM    1  C1  UNL     1     -11.849   2.929   5.678  1.00  0.00     0.049 C 
HETATM    2  C2  UNL     1     -11.230   1.969   6.619  1.00  0.00    -0.044 A 
HETATM    3  C3  UNL     1     -10.448   0.908   6.229  1.00  0.00     0.082 A 
HETATM    4  C4  UNL     1      -9.914   0.067   7.186  1.00  0.00     0.246 A 
HETATM    5  O1  UNL     1      -9.193  -0.912   6.831  1.00  0.00    -0.268 OA
HETATM    6  N1  UNL     1     -10.119   0.230   8.499  1.00  0.00    -0.323 N 
ATOM      7  H1  UNL     1      -9.707  -0.413   9.176  1.00  0.00     0.169 HD
HETATM    8  C5  UNL     1     -10.885   1.264   8.908  1.00  0.00     0.046 A 
HETATM    9  C6  UNL     1     -11.125   1.472  10.261  1.00  0.00     0.042 A 
HETATM   10  C7  UNL     1     -11.902   2.523  10.690  1.00  0.00    -0.022 A 
HETATM   11  C8  UNL     1     -12.116   2.686  12.099  1.00  0.00    -0.004 A 
HETATM   12  C9  UNL     1     -12.448   1.589  12.882  1.00  0.00     0.016 A 
HETATM   13  C10 UNL     1     -12.669   1.680  14.240  1.00  0.00     0.027 A 
HETATM   14  C11 UNL     1     -12.555   2.910  14.853  1.00  0.00     0.048 A 
HETATM   15  N2  UNL     1     -12.772   3.063  16.255  1.00  0.00    -0.102 NA
HETATM   16  C12 UNL     1     -12.223   3.996  14.059  1.00  0.00     0.051 A 
HETATM   17  C13 UNL     1     -12.001   3.918  12.702  1.00  0.00     0.046 A 
HETATM   18 CL1  UNL     1     -11.579   5.366  11.772  1.00  0.00    -0.083 Cl
HETATM   19  C14 UNL     1     -12.453   3.385   9.773  1.00  0.00     0.013 A 
HETATM   20  C15 UNL     1     -12.212   3.175   8.436  1.00  0.00     0.015 A 
HETATM   21  C16 UNL     1     -11.436   2.127   7.985  1.00  0.00    -0.003 A 
ENDROOT
TORSDOF 0
ENDMDL
