MODEL 5
REMARK VINA RESULT: -8.246697883      2.895      6.663
REMARK  0 active torsions:
REMARK  status: ('A' for Active; 'I' for Inactive)
ROOT
HETATM    1  C1  UNL     1      -9.559  -0.285   7.150  1.00  0.00     0.049 C 
HETATM    2  C2  UNL     1     -10.543   0.815   7.037  1.00  0.00    -0.044 A 
HETATM    3  C3  UNL     1     -11.173   1.165   5.867  1.00  0.00     0.082 A 
HETATM    4  C4  UNL     1     -12.078   2.208   5.865  1.00  0.00     0.246 A 
HETATM    5  O1  UNL     1     -12.660   2.533   4.789  1.00  0.00    -0.268 OA
HETATM    6  N1  UNL     1     -12.383   2.913   6.963  1.00  0.00    -0.323 N 
ATOM      7  H1  UNL     1     -13.057   3.677   6.921  1.00  0.00     0.169 HD
HETATM    8  C5  UNL     1     -11.777   2.589   8.125  1.00  0.00     0.046 A 
HETATM    9  C6  UNL     1     -12.062   3.293   9.289  1.00  0.00     0.042 A 
HETATM   10  C7  UNL     1     -11.453   2.973  10.480  1.00  0.00    -0.022 A 
HETATM   11  C8  UNL     1     -11.787   3.736  11.647  1.00  0.00    -0.004 A 
HETATM   12  C9  UNL     1     -11.841   5.122  11.579  1.00  0.00     0.016 A 
HETATM   13  C10 UNL     1     -12.153   5.911  12.665  1.00  0.00     0.027 A 
HETATM   14  C11 UNL     1     -12.425   5.306  13.874  1.00  0.00     0.048 A 
HETATM   15  N2  UNL     1     -12.754   6.074  15.030  1.00  0.00    -0.102 NA
HETATM   16  C12 UNL     1     -12.367   3.922  13.927  1.00  0.00     0.051 A 
HETATM   17  C13 UNL     1     -12.056   3.123  12.850  1.00  0.00     0.046 A 
HETATM   18 CL1  UNL     1     -12.010   1.360  13.018  1.00  0.00    -0.083 Cl
HETATM   19  C14 UNL     1     -10.546   1.942  10.527  1.00  0.00     0.013 A 
HETATM   20  C15 UNL     1     -10.267   1.248   9.373  1.00  0.00     0.015 A 
HETATM   21  C16 UNL     1     -10.868   1.554   8.170  1.00  0.00    -0.003 A 
ENDROOT
TORSDOF 0
ENDMDL
