MODEL 6
REMARK VINA RESULT: -11.509529745      1.463      1.612
REMARK  5 active torsions:
REMARK  status: ('A' for Active; 'I' for Inactive)
REMARK    1  A    between atoms: C7_10  and  C8_11 
REMARK    2  A    between atoms: C11_14  and  C12_15 
REMARK       I    between atoms: C12_15  and  N2_17 
REMARK    3  A    between atoms: N2_17  and  C13_19 
REMARK    4  A    between atoms: C13_19  and  C14_20 
REMARK    5  A    between atoms: C14_20  and  N3_21 
ROOT
HETATM    1  C8  UNL     1       5.882  10.564  -8.502  1.00  0.00    -0.004 A 
HETATM    2  C9  UNL     1       4.732  10.272  -7.804  1.00  0.00     0.015 A 
HETATM    3  C10 UNL     1       4.753   9.974  -6.453  1.00  0.00     0.018 A 
HETATM    4  C11 UNL     1       5.941   9.957  -5.754  1.00  0.00     0.033 A 
HETATM    5  C19 UNL     1       7.100  10.247  -6.436  1.00  0.00     0.042 A 
HETATM    6  C20 UNL     1       7.056  10.545  -7.796  1.00  0.00     0.046 A 
HETATM    7 CL1  UNL     1       8.564  10.909  -8.590  1.00  0.00    -0.083 Cl
ENDROOT
BRANCH   1   8
HETATM    8  C7  UNL     1       5.876  10.874  -9.920  1.00  0.00    -0.022 A 
HETATM    9  C6  UNL     1       6.637  10.162 -10.830  1.00  0.00     0.042 A 
HETATM   10  C5  UNL     1       6.604  10.495 -12.170  1.00  0.00     0.046 A 
HETATM   11  N1  UNL     1       7.341   9.811 -13.081  1.00  0.00    -0.323 N 
HETATM   12  C23 UNL     1       5.829  11.527 -12.653  1.00  0.00    -0.003 A 
HETATM   13  C4  UNL     1       7.326  10.113 -14.386  1.00  0.00     0.246 A 
ATOM     14  H1  UNL     1       7.926   9.040 -12.761  1.00  0.00     0.169 HD
HETATM   15  C3  UNL     1       6.550  11.150 -14.873  1.00  0.00     0.082 A 
HETATM   16  O1  UNL     1       8.023   9.463 -15.228  1.00  0.00    -0.268 OA
HETATM   17  C2  UNL     1       5.784  11.870 -13.974  1.00  0.00    -0.044 A 
HETATM   18  C1  UNL     1       4.944  12.988 -14.481  1.00  0.00     0.049 C 
HETATM   19  C22 UNL     1       5.083  12.220 -11.732  1.00  0.00     0.015 A 
HETATM   20  C21 UNL     1       5.085  11.924 -10.391  1.00  0.00     0.013 A 
ENDBRANCH   1   8
BRANCH   4  21
HETATM   21  C12 UNL     1       5.906   9.636  -4.328  1.00  0.00     0.251 C 
HETATM   22  O2  UNL     1       5.199   8.631  -3.970  1.00  0.00    -0.268 OA
HETATM   23  N2  UNL     1       6.618  10.385  -3.352  1.00  0.00    -0.355 N 
ATOM     24  H2  UNL     1       7.180  11.183  -3.648  1.00  0.00     0.162 HD
BRANCH  23  25
HETATM   25  C13 UNL     1       6.561  10.039  -1.949  1.00  0.00     0.153 C 
BRANCH  25  26
HETATM   26  C14 UNL     1       5.706  10.948  -1.127  1.00  0.00     0.292 C 
BRANCH  26  27
HETATM   27  N3  UNL     1       4.555  10.250  -0.608  1.00  0.00     0.094 N 
HETATM   28  C15 UNL     1       3.402  10.379  -1.488  1.00  0.00     0.298 C 
HETATM   29  C16 UNL     1       2.217   9.805  -0.701  1.00  0.00     0.198 C 
HETATM   30  O3  UNL     1       2.450   8.448  -0.578  1.00  0.00    -0.388 OA
HETATM   31  C17 UNL     1       3.608   8.146   0.103  1.00  0.00     0.198 C 
HETATM   32  C18 UNL     1       4.832   8.829  -0.495  1.00  0.00     0.298 C 
ENDBRANCH  26  27
ENDBRANCH  25  26
ENDBRANCH  23  25
ENDBRANCH   4  21
TORSDOF 5
ENDMDL
