MODEL 4
REMARK VINA RESULT: -11.676126966      1.768      2.329
REMARK  5 active torsions:
REMARK  status: ('A' for Active; 'I' for Inactive)
REMARK    1  A    between atoms: C7_10  and  C8_11 
REMARK    2  A    between atoms: C11_14  and  C12_15 
REMARK       I    between atoms: C12_15  and  N2_17 
REMARK    3  A    between atoms: N2_17  and  C13_19 
REMARK    4  A    between atoms: C13_19  and  C14_20 
REMARK    5  A    between atoms: C14_20  and  N3_21 
ROOT
HETATM    1  C8  UNL     1       5.903  10.537  -8.444  1.00  0.00    -0.004 A 
HETATM    2  C9  UNL     1       4.761  10.220  -7.745  1.00  0.00     0.015 A 
HETATM    3  C10 UNL     1       4.792   9.909  -6.398  1.00  0.00     0.018 A 
HETATM    4  C11 UNL     1       5.982   9.907  -5.702  1.00  0.00     0.033 A 
HETATM    5  C19 UNL     1       7.134  10.223  -6.386  1.00  0.00     0.042 A 
HETATM    6  C20 UNL     1       7.080  10.532  -7.743  1.00  0.00     0.046 A 
HETATM    7 CL1  UNL     1       8.579  10.930  -8.539  1.00  0.00    -0.083 Cl
ENDROOT
BRANCH   1   8
HETATM    8  C7  UNL     1       5.887  10.861  -9.859  1.00  0.00    -0.022 A 
HETATM    9  C6  UNL     1       6.657  10.170 -10.779  1.00  0.00     0.042 A 
HETATM   10  C5  UNL     1       6.613  10.515 -12.115  1.00  0.00     0.046 A 
HETATM   11  N1  UNL     1       7.359   9.852 -13.035  1.00  0.00    -0.323 N 
HETATM   12  C23 UNL     1       5.820  11.538 -12.586  1.00  0.00    -0.003 A 
HETATM   13  C4  UNL     1       7.335  10.166 -14.338  1.00  0.00     0.246 A 
ATOM     14  H1  UNL     1       7.958   9.089 -12.724  1.00  0.00     0.169 HD
HETATM   15  C3  UNL     1       6.539  11.194 -14.812  1.00  0.00     0.082 A 
HETATM   16  O1  UNL     1       8.040   9.536 -15.188  1.00  0.00    -0.268 OA
HETATM   17  C2  UNL     1       5.764  11.892 -13.904  1.00  0.00    -0.044 A 
HETATM   18  C1  UNL     1       4.903  13.000 -14.397  1.00  0.00     0.049 C 
HETATM   19  C22 UNL     1       5.065  12.209 -11.656  1.00  0.00     0.015 A 
HETATM   20  C21 UNL     1       5.077  11.901 -10.318  1.00  0.00     0.013 A 
ENDBRANCH   1   8
BRANCH   4  21
HETATM   21  C12 UNL     1       5.958   9.571  -4.279  1.00  0.00     0.251 C 
HETATM   22  O2  UNL     1       6.732  10.236  -3.507  1.00  0.00    -0.268 OA
HETATM   23  N2  UNL     1       5.121   8.555  -3.742  1.00  0.00    -0.355 N 
ATOM     24  H2  UNL     1       4.508   8.033  -4.367  1.00  0.00     0.162 HD
BRANCH  23  25
HETATM   25  C13 UNL     1       5.123   8.249  -2.329  1.00  0.00     0.153 C 
BRANCH  25  26
HETATM   26  C14 UNL     1       3.891   8.686  -1.605  1.00  0.00     0.292 C 
BRANCH  26  27
HETATM   27  N3  UNL     1       3.722  10.116  -1.683  1.00  0.00     0.094 N 
HETATM   28  C15 UNL     1       2.359  10.519  -1.365  1.00  0.00     0.298 C 
HETATM   29  C16 UNL     1       2.275  12.008  -1.721  1.00  0.00     0.198 C 
HETATM   30  O3  UNL     1       3.086  12.672  -0.820  1.00  0.00    -0.388 OA
HETATM   31  C17 UNL     1       4.407  12.288  -0.880  1.00  0.00     0.198 C 
HETATM   32  C18 UNL     1       4.584  10.782  -0.723  1.00  0.00     0.298 C 
ENDBRANCH  26  27
ENDBRANCH  25  26
ENDBRANCH  23  25
ENDBRANCH   4  21
TORSDOF 5
ENDMDL
