MODEL 9
REMARK VINA RESULT: -6.712524448      2.658      3.328
REMARK  3 active torsions:
REMARK  status: ('A' for Active; 'I' for Inactive)
REMARK    1  A    between atoms: C3_6  and  C4_7 
REMARK    2  A    between atoms: C11_18  and  O1_19 
REMARK    3  A    between atoms: C12_21  and  O2_22 
ROOT
HETATM    1  C1  UNL     1     -16.606   8.477  31.009  1.00  0.00     0.043 C 
HETATM    2  C2  UNL     1     -15.938   9.202  32.134  1.00  0.00     0.214 C 
HETATM    3  N1  UNL     1     -16.877   9.898  32.995  1.00  0.00    -0.055 N 
ATOM      4  H11 UNL     1     -16.473  10.265  33.857  1.00  0.00     0.278 HD
ATOM      5  H12 UNL     1     -17.564   9.298  33.451  1.00  0.00     0.278 HD
HETATM    6  C3  UNL     1     -17.432  10.889  32.126  1.00  0.00     0.284 C 
HETATM    7  C11 UNL     1     -16.254  11.352  31.276  1.00  0.00     0.187 C 
HETATM    8  C12 UNL     1     -15.138  10.386  31.588  1.00  0.00     0.179 C 
ENDROOT
BRANCH   6   9
HETATM    9  C4  UNL     1     -17.991  12.057  32.863  1.00  0.00     0.116 A 
HETATM   10  N2  UNL     1     -19.042  11.994  33.699  1.00  0.00    -0.342 N 
HETATM   11  C5  UNL     1     -19.315  13.206  34.215  1.00  0.00     0.060 A 
ATOM     12  H2  UNL     1     -19.562  11.144  33.914  1.00  0.00     0.167 HD
HETATM   13  C6  UNL     1     -20.256  13.694  35.097  1.00  0.00     0.032 A 
HETATM   14  C10 UNL     1     -18.389  14.059  33.673  1.00  0.00     0.060 A 
HETATM   15  C7  UNL     1     -20.307  15.027  35.462  1.00  0.00     0.002 A 
HETATM   16  C8  UNL     1     -19.370  15.873  34.908  1.00  0.00     0.002 A 
HETATM   17  C9  UNL     1     -18.422  15.393  34.024  1.00  0.00     0.032 A 
HETATM   18  N3  UNL     1     -17.597  13.341  32.856  1.00  0.00    -0.342 N 
ATOM     19  H3  UNL     1     -16.817  13.714  32.315  1.00  0.00     0.167 HD
ENDBRANCH   6   9
BRANCH   7  20
HETATM   20  O1  UNL     1     -16.578  11.368  29.926  1.00  0.00    -0.390 OA
ATOM     21  H1  UNL     1     -15.848  11.670  29.398  1.00  0.00     0.210 HD
ENDBRANCH   7  20
BRANCH   8  22
HETATM   22  O2  UNL     1     -14.377  10.051  30.502  1.00  0.00    -0.391 OA
ATOM     23  H2  UNL     1     -14.900   9.757  29.765  1.00  0.00     0.210 HD
ENDBRANCH   8  22
TORSDOF 3
ENDMDL
