MODEL 8
REMARK VINA RESULT: -6.738071987      2.618      3.179
REMARK  3 active torsions:
REMARK  status: ('A' for Active; 'I' for Inactive)
REMARK    1  A    between atoms: C3_6  and  C4_7 
REMARK    2  A    between atoms: C11_18  and  O1_19 
REMARK    3  A    between atoms: C12_21  and  O2_22 
ROOT
HETATM    1  C1  UNL     1     -16.599   8.480  30.981  1.00  0.00     0.043 C 
HETATM    2  C2  UNL     1     -15.950   9.192  32.126  1.00  0.00     0.214 C 
HETATM    3  N1  UNL     1     -16.905   9.852  32.997  1.00  0.00    -0.055 N 
ATOM      4  H11 UNL     1     -16.513  10.207  33.869  1.00  0.00     0.278 HD
ATOM      5  H12 UNL     1     -17.584   9.230  33.435  1.00  0.00     0.278 HD
HETATM    6  C3  UNL     1     -17.472  10.852  32.147  1.00  0.00     0.284 C 
HETATM    7  C11 UNL     1     -16.298  11.354  31.314  1.00  0.00     0.187 C 
HETATM    8  C12 UNL     1     -15.167  10.401  31.611  1.00  0.00     0.179 C 
ENDROOT
BRANCH   6   9
HETATM    9  C4  UNL     1     -18.055  11.993  32.906  1.00  0.00     0.116 A 
HETATM   10  N2  UNL     1     -17.602  13.258  32.844  1.00  0.00    -0.342 N 
HETATM   11  C5  UNL     1     -18.328  14.065  33.638  1.00  0.00     0.060 A 
ATOM     12  H2  UNL     1     -16.816  13.564  32.271  1.00  0.00     0.167 HD
HETATM   13  C6  UNL     1     -18.296  15.411  33.940  1.00  0.00     0.032 A 
HETATM   14  C10 UNL     1     -19.275  13.264  34.219  1.00  0.00     0.060 A 
HETATM   15  C7  UNL     1     -19.191  15.993  34.818  1.00  0.00     0.002 A 
HETATM   16  C8  UNL     1     -20.138  15.174  35.396  1.00  0.00     0.002 A 
HETATM   17  C9  UNL     1     -20.179  13.824  35.099  1.00  0.00     0.032 A 
HETATM   18  N3  UNL     1     -19.091  12.011  33.761  1.00  0.00    -0.342 N 
ATOM     19  H3  UNL     1     -19.652  11.201  34.023  1.00  0.00     0.167 HD
ENDBRANCH   6   9
BRANCH   7  20
HETATM   20  O1  UNL     1     -16.614  11.395  29.963  1.00  0.00    -0.390 OA
ATOM     21  H1  UNL     1     -15.848  11.575  29.432  1.00  0.00     0.210 HD
ENDBRANCH   7  20
BRANCH   8  22
HETATM   22  O2  UNL     1     -14.394  10.103  30.522  1.00  0.00    -0.391 OA
ATOM     23  H2  UNL     1     -13.667   9.530  30.734  1.00  0.00     0.210 HD
ENDBRANCH   8  22
TORSDOF 3
ENDMDL
