MODEL 4
REMARK VINA RESULT: -6.803153561      4.280      6.221
REMARK  3 active torsions:
REMARK  status: ('A' for Active; 'I' for Inactive)
REMARK    1  A    between atoms: C3_6  and  C4_7 
REMARK    2  A    between atoms: C11_18  and  O1_19 
REMARK    3  A    between atoms: C12_21  and  O2_22 
ROOT
HETATM    1  C1  UNL     1     -21.788  13.192  35.511  1.00  0.00     0.043 C 
HETATM    2  C2  UNL     1     -20.828  12.176  36.042  1.00  0.00     0.214 C 
HETATM    3  N1  UNL     1     -19.538  12.215  35.378  1.00  0.00    -0.055 N 
ATOM      4  H11 UNL     1     -18.813  11.651  35.821  1.00  0.00     0.278 HD
ATOM      5  H12 UNL     1     -19.043  13.102  35.461  1.00  0.00     0.278 HD
HETATM    6  C3  UNL     1     -19.858  11.832  34.039  1.00  0.00     0.284 C 
HETATM    7  C11 UNL     1     -20.919  10.749  34.195  1.00  0.00     0.187 C 
HETATM    8  C12 UNL     1     -21.292  10.770  35.658  1.00  0.00     0.179 C 
ENDROOT
BRANCH   6   9
HETATM    9  C4  UNL     1     -18.691  11.270  33.303  1.00  0.00     0.116 A 
HETATM   10  N2  UNL     1     -18.572   9.981  32.938  1.00  0.00    -0.342 N 
HETATM   11  C5  UNL     1     -17.412   9.773  32.290  1.00  0.00     0.060 A 
ATOM     12  H2  UNL     1     -19.267   9.259  33.127  1.00  0.00     0.167 HD
HETATM   13  C6  UNL     1     -16.806   8.675  31.718  1.00  0.00     0.032 A 
HETATM   14  C10 UNL     1     -16.783  10.990  32.251  1.00  0.00     0.060 A 
HETATM   15  C7  UNL     1     -15.572   8.750  31.098  1.00  0.00     0.002 A 
HETATM   16  C8  UNL     1     -14.951   9.980  31.067  1.00  0.00     0.002 A 
HETATM   17  C9  UNL     1     -15.551  11.088  31.637  1.00  0.00     0.032 A 
HETATM   18  N3  UNL     1     -17.576  11.883  32.871  1.00  0.00    -0.342 N 
ATOM     19  H3  UNL     1     -17.364  12.873  32.994  1.00  0.00     0.167 HD
ENDBRANCH   6   9
BRANCH   7  20
HETATM   20  O1  UNL     1     -22.008  10.981  33.368  1.00  0.00    -0.390 OA
ATOM     21  H1  UNL     1     -22.370  10.169  33.033  1.00  0.00     0.210 HD
ENDBRANCH   7  20
BRANCH   8  22
HETATM   22  O2  UNL     1     -22.626  10.573  35.890  1.00  0.00    -0.391 OA
ATOM     23  H2  UNL     1     -22.791  10.120  36.709  1.00  0.00     0.210 HD
ENDBRANCH   8  22
TORSDOF 3
ENDMDL
