MODEL 13
REMARK VINA RESULT: -6.449423045      2.490      6.127
REMARK  3 active torsions:
REMARK  status: ('A' for Active; 'I' for Inactive)
REMARK    1  A    between atoms: C3_6  and  C4_7 
REMARK    2  A    between atoms: C11_18  and  O1_19 
REMARK    3  A    between atoms: C12_21  and  O2_22 
ROOT
HETATM    1  C1  UNL     1     -13.213  15.682  34.732  1.00  0.00     0.043 C 
HETATM    2  C2  UNL     1     -13.528  14.448  35.515  1.00  0.00     0.214 C 
HETATM    3  N1  UNL     1     -13.490  13.241  34.709  1.00  0.00    -0.055 N 
ATOM      4  H11 UNL     1     -13.540  12.372  35.240  1.00  0.00     0.278 HD
ATOM      5  H12 UNL     1     -12.588  13.046  34.276  1.00  0.00     0.278 HD
HETATM    6  C3  UNL     1     -14.565  13.440  33.787  1.00  0.00     0.284 C 
HETATM    7  C11 UNL     1     -15.657  14.109  34.614  1.00  0.00     0.187 C 
HETATM    8  C12 UNL     1     -15.001  14.454  35.929  1.00  0.00     0.179 C 
ENDROOT
BRANCH   6   9
HETATM    9  C4  UNL     1     -15.089  12.164  33.226  1.00  0.00     0.116 A 
HETATM   10  N2  UNL     1     -14.751  11.667  32.023  1.00  0.00    -0.342 N 
HETATM   11  C5  UNL     1     -15.383  10.503  31.792  1.00  0.00     0.060 A 
ATOM     12  H2  UNL     1     -14.101  12.111  31.375  1.00  0.00     0.167 HD
HETATM   13  C6  UNL     1     -15.398   9.599  30.751  1.00  0.00     0.032 A 
HETATM   14  C10 UNL     1     -16.150  10.267  32.904  1.00  0.00     0.060 A 
HETATM   15  C7  UNL     1     -16.166   8.449  30.781  1.00  0.00     0.002 A 
HETATM   16  C8  UNL     1     -16.932   8.225  31.905  1.00  0.00     0.002 A 
HETATM   17  C9  UNL     1     -16.923   9.126  32.954  1.00  0.00     0.032 A 
HETATM   18  N3  UNL     1     -15.956  11.287  33.760  1.00  0.00    -0.342 N 
ATOM     19  H3  UNL     1     -16.399  11.380  34.674  1.00  0.00     0.167 HD
ENDBRANCH   6   9
BRANCH   7  20
HETATM   20  O1  UNL     1     -16.170  15.226  33.969  1.00  0.00    -0.390 OA
ATOM     21  H1  UNL     1     -16.230  15.089  33.031  1.00  0.00     0.210 HD
ENDBRANCH   7  20
BRANCH   8  22
HETATM   22  O2  UNL     1     -15.398  15.658  36.444  1.00  0.00    -0.391 OA
ATOM     23  H2  UNL     1     -15.390  16.354  35.798  1.00  0.00     0.210 HD
ENDBRANCH   8  22
TORSDOF 3
ENDMDL
