MODEL 10
REMARK VINA RESULT: -6.691534276      4.284      6.211
REMARK  3 active torsions:
REMARK  status: ('A' for Active; 'I' for Inactive)
REMARK    1  A    between atoms: C3_6  and  C4_7 
REMARK    2  A    between atoms: C11_18  and  O1_19 
REMARK    3  A    between atoms: C12_21  and  O2_22 
ROOT
HETATM    1  C1  UNL     1     -21.694  13.246  35.518  1.00  0.00     0.043 C 
HETATM    2  C2  UNL     1     -20.775  12.190  36.046  1.00  0.00     0.214 C 
HETATM    3  N1  UNL     1     -19.492  12.165  35.368  1.00  0.00    -0.055 N 
ATOM      4  H11 UNL     1     -18.789  11.571  35.808  1.00  0.00     0.278 HD
ATOM      5  H12 UNL     1     -18.956  13.029  35.440  1.00  0.00     0.278 HD
HETATM    6  C3  UNL     1     -19.844  11.789  34.035  1.00  0.00     0.284 C 
HETATM    7  C11 UNL     1     -20.952  10.756  34.210  1.00  0.00     0.187 C 
HETATM    8  C12 UNL     1     -21.307  10.805  35.676  1.00  0.00     0.179 C 
ENDROOT
BRANCH   6   9
HETATM    9  C4  UNL     1     -18.712  11.168  33.291  1.00  0.00     0.116 A 
HETATM   10  N2  UNL     1     -17.639  11.843  32.840  1.00  0.00    -0.342 N 
HETATM   11  C5  UNL     1     -16.787  11.017  32.208  1.00  0.00     0.060 A 
ATOM     12  H2  UNL     1     -17.492  12.845  32.961  1.00  0.00     0.167 HD
HETATM   13  C6  UNL     1     -15.571  11.178  31.577  1.00  0.00     0.032 A 
HETATM   14  C10 UNL     1     -17.357   9.772  32.272  1.00  0.00     0.060 A 
HETATM   15  C7  UNL     1     -14.894  10.121  30.996  1.00  0.00     0.002 A 
HETATM   16  C8  UNL     1     -15.480   8.875  31.066  1.00  0.00     0.002 A 
HETATM   17  C9  UNL     1     -16.699   8.704  31.698  1.00  0.00     0.032 A 
HETATM   18  N3  UNL     1     -18.524   9.888  32.932  1.00  0.00    -0.342 N 
ATOM     19  H3  UNL     1     -19.166   9.121  33.130  1.00  0.00     0.167 HD
ENDBRANCH   6   9
BRANCH   7  20
HETATM   20  O1  UNL     1     -22.038  11.034  33.393  1.00  0.00    -0.390 OA
ATOM     21  H1  UNL     1     -22.443  10.237  33.071  1.00  0.00     0.210 HD
ENDBRANCH   7  20
BRANCH   8  22
HETATM   22  O2  UNL     1     -22.647  10.671  35.924  1.00  0.00    -0.391 OA
ATOM     23  H2  UNL     1     -23.120  10.300  35.189  1.00  0.00     0.210 HD
ENDBRANCH   8  22
TORSDOF 3
ENDMDL
