MODEL 2
REMARK VINA RESULT: -6.845856731      1.809      2.665
REMARK  4 active torsions:
REMARK  status: ('A' for Active; 'I' for Inactive)
REMARK    1  A    between atoms: C1_2  and  C2_4 
REMARK    2  A    between atoms: C4_6  and  C5_7 
REMARK    3  A    between atoms: C5_7  and  O3_8 
REMARK    4  A    between atoms: C5_7  and  C6_10 
ROOT
HETATM    1  C5  UNL     1      -0.456  39.971  68.844  1.00  0.00     0.058 C 
ENDROOT
BRANCH   1   2
HETATM    2  C4  UNL     1       0.390  39.578  69.941  1.00  0.00     0.058 A 
HETATM    3  C2  UNL     1       1.455  38.579  69.975  1.00  0.00     0.098 A 
HETATM    4  C3  UNL     1       0.130  38.255  70.628  1.00  0.00     0.028 A 
BRANCH   3   5
HETATM    5  C1  UNL     1       2.540  38.804  71.021  1.00  0.00     0.177 C 
HETATM    6  O1  UNL     1       2.504  39.738  71.833  1.00  0.00    -0.648 OA
HETATM    7  O2  UNL     1       3.612  37.924  71.060  1.00  0.00    -0.648 OA
ENDBRANCH   3   5
ENDBRANCH   1   2
BRANCH   1   8
HETATM    8  O3  UNL     1       0.121  39.865  67.669  1.00  0.00    -0.364 OA
ATOM      9  H3  UNL     1       0.246  38.967  67.385  1.00  0.00     0.217 HD
ENDBRANCH   1   8
BRANCH   1  10
HETATM   10  C6  UNL     1      -1.817  40.458  68.807  1.00  0.00    -0.005 A 
HETATM   11  C7  UNL     1      -2.592  40.624  67.691  1.00  0.00     0.015 A 
HETATM   12  C8  UNL     1      -3.908  41.112  67.771  1.00  0.00     0.026 A 
HETATM   13  C9  UNL     1      -4.490  41.450  68.966  1.00  0.00     0.055 A 
HETATM   14 CL1  UNL     1      -6.139  42.059  69.052  1.00  0.00    -0.083 Cl
HETATM   15  C10 UNL     1      -3.724  41.288  70.094  1.00  0.00     0.056 A 
HETATM   16 CL2  UNL     1      -4.455  41.715  71.633  1.00  0.00    -0.083 Cl
HETATM   17  C11 UNL     1      -2.436  40.810  70.014  1.00  0.00     0.039 A 
ENDBRANCH   1  10
TORSDOF 4
ENDMDL
