MODEL 1
REMARK VINA RESULT: -6.900965750      0.000      0.000
REMARK  4 active torsions:
REMARK  status: ('A' for Active; 'I' for Inactive)
REMARK    1  A    between atoms: C1_2  and  C2_4 
REMARK    2  A    between atoms: C4_6  and  C5_7 
REMARK    3  A    between atoms: C5_7  and  O3_8 
REMARK    4  A    between atoms: C5_7  and  C6_10 
ROOT
HETATM    1  C5  UNL     1      -1.053  39.354  71.580  1.00  0.00     0.058 C 
ENDROOT
BRANCH   1   2
HETATM    2  C4  UNL     1       0.287  39.428  71.057  1.00  0.00     0.058 A 
HETATM    3  C2  UNL     1       1.544  39.009  71.670  1.00  0.00     0.098 A 
HETATM    4  C3  UNL     1       1.226  40.485  71.596  1.00  0.00     0.028 A 
BRANCH   3   5
HETATM    5  C1  UNL     1       2.662  38.640  70.703  1.00  0.00     0.177 C 
HETATM    6  O1  UNL     1       2.635  38.941  69.502  1.00  0.00    -0.648 OA
HETATM    7  O2  UNL     1       3.753  37.938  71.193  1.00  0.00    -0.648 OA
ENDBRANCH   3   5
ENDBRANCH   1   2
BRANCH   1   8
HETATM    8  O3  UNL     1      -1.216  38.410  72.479  1.00  0.00    -0.364 OA
ATOM      9  H3  UNL     1      -1.631  38.713  73.279  1.00  0.00     0.217 HD
ENDBRANCH   1   8
BRANCH   1  10
HETATM   10  C6  UNL     1      -2.241  40.127  71.293  1.00  0.00    -0.005 A 
HETATM   11  C7  UNL     1      -3.316  40.305  72.121  1.00  0.00     0.015 A 
HETATM   12  C8  UNL     1      -4.425  41.077  71.737  1.00  0.00     0.026 A 
HETATM   13  C9  UNL     1      -4.497  41.694  70.514  1.00  0.00     0.055 A 
HETATM   14 CL1  UNL     1      -5.893  42.657  70.045  1.00  0.00    -0.083 Cl
HETATM   15  C10 UNL     1      -3.426  41.523  69.672  1.00  0.00     0.056 A 
HETATM   16 CL2  UNL     1      -3.502  42.307  68.102  1.00  0.00    -0.083 Cl
HETATM   17  C11 UNL     1      -2.340  40.768  70.051  1.00  0.00     0.039 A 
ENDBRANCH   1  10
TORSDOF 4
ENDMDL
