MODEL 3
REMARK VINA RESULT: -6.717110978      2.531      3.652
REMARK  4 active torsions:
REMARK  status: ('A' for Active; 'I' for Inactive)
REMARK    1  A    between atoms: C1_2  and  C2_4 
REMARK    2  A    between atoms: C4_6  and  C5_7 
REMARK    3  A    between atoms: C5_7  and  O3_8 
REMARK    4  A    between atoms: C5_7  and  C6_10 
ROOT
HETATM    1  C5  UNL     1       0.365  41.125  68.862  1.00  0.00     0.058 C 
ENDROOT
BRANCH   1   2
HETATM    2  C4  UNL     1       0.822  40.266  69.924  1.00  0.00     0.058 A 
HETATM    3  C2  UNL     1       1.683  39.088  69.855  1.00  0.00     0.098 A 
HETATM    4  C3  UNL     1       0.199  38.895  70.076  1.00  0.00     0.028 A 
BRANCH   3   5
HETATM    5  C1  UNL     1       2.471  38.769  71.120  1.00  0.00     0.177 C 
HETATM    6  O1  UNL     1       2.141  39.187  72.238  1.00  0.00    -0.648 OA
HETATM    7  O2  UNL     1       3.605  37.978  71.009  1.00  0.00    -0.648 OA
ENDBRANCH   3   5
ENDBRANCH   1   2
BRANCH   1   8
HETATM    8  O3  UNL     1       1.107  42.196  68.695  1.00  0.00    -0.364 OA
ATOM      9  H3  UNL     1       1.959  42.139  69.112  1.00  0.00     0.217 HD
ENDBRANCH   1   8
BRANCH   1  10
HETATM   10  C6  UNL     1      -0.756  41.018  67.955  1.00  0.00    -0.005 A 
HETATM   11  C7  UNL     1      -0.788  40.319  66.779  1.00  0.00     0.015 A 
HETATM   12  C8  UNL     1      -1.936  40.288  65.968  1.00  0.00     0.026 A 
HETATM   13  C9  UNL     1      -3.086  40.954  66.306  1.00  0.00     0.055 A 
HETATM   14 CL1  UNL     1      -4.516  40.906  65.282  1.00  0.00    -0.083 Cl
HETATM   15  C10 UNL     1      -3.068  41.660  67.484  1.00  0.00     0.056 A 
HETATM   16 CL2  UNL     1      -4.534  42.517  67.931  1.00  0.00    -0.083 Cl
HETATM   17  C11 UNL     1      -1.944  41.688  68.276  1.00  0.00     0.039 A 
ENDBRANCH   1  10
TORSDOF 4
ENDMDL
