MODEL 11
REMARK VINA RESULT: -9.608746798      1.591      9.479
REMARK  5 active torsions:
REMARK  status: ('A' for Active; 'I' for Inactive)
REMARK    1  A    between atoms: O1_2  and  C2_3 
REMARK    2  A    between atoms: C2_3  and  C3_4 
REMARK    3  A    between atoms: C3_4  and  N1_5 
REMARK       I    between atoms: N1_5  and  C4_7 
REMARK    4  A    between atoms: C4_7  and  C5_9 
REMARK    5  A    between atoms: C8_12  and  C9_13 
ROOT
HETATM    1  C5  UNL     1       2.922 -11.744 -10.395  1.00  0.00     0.033 A 
HETATM    2  C6  UNL     1       3.876 -11.039  -9.678  1.00  0.00     0.018 A 
HETATM    3  C7  UNL     1       3.799 -10.906  -8.307  1.00  0.00     0.015 A 
HETATM    4  C8  UNL     1       2.768 -11.464  -7.574  1.00  0.00    -0.004 A 
HETATM    5  C19 UNL     1       1.825 -12.162  -8.288  1.00  0.00     0.046 A 
HETATM    6 CL1  UNL     1       0.483 -12.911  -7.458  1.00  0.00    -0.083 Cl
HETATM    7  C20 UNL     1       1.894 -12.304  -9.680  1.00  0.00     0.042 A 
ENDROOT
BRANCH   4   8
HETATM    8  C9  UNL     1       2.667 -11.331  -6.124  1.00  0.00    -0.022 A 
HETATM    9  C10 UNL     1       2.513 -12.396  -5.264  1.00  0.00     0.013 A 
HETATM   10  C11 UNL     1       2.425 -12.205  -3.880  1.00  0.00     0.015 A 
HETATM   11  C12 UNL     1       2.493 -10.937  -3.373  1.00  0.00    -0.003 A 
HETATM   12  C13 UNL     1       2.405 -10.745  -1.997  1.00  0.00    -0.044 A 
HETATM   13  C17 UNL     1       2.647  -9.838  -4.192  1.00  0.00     0.046 A 
HETATM   14  C14 UNL     1       2.241 -11.845  -1.045  1.00  0.00     0.049 C 
HETATM   15  C15 UNL     1       2.480  -9.447  -1.543  1.00  0.00     0.082 A 
HETATM   16  C16 UNL     1       2.633  -8.378  -2.385  1.00  0.00     0.246 A 
HETATM   17  O3  UNL     1       2.699  -7.182  -1.935  1.00  0.00    -0.268 OA
HETATM   18  N2  UNL     1       2.713  -8.598  -3.698  1.00  0.00    -0.323 N 
ATOM     19  H2  UNL     1       2.826  -7.808  -4.334  1.00  0.00     0.169 HD
HETATM   20  C18 UNL     1       2.730 -10.075  -5.558  1.00  0.00     0.042 A 
ENDBRANCH   4   8
BRANCH   1  21
HETATM   21  C4  UNL     1       3.062 -11.845 -11.842  1.00  0.00     0.251 C 
HETATM   22  N1  UNL     1       1.977 -11.713 -12.714  1.00  0.00    -0.355 N 
ATOM     23  H1  UNL     1       1.060 -11.542 -12.301  1.00  0.00     0.162 HD
HETATM   24  O2  UNL     1       4.217 -12.066 -12.349  1.00  0.00    -0.268 OA
BRANCH  22  25
HETATM   25  C3  UNL     1       2.052 -11.798 -14.149  1.00  0.00     0.149 C 
BRANCH  25  26
HETATM   26  C2  UNL     1       1.903 -13.242 -14.567  1.00  0.00     0.186 C 
BRANCH  26  27
HETATM   27  O1  UNL     1       2.755 -13.510 -15.625  1.00  0.00    -0.394 OA
HETATM   28  C1  UNL     1       3.797 -12.632 -15.768  1.00  0.00     0.201 C 
ENDBRANCH  26  27
ENDBRANCH  25  26
ENDBRANCH  22  25
ENDBRANCH   1  21
TORSDOF 5
ENDMDL
