MODEL 12
REMARK VINA RESULT: -9.592657898      2.038      9.469
REMARK  5 active torsions:
REMARK  status: ('A' for Active; 'I' for Inactive)
REMARK    1  A    between atoms: O1_2  and  C2_3 
REMARK    2  A    between atoms: C2_3  and  C3_4 
REMARK    3  A    between atoms: C3_4  and  N1_5 
REMARK       I    between atoms: N1_5  and  C4_7 
REMARK    4  A    between atoms: C4_7  and  C5_9 
REMARK    5  A    between atoms: C8_12  and  C9_13 
ROOT
HETATM    1  C5  UNL     1       2.948 -11.759 -10.597  1.00  0.00     0.033 A 
HETATM    2  C6  UNL     1       3.597 -10.591 -10.229  1.00  0.00     0.018 A 
HETATM    3  C7  UNL     1       3.647 -10.176  -8.914  1.00  0.00     0.015 A 
HETATM    4  C8  UNL     1       3.054 -10.897  -7.894  1.00  0.00    -0.004 A 
HETATM    5  C19 UNL     1       2.412 -12.053  -8.264  1.00  0.00     0.046 A 
HETATM    6 CL1  UNL     1       1.633 -13.042  -7.052  1.00  0.00    -0.083 Cl
HETATM    7  C20 UNL     1       2.356 -12.486  -9.595  1.00  0.00     0.042 A 
ENDROOT
BRANCH   4   8
HETATM    8  C9  UNL     1       3.093 -10.471  -6.499  1.00  0.00    -0.022 A 
HETATM    9  C10 UNL     1       2.090  -9.751  -5.887  1.00  0.00     0.013 A 
HETATM   10  C11 UNL     1       2.183  -9.373  -4.542  1.00  0.00     0.015 A 
HETATM   11  C12 UNL     1       3.291  -9.725  -3.824  1.00  0.00    -0.003 A 
HETATM   12  C13 UNL     1       3.387  -9.350  -2.486  1.00  0.00    -0.044 A 
HETATM   13  C17 UNL     1       4.323 -10.446  -4.390  1.00  0.00     0.046 A 
HETATM   14  C14 UNL     1       2.347  -8.585  -1.795  1.00  0.00     0.049 C 
HETATM   15  C15 UNL     1       4.525  -9.732  -1.811  1.00  0.00     0.082 A 
HETATM   16  C16 UNL     1       5.530 -10.448  -2.405  1.00  0.00     0.246 A 
HETATM   17  O3  UNL     1       6.577 -10.789  -1.753  1.00  0.00    -0.268 OA
HETATM   18  N2  UNL     1       5.407 -10.790  -3.687  1.00  0.00    -0.323 N 
ATOM     19  H2  UNL     1       6.150 -11.322  -4.139  1.00  0.00     0.169 HD
HETATM   20  C18 UNL     1       4.187 -10.799  -5.726  1.00  0.00     0.042 A 
ENDBRANCH   4   8
BRANCH   1  21
HETATM   21  C4  UNL     1       2.931 -12.141 -12.004  1.00  0.00     0.251 C 
HETATM   22  N1  UNL     1       1.756 -12.502 -12.670  1.00  0.00    -0.355 N 
ATOM     23  H1  UNL     1       0.890 -12.496 -12.133  1.00  0.00     0.162 HD
HETATM   24  O2  UNL     1       4.026 -12.151 -12.666  1.00  0.00    -0.268 OA
BRANCH  22  25
HETATM   25  C3  UNL     1       1.675 -12.883 -14.057  1.00  0.00     0.149 C 
BRANCH  25  26
HETATM   26  C2  UNL     1       1.424 -11.650 -14.894  1.00  0.00     0.186 C 
BRANCH  26  27
HETATM   27  O1  UNL     1       2.167 -11.721 -16.059  1.00  0.00    -0.394 OA
HETATM   28  C1  UNL     1       3.433 -12.224 -15.911  1.00  0.00     0.201 C 
ENDBRANCH  26  27
ENDBRANCH  25  26
ENDBRANCH  22  25
ENDBRANCH   1  21
TORSDOF 5
ENDMDL
