MODEL 14
REMARK VINA RESULT: -9.051283367      1.721      9.632
REMARK  5 active torsions:
REMARK  status: ('A' for Active; 'I' for Inactive)
REMARK    1  A    between atoms: O1_2  and  C2_3 
REMARK    2  A    between atoms: C2_3  and  C3_4 
REMARK    3  A    between atoms: C3_4  and  N1_5 
REMARK       I    between atoms: N1_5  and  C4_7 
REMARK    4  A    between atoms: C4_7  and  C5_9 
REMARK    5  A    between atoms: C8_12  and  C9_13 
ROOT
HETATM    1  C5  UNL     1       3.250 -11.677  -9.458  1.00  0.00     0.033 A 
HETATM    2  C6  UNL     1       3.839 -10.643  -8.747  1.00  0.00     0.018 A 
HETATM    3  C7  UNL     1       3.653 -10.502  -7.387  1.00  0.00     0.015 A 
HETATM    4  C8  UNL     1       2.871 -11.381  -6.660  1.00  0.00    -0.004 A 
HETATM    5  C19 UNL     1       2.290 -12.404  -7.368  1.00  0.00     0.046 A 
HETATM    6 CL1  UNL     1       1.286 -13.573  -6.544  1.00  0.00    -0.083 Cl
HETATM    7  C20 UNL     1       2.472 -12.557  -8.749  1.00  0.00     0.042 A 
ENDROOT
BRANCH   4   8
HETATM    8  C9  UNL     1       2.660 -11.246  -5.222  1.00  0.00    -0.022 A 
HETATM    9  C10 UNL     1       2.586 -12.314  -4.354  1.00  0.00     0.013 A 
HETATM   10  C11 UNL     1       2.384 -12.121  -2.982  1.00  0.00     0.015 A 
HETATM   11  C12 UNL     1       2.259 -10.850  -2.495  1.00  0.00    -0.003 A 
HETATM   12  C13 UNL     1       2.058 -10.656  -1.131  1.00  0.00    -0.044 A 
HETATM   13  C17 UNL     1       2.327  -9.748  -3.323  1.00  0.00     0.046 A 
HETATM   14  C14 UNL     1       1.973 -11.759  -0.171  1.00  0.00     0.049 C 
HETATM   15  C15 UNL     1       1.940  -9.354  -0.697  1.00  0.00     0.082 A 
HETATM   16  C16 UNL     1       2.011  -8.284  -1.548  1.00  0.00     0.246 A 
HETATM   17  O3  UNL     1       1.897  -7.084  -1.116  1.00  0.00    -0.268 OA
HETATM   18  N2  UNL     1       2.203  -8.505  -2.848  1.00  0.00    -0.323 N 
ATOM     19  H2  UNL     1       2.257  -7.714  -3.490  1.00  0.00     0.169 HD
HETATM   20  C18 UNL     1       2.528  -9.987  -4.676  1.00  0.00     0.042 A 
ENDBRANCH   4   8
BRANCH   1  21
HETATM   21  C4  UNL     1       3.485 -11.767 -10.893  1.00  0.00     0.251 C 
HETATM   22  N1  UNL     1       2.461 -12.034 -11.808  1.00  0.00    -0.355 N 
ATOM     23  H1  UNL     1       1.522 -12.171 -11.435  1.00  0.00     0.162 HD
HETATM   24  O2  UNL     1       4.669 -11.599 -11.349  1.00  0.00    -0.268 OA
BRANCH  22  25
HETATM   25  C3  UNL     1       2.630 -12.130 -13.235  1.00  0.00     0.149 C 
BRANCH  25  26
HETATM   26  C2  UNL     1       1.270 -12.125 -13.894  1.00  0.00     0.186 C 
BRANCH  26  27
HETATM   27  O1  UNL     1       1.421 -12.017 -15.267  1.00  0.00    -0.394 OA
HETATM   28  C1  UNL     1       2.717 -11.957 -15.706  1.00  0.00     0.201 C 
ENDBRANCH  26  27
ENDBRANCH  25  26
ENDBRANCH  22  25
ENDBRANCH   1  21
TORSDOF 5
ENDMDL
