MODEL 3
REMARK VINA RESULT: -11.005332251      1.317      1.395
REMARK  5 active torsions:
REMARK  status: ('A' for Active; 'I' for Inactive)
REMARK    1  A    between atoms: O1_2  and  C2_3 
REMARK    2  A    between atoms: C2_3  and  C3_4 
REMARK    3  A    between atoms: C3_4  and  N1_5 
REMARK       I    between atoms: N1_5  and  C4_7 
REMARK    4  A    between atoms: C4_7  and  C5_9 
REMARK    5  A    between atoms: C8_12  and  C9_13 
ROOT
HETATM    1  C5  UNL     1       2.604 -11.154  -5.766  1.00  0.00     0.033 A 
HETATM    2  C6  UNL     1       3.525 -10.354  -6.424  1.00  0.00     0.018 A 
HETATM    3  C7  UNL     1       3.805 -10.525  -7.763  1.00  0.00     0.015 A 
HETATM    4  C8  UNL     1       3.187 -11.502  -8.522  1.00  0.00    -0.004 A 
HETATM    5  C19 UNL     1       2.276 -12.292  -7.867  1.00  0.00     0.046 A 
HETATM    6 CL1  UNL     1       1.434 -13.554  -8.734  1.00  0.00    -0.083 Cl
HETATM    7  C20 UNL     1       1.982 -12.127  -6.507  1.00  0.00     0.042 A 
ENDROOT
BRANCH   4   8
HETATM    8  C9  UNL     1       3.474 -11.701  -9.939  1.00  0.00    -0.022 A 
HETATM    9  C10 UNL     1       4.744 -11.849 -10.452  1.00  0.00     0.013 A 
HETATM   10  C11 UNL     1       4.956 -12.040 -11.823  1.00  0.00     0.015 A 
HETATM   11  C12 UNL     1       3.882 -12.079 -12.668  1.00  0.00    -0.003 A 
HETATM   12  C13 UNL     1       4.090 -12.268 -14.032  1.00  0.00    -0.044 A 
HETATM   13  C17 UNL     1       2.590 -11.937 -12.203  1.00  0.00     0.046 A 
HETATM   14  C14 UNL     1       5.420 -12.430 -14.622  1.00  0.00     0.049 C 
HETATM   15  C15 UNL     1       2.972 -12.300 -14.834  1.00  0.00     0.082 A 
HETATM   16  C16 UNL     1       1.703 -12.154 -14.339  1.00  0.00     0.246 A 
HETATM   17  O3  UNL     1       0.682 -12.188 -15.110  1.00  0.00    -0.268 OA
HETATM   18  N2  UNL     1       1.540 -11.974 -13.029  1.00  0.00    -0.323 N 
ATOM     19  H2  UNL     1       0.599 -11.864 -12.650  1.00  0.00     0.169 HD
HETATM   20  C18 UNL     1       2.428 -11.750 -10.837  1.00  0.00     0.042 A 
ENDBRANCH   4   8
BRANCH   1  21
HETATM   21  C4  UNL     1       2.355 -10.921  -4.349  1.00  0.00     0.251 C 
HETATM   22  N1  UNL     1       2.400 -11.947  -3.399  1.00  0.00    -0.355 N 
ATOM     23  H1  UNL     1       2.612 -12.887  -3.732  1.00  0.00     0.162 HD
HETATM   24  O2  UNL     1       2.083  -9.738  -3.944  1.00  0.00    -0.268 OA
BRANCH  22  25
HETATM   25  C3  UNL     1       2.168 -11.779  -1.988  1.00  0.00     0.149 C 
BRANCH  25  26
HETATM   26  C2  UNL     1       3.495 -11.593  -1.288  1.00  0.00     0.186 C 
BRANCH  26  27
HETATM   27  O1  UNL     1       3.690 -10.251  -1.012  1.00  0.00    -0.394 OA
HETATM   28  C1  UNL     1       4.787  -9.688  -1.610  1.00  0.00     0.201 C 
ENDBRANCH  26  27
ENDBRANCH  25  26
ENDBRANCH  22  25
ENDBRANCH   1  21
TORSDOF 5
ENDMDL
