MODEL 1
REMARK VINA RESULT: -11.387067147      0.000      0.000
REMARK  5 active torsions:
REMARK  status: ('A' for Active; 'I' for Inactive)
REMARK    1  A    between atoms: O1_2  and  C2_3 
REMARK    2  A    between atoms: C2_3  and  C3_4 
REMARK    3  A    between atoms: C3_4  and  N1_5 
REMARK       I    between atoms: N1_5  and  C4_7 
REMARK    4  A    between atoms: C4_7  and  C5_9 
REMARK    5  A    between atoms: C8_12  and  C9_13 
ROOT
HETATM    1  C5  UNL     1       2.620 -11.176  -5.747  1.00  0.00     0.033 A 
HETATM    2  C6  UNL     1       3.527 -10.361  -6.406  1.00  0.00     0.018 A 
HETATM    3  C7  UNL     1       3.807 -10.527  -7.746  1.00  0.00     0.015 A 
HETATM    4  C8  UNL     1       3.203 -11.513  -8.505  1.00  0.00    -0.004 A 
HETATM    5  C19 UNL     1       2.305 -12.317  -7.848  1.00  0.00     0.046 A 
HETATM    6 CL1  UNL     1       1.480 -13.591  -8.715  1.00  0.00    -0.083 Cl
HETATM    7  C20 UNL     1       2.012 -12.158  -6.487  1.00  0.00     0.042 A 
ENDROOT
BRANCH   4   8
HETATM    8  C9  UNL     1       3.489 -11.706  -9.922  1.00  0.00    -0.022 A 
HETATM    9  C10 UNL     1       4.760 -11.836 -10.438  1.00  0.00     0.013 A 
HETATM   10  C11 UNL     1       4.972 -12.022 -11.810  1.00  0.00     0.015 A 
HETATM   11  C12 UNL     1       3.897 -12.075 -12.652  1.00  0.00    -0.003 A 
HETATM   12  C13 UNL     1       4.105 -12.259 -14.017  1.00  0.00    -0.044 A 
HETATM   13  C17 UNL     1       2.604 -11.950 -12.185  1.00  0.00     0.046 A 
HETATM   14  C14 UNL     1       5.436 -12.403 -14.609  1.00  0.00     0.049 C 
HETATM   15  C15 UNL     1       2.985 -12.305 -14.817  1.00  0.00     0.082 A 
HETATM   16  C16 UNL     1       1.716 -12.177 -14.320  1.00  0.00     0.246 A 
HETATM   17  O3  UNL     1       0.694 -12.223 -15.088  1.00  0.00    -0.268 OA
HETATM   18  N2  UNL     1       1.553 -12.001 -13.009  1.00  0.00    -0.323 N 
ATOM     19  H2  UNL     1       0.611 -11.903 -12.628  1.00  0.00     0.169 HD
HETATM   20  C18 UNL     1       2.442 -11.767 -10.818  1.00  0.00     0.042 A 
ENDBRANCH   4   8
BRANCH   1  21
HETATM   21  C4  UNL     1       2.371 -10.948  -4.329  1.00  0.00     0.251 C 
HETATM   22  N1  UNL     1       2.210  -9.667  -3.790  1.00  0.00    -0.355 N 
ATOM     23  H1  UNL     1       2.276  -8.876  -4.430  1.00  0.00     0.162 HD
HETATM   24  O2  UNL     1       2.295 -11.948  -3.534  1.00  0.00    -0.268 OA
BRANCH  22  25
HETATM   25  C3  UNL     1       1.957  -9.379  -2.402  1.00  0.00     0.149 C 
BRANCH  25  26
HETATM   26  C2  UNL     1       3.094  -8.548  -1.855  1.00  0.00     0.186 C 
BRANCH  26  27
HETATM   27  O1  UNL     1       2.728  -7.213  -1.839  1.00  0.00    -0.394 OA
HETATM   28  C1  UNL     1       3.503  -6.388  -2.612  1.00  0.00     0.201 C 
ENDBRANCH  26  27
ENDBRANCH  25  26
ENDBRANCH  22  25
ENDBRANCH   1  21
TORSDOF 5
ENDMDL
