MODEL 7
REMARK VINA RESULT: -6.852590495      2.017      3.253
REMARK  9 active torsions:
REMARK  status: ('A' for Active; 'I' for Inactive)
REMARK    1  A    between atoms: C1_2  and  C2_3 
REMARK       I    between atoms: C1_2  and  N1_34 
REMARK    2  A    between atoms: C2_3  and  O2_4 
REMARK    3  A    between atoms: O2_4  and  C3_5 
REMARK    4  A    between atoms: C6_8  and  C7_9 
REMARK    5  A    between atoms: C10_13  and  O4_14 
REMARK    6  A    between atoms: C11_16  and  C12_17 
REMARK    7  A    between atoms: C15_22  and  C16_23 
REMARK    8  A    between atoms: C17_24  and  C18_25 
REMARK    9  A    between atoms: N1_34  and  C26_36 
ROOT
HETATM    1  C7  UNL     1      34.011  -7.751  35.577  1.00  0.00     0.106 A 
HETATM    2  O3  UNL     1      32.905  -7.362  34.935  1.00  0.00    -0.307 OA
HETATM    3  C8  UNL     1      32.590  -6.146  35.187  1.00  0.00     0.090 A 
HETATM    4  C9  UNL     1      31.554  -5.337  34.761  1.00  0.00     0.075 A 
HETATM    5  C10 UNL     1      31.508  -4.058  35.231  1.00  0.00     0.085 A 
HETATM    6  C11 UNL     1      32.432  -3.528  36.103  1.00  0.00     0.074 A 
HETATM    7  C13 UNL     1      33.458  -4.352  36.516  1.00  0.00     0.037 A 
HETATM    8  C14 UNL     1      33.532  -5.654  36.058  1.00  0.00     0.021 A 
HETATM    9  C15 UNL     1      34.451  -6.683  36.314  1.00  0.00     0.065 A 
ENDROOT
BRANCH   1  10
HETATM   10  C6  UNL     1      34.582  -9.076  35.467  1.00  0.00    -0.001 A 
HETATM   11  C5  UNL     1      35.406  -9.481  34.453  1.00  0.00     0.017 A 
HETATM   12  C4  UNL     1      35.877 -10.793  34.484  1.00  0.00     0.037 A 
HETATM   13  C3  UNL     1      35.556 -11.694  35.479  1.00  0.00     0.069 A 
HETATM   14  C25 UNL     1      34.722 -11.267  36.497  1.00  0.00     0.037 A 
HETATM   15  C24 UNL     1      34.249  -9.984  36.483  1.00  0.00     0.017 A 
BRANCH  13  16
HETATM   16  O2  UNL     1      36.038 -12.983  35.485  1.00  0.00    -0.342 OA
BRANCH  16  17
HETATM   17  C2  UNL     1      35.482 -14.101  36.079  1.00  0.00     0.278 C 
BRANCH  17  18
HETATM   18  C1  UNL     1      36.148 -14.606  37.281  1.00  0.00     0.242 C 
HETATM   19  O1  UNL     1      36.601 -15.774  37.370  1.00  0.00    -0.271 OA
HETATM   20  N1  UNL     1      36.297 -13.766  38.397  1.00  0.00    -0.355 N 
ATOM     21  H1  UNL     1      35.928 -12.817  38.328  1.00  0.00     0.162 HD
BRANCH  20  22
HETATM   22  C26 UNL     1      36.932 -14.146  39.632  1.00  0.00     0.084 A 
HETATM   23  C27 UNL     1      37.007 -13.031  40.678  1.00  0.00     0.027 A 
HETATM   24  C28 UNL     1      38.235 -13.611  40.053  1.00  0.00     0.027 A 
ENDBRANCH  20  22
ENDBRANCH  17  18
ENDBRANCH  16  17
ENDBRANCH  13  16
ENDBRANCH   1  10
BRANCH   9  25
HETATM   25  C16 UNL     1      35.566  -6.550  37.167  1.00  0.00    -0.058 C 
HETATM   26  C17 UNL     1      36.496  -6.425  37.913  1.00  0.00    -0.061 C 
BRANCH  26  27
HETATM   27  C18 UNL     1      37.624  -6.252  38.805  1.00  0.00     0.019 A 
HETATM   28  C19 UNL     1      38.667  -5.415  38.414  1.00  0.00     0.021 A 
HETATM   29  C20 UNL     1      39.775  -5.202  39.211  1.00  0.00     0.003 A 
HETATM   30  C21 UNL     1      39.859  -5.830  40.431  1.00  0.00     0.024 A 
HETATM   31  C22 UNL     1      38.827  -6.665  40.831  1.00  0.00     0.035 A 
HETATM   32 CL1  UNL     1      38.968  -7.445  42.384  1.00  0.00    -0.084 Cl
HETATM   33  C23 UNL     1      37.712  -6.877  40.022  1.00  0.00     0.044 A 
ENDBRANCH  26  27
ENDBRANCH   9  25
BRANCH   5  34
HETATM   34  O4  UNL     1      30.462  -3.224  34.806  1.00  0.00    -0.360 OA
ATOM     35  H4  UNL     1      30.679  -2.423  34.342  1.00  0.00     0.217 HD
ENDBRANCH   5  34
BRANCH   6  36
HETATM   36  C12 UNL     1      32.355  -2.157  36.588  1.00  0.00     0.212 C 
HETATM   37  O5  UNL     1      31.368  -1.668  37.146  1.00  0.00    -0.644 OA
HETATM   38  O6  UNL     1      33.479  -1.345  36.407  1.00  0.00    -0.644 OA
ENDBRANCH   6  36
TORSDOF 9
ENDMDL
