MODEL 5
REMARK VINA RESULT: -6.961080896      1.527      2.227
REMARK  9 active torsions:
REMARK  status: ('A' for Active; 'I' for Inactive)
REMARK    1  A    between atoms: C1_2  and  C2_3 
REMARK       I    between atoms: C1_2  and  N1_34 
REMARK    2  A    between atoms: C2_3  and  O2_4 
REMARK    3  A    between atoms: O2_4  and  C3_5 
REMARK    4  A    between atoms: C6_8  and  C7_9 
REMARK    5  A    between atoms: C10_13  and  O4_14 
REMARK    6  A    between atoms: C11_16  and  C12_17 
REMARK    7  A    between atoms: C15_22  and  C16_23 
REMARK    8  A    between atoms: C17_24  and  C18_25 
REMARK    9  A    between atoms: N1_34  and  C26_36 
ROOT
HETATM    1  C7  UNL     1      34.074  -7.652  35.571  1.00  0.00     0.106 A 
HETATM    2  O3  UNL     1      32.951  -7.301  34.936  1.00  0.00    -0.307 OA
HETATM    3  C8  UNL     1      32.601  -6.093  35.183  1.00  0.00     0.090 A 
HETATM    4  C9  UNL     1      31.537  -5.319  34.760  1.00  0.00     0.075 A 
HETATM    5  C10 UNL     1      31.456  -4.039  35.222  1.00  0.00     0.085 A 
HETATM    6  C11 UNL     1      32.370  -3.476  36.084  1.00  0.00     0.074 A 
HETATM    7  C13 UNL     1      33.424  -4.266  36.493  1.00  0.00     0.037 A 
HETATM    8  C14 UNL     1      33.534  -5.568  36.042  1.00  0.00     0.021 A 
HETATM    9  C15 UNL     1      34.487  -6.566  36.298  1.00  0.00     0.065 A 
ENDROOT
BRANCH   1  10
HETATM   10  C6  UNL     1      34.684  -8.960  35.464  1.00  0.00    -0.001 A 
HETATM   11  C5  UNL     1      35.620  -9.302  34.526  1.00  0.00     0.017 A 
HETATM   12  C4  UNL     1      36.116 -10.604  34.550  1.00  0.00     0.037 A 
HETATM   13  C3  UNL     1      35.714 -11.556  35.465  1.00  0.00     0.069 A 
HETATM   14  C25 UNL     1      34.767 -11.193  36.406  1.00  0.00     0.037 A 
HETATM   15  C24 UNL     1      34.268  -9.919  36.399  1.00  0.00     0.017 A 
BRANCH  13  16
HETATM   16  O2  UNL     1      36.222 -12.834  35.465  1.00  0.00    -0.342 OA
BRANCH  16  17
HETATM   17  C2  UNL     1      36.065 -13.818  34.505  1.00  0.00     0.278 C 
BRANCH  17  18
HETATM   18  C1  UNL     1      35.100 -14.879  34.803  1.00  0.00     0.242 C 
HETATM   19  O1  UNL     1      34.370 -15.403  33.926  1.00  0.00    -0.271 OA
HETATM   20  N1  UNL     1      34.967 -15.345  36.121  1.00  0.00    -0.355 N 
ATOM     21  H1  UNL     1      35.558 -14.920  36.836  1.00  0.00     0.162 HD
BRANCH  20  22
HETATM   22  C26 UNL     1      34.057 -16.380  36.538  1.00  0.00     0.084 A 
HETATM   23  C27 UNL     1      34.468 -17.109  37.820  1.00  0.00     0.027 A 
HETATM   24  C28 UNL     1      34.406 -17.808  36.499  1.00  0.00     0.027 A 
ENDBRANCH  20  22
ENDBRANCH  17  18
ENDBRANCH  16  17
ENDBRANCH  13  16
ENDBRANCH   1  10
BRANCH   9  25
HETATM   25  C16 UNL     1      35.604  -6.394  37.141  1.00  0.00    -0.058 C 
HETATM   26  C17 UNL     1      36.535  -6.237  37.878  1.00  0.00    -0.061 C 
BRANCH  26  27
HETATM   27  C18 UNL     1      37.664  -6.025  38.761  1.00  0.00     0.019 A 
HETATM   28  C19 UNL     1      38.785  -5.358  38.271  1.00  0.00     0.021 A 
HETATM   29  C20 UNL     1      39.898  -5.119  39.052  1.00  0.00     0.003 A 
HETATM   30  C21 UNL     1      39.909  -5.549  40.358  1.00  0.00     0.024 A 
HETATM   31  C22 UNL     1      38.799  -6.213  40.858  1.00  0.00     0.035 A 
HETATM   32 CL1  UNL     1      38.849  -6.742  42.519  1.00  0.00    -0.084 Cl
HETATM   33  C23 UNL     1      37.679  -6.451  40.064  1.00  0.00     0.044 A 
ENDBRANCH  26  27
ENDBRANCH   9  25
BRANCH   5  34
HETATM   34  O4  UNL     1      30.381  -3.240  34.802  1.00  0.00    -0.360 OA
ATOM     35  H4  UNL     1      29.798  -2.880  35.459  1.00  0.00     0.217 HD
ENDBRANCH   5  34
BRANCH   6  36
HETATM   36  C12 UNL     1      32.255  -2.105  36.561  1.00  0.00     0.212 C 
HETATM   37  O5  UNL     1      31.255  -1.641  37.117  1.00  0.00    -0.644 OA
HETATM   38  O6  UNL     1      33.355  -1.263  36.375  1.00  0.00    -0.644 OA
ENDBRANCH   6  36
TORSDOF 9
ENDMDL
