MODEL 8
REMARK VINA RESULT: -6.827678444      5.454      9.767
REMARK  9 active torsions:
REMARK  status: ('A' for Active; 'I' for Inactive)
REMARK    1  A    between atoms: C1_2  and  C2_3 
REMARK       I    between atoms: C1_2  and  N1_34 
REMARK    2  A    between atoms: C2_3  and  O2_4 
REMARK    3  A    between atoms: O2_4  and  C3_5 
REMARK    4  A    between atoms: C6_8  and  C7_9 
REMARK    5  A    between atoms: C10_13  and  O4_14 
REMARK    6  A    between atoms: C11_16  and  C12_17 
REMARK    7  A    between atoms: C15_22  and  C16_23 
REMARK    8  A    between atoms: C17_24  and  C18_25 
REMARK    9  A    between atoms: N1_34  and  C26_36 
ROOT
HETATM    1  C7  UNL     1      36.911  -2.130  36.398  1.00  0.00     0.106 A 
HETATM    2  O3  UNL     1      36.282  -1.621  35.334  1.00  0.00    -0.307 OA
HETATM    3  C8  UNL     1      35.432  -2.435  34.827  1.00  0.00     0.090 A 
HETATM    4  C9  UNL     1      34.573  -2.345  33.748  1.00  0.00     0.075 A 
HETATM    5  C10 UNL     1      33.781  -3.419  33.472  1.00  0.00     0.085 A 
HETATM    6  C11 UNL     1      33.788  -4.585  34.204  1.00  0.00     0.074 A 
HETATM    7  C13 UNL     1      34.652  -4.654  35.276  1.00  0.00     0.037 A 
HETATM    8  C14 UNL     1      35.469  -3.582  35.582  1.00  0.00     0.021 A 
HETATM    9  C15 UNL     1      36.420  -3.394  36.596  1.00  0.00     0.065 A 
ENDROOT
BRANCH   1  10
HETATM   10  C6  UNL     1      37.919  -1.417  37.154  1.00  0.00    -0.001 A 
HETATM   11  C5  UNL     1      37.743  -0.173  37.697  1.00  0.00     0.017 A 
HETATM   12  C4  UNL     1      38.809   0.385  38.400  1.00  0.00     0.037 A 
HETATM   13  C3  UNL     1      40.022  -0.250  38.574  1.00  0.00     0.069 A 
HETATM   14  C25 UNL     1      40.183  -1.507  38.018  1.00  0.00     0.037 A 
HETATM   15  C24 UNL     1      39.147  -2.071  37.325  1.00  0.00     0.017 A 
BRANCH  13  16
HETATM   16  O2  UNL     1      41.057   0.325  39.274  1.00  0.00    -0.342 OA
BRANCH  16  17
HETATM   17  C2  UNL     1      42.091  -0.305  39.943  1.00  0.00     0.278 C 
BRANCH  17  18
HETATM   18  C1  UNL     1      41.836  -0.693  41.332  1.00  0.00     0.242 C 
HETATM   19  O1  UNL     1      41.317   0.082  42.172  1.00  0.00    -0.271 OA
HETATM   20  N1  UNL     1      42.182  -1.983  41.767  1.00  0.00    -0.355 N 
ATOM     21  H1  UNL     1      42.605  -2.614  41.086  1.00  0.00     0.162 HD
BRANCH  20  22
HETATM   22  C26 UNL     1      41.982  -2.481  43.103  1.00  0.00     0.084 A 
HETATM   23  C27 UNL     1      42.126  -3.998  43.244  1.00  0.00     0.027 A 
HETATM   24  C28 UNL     1      40.822  -3.303  43.479  1.00  0.00     0.027 A 
ENDBRANCH  20  22
ENDBRANCH  17  18
ENDBRANCH  16  17
ENDBRANCH  13  16
ENDBRANCH   1  10
BRANCH   9  25
HETATM   25  C16 UNL     1      36.735  -4.361  37.572  1.00  0.00    -0.058 C 
HETATM   26  C17 UNL     1      37.030  -5.170  38.406  1.00  0.00    -0.061 C 
BRANCH  26  27
HETATM   27  C18 UNL     1      37.395  -6.162  39.396  1.00  0.00     0.019 A 
HETATM   28  C19 UNL     1      37.034  -7.491  39.181  1.00  0.00     0.021 A 
HETATM   29  C20 UNL     1      37.348  -8.491  40.080  1.00  0.00     0.003 A 
HETATM   30  C21 UNL     1      38.039  -8.176  41.225  1.00  0.00     0.024 A 
HETATM   31  C22 UNL     1      38.405  -6.858  41.450  1.00  0.00     0.035 A 
HETATM   32 CL1  UNL     1      39.281  -6.495  42.913  1.00  0.00    -0.084 Cl
HETATM   33  C23 UNL     1      38.085  -5.852  40.539  1.00  0.00     0.044 A 
ENDBRANCH  26  27
ENDBRANCH   9  25
BRANCH   5  34
HETATM   34  O4  UNL     1      32.903  -3.342  32.380  1.00  0.00    -0.360 OA
ATOM     35  H4  UNL     1      32.685  -2.486  32.031  1.00  0.00     0.217 HD
ENDBRANCH   5  34
BRANCH   6  36
HETATM   36  C12 UNL     1      32.929  -5.716  33.882  1.00  0.00     0.212 C 
HETATM   37  O5  UNL     1      31.711  -5.749  34.087  1.00  0.00    -0.644 OA
HETATM   38  O6  UNL     1      33.529  -6.837  33.301  1.00  0.00    -0.644 OA
ENDBRANCH   6  36
TORSDOF 9
ENDMDL
