MODEL 9
REMARK VINA RESULT: -6.810433125      6.314      9.266
REMARK  9 active torsions:
REMARK  status: ('A' for Active; 'I' for Inactive)
REMARK    1  A    between atoms: C1_2  and  C2_3 
REMARK       I    between atoms: C1_2  and  N1_34 
REMARK    2  A    between atoms: C2_3  and  O2_4 
REMARK    3  A    between atoms: O2_4  and  C3_5 
REMARK    4  A    between atoms: C6_8  and  C7_9 
REMARK    5  A    between atoms: C10_13  and  O4_14 
REMARK    6  A    between atoms: C11_16  and  C12_17 
REMARK    7  A    between atoms: C15_22  and  C16_23 
REMARK    8  A    between atoms: C17_24  and  C18_25 
REMARK    9  A    between atoms: N1_34  and  C26_36 
ROOT
HETATM    1  C7  UNL     1      37.288  -7.898  42.046  1.00  0.00     0.106 A 
HETATM    2  O3  UNL     1      36.691  -8.487  41.006  1.00  0.00    -0.307 OA
HETATM    3  C8  UNL     1      37.087  -8.021  39.880  1.00  0.00     0.090 A 
HETATM    4  C9  UNL     1      36.756  -8.317  38.572  1.00  0.00     0.075 A 
HETATM    5  C10 UNL     1      37.379  -7.617  37.581  1.00  0.00     0.085 A 
HETATM    6  C11 UNL     1      38.316  -6.635  37.810  1.00  0.00     0.074 A 
HETATM    7  C13 UNL     1      38.632  -6.355  39.122  1.00  0.00     0.037 A 
HETATM    8  C14 UNL     1      38.018  -7.047  40.149  1.00  0.00     0.021 A 
HETATM    9  C15 UNL     1      38.153  -6.961  41.543  1.00  0.00     0.065 A 
ENDROOT
BRANCH   1  10
HETATM   10  C6  UNL     1      37.020  -8.239  43.427  1.00  0.00    -0.001 A 
HETATM   11  C5  UNL     1      37.598  -9.286  44.092  1.00  0.00     0.017 A 
HETATM   12  C4  UNL     1      37.238  -9.488  45.423  1.00  0.00     0.037 A 
HETATM   13  C3  UNL     1      36.335  -8.691  46.097  1.00  0.00     0.069 A 
HETATM   14  C25 UNL     1      35.760  -7.636  45.410  1.00  0.00     0.037 A 
HETATM   15  C24 UNL     1      36.102  -7.422  44.103  1.00  0.00     0.017 A 
BRANCH  13  16
HETATM   16  O2  UNL     1      35.999  -8.913  47.412  1.00  0.00    -0.342 OA
BRANCH  16  17
HETATM   17  C2  UNL     1      35.237  -9.940  47.939  1.00  0.00     0.278 C 
BRANCH  17  18
HETATM   18  C1  UNL     1      33.850 -10.033  47.477  1.00  0.00     0.242 C 
HETATM   19  O1  UNL     1      33.055  -9.062  47.507  1.00  0.00    -0.271 OA
HETATM   20  N1  UNL     1      33.366 -11.253  46.976  1.00  0.00    -0.355 N 
ATOM     21  H1  UNL     1      34.011 -12.044  46.953  1.00  0.00     0.162 HD
BRANCH  20  22
HETATM   22  C26 UNL     1      32.027 -11.470  46.494  1.00  0.00     0.084 A 
HETATM   23  C27 UNL     1      31.605 -12.939  46.428  1.00  0.00     0.027 A 
HETATM   24  C28 UNL     1      31.742 -12.101  45.197  1.00  0.00     0.027 A 
ENDBRANCH  20  22
ENDBRANCH  17  18
ENDBRANCH  16  17
ENDBRANCH  13  16
ENDBRANCH   1  10
BRANCH   9  25
HETATM   25  C16 UNL     1      39.024  -6.067  42.198  1.00  0.00    -0.058 C 
HETATM   26  C17 UNL     1      39.774  -5.298  42.729  1.00  0.00    -0.061 C 
BRANCH  26  27
HETATM   27  C18 UNL     1      40.699  -4.387  43.371  1.00  0.00     0.019 A 
HETATM   28  C19 UNL     1      41.175  -4.697  44.643  1.00  0.00     0.021 A 
HETATM   29  C20 UNL     1      42.058  -3.877  45.317  1.00  0.00     0.003 A 
HETATM   30  C21 UNL     1      42.487  -2.715  44.721  1.00  0.00     0.024 A 
HETATM   31  C22 UNL     1      42.022  -2.395  43.456  1.00  0.00     0.035 A 
HETATM   32 CL1  UNL     1      42.588  -0.913  42.731  1.00  0.00    -0.084 Cl
HETATM   33  C23 UNL     1      41.130  -3.227  42.781  1.00  0.00     0.044 A 
ENDBRANCH  26  27
ENDBRANCH   9  25
BRANCH   5  34
HETATM   34  O4  UNL     1      37.053  -7.907  36.247  1.00  0.00    -0.360 OA
ATOM     35  H4  UNL     1      37.313  -7.292  35.572  1.00  0.00     0.217 HD
ENDBRANCH   5  34
BRANCH   6  36
HETATM   36  C12 UNL     1      38.963  -5.904  36.729  1.00  0.00     0.212 C 
HETATM   37  O5  UNL     1      39.708  -6.416  35.887  1.00  0.00    -0.644 OA
HETATM   38  O6  UNL     1      38.718  -4.530  36.643  1.00  0.00    -0.644 OA
ENDBRANCH   6  36
TORSDOF 9
ENDMDL
