MODEL 10
REMARK VINA RESULT: -6.797165822      8.333     11.823
REMARK  9 active torsions:
REMARK  status: ('A' for Active; 'I' for Inactive)
REMARK    1  A    between atoms: C1_2  and  C2_3 
REMARK       I    between atoms: C1_2  and  N1_34 
REMARK    2  A    between atoms: C2_3  and  O2_4 
REMARK    3  A    between atoms: O2_4  and  C3_5 
REMARK    4  A    between atoms: C6_8  and  C7_9 
REMARK    5  A    between atoms: C10_13  and  O4_14 
REMARK    6  A    between atoms: C11_16  and  C12_17 
REMARK    7  A    between atoms: C15_22  and  C16_23 
REMARK    8  A    between atoms: C17_24  and  C18_25 
REMARK    9  A    between atoms: N1_34  and  C26_36 
ROOT
HETATM    1  C7  UNL     1      41.872  -1.985  41.549  1.00  0.00     0.106 A 
HETATM    2  O3  UNL     1      42.823  -1.804  42.471  1.00  0.00    -0.307 OA
HETATM    3  C8  UNL     1      43.274  -0.605  42.488  1.00  0.00     0.090 A 
HETATM    4  C9  UNL     1      44.237   0.025  43.252  1.00  0.00     0.075 A 
HETATM    5  C10 UNL     1      44.481   1.344  43.010  1.00  0.00     0.085 A 
HETATM    6  C11 UNL     1      43.825   2.081  42.050  1.00  0.00     0.074 A 
HETATM    7  C13 UNL     1      42.869   1.433  41.299  1.00  0.00     0.037 A 
HETATM    8  C14 UNL     1      42.598   0.096  41.520  1.00  0.00     0.021 A 
HETATM    9  C15 UNL     1      41.693  -0.786  40.910  1.00  0.00     0.065 A 
ENDROOT
BRANCH   1  10
HETATM   10  C6  UNL     1      41.199  -3.246  41.323  1.00  0.00    -0.001 A 
HETATM   11  C5  UNL     1      41.107  -3.866  40.106  1.00  0.00     0.017 A 
HETATM   12  C4  UNL     1      40.424  -5.079  40.047  1.00  0.00     0.037 A 
HETATM   13  C3  UNL     1      39.842  -5.680  41.144  1.00  0.00     0.069 A 
HETATM   14  C25 UNL     1      39.944  -5.040  42.366  1.00  0.00     0.037 A 
HETATM   15  C24 UNL     1      40.611  -3.848  42.445  1.00  0.00     0.017 A 
BRANCH  13  16
HETATM   16  O2  UNL     1      39.174  -6.880  41.055  1.00  0.00    -0.342 OA
BRANCH  16  17
HETATM   17  C2  UNL     1      38.969  -7.820  42.049  1.00  0.00     0.278 C 
BRANCH  17  18
HETATM   18  C1  UNL     1      37.618  -7.903  42.607  1.00  0.00     0.242 C 
HETATM   19  O1  UNL     1      36.650  -8.399  41.980  1.00  0.00    -0.271 OA
HETATM   20  N1  UNL     1      37.370  -7.410  43.899  1.00  0.00    -0.355 N 
ATOM     21  H1  UNL     1      38.155  -7.006  44.410  1.00  0.00     0.162 HD
BRANCH  20  22
HETATM   22  C26 UNL     1      36.088  -7.435  44.555  1.00  0.00     0.084 A 
HETATM   23  C27 UNL     1      36.015  -6.601  45.836  1.00  0.00     0.027 A 
HETATM   24  C28 UNL     1      35.873  -8.090  45.854  1.00  0.00     0.027 A 
ENDBRANCH  20  22
ENDBRANCH  17  18
ENDBRANCH  16  17
ENDBRANCH  13  16
ENDBRANCH   1  10
BRANCH   9  25
HETATM   25  C16 UNL     1      40.820  -0.423  39.865  1.00  0.00    -0.058 C 
HETATM   26  C17 UNL     1      40.069  -0.089  38.991  1.00  0.00    -0.061 C 
BRANCH  26  27
HETATM   27  C18 UNL     1      39.144   0.300  37.947  1.00  0.00     0.019 A 
HETATM   28  C19 UNL     1      37.988   0.993  38.296  1.00  0.00     0.021 A 
HETATM   29  C20 UNL     1      37.060   1.396  37.356  1.00  0.00     0.003 A 
HETATM   30  C21 UNL     1      37.278   1.109  36.029  1.00  0.00     0.024 A 
HETATM   31  C22 UNL     1      38.425   0.420  35.668  1.00  0.00     0.035 A 
HETATM   32 CL1  UNL     1      38.667   0.074  33.977  1.00  0.00    -0.084 Cl
HETATM   33  C23 UNL     1      39.357   0.016  36.622  1.00  0.00     0.044 A 
ENDBRANCH  26  27
ENDBRANCH   9  25
BRANCH   5  34
HETATM   34  O4  UNL     1      45.456   1.999  43.779  1.00  0.00    -0.360 OA
ATOM     35  H4  UNL     1      45.517   2.946  43.726  1.00  0.00     0.217 HD
ENDBRANCH   5  34
BRANCH   6  36
HETATM   36  C12 UNL     1      44.110   3.490  41.815  1.00  0.00     0.212 C 
HETATM   37  O5  UNL     1      44.413   4.299  42.698  1.00  0.00    -0.644 OA
HETATM   38  O6  UNL     1      44.036   3.952  40.497  1.00  0.00    -0.644 OA
ENDBRANCH   6  36
TORSDOF 9
ENDMDL
