MODEL 3
REMARK VINA RESULT: -7.010320648      1.216      2.109
REMARK  9 active torsions:
REMARK  status: ('A' for Active; 'I' for Inactive)
REMARK    1  A    between atoms: C1_2  and  C2_3 
REMARK       I    between atoms: C1_2  and  N1_34 
REMARK    2  A    between atoms: C2_3  and  O2_4 
REMARK    3  A    between atoms: O2_4  and  C3_5 
REMARK    4  A    between atoms: C6_8  and  C7_9 
REMARK    5  A    between atoms: C10_13  and  O4_14 
REMARK    6  A    between atoms: C11_16  and  C12_17 
REMARK    7  A    between atoms: C15_22  and  C16_23 
REMARK    8  A    between atoms: C17_24  and  C18_25 
REMARK    9  A    between atoms: N1_34  and  C26_36 
ROOT
HETATM    1  C7  UNL     1      33.942  -7.789  35.674  1.00  0.00     0.106 A 
HETATM    2  O3  UNL     1      32.838  -7.403  35.027  1.00  0.00    -0.307 OA
HETATM    3  C8  UNL     1      32.547  -6.173  35.238  1.00  0.00     0.090 A 
HETATM    4  C9  UNL     1      31.522  -5.361  34.791  1.00  0.00     0.075 A 
HETATM    5  C10 UNL     1      31.503  -4.065  35.214  1.00  0.00     0.085 A 
HETATM    6  C11 UNL     1      32.444  -3.522  36.059  1.00  0.00     0.074 A 
HETATM    7  C13 UNL     1      33.458  -4.349  36.494  1.00  0.00     0.037 A 
HETATM    8  C14 UNL     1      33.505  -5.668  36.083  1.00  0.00     0.021 A 
HETATM    9  C15 UNL     1      34.408  -6.703  36.369  1.00  0.00     0.065 A 
ENDROOT
BRANCH   1  10
HETATM   10  C6  UNL     1      34.489  -9.127  35.608  1.00  0.00    -0.001 A 
HETATM   11  C5  UNL     1      34.266 -10.101  36.543  1.00  0.00     0.017 A 
HETATM   12  C4  UNL     1      34.863 -11.344  36.340  1.00  0.00     0.037 A 
HETATM   13  C3  UNL     1      35.659 -11.638  35.252  1.00  0.00     0.069 A 
HETATM   14  C25 UNL     1      35.874 -10.642  34.316  1.00  0.00     0.037 A 
HETATM   15  C24 UNL     1      35.296  -9.415  34.498  1.00  0.00     0.017 A 
BRANCH  13  16
HETATM   16  O2  UNL     1      36.235 -12.875  35.077  1.00  0.00    -0.342 OA
BRANCH  16  17
HETATM   17  C2  UNL     1      35.915 -13.843  34.142  1.00  0.00     0.278 C 
BRANCH  17  18
HETATM   18  C1  UNL     1      34.947 -14.861  34.553  1.00  0.00     0.242 C 
HETATM   19  O1  UNL     1      34.139 -15.396  33.755  1.00  0.00    -0.271 OA
HETATM   20  N1  UNL     1      34.900 -15.272  35.896  1.00  0.00    -0.355 N 
ATOM     21  H1  UNL     1      35.555 -14.837  36.546  1.00  0.00     0.162 HD
BRANCH  20  22
HETATM   22  C26 UNL     1      33.996 -16.261  36.421  1.00  0.00     0.084 A 
HETATM   23  C27 UNL     1      34.482 -16.953  37.697  1.00  0.00     0.027 A 
HETATM   24  C28 UNL     1      34.301 -17.700  36.414  1.00  0.00     0.027 A 
ENDBRANCH  20  22
ENDBRANCH  17  18
ENDBRANCH  16  17
ENDBRANCH  13  16
ENDBRANCH   1  10
BRANCH   9  25
HETATM   25  C16 UNL     1      35.532  -6.560  37.208  1.00  0.00    -0.058 C 
HETATM   26  C17 UNL     1      36.470  -6.447  37.944  1.00  0.00    -0.061 C 
BRANCH  26  27
HETATM   27  C18 UNL     1      37.599  -6.286  38.838  1.00  0.00     0.019 A 
HETATM   28  C19 UNL     1      37.674  -7.085  39.977  1.00  0.00     0.021 A 
HETATM   29  C20 UNL     1      38.719  -6.988  40.874  1.00  0.00     0.003 A 
HETATM   30  C21 UNL     1      39.723  -6.078  40.644  1.00  0.00     0.024 A 
HETATM   31  C22 UNL     1      39.661  -5.278  39.513  1.00  0.00     0.035 A 
HETATM   32 CL1  UNL     1      40.952  -4.136  39.253  1.00  0.00    -0.084 Cl
HETATM   33  C23 UNL     1      38.603  -5.380  38.612  1.00  0.00     0.044 A 
ENDBRANCH  26  27
ENDBRANCH   9  25
BRANCH   5  34
HETATM   34  O4  UNL     1      30.469  -3.228  34.768  1.00  0.00    -0.360 OA
ATOM     35  H4  UNL     1      30.045  -2.655  35.396  1.00  0.00     0.217 HD
ENDBRANCH   5  34
BRANCH   6  36
HETATM   36  C12 UNL     1      32.396  -2.133  36.495  1.00  0.00     0.212 C 
HETATM   37  O5  UNL     1      33.312  -1.319  36.338  1.00  0.00    -0.644 OA
HETATM   38  O6  UNL     1      31.230  -1.697  37.131  1.00  0.00    -0.644 OA
ENDBRANCH   6  36
TORSDOF 9
ENDMDL
