MODEL 1
REMARK VINA RESULT: -8.616304870      0.000      0.000
REMARK  6 active torsions:
REMARK  status: ('A' for Active; 'I' for Inactive)
REMARK    1  A    between atoms: C2_2  and  O1_3 
REMARK    2  A    between atoms: O1_3  and  C3_4 
REMARK    3  A    between atoms: C5_6  and  C6_7 
REMARK    4  A    between atoms: C12_13  and  C13_14 
REMARK    5  A    between atoms: C14_17  and  C16_19 
REMARK    6  A    between atoms: C22_26  and  C24_28 
ROOT
HETATM    1  C13 UNL     1      -3.269   4.885   0.803  1.00  0.00     0.112 A 
HETATM    2  N1  UNL     1      -2.507   3.960   0.388  1.00  0.00    -0.360 N 
ATOM      3  H1  UNL     1      -1.653   3.671   0.866  1.00  0.00     0.162 HD
HETATM    4  C14 UNL     1      -2.976   3.369  -0.821  1.00  0.00     0.084 A 
HETATM    5  C15 UNL     1      -1.897   3.689  -1.874  1.00  0.00     0.047 C 
HETATM    6  C22 UNL     1      -4.250   4.053  -1.131  1.00  0.00     0.084 A 
HETATM    7  C23 UNL     1      -4.239   4.786  -2.453  1.00  0.00     0.047 C 
HETATM    8  N2  UNL     1      -4.352   5.064  -0.096  1.00  0.00    -0.360 N 
ATOM      9  H2  UNL     1      -5.076   5.778  -0.026  1.00  0.00     0.162 HD
ENDROOT
BRANCH   1  10
HETATM   10  C12 UNL     1      -3.104   5.721   2.022  1.00  0.00     0.041 A 
HETATM   11  C3  UNL     1      -4.217   6.295   2.620  1.00  0.00     0.083 A 
HETATM   12  C4  UNL     1      -4.075   7.090   3.744  1.00  0.00     0.045 A 
HETATM   13  C5  UNL     1      -2.818   7.323   4.287  1.00  0.00    -0.048 A 
HETATM   14  C10 UNL     1      -1.709   6.759   3.702  1.00  0.00     0.009 A 
HETATM   15  C11 UNL     1      -1.883   5.976   2.591  1.00  0.00     0.018 A 
BRANCH  11  16
HETATM   16  O1  UNL     1      -5.464   6.081   2.105  1.00  0.00    -0.350 OA
BRANCH  16  17
HETATM   17  C2  UNL     1      -6.560   6.933   2.153  1.00  0.00     0.171 C 
HETATM   18  C1  UNL     1      -7.283   6.995   0.809  1.00  0.00     0.034 C 
ENDBRANCH  16  17
ENDBRANCH  11  16
BRANCH  13  19
HETATM   19  C6  UNL     1      -2.703   8.195   5.500  1.00  0.00    -0.024 C 
HETATM   20  C7  UNL     1      -3.910   9.091   5.571  1.00  0.00     0.019 C 
HETATM   21  C8  UNL     1      -2.655   7.381   6.754  1.00  0.00     0.019 C 
HETATM   22  C9  UNL     1      -1.480   9.082   5.410  1.00  0.00     0.019 C 
ENDBRANCH  13  19
ENDBRANCH   1  10
BRANCH   4  23
HETATM   23  C16 UNL     1      -3.125   1.891  -0.702  1.00  0.00    -0.028 A 
HETATM   24  C17 UNL     1      -3.661   1.260   0.402  1.00  0.00     0.011 A 
HETATM   25  C18 UNL     1      -3.769  -0.133   0.437  1.00  0.00     0.024 A 
HETATM   26  C19 UNL     1      -3.344  -0.905  -0.626  1.00  0.00     0.034 A 
HETATM   27 CL1  UNL     1      -3.481  -2.671  -0.590  1.00  0.00    -0.084 Cl
HETATM   28  C20 UNL     1      -2.812  -0.246  -1.717  1.00  0.00     0.024 A 
HETATM   29  C21 UNL     1      -2.706   1.128  -1.748  1.00  0.00     0.011 A 
ENDBRANCH   4  23
BRANCH   6  30
HETATM   30  C24 UNL     1      -5.406   3.141  -1.049  1.00  0.00    -0.028 A 
HETATM   31  C25 UNL     1      -5.752   2.307  -2.064  1.00  0.00     0.011 A 
HETATM   32  C26 UNL     1      -6.852   1.465  -1.984  1.00  0.00     0.024 A 
HETATM   33  C27 UNL     1      -7.633   1.461  -0.843  1.00  0.00     0.034 A 
HETATM   34 CL2  UNL     1      -9.029   0.396  -0.743  1.00  0.00    -0.084 Cl
HETATM   35  C28 UNL     1      -7.295   2.310   0.211  1.00  0.00     0.024 A 
HETATM   36  C29 UNL     1      -6.195   3.136   0.105  1.00  0.00     0.011 A 
ENDBRANCH   6  30
TORSDOF 6
ENDMDL
