MODEL 6
REMARK VINA RESULT: -8.034953336      2.938      6.493
REMARK  6 active torsions:
REMARK  status: ('A' for Active; 'I' for Inactive)
REMARK    1  A    between atoms: C2_2  and  O1_3 
REMARK    2  A    between atoms: O1_3  and  C3_4 
REMARK    3  A    between atoms: C5_6  and  C6_7 
REMARK    4  A    between atoms: C12_13  and  C13_14 
REMARK    5  A    between atoms: C14_17  and  C16_19 
REMARK    6  A    between atoms: C22_26  and  C24_28 
ROOT
HETATM    1  C13 UNL     1      -2.974   4.759  -1.734  1.00  0.00     0.112 A 
HETATM    2  N1  UNL     1      -4.183   4.812  -1.354  1.00  0.00    -0.360 N 
ATOM      3  H1  UNL     1      -4.893   5.393  -1.800  1.00  0.00     0.162 HD
HETATM    4  C14 UNL     1      -4.439   3.968  -0.235  1.00  0.00     0.084 A 
HETATM    5  C15 UNL     1      -4.834   4.922   0.909  1.00  0.00     0.047 C 
HETATM    6  C22 UNL     1      -3.158   3.286   0.051  1.00  0.00     0.084 A 
HETATM    7  C23 UNL     1      -2.612   3.575   1.431  1.00  0.00     0.047 C 
HETATM    8  N2  UNL     1      -2.237   3.885  -0.895  1.00  0.00    -0.360 N 
ATOM      9  H2  UNL     1      -1.234   3.708  -0.948  1.00  0.00     0.162 HD
ENDROOT
BRANCH   1  10
HETATM   10  C12 UNL     1      -2.342   5.495  -2.862  1.00  0.00     0.041 A 
HETATM   11  C3  UNL     1      -1.301   6.378  -2.612  1.00  0.00     0.083 A 
HETATM   12  C4  UNL     1      -0.717   7.083  -3.650  1.00  0.00     0.045 A 
HETATM   13  C5  UNL     1      -1.165   6.916  -4.954  1.00  0.00    -0.048 A 
HETATM   14  C10 UNL     1      -2.196   6.044  -5.212  1.00  0.00     0.009 A 
HETATM   15  C11 UNL     1      -2.753   5.360  -4.163  1.00  0.00     0.018 A 
BRANCH  11  16
HETATM   16  O1  UNL     1      -0.842   6.560  -1.338  1.00  0.00    -0.350 OA
BRANCH  16  17
HETATM   17  C2  UNL     1      -1.036   7.662  -0.515  1.00  0.00     0.171 C 
HETATM   18  C1  UNL     1      -1.873   7.307   0.713  1.00  0.00     0.034 C 
ENDBRANCH  16  17
ENDBRANCH  11  16
BRANCH  13  19
HETATM   19  C6  UNL     1      -0.513   7.702  -6.051  1.00  0.00    -0.024 C 
HETATM   20  C7  UNL     1      -0.636   6.932  -7.339  1.00  0.00     0.019 C 
HETATM   21  C8  UNL     1      -1.175   9.030  -6.238  1.00  0.00     0.019 C 
HETATM   22  C9  UNL     1       0.962   7.892  -5.771  1.00  0.00     0.019 C 
ENDBRANCH  13  19
ENDBRANCH   1  10
BRANCH   4  23
HETATM   23  C16 UNL     1      -5.558   3.018  -0.493  1.00  0.00    -0.028 A 
HETATM   24  C17 UNL     1      -5.803   2.436  -1.720  1.00  0.00     0.011 A 
HETATM   25  C18 UNL     1      -6.872   1.552  -1.882  1.00  0.00     0.024 A 
HETATM   26  C19 UNL     1      -7.704   1.241  -0.824  1.00  0.00     0.034 A 
HETATM   27 CL1  UNL     1      -9.059   0.118  -1.022  1.00  0.00    -0.084 Cl
HETATM   28  C20 UNL     1      -7.434   1.839   0.391  1.00  0.00     0.024 A 
HETATM   29  C21 UNL     1      -6.378   2.711   0.548  1.00  0.00     0.011 A 
ENDBRANCH   4  23
BRANCH   6  30
HETATM   30  C24 UNL     1      -3.237   1.833  -0.185  1.00  0.00    -0.028 A 
HETATM   31  C25 UNL     1      -3.805   0.977   0.705  1.00  0.00     0.011 A 
HETATM   32  C26 UNL     1      -3.858  -0.391   0.481  1.00  0.00     0.024 A 
HETATM   33  C27 UNL     1      -3.320  -0.919  -0.678  1.00  0.00     0.034 A 
HETATM   34 CL2  UNL     1      -3.385  -2.655  -0.959  1.00  0.00    -0.084 Cl
HETATM   35  C28 UNL     1      -2.732  -0.059  -1.604  1.00  0.00     0.024 A 
HETATM   36  C29 UNL     1      -2.694   1.298  -1.357  1.00  0.00     0.011 A 
ENDBRANCH   6  30
TORSDOF 6
ENDMDL
