MODEL 5
REMARK VINA RESULT: -8.179230018      2.955      6.340
REMARK  6 active torsions:
REMARK  status: ('A' for Active; 'I' for Inactive)
REMARK    1  A    between atoms: C2_2  and  O1_3 
REMARK    2  A    between atoms: O1_3  and  C3_4 
REMARK    3  A    between atoms: C5_6  and  C6_7 
REMARK    4  A    between atoms: C12_13  and  C13_14 
REMARK    5  A    between atoms: C14_17  and  C16_19 
REMARK    6  A    between atoms: C22_26  and  C24_28 
ROOT
HETATM    1  C13 UNL     1      -2.980   4.717  -1.629  1.00  0.00     0.112 A 
HETATM    2  N1  UNL     1      -4.197   4.766  -1.275  1.00  0.00    -0.360 N 
ATOM      3  H1  UNL     1      -4.897   5.353  -1.729  1.00  0.00     0.162 HD
HETATM    4  C14 UNL     1      -4.478   3.909  -0.172  1.00  0.00     0.084 A 
HETATM    5  C15 UNL     1      -4.898   4.850   0.975  1.00  0.00     0.047 C 
HETATM    6  C22 UNL     1      -3.203   3.224   0.135  1.00  0.00     0.084 A 
HETATM    7  C23 UNL     1      -2.688   3.497   1.530  1.00  0.00     0.047 C 
HETATM    8  N2  UNL     1      -2.262   3.833  -0.784  1.00  0.00    -0.360 N 
ATOM      9  H2  UNL     1      -1.258   3.657  -0.817  1.00  0.00     0.162 HD
ENDROOT
BRANCH   1  10
HETATM   10  C12 UNL     1      -2.324   5.466  -2.734  1.00  0.00     0.041 A 
HETATM   11  C3  UNL     1      -2.975   6.543  -3.319  1.00  0.00     0.083 A 
HETATM   12  C4  UNL     1      -2.383   7.236  -4.360  1.00  0.00     0.045 A 
HETATM   13  C5  UNL     1      -1.131   6.864  -4.833  1.00  0.00    -0.048 A 
HETATM   14  C10 UNL     1      -0.478   5.799  -4.260  1.00  0.00     0.009 A 
HETATM   15  C11 UNL     1      -1.090   5.133  -3.230  1.00  0.00     0.018 A 
BRANCH  11  16
HETATM   16  O1  UNL     1      -4.206   6.929  -2.872  1.00  0.00    -0.350 OA
BRANCH  16  17
HETATM   17  C2  UNL     1      -4.619   8.208  -2.518  1.00  0.00     0.171 C 
HETATM   18  C1  UNL     1      -5.042   8.277  -1.052  1.00  0.00     0.034 C 
ENDBRANCH  16  17
ENDBRANCH  11  16
BRANCH  13  19
HETATM   19  C6  UNL     1      -0.525   7.634  -5.966  1.00  0.00    -0.024 C 
HETATM   20  C7  UNL     1       0.904   7.960  -5.624  1.00  0.00     0.019 C 
HETATM   21  C8  UNL     1      -0.530   6.837  -7.231  1.00  0.00     0.019 C 
HETATM   22  C9  UNL     1      -1.255   8.944  -6.176  1.00  0.00     0.019 C 
ENDBRANCH  13  19
ENDBRANCH   1  10
BRANCH   4  23
HETATM   23  C16 UNL     1      -5.591   2.962  -0.465  1.00  0.00    -0.028 A 
HETATM   24  C17 UNL     1      -5.817   2.406  -1.707  1.00  0.00     0.011 A 
HETATM   25  C18 UNL     1      -6.882   1.523  -1.903  1.00  0.00     0.024 A 
HETATM   26  C19 UNL     1      -7.728   1.189  -0.863  1.00  0.00     0.034 A 
HETATM   27 CL1  UNL     1      -9.078   0.068  -1.103  1.00  0.00    -0.084 Cl
HETATM   28  C20 UNL     1      -7.476   1.762   0.368  1.00  0.00     0.024 A 
HETATM   29  C21 UNL     1      -6.425   2.632   0.558  1.00  0.00     0.011 A 
ENDBRANCH   4  23
BRANCH   6  30
HETATM   30  C24 UNL     1      -3.277   1.773  -0.119  1.00  0.00    -0.028 A 
HETATM   31  C25 UNL     1      -3.877   0.909   0.741  1.00  0.00     0.011 A 
HETATM   32  C26 UNL     1      -3.925  -0.456   0.500  1.00  0.00     0.024 A 
HETATM   33  C27 UNL     1      -3.350  -0.973  -0.645  1.00  0.00     0.034 A 
HETATM   34 CL2  UNL     1      -3.408  -2.705  -0.947  1.00  0.00    -0.084 Cl
HETATM   35  C28 UNL     1      -2.729  -0.104  -1.542  1.00  0.00     0.024 A 
HETATM   36  C29 UNL     1      -2.696   1.250  -1.278  1.00  0.00     0.011 A 
ENDBRANCH   6  30
TORSDOF 6
ENDMDL
