MODEL 2
REMARK VINA RESULT: -8.539326834      0.072      1.095
REMARK  6 active torsions:
REMARK  status: ('A' for Active; 'I' for Inactive)
REMARK    1  A    between atoms: C2_2  and  O1_3 
REMARK    2  A    between atoms: O1_3  and  C3_4 
REMARK    3  A    between atoms: C5_6  and  C6_7 
REMARK    4  A    between atoms: C12_13  and  C13_14 
REMARK    5  A    between atoms: C14_17  and  C16_19 
REMARK    6  A    between atoms: C22_26  and  C24_28 
ROOT
HETATM    1  C13 UNL     1      -3.291   4.926   0.847  1.00  0.00     0.112 A 
HETATM    2  N1  UNL     1      -2.531   4.000   0.432  1.00  0.00    -0.360 N 
ATOM      3  H1  UNL     1      -1.676   3.712   0.909  1.00  0.00     0.162 HD
HETATM    4  C14 UNL     1      -3.004   3.406  -0.773  1.00  0.00     0.084 A 
HETATM    5  C15 UNL     1      -1.928   3.723  -1.830  1.00  0.00     0.047 C 
HETATM    6  C22 UNL     1      -4.279   4.091  -1.081  1.00  0.00     0.084 A 
HETATM    7  C23 UNL     1      -4.271   4.820  -2.405  1.00  0.00     0.047 C 
HETATM    8  N2  UNL     1      -4.377   5.104  -0.048  1.00  0.00    -0.360 N 
ATOM      9  H2  UNL     1      -5.100   5.819   0.022  1.00  0.00     0.162 HD
ENDROOT
BRANCH   1  10
HETATM   10  C12 UNL     1      -3.122   5.765   2.064  1.00  0.00     0.041 A 
HETATM   11  C3  UNL     1      -4.234   6.333   2.670  1.00  0.00     0.083 A 
HETATM   12  C4  UNL     1      -4.089   7.130   3.792  1.00  0.00     0.045 A 
HETATM   13  C5  UNL     1      -2.829   7.372   4.325  1.00  0.00    -0.048 A 
HETATM   14  C10 UNL     1      -1.721   6.815   3.732  1.00  0.00     0.009 A 
HETATM   15  C11 UNL     1      -1.898   6.029   2.623  1.00  0.00     0.018 A 
BRANCH  11  16
HETATM   16  O1  UNL     1      -5.483   6.110   2.166  1.00  0.00    -0.350 OA
BRANCH  16  17
HETATM   17  C2  UNL     1      -6.569   6.977   2.171  1.00  0.00     0.171 C 
HETATM   18  C1  UNL     1      -7.306   6.965   0.834  1.00  0.00     0.034 C 
ENDBRANCH  16  17
ENDBRANCH  11  16
BRANCH  13  19
HETATM   19  C6  UNL     1      -2.710   8.246   5.536  1.00  0.00    -0.024 C 
HETATM   20  C7  UNL     1      -1.453   9.067   5.422  1.00  0.00     0.019 C 
HETATM   21  C8  UNL     1      -3.869   9.185   5.647  1.00  0.00     0.019 C 
HETATM   22  C9  UNL     1      -2.597   7.410   6.793  1.00  0.00     0.019 C 
ENDBRANCH  13  19
ENDBRANCH   1  10
BRANCH   4  23
HETATM   23  C16 UNL     1      -3.154   1.928  -0.650  1.00  0.00    -0.028 A 
HETATM   24  C17 UNL     1      -3.675   1.300   0.462  1.00  0.00     0.011 A 
HETATM   25  C18 UNL     1      -3.785  -0.092   0.500  1.00  0.00     0.024 A 
HETATM   26  C19 UNL     1      -3.376  -0.867  -0.568  1.00  0.00     0.034 A 
HETATM   27 CL1  UNL     1      -3.516  -2.632  -0.528  1.00  0.00    -0.084 Cl
HETATM   28  C20 UNL     1      -2.859  -0.210  -1.667  1.00  0.00     0.024 A 
HETATM   29  C21 UNL     1      -2.752   1.164  -1.702  1.00  0.00     0.011 A 
ENDBRANCH   4  23
BRANCH   6  30
HETATM   30  C24 UNL     1      -5.434   3.180  -0.994  1.00  0.00    -0.028 A 
HETATM   31  C25 UNL     1      -6.224   3.104   0.110  1.00  0.00     0.011 A 
HETATM   32  C26 UNL     1      -7.299   2.230   0.187  1.00  0.00     0.024 A 
HETATM   33  C27 UNL     1      -7.591   1.402  -0.880  1.00  0.00     0.034 A 
HETATM   34 CL2  UNL     1      -8.952   0.292  -0.779  1.00  0.00    -0.084 Cl
HETATM   35  C28 UNL     1      -6.793   1.464  -2.022  1.00  0.00     0.024 A 
HETATM   36  C29 UNL     1      -5.731   2.343  -2.074  1.00  0.00     0.011 A 
ENDBRANCH   6  30
TORSDOF 6
ENDMDL
