MODEL 4
REMARK VINA RESULT: -8.241953870      3.100      6.816
REMARK  6 active torsions:
REMARK  status: ('A' for Active; 'I' for Inactive)
REMARK    1  A    between atoms: C2_2  and  O1_3 
REMARK    2  A    between atoms: O1_3  and  C3_4 
REMARK    3  A    between atoms: C5_6  and  C6_7 
REMARK    4  A    between atoms: C12_13  and  C13_14 
REMARK    5  A    between atoms: C14_17  and  C16_19 
REMARK    6  A    between atoms: C22_26  and  C24_28 
ROOT
HETATM    1  C13 UNL     1      -2.951   4.855  -1.704  1.00  0.00     0.112 A 
HETATM    2  N1  UNL     1      -4.154   4.902  -1.302  1.00  0.00    -0.360 N 
ATOM      3  H1  UNL     1      -4.870   5.494  -1.724  1.00  0.00     0.162 HD
HETATM    4  C14 UNL     1      -4.393   4.036  -0.197  1.00  0.00     0.084 A 
HETATM    5  C15 UNL     1      -4.767   4.966   0.973  1.00  0.00     0.047 C 
HETATM    6  C22 UNL     1      -3.108   3.346   0.054  1.00  0.00     0.084 A 
HETATM    7  C23 UNL     1      -2.538   3.606   1.430  1.00  0.00     0.047 C 
HETATM    8  N2  UNL     1      -2.202   3.962  -0.896  1.00  0.00    -0.360 N 
ATOM      9  H2  UNL     1      -1.201   3.785  -0.970  1.00  0.00     0.162 HD
ENDROOT
BRANCH   1  10
HETATM   10  C12 UNL     1      -2.338   5.613  -2.827  1.00  0.00     0.041 A 
HETATM   11  C3  UNL     1      -1.996   4.953  -3.999  1.00  0.00     0.083 A 
HETATM   12  C4  UNL     1      -1.408   5.643  -5.044  1.00  0.00     0.045 A 
HETATM   13  C5  UNL     1      -1.151   7.004  -4.934  1.00  0.00    -0.048 A 
HETATM   14  C10 UNL     1      -1.485   7.667  -3.777  1.00  0.00     0.009 A 
HETATM   15  C11 UNL     1      -2.067   6.956  -2.760  1.00  0.00     0.018 A 
BRANCH  11  16
HETATM   16  O1  UNL     1      -2.239   3.616  -4.133  1.00  0.00    -0.350 OA
BRANCH  16  17
HETATM   17  C2  UNL     1      -1.720   2.750  -5.088  1.00  0.00     0.171 C 
HETATM   18  C1  UNL     1      -0.657   1.828  -4.494  1.00  0.00     0.034 C 
ENDBRANCH  16  17
ENDBRANCH  11  16
BRANCH  13  19
HETATM   19  C6  UNL     1      -0.506   7.715  -6.084  1.00  0.00    -0.024 C 
HETATM   20  C7  UNL     1       0.939   7.972  -5.748  1.00  0.00     0.019 C 
HETATM   21  C8  UNL     1      -0.554   6.892  -7.331  1.00  0.00     0.019 C 
HETATM   22  C9  UNL     1      -1.165   9.057  -6.322  1.00  0.00     0.019 C 
ENDBRANCH  13  19
ENDBRANCH   1  10
BRANCH   4  23
HETATM   23  C16 UNL     1      -5.518   3.093  -0.455  1.00  0.00    -0.028 A 
HETATM   24  C17 UNL     1      -5.784   2.536  -1.689  1.00  0.00     0.011 A 
HETATM   25  C18 UNL     1      -6.858   1.658  -1.851  1.00  0.00     0.024 A 
HETATM   26  C19 UNL     1      -7.674   1.328  -0.786  1.00  0.00     0.034 A 
HETATM   27 CL1  UNL     1      -9.034   0.212  -0.983  1.00  0.00    -0.084 Cl
HETATM   28  C20 UNL     1      -7.382   1.901   0.437  1.00  0.00     0.024 A 
HETATM   29  C21 UNL     1      -6.322   2.768   0.593  1.00  0.00     0.011 A 
ENDBRANCH   4  23
BRANCH   6  30
HETATM   30  C24 UNL     1      -3.195   1.898  -0.211  1.00  0.00    -0.028 A 
HETATM   31  C25 UNL     1      -3.746   1.024   0.673  1.00  0.00     0.011 A 
HETATM   32  C26 UNL     1      -3.806  -0.338   0.421  1.00  0.00     0.024 A 
HETATM   33  C27 UNL     1      -3.293  -0.844  -0.759  1.00  0.00     0.034 A 
HETATM   34 CL2  UNL     1      -3.366  -2.572  -1.075  1.00  0.00    -0.084 Cl
HETATM   35  C28 UNL     1      -2.722   0.035  -1.679  1.00  0.00     0.024 A 
HETATM   36  C29 UNL     1      -2.676   1.386  -1.404  1.00  0.00     0.011 A 
ENDBRANCH   6  30
TORSDOF 6
ENDMDL
