MODEL 3
REMARK VINA RESULT: -6.931245138      2.871      3.417
REMARK  9 active torsions:
REMARK  status: ('A' for Active; 'I' for Inactive)
REMARK    1  A    between atoms: C3_5  and  C5_7 
REMARK    2  A    between atoms: C11_14  and  C13_16 
REMARK    3  A    between atoms: N2_23  and  C19_24 
REMARK    4  A    between atoms: C19_24  and  O1_25 
REMARK    5  A    between atoms: C19_24  and  N3_27 
REMARK    6  A    between atoms: N4_30  and  C22_31 
REMARK    7  A    between atoms: C22_31  and  C23_32 
REMARK    8  A    between atoms: C23_32  and  C24_33 
REMARK    9  A    between atoms: C24_33  and  S1_34 
ROOT
HETATM    1  C1  UNL     1     -11.201  -7.163   0.434  1.00  0.00     0.089 C 
HETATM    2  C2  UNL     1     -11.571  -8.641   0.566  1.00  0.00     0.080 C 
HETATM    3  N1  UNL     1     -10.920  -9.522  -0.097  1.00  0.00    -0.364 N 
ATOM      4  H1  UNL     1     -10.143  -9.320  -0.725  1.00  0.00     0.162 HD
HETATM    5  C3  UNL     1     -11.443 -10.840   0.172  1.00  0.00     0.085 C 
HETATM    6  C4  UNL     1     -12.296 -11.113  -1.114  1.00  0.00     0.047 C 
HETATM    7  C11 UNL     1     -12.371 -10.667   1.276  1.00  0.00     0.095 C 
HETATM    8  C12 UNL     1     -13.675 -11.423   1.098  1.00  0.00     0.048 C 
HETATM    9  N2  UNL     1     -12.603  -9.191   1.330  1.00  0.00    -0.286 N 
ENDROOT
BRANCH   9  10
HETATM   10  C19 UNL     1     -13.728  -8.624   1.923  1.00  0.00     0.224 C 
BRANCH  10  11
HETATM   11  O1  UNL     1     -14.536  -8.065   1.057  1.00  0.00    -0.332 OA
ATOM     12  H1  UNL     1     -14.566  -8.526   0.227  1.00  0.00     0.221 HD
ENDBRANCH  10  11
BRANCH  10  13
HETATM   13  N3  UNL     1     -14.182  -8.537   3.242  1.00  0.00    -0.344 N 
HETATM   14  C20 UNL     1     -15.032  -9.423   3.968  1.00  0.00     0.156 C 
HETATM   15  C21 UNL     1     -14.426  -9.990   5.200  1.00  0.00     0.292 C 
HETATM   16  N4  UNL     1     -13.934  -8.868   6.031  1.00  0.00     0.091 N 
HETATM   17  C26 UNL     1     -14.203  -7.595   5.477  1.00  0.00     0.292 C 
HETATM   18  C27 UNL     1     -13.704  -7.401   4.073  1.00  0.00     0.156 C 
BRANCH  16  19
HETATM   19  C22 UNL     1     -14.523  -9.055   7.367  1.00  0.00     0.273 C 
BRANCH  19  20
HETATM   20  C23 UNL     1     -15.435 -10.206   7.464  1.00  0.00     0.045 C 
BRANCH  20  21
HETATM   21  C24 UNL     1     -15.452 -10.815   8.837  1.00  0.00     0.141 C 
BRANCH  21  22
HETATM   22  S1  UNL     1     -15.172 -12.543   8.749  1.00  0.00     0.140 S 
HETATM   23  C25 UNL     1     -14.087 -13.019   7.410  1.00  0.00     0.161 C 
HETATM   24  O2  UNL     1     -14.476 -12.961  10.032  1.00  0.00    -0.228 OA
HETATM   25  O3  UNL     1     -16.414 -13.354   8.591  1.00  0.00    -0.228 OA
ENDBRANCH  21  22
ENDBRANCH  20  21
ENDBRANCH  19  20
ENDBRANCH  16  19
ENDBRANCH  10  13
ENDBRANCH   9  10
BRANCH   7  26
HETATM   26  C13 UNL     1     -11.893 -11.035   2.645  1.00  0.00    -0.027 A 
HETATM   27  C14 UNL     1     -12.315 -12.205   3.242  1.00  0.00     0.011 A 
HETATM   28  C15 UNL     1     -11.881 -12.615   4.486  1.00  0.00     0.024 A 
HETATM   29  C16 UNL     1     -10.994 -11.846   5.175  1.00  0.00     0.034 A 
HETATM   30 CL2  UNL     1     -10.438 -12.370   6.777  1.00  0.00    -0.084 Cl
HETATM   31  C17 UNL     1     -10.545 -10.665   4.615  1.00  0.00     0.024 A 
HETATM   32  C18 UNL     1     -11.004 -10.285   3.357  1.00  0.00     0.011 A 
ENDBRANCH   7  26
BRANCH   5  33
HETATM   33  C5  UNL     1     -10.356 -11.818   0.230  1.00  0.00    -0.028 A 
HETATM   34  C6  UNL     1     -10.636 -13.152   0.057  1.00  0.00     0.011 A 
HETATM   35  C7  UNL     1      -9.649 -14.117   0.193  1.00  0.00     0.024 A 
HETATM   36  C8  UNL     1      -8.355 -13.764   0.503  1.00  0.00     0.034 A 
HETATM   37 CL1  UNL     1      -7.083 -14.978   0.686  1.00  0.00    -0.084 Cl
HETATM   38  C9  UNL     1      -8.069 -12.403   0.675  1.00  0.00     0.024 A 
HETATM   39  C10 UNL     1      -9.079 -11.463   0.533  1.00  0.00     0.011 A 
ENDBRANCH   5  33
TORSDOF 9
ENDMDL
