MODEL 2
REMARK VINA RESULT: -7.028437539      2.034      2.468
REMARK  9 active torsions:
REMARK  status: ('A' for Active; 'I' for Inactive)
REMARK    1  A    between atoms: C3_5  and  C5_7 
REMARK    2  A    between atoms: C11_14  and  C13_16 
REMARK    3  A    between atoms: N2_23  and  C19_24 
REMARK    4  A    between atoms: C19_24  and  O1_25 
REMARK    5  A    between atoms: C19_24  and  N3_27 
REMARK    6  A    between atoms: N4_30  and  C22_31 
REMARK    7  A    between atoms: C22_31  and  C23_32 
REMARK    8  A    between atoms: C23_32  and  C24_33 
REMARK    9  A    between atoms: C24_33  and  S1_34 
ROOT
HETATM    1  C1  UNL     1     -11.120  -7.106   0.507  1.00  0.00     0.089 C 
HETATM    2  C2  UNL     1     -11.511  -8.580   0.618  1.00  0.00     0.080 C 
HETATM    3  N1  UNL     1     -10.868  -9.462  -0.050  1.00  0.00    -0.364 N 
ATOM      4  H1  UNL     1     -10.083  -9.264  -0.670  1.00  0.00     0.162 HD
HETATM    5  C3  UNL     1     -11.411 -10.776   0.199  1.00  0.00     0.085 C 
HETATM    6  C4  UNL     1     -12.257 -11.022  -1.096  1.00  0.00     0.047 C 
HETATM    7  C11 UNL     1     -12.345 -10.603   1.298  1.00  0.00     0.095 C 
HETATM    8  C12 UNL     1     -13.658 -11.339   1.101  1.00  0.00     0.048 C 
HETATM    9  N2  UNL     1     -12.557  -9.124   1.368  1.00  0.00    -0.286 N 
ENDROOT
BRANCH   9  10
HETATM   10  C19 UNL     1     -13.679  -8.549   1.959  1.00  0.00     0.224 C 
BRANCH  10  11
HETATM   11  O1  UNL     1     -14.515  -8.045   1.086  1.00  0.00    -0.332 OA
ATOM     12  H1  UNL     1     -14.754  -7.146   1.278  1.00  0.00     0.221 HD
ENDBRANCH  10  11
BRANCH  10  13
HETATM   13  N3  UNL     1     -14.106  -8.408   3.282  1.00  0.00    -0.344 N 
HETATM   14  C20 UNL     1     -14.829  -9.321   4.103  1.00  0.00     0.156 C 
HETATM   15  C21 UNL     1     -14.130  -9.715   5.355  1.00  0.00     0.292 C 
HETATM   16  N4  UNL     1     -13.749  -8.480   6.078  1.00  0.00     0.091 N 
HETATM   17  C26 UNL     1     -14.177  -7.296   5.437  1.00  0.00     0.292 C 
HETATM   18  C27 UNL     1     -13.740  -7.161   4.005  1.00  0.00     0.156 C 
BRANCH  16  19
HETATM   19  C22 UNL     1     -14.278  -8.625   7.445  1.00  0.00     0.273 C 
BRANCH  19  20
HETATM   20  C23 UNL     1     -15.691  -8.239   7.584  1.00  0.00     0.045 C 
BRANCH  20  21
HETATM   21  C24 UNL     1     -16.421  -9.079   8.593  1.00  0.00     0.141 C 
BRANCH  21  22
HETATM   22  S1  UNL     1     -17.103 -10.503   7.832  1.00  0.00     0.140 S 
HETATM   23  C25 UNL     1     -16.024 -11.928   7.896  1.00  0.00     0.161 C 
HETATM   24  O2  UNL     1     -18.355 -10.881   8.602  1.00  0.00    -0.228 OA
HETATM   25  O3  UNL     1     -17.463 -10.314   6.397  1.00  0.00    -0.228 OA
ENDBRANCH  21  22
ENDBRANCH  20  21
ENDBRANCH  19  20
ENDBRANCH  16  19
ENDBRANCH  10  13
ENDBRANCH   9  10
BRANCH   7  26
HETATM   26  C13 UNL     1     -11.883 -10.994   2.667  1.00  0.00    -0.027 A 
HETATM   27  C14 UNL     1     -12.358 -12.143   3.263  1.00  0.00     0.011 A 
HETATM   28  C15 UNL     1     -11.942 -12.574   4.507  1.00  0.00     0.024 A 
HETATM   29  C16 UNL     1     -11.019 -11.847   5.195  1.00  0.00     0.034 A 
HETATM   30 CL2  UNL     1     -10.486 -12.398   6.796  1.00  0.00    -0.084 Cl
HETATM   31  C17 UNL     1     -10.517 -10.688   4.635  1.00  0.00     0.024 A 
HETATM   32  C18 UNL     1     -10.960 -10.286   3.378  1.00  0.00     0.011 A 
ENDBRANCH   7  26
BRANCH   5  33
HETATM   33  C5  UNL     1     -10.338 -11.770   0.254  1.00  0.00    -0.028 A 
HETATM   34  C6  UNL     1     -10.640 -13.100   0.097  1.00  0.00     0.011 A 
HETATM   35  C7  UNL     1      -9.666 -14.079   0.231  1.00  0.00     0.024 A 
HETATM   36  C8  UNL     1      -8.363 -13.742   0.523  1.00  0.00     0.034 A 
HETATM   37 CL1  UNL     1      -7.108 -14.974   0.703  1.00  0.00    -0.084 Cl
HETATM   38  C9  UNL     1      -8.055 -12.385   0.679  1.00  0.00     0.024 A 
HETATM   39  C10 UNL     1      -9.052 -11.431   0.540  1.00  0.00     0.011 A 
ENDBRANCH   5  33
TORSDOF 9
ENDMDL
