MODEL 10
REMARK VINA RESULT: -6.714601564      5.180      8.802
REMARK  9 active torsions:
REMARK  status: ('A' for Active; 'I' for Inactive)
REMARK    1  A    between atoms: C3_5  and  C5_7 
REMARK    2  A    between atoms: C11_14  and  C13_16 
REMARK    3  A    between atoms: N2_23  and  C19_24 
REMARK    4  A    between atoms: C19_24  and  O1_25 
REMARK    5  A    between atoms: C19_24  and  N3_27 
REMARK    6  A    between atoms: N4_30  and  C22_31 
REMARK    7  A    between atoms: C22_31  and  C23_32 
REMARK    8  A    between atoms: C23_32  and  C24_33 
REMARK    9  A    between atoms: C24_33  and  S1_34 
ROOT
HETATM    1  C1  UNL     1     -10.084  -6.801   0.272  1.00  0.00     0.089 C 
HETATM    2  C2  UNL     1     -10.998  -7.927   0.753  1.00  0.00     0.080 C 
HETATM    3  N1  UNL     1     -12.109  -8.144   0.155  1.00  0.00    -0.364 N 
ATOM      4  H1  UNL     1     -12.450  -7.617  -0.648  1.00  0.00     0.162 HD
HETATM    5  C3  UNL     1     -12.810  -9.241   0.780  1.00  0.00     0.085 C 
HETATM    6  C4  UNL     1     -13.896  -8.487   1.622  1.00  0.00     0.047 C 
HETATM    7  C11 UNL     1     -11.862  -9.818   1.717  1.00  0.00     0.095 C 
HETATM    8  C12 UNL     1     -12.467 -10.148   3.069  1.00  0.00     0.048 C 
HETATM    9  N2  UNL     1     -10.792  -8.780   1.840  1.00  0.00    -0.286 N 
ENDROOT
BRANCH   9  10
HETATM   10  C19 UNL     1      -9.933  -8.708   2.933  1.00  0.00     0.224 C 
BRANCH  10  11
HETATM   11  O1  UNL     1     -10.140  -7.650   3.677  1.00  0.00    -0.332 OA
ATOM     12  H1  UNL     1      -9.754  -7.724   4.542  1.00  0.00     0.221 HD
ENDBRANCH  10  11
BRANCH  10  13
HETATM   13  N3  UNL     1      -8.907  -9.529   3.409  1.00  0.00    -0.344 N 
HETATM   14  C20 UNL     1      -8.963 -10.590   4.360  1.00  0.00     0.156 C 
HETATM   15  C21 UNL     1      -8.510 -11.908   3.844  1.00  0.00     0.292 C 
HETATM   16  N4  UNL     1      -7.158 -11.736   3.264  1.00  0.00     0.091 N 
HETATM   17  C26 UNL     1      -6.652 -10.423   3.392  1.00  0.00     0.292 C 
HETATM   18  C27 UNL     1      -7.545  -9.347   2.842  1.00  0.00     0.156 C 
BRANCH  16  19
HETATM   19  C22 UNL     1      -6.305 -12.753   3.902  1.00  0.00     0.273 C 
BRANCH  19  20
HETATM   20  C23 UNL     1      -5.592 -13.619   2.950  1.00  0.00     0.045 C 
BRANCH  20  21
HETATM   21  C24 UNL     1      -6.078 -15.039   2.987  1.00  0.00     0.141 C 
BRANCH  21  22
HETATM   22  S1  UNL     1      -5.711 -15.856   1.480  1.00  0.00     0.140 S 
HETATM   23  C25 UNL     1      -4.125 -16.681   1.487  1.00  0.00     0.161 C 
HETATM   24  O2  UNL     1      -6.756 -16.939   1.278  1.00  0.00    -0.228 OA
HETATM   25  O3  UNL     1      -5.713 -14.961   0.286  1.00  0.00    -0.228 OA
ENDBRANCH  21  22
ENDBRANCH  20  21
ENDBRANCH  19  20
ENDBRANCH  16  19
ENDBRANCH  10  13
ENDBRANCH   9  10
BRANCH   7  26
HETATM   26  C13 UNL     1     -11.147 -11.064   1.297  1.00  0.00    -0.027 A 
HETATM   27  C14 UNL     1     -11.662 -12.304   1.612  1.00  0.00     0.011 A 
HETATM   28  C15 UNL     1     -11.068 -13.488   1.222  1.00  0.00     0.024 A 
HETATM   29  C16 UNL     1      -9.920 -13.454   0.491  1.00  0.00     0.034 A 
HETATM   30 CL2  UNL     1      -9.153 -14.974  -0.008  1.00  0.00    -0.084 Cl
HETATM   31  C17 UNL     1      -9.369 -12.232   0.155  1.00  0.00     0.024 A 
HETATM   32  C18 UNL     1      -9.998 -11.060   0.565  1.00  0.00     0.011 A 
ENDBRANCH   7  26
BRANCH   5  33
HETATM   33  C5  UNL     1     -13.484 -10.057  -0.230  1.00  0.00    -0.028 A 
HETATM   34  C6  UNL     1     -14.685 -10.653   0.073  1.00  0.00     0.011 A 
HETATM   35  C7  UNL     1     -15.310 -11.505  -0.826  1.00  0.00     0.024 A 
HETATM   36  C8  UNL     1     -14.745 -11.777  -2.051  1.00  0.00     0.034 A 
HETATM   37 CL1  UNL     1     -15.523 -12.864  -3.208  1.00  0.00    -0.084 Cl
HETATM   38  C9  UNL     1     -13.524 -11.166  -2.360  1.00  0.00     0.024 A 
HETATM   39  C10 UNL     1     -12.923 -10.320  -1.441  1.00  0.00     0.011 A 
ENDBRANCH   5  33
TORSDOF 9
ENDMDL
