MODEL 3
REMARK VINA RESULT: -8.299894683      2.745      7.317
REMARK  4 active torsions:
REMARK  status: ('A' for Active; 'I' for Inactive)
REMARK    1  A    between atoms: C5_5  and  O1_6 
REMARK    2  A    between atoms: C13_15  and  O2_16 
REMARK    3  A    between atoms: C16_20  and  C17_21 
REMARK    4  A    between atoms: C23_29  and  O5_30 
ROOT
HETATM    1  C1  UNL     1      -0.952 -27.902  35.022  1.00  0.00     0.016 C 
HETATM    2  C2  UNL     1      -0.272 -29.091  34.358  1.00  0.00    -0.036 C 
HETATM    3  C3  UNL     1       1.163 -28.688  34.123  1.00  0.00     0.012 C 
HETATM    4  C4  UNL     1       1.375 -27.665  33.092  1.00  0.00     0.032 C 
HETATM    5  C5  UNL     1       0.439 -27.660  31.934  1.00  0.00     0.118 C 
HETATM    6  C6  UNL     1      -0.935 -28.171  32.214  1.00  0.00     0.037 C 
HETATM    7  C7  UNL     1      -0.885 -29.420  33.038  1.00  0.00    -0.004 C 
HETATM    8  C8  UNL     1      -0.025 -30.444  32.357  1.00  0.00     0.006 C 
HETATM    9  C9  UNL     1       0.273 -31.641  33.195  1.00  0.00     0.008 C 
HETATM   10  C10 UNL     1      -0.513 -31.584  34.489  1.00  0.00     0.026 C 
HETATM   11  C11 UNL     1      -0.334 -30.320  35.247  1.00  0.00     0.003 C 
HETATM   12  C12 UNL     1      -1.433 -30.238  36.268  1.00  0.00     0.038 C 
HETATM   13  C13 UNL     1      -2.131 -31.522  36.527  1.00  0.00     0.130 C 
HETATM   14  C14 UNL     1      -1.253 -32.742  36.502  1.00  0.00     0.021 C 
HETATM   15  C15 UNL     1      -2.176 -33.942  36.340  1.00  0.00     0.022 C 
HETATM   16  C16 UNL     1      -0.370 -32.841  37.703  1.00  0.00     0.030 C 
HETATM   17  C21 UNL     1       0.754 -33.784  37.192  1.00  0.00     0.013 C 
HETATM   18  C22 UNL     1       1.049 -32.964  35.915  1.00  0.00     0.040 C 
HETATM   19  C23 UNL     1      -0.294 -32.797  35.337  1.00  0.00     0.072 C 
ENDROOT
BRANCH  16  20
HETATM   20  C17 UNL     1      -0.930 -33.256  38.968  1.00  0.00    -0.045 A 
HETATM   21  C18 UNL     1      -1.572 -32.569  39.852  1.00  0.00     0.087 A 
HETATM   22  C19 UNL     1      -1.940 -33.434  40.970  1.00  0.00     0.283 A 
HETATM   23  O3  UNL     1      -2.580 -33.103  42.021  1.00  0.00    -0.260 OA
HETATM   24  O4  UNL     1      -1.459 -34.684  40.663  1.00  0.00    -0.314 OA
HETATM   25  C20 UNL     1      -0.820 -34.666  39.447  1.00  0.00     0.213 A 
ENDBRANCH  16  20
BRANCH  13  26
HETATM   26  O2  UNL     1      -3.275 -31.710  35.754  1.00  0.00    -0.395 OA
ATOM     27  H2  UNL     1      -3.167 -31.469  34.842  1.00  0.00     0.210 HD
ENDBRANCH  13  26
BRANCH  19  28
HETATM   28  O5  UNL     1      -0.508 -33.920  34.509  1.00  0.00    -0.389 OA
ATOM     29  H5  UNL     1      -0.783 -34.632  35.075  1.00  0.00     0.210 HD
ENDBRANCH  19  28
BRANCH   5  30
HETATM   30  O1  UNL     1       0.332 -26.339  31.484  1.00  0.00    -0.396 OA
ATOM     31  H1  UNL     1      -0.499 -25.998  31.792  1.00  0.00     0.210 HD
ENDBRANCH   5  30
TORSDOF 4
ENDMDL
