MODEL 4
REMARK VINA RESULT: -8.193026353      1.937      7.366
REMARK  4 active torsions:
REMARK  status: ('A' for Active; 'I' for Inactive)
REMARK    1  A    between atoms: C5_5  and  O1_6 
REMARK    2  A    between atoms: C13_15  and  O2_16 
REMARK    3  A    between atoms: C16_20  and  C17_21 
REMARK    4  A    between atoms: C23_29  and  O5_30 
ROOT
HETATM    1  C1  UNL     1       0.318 -27.909  35.100  1.00  0.00     0.016 C 
HETATM    2  C2  UNL     1      -0.218 -28.796  33.985  1.00  0.00    -0.036 C 
HETATM    3  C3  UNL     1       0.859 -28.854  32.929  1.00  0.00     0.012 C 
HETATM    4  C4  UNL     1       1.084 -27.612  32.182  1.00  0.00     0.032 C 
HETATM    5  C5  UNL     1      -0.097 -26.737  31.941  1.00  0.00     0.118 C 
HETATM    6  C6  UNL     1      -1.172 -26.808  32.973  1.00  0.00     0.037 C 
HETATM    7  C7  UNL     1      -1.448 -28.228  33.362  1.00  0.00    -0.004 C 
HETATM    8  C8  UNL     1      -1.779 -29.034  32.140  1.00  0.00     0.006 C 
HETATM    9  C9  UNL     1      -1.854 -30.503  32.385  1.00  0.00     0.008 C 
HETATM   10  C10 UNL     1      -1.726 -30.796  33.866  1.00  0.00     0.026 C 
HETATM   11  C11 UNL     1      -0.527 -30.190  34.498  1.00  0.00     0.003 C 
HETATM   12  C12 UNL     1      -0.727 -30.225  35.987  1.00  0.00     0.038 C 
HETATM   13  C13 UNL     1      -1.796 -31.147  36.445  1.00  0.00     0.130 C 
HETATM   14  C14 UNL     1      -1.910 -32.428  35.667  1.00  0.00     0.021 C 
HETATM   15  C15 UNL     1      -3.286 -33.005  35.973  1.00  0.00     0.022 C 
HETATM   16  C16 UNL     1      -0.798 -33.381  35.960  1.00  0.00     0.030 C 
HETATM   17  C21 UNL     1      -0.823 -34.293  34.703  1.00  0.00     0.013 C 
HETATM   18  C22 UNL     1      -0.775 -33.128  33.688  1.00  0.00     0.040 C 
HETATM   19  C23 UNL     1      -1.858 -32.255  34.168  1.00  0.00     0.072 C 
ENDROOT
BRANCH  16  20
HETATM   20  C17 UNL     1      -0.800 -34.121  37.201  1.00  0.00    -0.045 A 
HETATM   21  C18 UNL     1      -0.541 -33.721  38.400  1.00  0.00     0.087 A 
HETATM   22  C19 UNL     1      -0.676 -34.842  39.328  1.00  0.00     0.283 A 
HETATM   23  O3  UNL     1      -0.499 -34.822  40.589  1.00  0.00    -0.260 OA
HETATM   24  O4  UNL     1      -1.037 -35.929  38.567  1.00  0.00    -0.314 OA
HETATM   25  C20 UNL     1      -1.134 -35.575  37.243  1.00  0.00     0.213 A 
ENDBRANCH  16  20
BRANCH  13  26
HETATM   26  O2  UNL     1      -3.041 -30.539  36.595  1.00  0.00    -0.395 OA
ATOM     27  H2  UNL     1      -3.760 -31.152  36.693  1.00  0.00     0.210 HD
ENDBRANCH  13  26
BRANCH  19  28
HETATM   28  O5  UNL     1      -3.035 -32.701  33.528  1.00  0.00    -0.389 OA
ATOM     29  H5  UNL     1      -2.990 -33.650  33.496  1.00  0.00     0.210 HD
ENDBRANCH  19  28
BRANCH   5  30
HETATM   30  O1  UNL     1       0.363 -25.417  31.876  1.00  0.00    -0.396 OA
ATOM     31  H1  UNL     1      -0.250 -24.877  32.359  1.00  0.00     0.210 HD
ENDBRANCH   5  30
TORSDOF 4
ENDMDL
