MODEL 2
REMARK VINA RESULT: -8.507587018      1.413      7.346
REMARK  4 active torsions:
REMARK  status: ('A' for Active; 'I' for Inactive)
REMARK    1  A    between atoms: C5_5  and  O1_6 
REMARK    2  A    between atoms: C13_15  and  O2_16 
REMARK    3  A    between atoms: C16_20  and  C17_21 
REMARK    4  A    between atoms: C23_29  and  O5_30 
ROOT
HETATM    1  C1  UNL     1       1.193 -27.664  34.045  1.00  0.00     0.016 C 
HETATM    2  C2  UNL     1      -0.039 -28.149  33.295  1.00  0.00    -0.036 C 
HETATM    3  C3  UNL     1       0.212 -27.872  31.833  1.00  0.00     0.012 C 
HETATM    4  C4  UNL     1       0.205 -26.458  31.445  1.00  0.00     0.032 C 
HETATM    5  C5  UNL     1      -0.709 -25.549  32.191  1.00  0.00     0.118 C 
HETATM    6  C6  UNL     1      -0.997 -25.942  33.601  1.00  0.00     0.037 C 
HETATM    7  C7  UNL     1      -1.269 -27.411  33.704  1.00  0.00    -0.004 C 
HETATM    8  C8  UNL     1      -2.382 -27.787  32.770  1.00  0.00     0.006 C 
HETATM    9  C9  UNL     1      -2.584 -29.258  32.629  1.00  0.00     0.008 C 
HETATM   10  C10 UNL     1      -1.697 -30.006  33.604  1.00  0.00     0.026 C 
HETATM   11  C11 UNL     1      -0.262 -29.634  33.518  1.00  0.00     0.003 C 
HETATM   12  C12 UNL     1       0.417 -30.139  34.760  1.00  0.00     0.038 C 
HETATM   13  C13 UNL     1      -0.356 -31.156  35.515  1.00  0.00     0.130 C 
HETATM   14  C14 UNL     1      -1.134 -32.125  34.668  1.00  0.00     0.021 C 
HETATM   15  C15 UNL     1      -2.171 -32.766  35.580  1.00  0.00     0.022 C 
HETATM   16  C16 UNL     1      -0.259 -33.123  33.984  1.00  0.00     0.030 C 
HETATM   17  C21 UNL     1      -1.168 -33.590  32.814  1.00  0.00     0.013 C 
HETATM   18  C22 UNL     1      -1.483 -32.163  32.308  1.00  0.00     0.040 C 
HETATM   19  C23 UNL     1      -1.910 -31.485  33.543  1.00  0.00     0.072 C 
ENDROOT
BRANCH  16  20
HETATM   20  C17 UNL     1       0.302 -34.218  34.740  1.00  0.00    -0.045 A 
HETATM   21  C18 UNL     1       1.253 -34.216  35.613  1.00  0.00     0.087 A 
HETATM   22  C19 UNL     1       1.464 -35.575  36.107  1.00  0.00     0.283 A 
HETATM   23  O3  UNL     1       2.316 -35.954  36.975  1.00  0.00    -0.260 OA
HETATM   24  O4  UNL     1       0.555 -36.369  35.449  1.00  0.00    -0.314 OA
HETATM   25  C20 UNL     1      -0.202 -35.615  34.584  1.00  0.00     0.213 A 
ENDBRANCH  16  20
BRANCH  13  26
HETATM   26  O2  UNL     1      -1.150 -30.625  36.529  1.00  0.00    -0.395 OA
ATOM     27  H2  UNL     1      -0.659 -30.314  37.280  1.00  0.00     0.210 HD
ENDBRANCH  13  26
BRANCH  19  28
HETATM   28  O5  UNL     1      -3.302 -31.703  33.650  1.00  0.00    -0.389 OA
ATOM     29  H5  UNL     1      -3.427 -32.638  33.766  1.00  0.00     0.210 HD
ENDBRANCH  19  28
BRANCH   5  30
HETATM   30  O1  UNL     1      -0.125 -24.277  32.200  1.00  0.00    -0.396 OA
ATOM     31  H1  UNL     1      -0.486 -23.802  32.938  1.00  0.00     0.210 HD
ENDBRANCH   5  30
TORSDOF 4
ENDMDL
