MODEL 5
REMARK VINA RESULT: -7.545437734      0.953      1.481
REMARK  2 active torsions:
REMARK  status: ('A' for Active; 'I' for Inactive)
REMARK    1  A    between atoms: C2_5  and  C3_6 
REMARK    2  A    between atoms: C10_19  and  C11_20 
ROOT
HETATM    1  O1  UNL     1      -3.192  -0.258   9.333  1.00  0.00    -0.266 OA
HETATM    2  C1  UNL     1      -3.154   0.982   9.109  1.00  0.00     0.271 C 
HETATM    3  N1  UNL     1      -3.049   1.611   7.864  1.00  0.00    -0.343 N 
ATOM      4  H1  UNL     1      -2.889   1.134   6.976  1.00  0.00     0.163 HD
HETATM    5  C2  UNL     1      -3.200   3.036   8.028  1.00  0.00     0.157 C 
HETATM    6  C8  UNL     1      -3.152   3.268   9.481  1.00  0.00     0.032 A 
HETATM    7  C9  UNL     1      -3.210   2.043  10.093  1.00  0.00     0.127 A 
HETATM    8  N3  UNL     1      -3.239   2.310  11.434  1.00  0.00    -0.295 N 
ATOM      9  H3  UNL     1      -3.287   1.605  12.170  1.00  0.00     0.187 HD
HETATM   10  N4  UNL     1      -3.197   3.595  11.633  1.00  0.00    -0.299 N 
ATOM     11  H4  UNL     1      -3.208   4.037  12.552  1.00  0.00     0.187 HD
HETATM   12  C10 UNL     1      -3.139   4.271  10.458  1.00  0.00     0.069 A 
ENDROOT
BRANCH   5  13
HETATM   13  C3  UNL     1      -4.507   3.469   7.449  1.00  0.00    -0.015 A 
HETATM   14  C4  UNL     1      -5.684   3.207   8.085  1.00  0.00     0.012 A 
HETATM   15  C5  UNL     1      -6.906   3.617   7.524  1.00  0.00     0.018 A 
HETATM   16  C6  UNL     1      -6.920   4.291   6.321  1.00  0.00     0.087 A 
HETATM   17  N2  UNL     1      -5.740   4.529   5.725  1.00  0.00    -0.375 N 
HETATM   18  C7  UNL     1      -4.546   4.139   6.253  1.00  0.00     0.097 A 
ATOM     19  H2  UNL     1      -5.738   5.026   4.834  1.00  0.00     0.164 HD
ENDBRANCH   5  13
BRANCH  12  20
HETATM   20  C11 UNL     1      -3.083   5.708  10.284  1.00  0.00    -0.007 A 
HETATM   21  C12 UNL     1      -3.580   6.619  11.179  1.00  0.00     0.014 A 
HETATM   22  C13 UNL     1      -3.461   7.998  10.941  1.00  0.00     0.001 A 
HETATM   23  C14 UNL     1      -2.847   8.492   9.810  1.00  0.00     0.000 A 
HETATM   24  C15 UNL     1      -2.349   7.583   8.913  1.00  0.00     0.001 A 
HETATM   25  C16 UNL     1      -2.469   6.247   9.155  1.00  0.00     0.014 A 
ENDBRANCH  12  20
TORSDOF 2
ENDMDL
