MODEL 6
REMARK VINA RESULT: -7.122576800      1.670      4.768
REMARK  2 active torsions:
REMARK  status: ('A' for Active; 'I' for Inactive)
REMARK    1  A    between atoms: C2_5  and  C3_6 
REMARK    2  A    between atoms: C10_19  and  C11_20 
ROOT
HETATM    1  O1  UNL     1      -2.874   1.278  12.292  1.00  0.00    -0.266 OA
HETATM    2  C1  UNL     1      -3.415   2.023  11.432  1.00  0.00     0.271 C 
HETATM    3  N1  UNL     1      -4.363   3.026  11.662  1.00  0.00    -0.343 N 
ATOM      4  H1  UNL     1      -4.813   3.215  12.558  1.00  0.00     0.163 HD
HETATM    5  C2  UNL     1      -4.607   3.751  10.439  1.00  0.00     0.157 C 
HETATM    6  C8  UNL     1      -3.939   2.971   9.384  1.00  0.00     0.032 A 
HETATM    7  C9  UNL     1      -3.179   2.012  10.002  1.00  0.00     0.127 A 
HETATM    8  N3  UNL     1      -2.523   1.364   8.993  1.00  0.00    -0.295 N 
ATOM      9  H3  UNL     1      -1.869   0.592   9.122  1.00  0.00     0.187 HD
HETATM   10  N4  UNL     1      -2.855   1.878   7.845  1.00  0.00    -0.299 N 
ATOM     11  H4  UNL     1      -2.495   1.560   6.945  1.00  0.00     0.187 HD
HETATM   12  C10 UNL     1      -3.744   2.891   8.000  1.00  0.00     0.069 A 
ENDROOT
BRANCH   5  13
HETATM   13  C3  UNL     1      -4.029   5.125  10.550  1.00  0.00    -0.015 A 
HETATM   14  C4  UNL     1      -3.259   5.651   9.555  1.00  0.00     0.012 A 
HETATM   15  C5  UNL     1      -2.721   6.943   9.678  1.00  0.00     0.018 A 
HETATM   16  C6  UNL     1      -2.969   7.690  10.810  1.00  0.00     0.087 A 
HETATM   17  N2  UNL     1      -3.732   7.136  11.768  1.00  0.00    -0.375 N 
HETATM   18  C7  UNL     1      -4.263   5.884  11.667  1.00  0.00     0.097 A 
ATOM     19  H2  UNL     1      -3.923   7.678  12.611  1.00  0.00     0.164 HD
ENDBRANCH   5  13
BRANCH  12  20
HETATM   20  C11 UNL     1      -4.335   3.698   6.951  1.00  0.00    -0.007 A 
HETATM   21  C12 UNL     1      -3.623   4.469   6.069  1.00  0.00     0.014 A 
HETATM   22  C13 UNL     1      -4.277   5.201   5.066  1.00  0.00     0.001 A 
HETATM   23  C14 UNL     1      -5.649   5.178   4.924  1.00  0.00     0.000 A 
HETATM   24  C15 UNL     1      -6.363   4.408   5.805  1.00  0.00     0.001 A 
HETATM   25  C16 UNL     1      -5.717   3.701   6.774  1.00  0.00     0.014 A 
ENDBRANCH  12  20
TORSDOF 2
ENDMDL
