MODEL 1
REMARK VINA RESULT: -8.719354443      0.000      0.000
REMARK  2 active torsions:
REMARK  status: ('A' for Active; 'I' for Inactive)
REMARK    1  A    between atoms: C2_5  and  C3_6 
REMARK    2  A    between atoms: C10_19  and  C11_20 
ROOT
HETATM    1  O1  UNL     1      -2.902   0.125   8.484  1.00  0.00    -0.266 OA
HETATM    2  C1  UNL     1      -2.801   1.380   8.422  1.00  0.00     0.271 C 
HETATM    3  N1  UNL     1      -2.330   2.136   7.344  1.00  0.00    -0.343 N 
ATOM      4  H1  UNL     1      -1.911   1.753   6.496  1.00  0.00     0.163 HD
HETATM    5  C2  UNL     1      -2.528   3.540   7.615  1.00  0.00     0.157 C 
HETATM    6  C8  UNL     1      -2.917   3.612   9.033  1.00  0.00     0.032 A 
HETATM    7  C9  UNL     1      -3.152   2.330   9.458  1.00  0.00     0.127 A 
HETATM    8  N3  UNL     1      -3.582   2.451  10.751  1.00  0.00    -0.295 N 
ATOM      9  H3  UNL     1      -3.846   1.673  11.355  1.00  0.00     0.187 HD
HETATM   10  N4  UNL     1      -3.605   3.705  11.096  1.00  0.00    -0.299 N 
ATOM     11  H4  UNL     1      -3.891   4.046  12.015  1.00  0.00     0.187 HD
HETATM   12  C10 UNL     1      -3.199   4.502  10.075  1.00  0.00     0.069 A 
ENDROOT
BRANCH   5  13
HETATM   13  C3  UNL     1      -3.603   4.073   6.725  1.00  0.00    -0.015 A 
HETATM   14  C4  UNL     1      -4.917   3.795   6.959  1.00  0.00     0.012 A 
HETATM   15  C5  UNL     1      -5.916   4.301   6.110  1.00  0.00     0.018 A 
HETATM   16  C6  UNL     1      -5.571   5.086   5.030  1.00  0.00     0.087 A 
HETATM   17  N2  UNL     1      -4.265   5.337   4.833  1.00  0.00    -0.375 N 
HETATM   18  C7  UNL     1      -3.283   4.854   5.646  1.00  0.00     0.097 A 
ATOM     19  H2  UNL     1      -3.997   5.915   4.038  1.00  0.00     0.164 HD
ENDBRANCH   5  13
BRANCH  12  20
HETATM   20  C11 UNL     1      -3.097   5.948  10.089  1.00  0.00    -0.007 A 
HETATM   21  C12 UNL     1      -2.520   6.696   9.096  1.00  0.00     0.014 A 
HETATM   22  C13 UNL     1      -2.487   8.096   9.180  1.00  0.00     0.001 A 
HETATM   23  C14 UNL     1      -3.026   8.775  10.253  1.00  0.00     0.000 A 
HETATM   24  C15 UNL     1      -3.603   8.030  11.248  1.00  0.00     0.001 A 
HETATM   25  C16 UNL     1      -3.631   6.670  11.154  1.00  0.00     0.014 A 
ENDBRANCH  12  20
TORSDOF 2
ENDMDL
