MODEL 9
REMARK VINA RESULT: -6.713342838      1.717      4.751
REMARK  2 active torsions:
REMARK  status: ('A' for Active; 'I' for Inactive)
REMARK    1  A    between atoms: C2_5  and  C3_6 
REMARK    2  A    between atoms: C10_19  and  C11_20 
ROOT
HETATM    1  O1  UNL     1      -2.816   1.269  12.258  1.00  0.00    -0.266 OA
HETATM    2  C1  UNL     1      -3.410   2.000  11.420  1.00  0.00     0.271 C 
HETATM    3  N1  UNL     1      -4.306   3.038  11.693  1.00  0.00    -0.343 N 
ATOM      4  H1  UNL     1      -4.671   3.273  12.616  1.00  0.00     0.163 HD
HETATM    5  C2  UNL     1      -4.636   3.726  10.468  1.00  0.00     0.157 C 
HETATM    6  C8  UNL     1      -4.084   2.889   9.390  1.00  0.00     0.032 A 
HETATM    7  C9  UNL     1      -3.300   1.931   9.977  1.00  0.00     0.127 A 
HETATM    8  N3  UNL     1      -2.751   1.227   8.940  1.00  0.00    -0.295 N 
ATOM      9  H3  UNL     1      -2.109   0.441   9.042  1.00  0.00     0.187 HD
HETATM   10  N4  UNL     1      -3.168   1.710   7.807  1.00  0.00    -0.299 N 
ATOM     11  H4  UNL     1      -2.895   1.349   6.891  1.00  0.00     0.187 HD
HETATM   12  C10 UNL     1      -4.012   2.754   7.999  1.00  0.00     0.069 A 
ENDROOT
BRANCH   5  13
HETATM   13  C3  UNL     1      -4.014   5.085  10.477  1.00  0.00    -0.015 A 
HETATM   14  C4  UNL     1      -4.182   5.933  11.531  1.00  0.00     0.012 A 
HETATM   15  C5  UNL     1      -3.594   7.209  11.521  1.00  0.00     0.018 A 
HETATM   16  C6  UNL     1      -2.839   7.612  10.440  1.00  0.00     0.087 A 
HETATM   17  N2  UNL     1      -2.697   6.748   9.421  1.00  0.00    -0.375 N 
HETATM   18  C7  UNL     1      -3.261   5.507   9.412  1.00  0.00     0.097 A 
ATOM     19  H2  UNL     1      -2.142   7.035   8.615  1.00  0.00     0.164 HD
ENDBRANCH   5  13
BRANCH  12  20
HETATM   20  C11 UNL     1      -4.670   3.540   6.974  1.00  0.00    -0.007 A 
HETATM   21  C12 UNL     1      -6.028   3.614   6.803  1.00  0.00     0.014 A 
HETATM   22  C13 UNL     1      -6.581   4.421   5.797  1.00  0.00     0.001 A 
HETATM   23  C14 UNL     1      -5.794   5.166   4.944  1.00  0.00     0.000 A 
HETATM   24  C15 UNL     1      -4.436   5.093   5.112  1.00  0.00     0.001 A 
HETATM   25  C16 UNL     1      -3.909   4.307   6.093  1.00  0.00     0.014 A 
ENDBRANCH  12  20
TORSDOF 2
ENDMDL
