MODEL 13
REMARK VINA RESULT: -6.465387240      2.552      5.396
REMARK  2 active torsions:
REMARK  status: ('A' for Active; 'I' for Inactive)
REMARK    1  A    between atoms: C2_5  and  C3_6 
REMARK    2  A    between atoms: C10_19  and  C11_20 
ROOT
HETATM    1  O1  UNL     1      -3.577   5.571   5.515  1.00  0.00    -0.266 OA
HETATM    2  C1  UNL     1      -3.426   5.014   6.636  1.00  0.00     0.271 C 
HETATM    3  N1  UNL     1      -2.401   5.243   7.560  1.00  0.00    -0.343 N 
ATOM      4  H1  UNL     1      -1.581   5.827   7.396  1.00  0.00     0.163 HD
HETATM    5  C2  UNL     1      -2.682   4.525   8.780  1.00  0.00     0.157 C 
HETATM    6  C8  UNL     1      -3.814   3.640   8.461  1.00  0.00     0.032 A 
HETATM    7  C9  UNL     1      -4.284   4.007   7.227  1.00  0.00     0.127 A 
HETATM    8  N3  UNL     1      -5.376   3.214   7.005  1.00  0.00    -0.295 N 
ATOM      9  H3  UNL     1      -5.960   3.242   6.169  1.00  0.00     0.187 HD
HETATM   10  N4  UNL     1      -5.560   2.419   8.018  1.00  0.00    -0.299 N 
ATOM     11  H4  UNL     1      -6.314   1.733   8.084  1.00  0.00     0.187 HD
HETATM   12  C10 UNL     1      -4.621   2.620   8.976  1.00  0.00     0.069 A 
ENDROOT
BRANCH   5  13
HETATM   13  C3  UNL     1      -3.035   5.496   9.859  1.00  0.00    -0.015 A 
HETATM   14  C4  UNL     1      -2.970   6.842   9.649  1.00  0.00     0.012 A 
HETATM   15  C5  UNL     1      -3.302   7.742  10.676  1.00  0.00     0.018 A 
HETATM   16  C6  UNL     1      -3.699   7.266  11.908  1.00  0.00     0.087 A 
HETATM   17  N2  UNL     1      -3.751   5.934  12.076  1.00  0.00    -0.375 N 
HETATM   18  C7  UNL     1      -3.432   5.046  11.092  1.00  0.00     0.097 A 
ATOM     19  H2  UNL     1      -4.042   5.570  12.983  1.00  0.00     0.164 HD
ENDBRANCH   5  13
BRANCH  12  20
HETATM   20  C11 UNL     1      -4.508   1.923  10.242  1.00  0.00    -0.007 A 
HETATM   21  C12 UNL     1      -5.516   1.818  11.164  1.00  0.00     0.014 A 
HETATM   22  C13 UNL     1      -5.326   1.102  12.356  1.00  0.00     0.001 A 
HETATM   23  C14 UNL     1      -4.132   0.480  12.651  1.00  0.00     0.000 A 
HETATM   24  C15 UNL     1      -3.121   0.584  11.731  1.00  0.00     0.001 A 
HETATM   25  C16 UNL     1      -3.317   1.281  10.576  1.00  0.00     0.014 A 
ENDBRANCH  12  20
TORSDOF 2
ENDMDL
