MODEL 2
REMARK VINA RESULT: -8.504892130      0.707      1.076
REMARK  2 active torsions:
REMARK  status: ('A' for Active; 'I' for Inactive)
REMARK    1  A    between atoms: C2_5  and  C3_6 
REMARK    2  A    between atoms: C10_19  and  C11_20 
ROOT
HETATM    1  O1  UNL     1      -2.952  -0.163   8.863  1.00  0.00    -0.266 OA
HETATM    2  C1  UNL     1      -2.829   1.085   8.737  1.00  0.00     0.271 C 
HETATM    3  N1  UNL     1      -2.324   1.775   7.631  1.00  0.00    -0.343 N 
ATOM      4  H1  UNL     1      -1.895   1.342   6.813  1.00  0.00     0.163 HD
HETATM    5  C2  UNL     1      -2.503   3.194   7.823  1.00  0.00     0.157 C 
HETATM    6  C8  UNL     1      -2.919   3.348   9.227  1.00  0.00     0.032 A 
HETATM    7  C9  UNL     1      -3.184   2.095   9.714  1.00  0.00     0.127 A 
HETATM    8  N3  UNL     1      -3.637   2.291  10.990  1.00  0.00    -0.295 N 
ATOM      9  H3  UNL     1      -3.926   1.550  11.629  1.00  0.00     0.187 HD
HETATM   10  N4  UNL     1      -3.645   3.562  11.267  1.00  0.00    -0.299 N 
ATOM     11  H4  UNL     1      -3.943   3.955  12.161  1.00  0.00     0.187 HD
HETATM   12  C10 UNL     1      -3.206   4.296  10.215  1.00  0.00     0.069 A 
ENDROOT
BRANCH   5  13
HETATM   13  C3  UNL     1      -3.551   3.697   6.885  1.00  0.00    -0.015 A 
HETATM   14  C4  UNL     1      -3.274   4.669   5.970  1.00  0.00     0.012 A 
HETATM   15  C5  UNL     1      -4.273   5.133   5.097  1.00  0.00     0.018 A 
HETATM   16  C6  UNL     1      -5.545   4.604   5.161  1.00  0.00     0.087 A 
HETATM   17  N2  UNL     1      -5.778   3.648   6.076  1.00  0.00    -0.375 N 
HETATM   18  C7  UNL     1      -4.823   3.186   6.931  1.00  0.00     0.097 A 
ATOM     19  H2  UNL     1      -6.715   3.250   6.134  1.00  0.00     0.164 HD
ENDBRANCH   5  13
BRANCH  12  20
HETATM   20  C11 UNL     1      -3.080   5.739  10.154  1.00  0.00    -0.007 A 
HETATM   21  C12 UNL     1      -2.524   6.428   9.107  1.00  0.00     0.014 A 
HETATM   22  C13 UNL     1      -2.465   7.830   9.122  1.00  0.00     0.001 A 
HETATM   23  C14 UNL     1      -2.955   8.569  10.177  1.00  0.00     0.000 A 
HETATM   24  C15 UNL     1      -3.511   7.883  11.226  1.00  0.00     0.001 A 
HETATM   25  C16 UNL     1      -3.564   6.522  11.200  1.00  0.00     0.014 A 
ENDBRANCH  12  20
TORSDOF 2
ENDMDL
