MODEL 7
REMARK VINA RESULT: -7.005662999      1.341      1.682
REMARK  2 active torsions:
REMARK  status: ('A' for Active; 'I' for Inactive)
REMARK    1  A    between atoms: C2_5  and  C3_6 
REMARK    2  A    between atoms: C10_19  and  C11_20 
ROOT
HETATM    1  O1  UNL     1      -4.215  -0.141  10.440  1.00  0.00    -0.266 OA
HETATM    2  C1  UNL     1      -3.799   0.985  10.055  1.00  0.00     0.271 C 
HETATM    3  N1  UNL     1      -2.923   1.243   8.996  1.00  0.00    -0.343 N 
ATOM      4  H1  UNL     1      -2.426   0.533   8.457  1.00  0.00     0.163 HD
HETATM    5  C2  UNL     1      -2.827   2.667   8.783  1.00  0.00     0.157 C 
HETATM    6  C8  UNL     1      -3.503   3.280   9.938  1.00  0.00     0.032 A 
HETATM    7  C9  UNL     1      -4.136   2.275  10.623  1.00  0.00     0.127 A 
HETATM    8  N3  UNL     1      -4.809   2.897  11.638  1.00  0.00    -0.295 N 
ATOM      9  H3  UNL     1      -5.387   2.423  12.333  1.00  0.00     0.187 HD
HETATM   10  N4  UNL     1      -4.603   4.180  11.587  1.00  0.00    -0.299 N 
ATOM     11  H4  UNL     1      -5.000   4.854  12.242  1.00  0.00     0.187 HD
HETATM   12  C10 UNL     1      -3.791   4.505  10.550  1.00  0.00     0.069 A 
ENDROOT
BRANCH   5  13
HETATM   13  C3  UNL     1      -3.505   3.026   7.501  1.00  0.00    -0.015 A 
HETATM   14  C4  UNL     1      -2.827   3.641   6.491  1.00  0.00     0.012 A 
HETATM   15  C5  UNL     1      -3.481   3.975   5.292  1.00  0.00     0.018 A 
HETATM   16  C6  UNL     1      -4.818   3.680   5.131  1.00  0.00     0.087 A 
HETATM   17  N2  UNL     1      -5.451   3.074   6.149  1.00  0.00    -0.375 N 
HETATM   18  C7  UNL     1      -4.834   2.743   7.319  1.00  0.00     0.097 A 
ATOM     19  H2  UNL     1      -6.441   2.851   6.042  1.00  0.00     0.164 HD
ENDBRANCH   5  13
BRANCH  12  20
HETATM   20  C11 UNL     1      -3.344   5.833  10.179  1.00  0.00    -0.007 A 
HETATM   21  C12 UNL     1      -2.722   6.143   8.998  1.00  0.00     0.014 A 
HETATM   22  C13 UNL     1      -2.344   7.464   8.711  1.00  0.00     0.001 A 
HETATM   23  C14 UNL     1      -2.578   8.497   9.593  1.00  0.00     0.000 A 
HETATM   24  C15 UNL     1      -3.200   8.191  10.775  1.00  0.00     0.001 A 
HETATM   25  C16 UNL     1      -3.563   6.904  11.043  1.00  0.00     0.014 A 
ENDBRANCH  12  20
TORSDOF 2
ENDMDL
