MODEL 3
REMARK VINA RESULT: -8.420812578      0.694      1.479
REMARK  2 active torsions:
REMARK  status: ('A' for Active; 'I' for Inactive)
REMARK    1  A    between atoms: C2_5  and  C3_6 
REMARK    2  A    between atoms: C10_19  and  C11_20 
ROOT
HETATM    1  O1  UNL     1      -2.927  -0.111   8.756  1.00  0.00    -0.266 OA
HETATM    2  C1  UNL     1      -2.832   1.144   8.680  1.00  0.00     0.271 C 
HETATM    3  N1  UNL     1      -2.335   1.888   7.606  1.00  0.00    -0.343 N 
ATOM      4  H1  UNL     1      -1.891   1.496   6.775  1.00  0.00     0.163 HD
HETATM    5  C2  UNL     1      -2.547   3.294   7.852  1.00  0.00     0.157 C 
HETATM    6  C8  UNL     1      -2.977   3.383   9.257  1.00  0.00     0.032 A 
HETATM    7  C9  UNL     1      -3.217   2.106   9.693  1.00  0.00     0.127 A 
HETATM    8  N3  UNL     1      -3.683   2.242  10.972  1.00  0.00    -0.295 N 
ATOM      9  H3  UNL     1      -3.960   1.469  11.579  1.00  0.00     0.187 HD
HETATM   10  N4  UNL     1      -3.722   3.500  11.299  1.00  0.00    -0.299 N 
ATOM     11  H4  UNL     1      -4.035   3.851  12.204  1.00  0.00     0.187 HD
HETATM   12  C10 UNL     1      -3.292   4.285  10.279  1.00  0.00     0.069 A 
ENDROOT
BRANCH   5  13
HETATM   13  C3  UNL     1      -3.600   3.809   6.925  1.00  0.00    -0.015 A 
HETATM   14  C4  UNL     1      -3.299   4.699   5.938  1.00  0.00     0.012 A 
HETATM   15  C5  UNL     1      -4.303   5.176   5.077  1.00  0.00     0.018 A 
HETATM   16  C6  UNL     1      -5.604   4.745   5.228  1.00  0.00     0.087 A 
HETATM   17  N2  UNL     1      -5.860   3.868   6.213  1.00  0.00    -0.375 N 
HETATM   18  C7  UNL     1      -4.900   3.394   7.058  1.00  0.00     0.097 A 
ATOM     19  H2  UNL     1      -6.818   3.541   6.336  1.00  0.00     0.164 HD
ENDBRANCH   5  13
BRANCH  12  20
HETATM   20  C11 UNL     1      -3.199   5.731  10.276  1.00  0.00    -0.007 A 
HETATM   21  C12 UNL     1      -3.644   6.541  11.288  1.00  0.00     0.014 A 
HETATM   22  C13 UNL     1      -3.491   7.934  11.212  1.00  0.00     0.001 A 
HETATM   23  C14 UNL     1      -2.894   8.544  10.129  1.00  0.00     0.000 A 
HETATM   24  C15 UNL     1      -2.448   7.737   9.115  1.00  0.00     0.001 A 
HETATM   25  C16 UNL     1      -2.601   6.385   9.200  1.00  0.00     0.014 A 
ENDBRANCH  12  20
TORSDOF 2
ENDMDL
