MODEL 14
REMARK VINA RESULT: -7.817284209      3.308      5.920
REMARK  10 active torsions:
REMARK  status: ('A' for Active; 'I' for Inactive)
REMARK    1  A    between atoms: N5_13  and  C6_14 
REMARK    2  A    between atoms: C7_16  and  C8_17 
REMARK    3  A    between atoms: C8_17  and  S1_18 
REMARK    4  A    between atoms: S1_18  and  C9_19 
REMARK    5  A    between atoms: C9_19  and  C10_20 
REMARK    6  A    between atoms: C10_20  and  C11_21 
REMARK    7  A    between atoms: C11_21  and  N6_22 
REMARK    8  A    between atoms: C11_21  and  C12_26 
REMARK    9  A    between atoms: C13_29  and  O4_30 
REMARK   10  A    between atoms: C14_32  and  O5_33 
ROOT
HETATM    1  C6  UNL     1       5.713   7.829  17.353  1.00  0.00     0.262 C 
HETATM    2  O1  UNL     1       4.878   8.947  17.520  1.00  0.00    -0.355 OA
HETATM    3  C7  UNL     1       4.642   8.985  18.906  1.00  0.00     0.165 C 
HETATM    4  C13 UNL     1       5.958   8.601  19.537  1.00  0.00     0.180 C 
HETATM    5  C14 UNL     1       6.784   8.169  18.346  1.00  0.00     0.198 C 
ENDROOT
BRANCH   1   6
HETATM    6  N5  UNL     1       6.143   7.715  15.996  1.00  0.00    -0.297 N 
HETATM    7  C3  UNL     1       6.866   6.703  15.490  1.00  0.00     0.142 A 
HETATM    8  N3  UNL     1       7.379   5.580  16.019  1.00  0.00    -0.336 N 
HETATM    9  C4  UNL     1       7.053   6.994  14.138  1.00  0.00     0.119 A 
HETATM   10  C2  UNL     1       8.070   4.756  15.219  1.00  0.00     0.183 A 
ATOM     11  H3  UNL     1       7.245   5.359  17.006  1.00  0.00     0.168 HD
HETATM   12  N2  UNL     1       8.261   5.017  13.920  1.00  0.00    -0.339 N 
HETATM   13  C1  UNL     1       7.761   6.130  13.362  1.00  0.00     0.148 A 
ATOM     14  H2  UNL     1       8.794   4.362  13.346  1.00  0.00     0.167 HD
HETATM   15  N1  UNL     1       7.966   6.407  11.974  1.00  0.00    -0.080 NA
HETATM   16  N4  UNL     1       6.425   8.176  13.914  1.00  0.00    -0.346 N 
HETATM   17  C5  UNL     1       5.870   8.619  15.036  1.00  0.00     0.188 A 
ATOM     18  H4  UNL     1       6.384   8.653  13.015  1.00  0.00     0.167 HD
ENDBRANCH   1   6
BRANCH   5  19
HETATM   19  O5  UNL     1       7.626   7.112  18.656  1.00  0.00    -0.388 OA
ATOM     20  H5  UNL     1       7.510   6.768  19.533  1.00  0.00     0.210 HD
ENDBRANCH   5  19
BRANCH   3  21
HETATM   21  C8  UNL     1       4.324  10.398  19.295  1.00  0.00     0.108 C 
BRANCH  21  22
HETATM   22  S1  UNL     1       4.671  11.666  18.122  1.00  0.00    -0.166 SA
BRANCH  22  23
HETATM   23  C9  UNL     1       3.341  12.760  17.722  1.00  0.00     0.076 C 
BRANCH  23  24
HETATM   24  C10 UNL     1       2.055  12.448  18.433  1.00  0.00     0.054 C 
BRANCH  24  25
HETATM   25  C11 UNL     1       0.965  13.370  18.012  1.00  0.00     0.284 C 
BRANCH  25  26
HETATM   26  N6  UNL     1       0.970  14.608  18.726  1.00  0.00    -0.065 N 
ATOM     27  H63 UNL     1       0.331  14.571  19.521  1.00  0.00     0.275 HD
ATOM     28  H62 UNL     1       1.850  14.736  19.224  1.00  0.00     0.275 HD
ATOM     29  H61 UNL     1       0.767  15.414  18.134  1.00  0.00     0.275 HD
ENDBRANCH  25  26
BRANCH  25  30
HETATM   30  C12 UNL     1      -0.371  12.763  18.067  1.00  0.00     0.204 C 
HETATM   31  O2  UNL     1      -0.569  11.762  18.782  1.00  0.00    -0.646 OA
HETATM   32  O3  UNL     1      -1.410  13.294  17.334  1.00  0.00    -0.646 OA
ENDBRANCH  25  30
ENDBRANCH  24  25
ENDBRANCH  23  24
ENDBRANCH  22  23
ENDBRANCH  21  22
ENDBRANCH   3  21
BRANCH   4  33
HETATM   33  O4  UNL     1       5.790   7.473  20.364  1.00  0.00    -0.390 OA
ATOM     34  H4  UNL     1       4.941   7.500  20.788  1.00  0.00     0.210 HD
ENDBRANCH   4  33
TORSDOF 10
ENDMDL
