MODEL 3
REMARK VINA RESULT: -8.260576161      1.043      1.149
REMARK  10 active torsions:
REMARK  status: ('A' for Active; 'I' for Inactive)
REMARK    1  A    between atoms: N5_13  and  C6_14 
REMARK    2  A    between atoms: C7_16  and  C8_17 
REMARK    3  A    between atoms: C8_17  and  S1_18 
REMARK    4  A    between atoms: S1_18  and  C9_19 
REMARK    5  A    between atoms: C9_19  and  C10_20 
REMARK    6  A    between atoms: C10_20  and  C11_21 
REMARK    7  A    between atoms: C11_21  and  N6_22 
REMARK    8  A    between atoms: C11_21  and  C12_26 
REMARK    9  A    between atoms: C13_29  and  O4_30 
REMARK   10  A    between atoms: C14_32  and  O5_33 
ROOT
HETATM    1  C6  UNL     1       5.564   8.498  17.907  1.00  0.00     0.262 C 
HETATM    2  O1  UNL     1       5.667   9.746  17.271  1.00  0.00    -0.355 OA
HETATM    3  C7  UNL     1       5.003  10.624  18.146  1.00  0.00     0.165 C 
HETATM    4  C13 UNL     1       5.383  10.159  19.530  1.00  0.00     0.180 C 
HETATM    5  C14 UNL     1       6.110   8.861  19.256  1.00  0.00     0.198 C 
ENDROOT
BRANCH   1   6
HETATM    6  N5  UNL     1       6.296   7.502  17.193  1.00  0.00    -0.297 N 
HETATM    7  C3  UNL     1       6.435   7.443  15.858  1.00  0.00     0.142 A 
HETATM    8  N3  UNL     1       5.986   8.207  14.850  1.00  0.00    -0.336 N 
HETATM    9  C4  UNL     1       7.225   6.322  15.597  1.00  0.00     0.119 A 
HETATM   10  C2  UNL     1       6.314   7.864  13.596  1.00  0.00     0.183 A 
ATOM     11  H3  UNL     1       5.410   9.028  15.033  1.00  0.00     0.168 HD
HETATM   12  N2  UNL     1       7.071   6.793  13.323  1.00  0.00    -0.339 N 
HETATM   13  C1  UNL     1       7.534   6.011  14.309  1.00  0.00     0.148 A 
ATOM     14  H2  UNL     1       7.297   6.569  12.354  1.00  0.00     0.167 HD
HETATM   15  N1  UNL     1       8.343   4.869  14.016  1.00  0.00    -0.080 NA
HETATM   16  N4  UNL     1       7.514   5.772  16.803  1.00  0.00    -0.346 N 
HETATM   17  C5  UNL     1       6.954   6.481  17.776  1.00  0.00     0.188 A 
ATOM     18  H4  UNL     1       8.079   4.935  16.941  1.00  0.00     0.167 HD
ENDBRANCH   1   6
BRANCH   5  19
HETATM   19  O5  UNL     1       5.867   7.914  20.240  1.00  0.00    -0.388 OA
ATOM     20  H5  UNL     1       5.023   8.004  20.665  1.00  0.00     0.210 HD
ENDBRANCH   5  19
BRANCH   3  21
HETATM   21  C8  UNL     1       5.552  12.004  17.942  1.00  0.00     0.108 C 
BRANCH  21  22
HETATM   22  S1  UNL     1       7.253  12.270  18.318  1.00  0.00    -0.166 SA
BRANCH  22  23
HETATM   23  C9  UNL     1       8.241  12.998  17.045  1.00  0.00     0.076 C 
BRANCH  23  24
HETATM   24  C10 UNL     1       9.372  12.129  16.575  1.00  0.00     0.054 C 
BRANCH  24  25
HETATM   25  C11 UNL     1       9.926  11.312  17.689  1.00  0.00     0.284 C 
BRANCH  25  26
HETATM   26  N6  UNL     1      10.991  11.960  18.387  1.00  0.00    -0.065 N 
ATOM     27  H63 UNL     1      11.630  12.415  17.734  1.00  0.00     0.275 HD
ATOM     28  H62 UNL     1      10.650  12.781  18.887  1.00  0.00     0.275 HD
ATOM     29  H61 UNL     1      11.497  11.337  19.016  1.00  0.00     0.275 HD
ENDBRANCH  25  26
BRANCH  25  30
HETATM   30  C12 UNL     1      10.343   9.964  17.277  1.00  0.00     0.204 C 
HETATM   31  O2  UNL     1      11.543   9.733  17.036  1.00  0.00    -0.646 OA
HETATM   32  O3  UNL     1       9.415   8.953  17.155  1.00  0.00    -0.646 OA
ENDBRANCH  25  30
ENDBRANCH  24  25
ENDBRANCH  23  24
ENDBRANCH  22  23
ENDBRANCH  21  22
ENDBRANCH   3  21
BRANCH   4  33
HETATM   33  O4  UNL     1       4.228   9.845  20.273  1.00  0.00    -0.390 OA
ATOM     34  H4  UNL     1       4.137   8.904  20.355  1.00  0.00     0.210 HD
ENDBRANCH   4  33
TORSDOF 10
ENDMDL
