MODEL 2
REMARK VINA RESULT: -8.329432943      1.579      1.871
REMARK  10 active torsions:
REMARK  status: ('A' for Active; 'I' for Inactive)
REMARK    1  A    between atoms: N5_13  and  C6_14 
REMARK    2  A    between atoms: C7_16  and  C8_17 
REMARK    3  A    between atoms: C8_17  and  S1_18 
REMARK    4  A    between atoms: S1_18  and  C9_19 
REMARK    5  A    between atoms: C9_19  and  C10_20 
REMARK    6  A    between atoms: C10_20  and  C11_21 
REMARK    7  A    between atoms: C11_21  and  N6_22 
REMARK    8  A    between atoms: C11_21  and  C12_26 
REMARK    9  A    between atoms: C13_29  and  O4_30 
REMARK   10  A    between atoms: C14_32  and  O5_33 
ROOT
HETATM    1  C6  UNL     1       6.284   9.710  16.820  1.00  0.00     0.262 C 
HETATM    2  O1  UNL     1       7.214  10.577  17.418  1.00  0.00    -0.355 OA
HETATM    3  C7  UNL     1       6.460  11.728  17.709  1.00  0.00     0.165 C 
HETATM    4  C13 UNL     1       5.118  11.212  18.165  1.00  0.00     0.180 C 
HETATM    5  C14 UNL     1       5.213   9.731  17.869  1.00  0.00     0.198 C 
ENDROOT
BRANCH   1   6
HETATM    6  N5  UNL     1       6.871   8.435  16.563  1.00  0.00    -0.297 N 
HETATM    7  C3  UNL     1       6.836   7.781  15.390  1.00  0.00     0.142 A 
HETATM    8  N3  UNL     1       6.298   8.063  14.193  1.00  0.00    -0.336 N 
HETATM    9  C4  UNL     1       7.532   6.588  15.587  1.00  0.00     0.119 A 
HETATM   10  C2  UNL     1       6.447   7.173  13.201  1.00  0.00     0.183 A 
ATOM     11  H3  UNL     1       5.789   8.934  14.041  1.00  0.00     0.168 HD
HETATM   12  N2  UNL     1       7.111   6.023  13.369  1.00  0.00    -0.339 N 
HETATM   13  C1  UNL     1       7.659   5.713  14.553  1.00  0.00     0.148 A 
ATOM     14  H2  UNL     1       7.200   5.373  12.587  1.00  0.00     0.167 HD
HETATM   15  N1  UNL     1       8.369   4.484  14.730  1.00  0.00    -0.080 NA
HETATM   16  N4  UNL     1       7.946   6.598  16.879  1.00  0.00    -0.346 N 
HETATM   17  C5  UNL     1       7.550   7.714  17.478  1.00  0.00     0.188 A 
ATOM     18  H4  UNL     1       8.485   5.856  17.325  1.00  0.00     0.167 HD
ENDBRANCH   1   6
BRANCH   5  19
HETATM   19  O5  UNL     1       3.999   9.208  17.451  1.00  0.00    -0.388 OA
ATOM     20  H5  UNL     1       3.406   9.851  17.082  1.00  0.00     0.210 HD
ENDBRANCH   5  19
BRANCH   3  21
HETATM   21  C8  UNL     1       7.108  12.444  18.857  1.00  0.00     0.108 C 
BRANCH  21  22
HETATM   22  S1  UNL     1       7.931  13.963  18.512  1.00  0.00    -0.166 SA
BRANCH  22  23
HETATM   23  C9  UNL     1       9.598  13.847  17.935  1.00  0.00     0.076 C 
BRANCH  23  24
HETATM   24  C10 UNL     1      10.345  12.653  18.455  1.00  0.00     0.054 C 
BRANCH  24  25
HETATM   25  C11 UNL     1      10.706  11.718  17.355  1.00  0.00     0.284 C 
BRANCH  25  26
HETATM   26  N6  UNL     1       9.821  11.799  16.235  1.00  0.00    -0.065 N 
ATOM     27  H63 UNL     1      10.003  12.641  15.689  1.00  0.00     0.275 HD
ATOM     28  H62 UNL     1      10.054  11.092  15.537  1.00  0.00     0.275 HD
ATOM     29  H61 UNL     1       8.837  11.740  16.497  1.00  0.00     0.275 HD
ENDBRANCH  25  26
BRANCH  25  30
HETATM   30  C12 UNL     1      10.838  10.321  17.791  1.00  0.00     0.204 C 
HETATM   31  O2  UNL     1      10.639   9.396  16.979  1.00  0.00    -0.646 OA
HETATM   32  O3  UNL     1      11.180  10.025  19.092  1.00  0.00    -0.646 OA
ENDBRANCH  25  30
ENDBRANCH  24  25
ENDBRANCH  23  24
ENDBRANCH  22  23
ENDBRANCH  21  22
ENDBRANCH   3  21
BRANCH   4  33
HETATM   33  O4  UNL     1       4.092  11.737  17.354  1.00  0.00    -0.390 OA
ATOM     34  H4  UNL     1       4.173  12.681  17.295  1.00  0.00     0.210 HD
ENDBRANCH   4  33
TORSDOF 10
ENDMDL
