MODEL 1
REMARK VINA RESULT: -8.517271180      0.000      0.000
REMARK  10 active torsions:
REMARK  status: ('A' for Active; 'I' for Inactive)
REMARK    1  A    between atoms: N5_13  and  C6_14 
REMARK    2  A    between atoms: C7_16  and  C8_17 
REMARK    3  A    between atoms: C8_17  and  S1_18 
REMARK    4  A    between atoms: S1_18  and  C9_19 
REMARK    5  A    between atoms: C9_19  and  C10_20 
REMARK    6  A    between atoms: C10_20  and  C11_21 
REMARK    7  A    between atoms: C11_21  and  N6_22 
REMARK    8  A    between atoms: C11_21  and  C12_26 
REMARK    9  A    between atoms: C13_29  and  O4_30 
REMARK   10  A    between atoms: C14_32  and  O5_33 
ROOT
HETATM    1  C6  UNL     1       5.707   8.584  17.885  1.00  0.00     0.262 C 
HETATM    2  O1  UNL     1       5.939   9.832  17.281  1.00  0.00    -0.355 OA
HETATM    3  C7  UNL     1       5.298  10.743  18.139  1.00  0.00     0.165 C 
HETATM    4  C13 UNL     1       5.567  10.226  19.531  1.00  0.00     0.180 C 
HETATM    5  C14 UNL     1       6.206   8.880  19.267  1.00  0.00     0.198 C 
ENDROOT
BRANCH   1   6
HETATM    6  N5  UNL     1       6.398   7.547  17.188  1.00  0.00    -0.297 N 
HETATM    7  C3  UNL     1       6.512   7.444  15.854  1.00  0.00     0.142 A 
HETATM    8  N3  UNL     1       6.066   8.190  14.830  1.00  0.00    -0.336 N 
HETATM    9  C4  UNL     1       7.266   6.295  15.613  1.00  0.00     0.119 A 
HETATM   10  C2  UNL     1       6.362   7.801  13.582  1.00  0.00     0.183 A 
ATOM     11  H3  UNL     1       5.516   9.032  14.998  1.00  0.00     0.168 HD
HETATM   12  N2  UNL     1       7.083   6.701  13.329  1.00  0.00    -0.339 N 
HETATM   13  C1  UNL     1       7.543   5.937  14.330  1.00  0.00     0.148 A 
ATOM     14  H2  UNL     1       7.285   6.442  12.363  1.00  0.00     0.167 HD
HETATM   15  N1  UNL     1       8.314   4.764  14.058  1.00  0.00    -0.080 NA
HETATM   16  N4  UNL     1       7.561   5.773  16.830  1.00  0.00    -0.346 N 
HETATM   17  C5  UNL     1       7.039   6.526  17.790  1.00  0.00     0.188 A 
ATOM     18  H4  UNL     1       8.105   4.924  16.984  1.00  0.00     0.167 HD
ENDBRANCH   1   6
BRANCH   5  19
HETATM   19  O5  UNL     1       5.838   7.938  20.216  1.00  0.00    -0.388 OA
ATOM     20  H5  UNL     1       5.227   8.261  20.867  1.00  0.00     0.210 HD
ENDBRANCH   5  19
BRANCH   3  21
HETATM   21  C8  UNL     1       5.962  12.080  17.994  1.00  0.00     0.108 C 
BRANCH  21  22
HETATM   22  S1  UNL     1       7.676  12.188  18.387  1.00  0.00    -0.166 SA
BRANCH  22  23
HETATM   23  C9  UNL     1       8.805  11.535  17.192  1.00  0.00     0.076 C 
BRANCH  23  24
HETATM   24  C10 UNL     1       9.330  10.168  17.528  1.00  0.00     0.054 C 
BRANCH  24  25
HETATM   25  C11 UNL     1      10.694  10.242  18.118  1.00  0.00     0.284 C 
BRANCH  25  26
HETATM   26  N6  UNL     1      11.734  10.137  17.144  1.00  0.00    -0.065 N 
ATOM     27  H63 UNL     1      12.054   9.172  17.055  1.00  0.00     0.275 HD
ATOM     28  H62 UNL     1      11.366  10.280  16.204  1.00  0.00     0.275 HD
ATOM     29  H61 UNL     1      12.518  10.765  17.326  1.00  0.00     0.275 HD
ENDBRANCH  25  26
BRANCH  25  30
HETATM   30  C12 UNL     1      10.919   9.272  19.199  1.00  0.00     0.204 C 
HETATM   31  O2  UNL     1      12.079   9.023  19.578  1.00  0.00    -0.646 OA
HETATM   32  O3  UNL     1       9.854   8.634  19.797  1.00  0.00    -0.646 OA
ENDBRANCH  25  30
ENDBRANCH  24  25
ENDBRANCH  23  24
ENDBRANCH  22  23
ENDBRANCH  21  22
ENDBRANCH   3  21
BRANCH   4  33
HETATM   33  O4  UNL     1       4.353   9.990  20.205  1.00  0.00    -0.390 OA
ATOM     34  H4  UNL     1       4.046  10.788  20.617  1.00  0.00     0.210 HD
ENDBRANCH   4  33
TORSDOF 10
ENDMDL
