MODEL 9
REMARK VINA RESULT: -6.184152329      2.758      6.528
REMARK  10 active torsions:
REMARK  status: ('A' for Active; 'I' for Inactive)
REMARK    1  A    between atoms: C5_8  and  C6_9 
REMARK    2  A    between atoms: C6_9  and  O2_10 
REMARK    3  A    between atoms: C7_12  and  O3_13 
REMARK    4  A    between atoms: C8_15  and  O4_16 
REMARK    5  A    between atoms: O4_16  and  C9_17 
REMARK    6  A    between atoms: C10_19  and  C11_20 
REMARK    7  A    between atoms: C11_20  and  O6_21 
REMARK    8  A    between atoms: C12_23  and  O7_24 
REMARK    9  A    between atoms: C13_26  and  O8_27 
REMARK   10  A    between atoms: C14_29  and  O9_30 
ROOT
HETATM    1  C1  UNL     1      63.418   2.819   1.456  1.00  0.00     0.076 C 
HETATM    2  C2  UNL     1      64.229   3.850   0.746  1.00  0.00     0.041 C 
HETATM    3  N1  UNL     1      65.432   4.159   0.873  1.00  0.00    -0.378 N 
ATOM      4  H1  UNL     1      66.016   3.670   1.553  1.00  0.00     0.160 HD
HETATM    5  C3  UNL     1      65.980   5.174   0.082  1.00  0.00     0.153 C 
HETATM    6  C4  UNL     1      64.923   6.221  -0.226  1.00  0.00     0.214 C 
HETATM    7  O1  UNL     1      65.302   6.871  -1.357  1.00  0.00    -0.363 OA
HETATM    8  C5  UNL     1      66.663   7.166  -1.397  1.00  0.00     0.178 C 
HETATM    9  C7  UNL     1      67.307   7.203  -0.045  1.00  0.00     0.180 C 
HETATM   10  C8  UNL     1      67.110   5.913   0.739  1.00  0.00     0.182 C 
HETATM   11  S1  UNL     1      63.583   4.980  -0.526  1.00  0.00    -0.083 SA
ENDROOT
BRANCH  10  12
HETATM   12  O4  UNL     1      68.297   5.221   0.736  1.00  0.00    -0.348 OA
BRANCH  12  13
HETATM   13  C9  UNL     1      68.820   5.035   2.026  1.00  0.00     0.292 C 
HETATM   14  O5  UNL     1      69.680   3.982   2.086  1.00  0.00    -0.348 OA
HETATM   15  C10 UNL     1      70.095   3.517   3.284  1.00  0.00     0.179 C 
HETATM   16  C12 UNL     1      68.974   3.201   4.237  1.00  0.00     0.180 C 
HETATM   17  C13 UNL     1      67.668   3.512   3.599  1.00  0.00     0.183 C 
HETATM   18  C14 UNL     1      67.655   4.855   2.966  1.00  0.00     0.204 C 
BRANCH  15  19
HETATM   19  C11 UNL     1      71.072   4.440   3.946  1.00  0.00     0.198 C 
BRANCH  19  20
HETATM   20  O6  UNL     1      72.387   4.082   3.878  1.00  0.00    -0.398 OA
ATOM     21  H6  UNL     1      72.614   3.431   3.225  1.00  0.00     0.209 HD
ENDBRANCH  19  20
ENDBRANCH  15  19
BRANCH  16  22
HETATM   22  O7  UNL     1      69.194   3.864   5.434  1.00  0.00    -0.390 OA
ATOM     23  H7  UNL     1      69.226   3.230   6.140  1.00  0.00     0.210 HD
ENDBRANCH  16  22
BRANCH  17  24
HETATM   24  O8  UNL     1      66.590   3.409   4.479  1.00  0.00    -0.390 OA
ATOM     25  H8  UNL     1      66.851   3.403   5.392  1.00  0.00     0.210 HD
ENDBRANCH  17  24
BRANCH  18  26
HETATM   26  O9  UNL     1      67.554   5.915   3.872  1.00  0.00    -0.388 OA
ATOM     27  H9  UNL     1      66.749   5.872   4.375  1.00  0.00     0.210 HD
ENDBRANCH  18  26
ENDBRANCH  12  13
ENDBRANCH  10  12
BRANCH   9  28
HETATM   28  O3  UNL     1      68.660   7.482  -0.233  1.00  0.00    -0.390 OA
ATOM     29  H3  UNL     1      68.847   8.299   0.214  1.00  0.00     0.210 HD
ENDBRANCH   9  28
BRANCH   8  30
HETATM   30  C6  UNL     1      66.775   8.584  -1.970  1.00  0.00     0.198 C 
BRANCH  30  31
HETATM   31  O2  UNL     1      67.553   8.553  -3.145  1.00  0.00    -0.398 OA
ATOM     32  H2  UNL     1      67.204   9.178  -3.770  1.00  0.00     0.209 HD
ENDBRANCH  30  31
ENDBRANCH   8  30
TORSDOF 10
ENDMDL
