MODEL 2
REMARK VINA RESULT: -7.316710796      2.794      6.724
REMARK  10 active torsions:
REMARK  status: ('A' for Active; 'I' for Inactive)
REMARK    1  A    between atoms: C5_8  and  C6_9 
REMARK    2  A    between atoms: C6_9  and  O2_10 
REMARK    3  A    between atoms: C7_12  and  O3_13 
REMARK    4  A    between atoms: C8_15  and  O4_16 
REMARK    5  A    between atoms: O4_16  and  C9_17 
REMARK    6  A    between atoms: C10_19  and  C11_20 
REMARK    7  A    between atoms: C11_20  and  O6_21 
REMARK    8  A    between atoms: C12_23  and  O7_24 
REMARK    9  A    between atoms: C13_26  and  O8_27 
REMARK   10  A    between atoms: C14_29  and  O9_30 
ROOT
HETATM    1  C1  UNL     1      63.807   3.418   1.477  1.00  0.00     0.076 C 
HETATM    2  C2  UNL     1      64.575   4.343   0.594  1.00  0.00     0.041 C 
HETATM    3  N1  UNL     1      65.505   5.132   0.865  1.00  0.00    -0.378 N 
ATOM      4  H1  UNL     1      65.846   5.209   1.823  1.00  0.00     0.160 HD
HETATM    5  C3  UNL     1      66.078   5.908  -0.147  1.00  0.00     0.153 C 
HETATM    6  C4  UNL     1      65.036   6.246  -1.199  1.00  0.00     0.214 C 
HETATM    7  O1  UNL     1      65.691   6.523  -2.357  1.00  0.00    -0.363 OA
HETATM    8  C5  UNL     1      66.832   7.301  -2.176  1.00  0.00     0.178 C 
HETATM    9  C7  UNL     1      66.821   8.092  -0.903  1.00  0.00     0.180 C 
HETATM   10  C8  UNL     1      66.622   7.224   0.331  1.00  0.00     0.182 C 
HETATM   11  S1  UNL     1      64.278   4.558  -1.189  1.00  0.00    -0.083 SA
ENDROOT
BRANCH  10  12
HETATM   12  O4  UNL     1      67.826   7.119   0.984  1.00  0.00    -0.348 OA
BRANCH  12  13
HETATM   13  C9  UNL     1      68.067   5.826   1.475  1.00  0.00     0.292 C 
HETATM   14  O5  UNL     1      67.903   5.748   2.823  1.00  0.00    -0.348 OA
HETATM   15  C10 UNL     1      68.316   4.649   3.491  1.00  0.00     0.179 C 
HETATM   16  C12 UNL     1      69.746   4.270   3.217  1.00  0.00     0.180 C 
HETATM   17  C13 UNL     1      70.341   5.219   2.240  1.00  0.00     0.183 C 
HETATM   18  C14 UNL     1      69.464   5.438   1.061  1.00  0.00     0.204 C 
BRANCH  15  19
HETATM   19  C11 UNL     1      67.428   3.467   3.246  1.00  0.00     0.198 C 
BRANCH  19  20
HETATM   20  O6  UNL     1      66.362   3.325   4.087  1.00  0.00    -0.398 OA
ATOM     21  H6  UNL     1      65.552   3.739   3.816  1.00  0.00     0.209 HD
ENDBRANCH  19  20
ENDBRANCH  15  19
BRANCH  16  22
HETATM   22  O7  UNL     1      69.798   2.942   2.822  1.00  0.00    -0.390 OA
ATOM     23  H7  UNL     1      70.022   2.403   3.571  1.00  0.00     0.210 HD
ENDBRANCH  16  22
BRANCH  17  24
HETATM   24  O8  UNL     1      71.609   4.835   1.803  1.00  0.00    -0.390 OA
ATOM     25  H8  UNL     1      71.959   5.402   1.126  1.00  0.00     0.210 HD
ENDBRANCH  17  24
BRANCH  18  26
HETATM   26  O9  UNL     1      69.457   4.379   0.148  1.00  0.00    -0.388 OA
ATOM     27  H9  UNL     1      69.842   4.630  -0.684  1.00  0.00     0.210 HD
ENDBRANCH  18  26
ENDBRANCH  12  13
ENDBRANCH  10  12
BRANCH   9  28
HETATM   28  O3  UNL     1      68.021   8.799  -0.840  1.00  0.00    -0.390 OA
ATOM     29  H3  UNL     1      68.562   8.383  -0.180  1.00  0.00     0.210 HD
ENDBRANCH   9  28
BRANCH   8  30
HETATM   30  C6  UNL     1      66.838   8.321  -3.321  1.00  0.00     0.198 C 
BRANCH  30  31
HETATM   31  O2  UNL     1      66.073   7.822  -4.394  1.00  0.00    -0.398 OA
ATOM     32  H2  UNL     1      66.380   8.208  -5.206  1.00  0.00     0.209 HD
ENDBRANCH  30  31
ENDBRANCH   8  30
TORSDOF 10
ENDMDL
