MODEL 12
REMARK VINA RESULT: -6.115478486      0.843      2.303
REMARK  10 active torsions:
REMARK  status: ('A' for Active; 'I' for Inactive)
REMARK    1  A    between atoms: C5_8  and  C6_9 
REMARK    2  A    between atoms: C6_9  and  O2_10 
REMARK    3  A    between atoms: C7_12  and  O3_13 
REMARK    4  A    between atoms: C8_15  and  O4_16 
REMARK    5  A    between atoms: O4_16  and  C9_17 
REMARK    6  A    between atoms: C10_19  and  C11_20 
REMARK    7  A    between atoms: C11_20  and  O6_21 
REMARK    8  A    between atoms: C12_23  and  O7_24 
REMARK    9  A    between atoms: C13_26  and  O8_27 
REMARK   10  A    between atoms: C14_29  and  O9_30 
ROOT
HETATM    1  C1  UNL     1      73.086   5.692   1.905  1.00  0.00     0.076 C 
HETATM    2  C2  UNL     1      71.869   4.935   2.318  1.00  0.00     0.041 C 
HETATM    3  N1  UNL     1      70.719   4.930   1.833  1.00  0.00    -0.378 N 
ATOM      4  H1  UNL     1      70.503   5.512   1.024  1.00  0.00     0.160 HD
HETATM    5  C3  UNL     1      69.726   4.124   2.399  1.00  0.00     0.153 C 
HETATM    6  C4  UNL     1      69.954   3.990   3.895  1.00  0.00     0.214 C 
HETATM    7  O1  UNL     1      69.340   2.851   4.307  1.00  0.00    -0.363 OA
HETATM    8  C5  UNL     1      68.083   2.660   3.735  1.00  0.00     0.178 C 
HETATM    9  C7  UNL     1      67.456   3.926   3.236  1.00  0.00     0.180 C 
HETATM   10  C8  UNL     1      68.337   4.670   2.243  1.00  0.00     0.182 C 
HETATM   11  S1  UNL     1      71.788   3.799   3.738  1.00  0.00    -0.083 SA
ENDROOT
BRANCH  10  12
HETATM   12  O4  UNL     1      67.813   4.495   0.985  1.00  0.00    -0.348 OA
BRANCH  12  13
HETATM   13  C9  UNL     1      67.016   5.575   0.573  1.00  0.00     0.292 C 
HETATM   14  O5  UNL     1      66.162   5.233  -0.430  1.00  0.00    -0.348 OA
HETATM   15  C10 UNL     1      65.491   6.192  -1.102  1.00  0.00     0.179 C 
HETATM   16  C12 UNL     1      66.371   7.281  -1.652  1.00  0.00     0.180 C 
HETATM   17  C13 UNL     1      67.787   7.019  -1.283  1.00  0.00     0.183 C 
HETATM   18  C14 UNL     1      67.943   6.690   0.157  1.00  0.00     0.204 C 
BRANCH  15  19
HETATM   19  C11 UNL     1      64.393   6.800  -0.283  1.00  0.00     0.198 C 
BRANCH  19  20
HETATM   20  O6  UNL     1      64.156   6.228   0.933  1.00  0.00    -0.398 OA
ATOM     21  H6  UNL     1      63.869   5.322   0.925  1.00  0.00     0.209 HD
ENDBRANCH  19  20
ENDBRANCH  15  19
BRANCH  16  22
HETATM   22  O7  UNL     1      65.893   8.511  -1.229  1.00  0.00    -0.390 OA
ATOM     23  H7  UNL     1      66.298   9.198  -1.746  1.00  0.00     0.210 HD
ENDBRANCH  16  22
BRANCH  17  24
HETATM   24  O8  UNL     1      68.643   8.071  -1.608  1.00  0.00    -0.390 OA
ATOM     25  H8  UNL     1      69.541   7.794  -1.747  1.00  0.00     0.210 HD
ENDBRANCH  17  24
BRANCH  18  26
HETATM   26  O9  UNL     1      67.842   7.792   1.011  1.00  0.00    -0.388 OA
ATOM     27  H9  UNL     1      68.153   8.588   0.595  1.00  0.00     0.210 HD
ENDBRANCH  18  26
ENDBRANCH  12  13
ENDBRANCH  10  12
BRANCH   9  28
HETATM   28  O3  UNL     1      66.226   3.588   2.672  1.00  0.00    -0.390 OA
ATOM     29  H3  UNL     1      65.713   4.385   2.610  1.00  0.00     0.210 HD
ENDBRANCH   9  28
BRANCH   8  30
HETATM   30  C6  UNL     1      67.179   2.140   4.858  1.00  0.00     0.198 C 
BRANCH  30  31
HETATM   31  O2  UNL     1      66.504   3.225   5.454  1.00  0.00    -0.398 OA
ATOM     32  H2  UNL     1      66.125   3.771   4.775  1.00  0.00     0.209 HD
ENDBRANCH  30  31
ENDBRANCH   8  30
TORSDOF 10
ENDMDL
