MODEL 4
REMARK VINA RESULT: -6.982003521      2.585      6.719
REMARK  10 active torsions:
REMARK  status: ('A' for Active; 'I' for Inactive)
REMARK    1  A    between atoms: C5_8  and  C6_9 
REMARK    2  A    between atoms: C6_9  and  O2_10 
REMARK    3  A    between atoms: C7_12  and  O3_13 
REMARK    4  A    between atoms: C8_15  and  O4_16 
REMARK    5  A    between atoms: O4_16  and  C9_17 
REMARK    6  A    between atoms: C10_19  and  C11_20 
REMARK    7  A    between atoms: C11_20  and  O6_21 
REMARK    8  A    between atoms: C12_23  and  O7_24 
REMARK    9  A    between atoms: C13_26  and  O8_27 
REMARK   10  A    between atoms: C14_29  and  O9_30 
ROOT
HETATM    1  C1  UNL     1      64.464   2.855   1.694  1.00  0.00     0.076 C 
HETATM    2  C2  UNL     1      65.150   3.914   0.898  1.00  0.00     0.041 C 
HETATM    3  N1  UNL     1      66.256   4.465   1.071  1.00  0.00    -0.378 N 
ATOM      4  H1  UNL     1      66.840   4.201   1.865  1.00  0.00     0.160 HD
HETATM    5  C3  UNL     1      66.695   5.446   0.176  1.00  0.00     0.153 C 
HETATM    6  C4  UNL     1      65.508   6.213  -0.380  1.00  0.00     0.214 C 
HETATM    7  O1  UNL     1      65.886   6.758  -1.566  1.00  0.00    -0.363 OA
HETATM    8  C5  UNL     1      67.167   7.304  -1.542  1.00  0.00     0.178 C 
HETATM    9  C7  UNL     1      67.641   7.656  -0.164  1.00  0.00     0.180 C 
HETATM   10  C8  UNL     1      67.595   6.476   0.796  1.00  0.00     0.182 C 
HETATM   11  S1  UNL     1      64.455   4.705  -0.588  1.00  0.00    -0.083 SA
ENDROOT
BRANCH  10  12
HETATM   12  O4  UNL     1      68.880   6.035   1.000  1.00  0.00    -0.348 OA
BRANCH  12  13
HETATM   13  C9  UNL     1      68.963   5.048   1.995  1.00  0.00     0.292 C 
HETATM   14  O5  UNL     1      68.452   5.469   3.184  1.00  0.00    -0.348 OA
HETATM   15  C10 UNL     1      68.658   4.743   4.303  1.00  0.00     0.179 C 
HETATM   16  C12 UNL     1      70.103   4.413   4.559  1.00  0.00     0.180 C 
HETATM   17  C13 UNL     1      70.948   4.972   3.472  1.00  0.00     0.183 C 
HETATM   18  C14 UNL     1      70.414   4.655   2.123  1.00  0.00     0.204 C 
BRANCH  15  19
HETATM   19  C11 UNL     1      67.845   3.484   4.322  1.00  0.00     0.198 C 
BRANCH  19  20
HETATM   20  O6  UNL     1      66.497   3.629   4.167  1.00  0.00    -0.398 OA
ATOM     21  H6  UNL     1      65.977   3.617   4.962  1.00  0.00     0.209 HD
ENDBRANCH  19  20
ENDBRANCH  15  19
BRANCH  16  22
HETATM   22  O7  UNL     1      70.235   3.044   4.734  1.00  0.00    -0.390 OA
ATOM     23  H7  UNL     1      71.064   2.862   5.160  1.00  0.00     0.210 HD
ENDBRANCH  16  22
BRANCH  17  24
HETATM   24  O8  UNL     1      72.280   4.563   3.545  1.00  0.00    -0.390 OA
ATOM     25  H8  UNL     1      72.658   4.366   2.696  1.00  0.00     0.210 HD
ENDBRANCH  17  24
BRANCH  18  26
HETATM   26  O9  UNL     1      70.629   3.334   1.718  1.00  0.00    -0.388 OA
ATOM     27  H9  UNL     1      69.962   3.041   1.107  1.00  0.00     0.210 HD
ENDBRANCH  18  26
ENDBRANCH  12  13
ENDBRANCH  10  12
BRANCH   9  28
HETATM   28  O3  UNL     1      68.934   8.164  -0.284  1.00  0.00    -0.390 OA
ATOM     29  H3  UNL     1      68.991   8.931   0.274  1.00  0.00     0.210 HD
ENDBRANCH   9  28
BRANCH   8  30
HETATM   30  C6  UNL     1      67.084   8.621  -2.321  1.00  0.00     0.198 C 
BRANCH  30  31
HETATM   31  O2  UNL     1      67.510   8.406  -3.648  1.00  0.00    -0.398 OA
ATOM     32  H2  UNL     1      68.313   8.890  -3.803  1.00  0.00     0.209 HD
ENDBRANCH  30  31
ENDBRANCH   8  30
TORSDOF 10
ENDMDL
