MODEL 5
REMARK VINA RESULT: -6.942940924      1.147      2.481
REMARK  10 active torsions:
REMARK  status: ('A' for Active; 'I' for Inactive)
REMARK    1  A    between atoms: C5_8  and  C6_9 
REMARK    2  A    between atoms: C6_9  and  O2_10 
REMARK    3  A    between atoms: C7_12  and  O3_13 
REMARK    4  A    between atoms: C8_15  and  O4_16 
REMARK    5  A    between atoms: O4_16  and  C9_17 
REMARK    6  A    between atoms: C10_19  and  C11_20 
REMARK    7  A    between atoms: C11_20  and  O6_21 
REMARK    8  A    between atoms: C12_23  and  O7_24 
REMARK    9  A    between atoms: C13_26  and  O8_27 
REMARK   10  A    between atoms: C14_29  and  O9_30 
ROOT
HETATM    1  C1  UNL     1      73.438   5.453   2.524  1.00  0.00     0.076 C 
HETATM    2  C2  UNL     1      72.094   4.818   2.646  1.00  0.00     0.041 C 
HETATM    3  N1  UNL     1      71.044   5.021   2.003  1.00  0.00    -0.378 N 
ATOM      4  H1  UNL     1      71.026   5.721   1.261  1.00  0.00     0.160 HD
HETATM    5  C3  UNL     1      69.890   4.289   2.302  1.00  0.00     0.153 C 
HETATM    6  C4  UNL     1      69.859   3.947   3.781  1.00  0.00     0.214 C 
HETATM    7  O1  UNL     1      69.064   2.855   3.937  1.00  0.00    -0.363 OA
HETATM    8  C5  UNL     1      67.903   2.901   3.168  1.00  0.00     0.178 C 
HETATM    9  C7  UNL     1      67.507   4.289   2.765  1.00  0.00     0.180 C 
HETATM   10  C8  UNL     1      68.613   5.027   2.024  1.00  0.00     0.182 C 
HETATM   11  S1  UNL     1      71.662   3.538   3.867  1.00  0.00    -0.083 SA
ENDROOT
BRANCH  10  12
HETATM   12  O4  UNL     1      68.282   5.076   0.691  1.00  0.00    -0.348 OA
BRANCH  12  13
HETATM   13  C9  UNL     1      67.755   6.319   0.307  1.00  0.00     0.292 C 
HETATM   14  O5  UNL     1      66.589   6.194  -0.382  1.00  0.00    -0.348 OA
HETATM   15  C10 UNL     1      66.067   7.261  -1.025  1.00  0.00     0.179 C 
HETATM   16  C12 UNL     1      67.033   7.947  -1.952  1.00  0.00     0.180 C 
HETATM   17  C13 UNL     1      68.352   7.264  -1.901  1.00  0.00     0.183 C 
HETATM   18  C14 UNL     1      68.810   7.025  -0.509  1.00  0.00     0.204 C 
BRANCH  15  19
HETATM   19  C11 UNL     1      65.480   8.264  -0.080  1.00  0.00     0.198 C 
BRANCH  19  20
HETATM   20  O6  UNL     1      64.464   9.035  -0.567  1.00  0.00    -0.398 OA
ATOM     21  H6  UNL     1      63.771   8.578  -1.027  1.00  0.00     0.209 HD
ENDBRANCH  19  20
ENDBRANCH  15  19
BRANCH  16  22
HETATM   22  O7  UNL     1      67.080   9.297  -1.644  1.00  0.00    -0.390 OA
ATOM     23  H7  UNL     1      66.377   9.746  -2.099  1.00  0.00     0.210 HD
ENDBRANCH  16  22
BRANCH  17  24
HETATM   24  O8  UNL     1      69.349   7.943  -2.601  1.00  0.00    -0.390 OA
ATOM     25  H8  UNL     1      69.040   8.743  -3.011  1.00  0.00     0.210 HD
ENDBRANCH  17  24
BRANCH  18  26
HETATM   26  O9  UNL     1      69.287   8.167   0.141  1.00  0.00    -0.388 OA
ATOM     27  H9  UNL     1      70.041   8.536  -0.305  1.00  0.00     0.210 HD
ENDBRANCH  18  26
ENDBRANCH  12  13
ENDBRANCH  10  12
BRANCH   9  28
HETATM   28  O3  UNL     1      66.354   4.186   1.987  1.00  0.00    -0.390 OA
ATOM     29  H3  UNL     1      65.653   4.619   2.459  1.00  0.00     0.210 HD
ENDBRANCH   9  28
BRANCH   8  30
HETATM   30  C6  UNL     1      66.777   2.372   4.064  1.00  0.00     0.198 C 
BRANCH  30  31
HETATM   31  O2  UNL     1      66.414   3.367   4.994  1.00  0.00    -0.398 OA
ATOM     32  H2  UNL     1      66.066   4.120   4.530  1.00  0.00     0.209 HD
ENDBRANCH  30  31
ENDBRANCH   8  30
TORSDOF 10
ENDMDL
