MODEL 19
REMARK VINA RESULT: -7.032753732      2.714      3.783
REMARK  13 active torsions:
REMARK  status: ('A' for Active; 'I' for Inactive)
REMARK    1  A    between atoms: C2_2  and  C3_3 
REMARK    2  A    between atoms: C3_3  and  C4_4 
REMARK    3  A    between atoms: C4_4  and  C5_5 
REMARK    4  A    between atoms: C5_5  and  C6_6 
REMARK    5  A    between atoms: C6_6  and  C7_7 
REMARK    6  A    between atoms: C6_6  and  C9_14 
REMARK    7  A    between atoms: C7_7  and  C8_8 
REMARK       I    between atoms: C8_8  and  N1_10 
REMARK    8  A    between atoms: N1_10  and  O2_12 
REMARK       I    between atoms: C9_14  and  N2_16 
REMARK    9  A    between atoms: N2_16  and  C10_18 
REMARK   10  A    between atoms: C10_18  and  C11_19 
REMARK   11  A    between atoms: C10_18  and  C17_29 
REMARK       I    between atoms: C11_19  and  N3_21 
REMARK   12  A    between atoms: C15_25  and  C16_26 
REMARK   13  A    between atoms: C16_26  and  O5_27 
ROOT
HETATM    1  C9  UNL     1       9.045  -6.493 -17.811  1.00  0.00     0.223 C 
HETATM    2  O3  UNL     1       9.997  -6.451 -18.637  1.00  0.00    -0.273 OA
HETATM    3  N2  UNL     1       8.053  -5.478 -17.946  1.00  0.00    -0.347 N 
ATOM      4  H2  UNL     1       7.256  -5.458 -17.309  1.00  0.00     0.163 HD
ENDROOT
BRANCH   3   5
HETATM    5  C10 UNL     1       8.177  -4.466 -18.994  1.00  0.00     0.180 C 
BRANCH   5   6
HETATM    6  C11 UNL     1       8.733  -3.207 -18.469  1.00  0.00     0.243 C 
HETATM    7  O4  UNL     1      10.003  -3.230 -18.231  1.00  0.00    -0.271 OA
HETATM    8  N3  UNL     1       7.995  -2.036 -18.225  1.00  0.00    -0.344 N 
HETATM    9  C12 UNL     1       8.541  -0.801 -17.638  1.00  0.00     0.126 C 
HETATM   10  C15 UNL     1       6.624  -1.708 -18.488  1.00  0.00     0.111 C 
HETATM   11  C13 UNL     1       7.391  -0.299 -16.787  1.00  0.00     0.022 C 
HETATM   12  C14 UNL     1       6.162  -1.096 -17.175  1.00  0.00     0.029 C 
BRANCH  10  13
HETATM   13  C16 UNL     1       6.538  -0.539 -19.497  1.00  0.00     0.189 C 
BRANCH  13  14
HETATM   14  O5  UNL     1       5.245  -0.113 -19.683  1.00  0.00    -0.399 OA
ATOM     15  H5  UNL     1       5.035   0.637 -19.139  1.00  0.00     0.209 HD
ENDBRANCH  13  14
ENDBRANCH  10  13
ENDBRANCH   5   6
BRANCH   5  16
HETATM   16  C17 UNL     1       6.793  -4.203 -19.582  1.00  0.00     0.009 C 
HETATM   17  C18 UNL     1       6.818  -4.264 -21.082  1.00  0.00     0.012 C 
HETATM   18  C19 UNL     1       5.794  -5.178 -18.992  1.00  0.00     0.012 C 
ENDBRANCH   5  16
ENDBRANCH   3   5
BRANCH   1  19
HETATM   19  C6  UNL     1       9.026  -7.552 -16.797  1.00  0.00     0.086 C 
BRANCH  19  20
HETATM   20  C5  UNL     1       7.686  -7.582 -16.122  1.00  0.00     0.014 C 
BRANCH  20  21
HETATM   21  C4  UNL     1       7.076  -8.917 -16.000  1.00  0.00     0.001 C 
BRANCH  21  22
HETATM   22  C3  UNL     1       6.441  -9.407 -17.270  1.00  0.00    -0.000 C 
BRANCH  22  23
HETATM   23  C2  UNL     1       5.315  -8.511 -17.676  1.00  0.00    -0.005 C 
HETATM   24  C1  UNL     1       4.701  -9.123 -18.928  1.00  0.00     0.005 C 
ENDBRANCH  22  23
ENDBRANCH  21  22
ENDBRANCH  20  21
ENDBRANCH  19  20
BRANCH  19  25
HETATM   25  C7  UNL     1      10.210  -7.468 -15.921  1.00  0.00     0.119 C 
BRANCH  25  26
HETATM   26  C8  UNL     1      10.788  -8.784 -15.625  1.00  0.00     0.241 C 
HETATM   27  O1  UNL     1      11.458  -9.456 -16.448  1.00  0.00    -0.271 OA
HETATM   28  N1  UNL     1      10.574  -9.333 -14.320  1.00  0.00    -0.237 N 
ATOM     29  H1  UNL     1      10.037  -8.824 -13.619  1.00  0.00     0.197 HD
BRANCH  28  30
HETATM   30  O2  UNL     1      11.102 -10.539 -14.045  1.00  0.00    -0.287 OA
ATOM     31  H2  UNL     1      11.796 -10.587 -13.398  1.00  0.00     0.244 HD
ENDBRANCH  28  30
ENDBRANCH  25  26
ENDBRANCH  19  25
ENDBRANCH   1  19
TORSDOF 13
ENDMDL
