MODEL 14
REMARK VINA RESULT: -7.207831812      2.746      6.004
REMARK  13 active torsions:
REMARK  status: ('A' for Active; 'I' for Inactive)
REMARK    1  A    between atoms: C2_2  and  C3_3 
REMARK    2  A    between atoms: C3_3  and  C4_4 
REMARK    3  A    between atoms: C4_4  and  C5_5 
REMARK    4  A    between atoms: C5_5  and  C6_6 
REMARK    5  A    between atoms: C6_6  and  C7_7 
REMARK    6  A    between atoms: C6_6  and  C9_14 
REMARK    7  A    between atoms: C7_7  and  C8_8 
REMARK       I    between atoms: C8_8  and  N1_10 
REMARK    8  A    between atoms: N1_10  and  O2_12 
REMARK       I    between atoms: C9_14  and  N2_16 
REMARK    9  A    between atoms: N2_16  and  C10_18 
REMARK   10  A    between atoms: C10_18  and  C11_19 
REMARK   11  A    between atoms: C10_18  and  C17_29 
REMARK       I    between atoms: C11_19  and  N3_21 
REMARK   12  A    between atoms: C15_25  and  C16_26 
REMARK   13  A    between atoms: C16_26  and  O5_27 
ROOT
HETATM    1  C9  UNL     1       8.775  -4.128 -18.471  1.00  0.00     0.223 C 
HETATM    2  O3  UNL     1       8.466  -4.244 -17.253  1.00  0.00    -0.273 OA
HETATM    3  N2  UNL     1       7.972  -4.860 -19.393  1.00  0.00    -0.347 N 
ATOM      4  H2  UNL     1       8.168  -4.807 -20.392  1.00  0.00     0.163 HD
ENDROOT
BRANCH   3   5
HETATM    5  C10 UNL     1       6.866  -5.686 -18.908  1.00  0.00     0.180 C 
BRANCH   5   6
HETATM    6  C11 UNL     1       7.005  -7.087 -19.343  1.00  0.00     0.243 C 
HETATM    7  O4  UNL     1       7.489  -7.243 -20.530  1.00  0.00    -0.271 OA
HETATM    8  N3  UNL     1       6.658  -8.212 -18.573  1.00  0.00    -0.344 N 
HETATM    9  C12 UNL     1       6.737  -9.607 -19.036  1.00  0.00     0.126 C 
HETATM   10  C15 UNL     1       6.205  -8.329 -17.218  1.00  0.00     0.111 C 
HETATM   11  C13 UNL     1       5.531 -10.246 -18.375  1.00  0.00     0.022 C 
HETATM   12  C14 UNL     1       5.016  -9.269 -17.337  1.00  0.00     0.029 C 
BRANCH  10  13
HETATM   13  C16 UNL     1       7.231  -9.126 -16.379  1.00  0.00     0.189 C 
BRANCH  13  14
HETATM   14  O5  UNL     1       7.195  -8.773 -15.051  1.00  0.00    -0.399 OA
ATOM     15  H5  UNL     1       7.962  -8.273 -14.795  1.00  0.00     0.209 HD
ENDBRANCH  13  14
ENDBRANCH  10  13
ENDBRANCH   5   6
BRANCH   5  16
HETATM   16  C17 UNL     1       5.558  -5.115 -19.449  1.00  0.00     0.009 C 
HETATM   17  C18 UNL     1       5.040  -4.013 -18.571  1.00  0.00     0.012 C 
HETATM   18  C19 UNL     1       5.756  -4.654 -20.880  1.00  0.00     0.012 C 
ENDBRANCH   5  16
ENDBRANCH   3   5
BRANCH   1  19
HETATM   19  C6  UNL     1       9.908  -3.274 -18.842  1.00  0.00     0.086 C 
BRANCH  19  20
HETATM   20  C5  UNL     1       9.552  -1.835 -18.617  1.00  0.00     0.014 C 
BRANCH  20  21
HETATM   21  C4  UNL     1       8.306  -1.388 -19.263  1.00  0.00     0.001 C 
BRANCH  21  22
HETATM   22  C3  UNL     1       7.341  -0.730 -18.320  1.00  0.00    -0.000 C 
BRANCH  22  23
HETATM   23  C2  UNL     1       7.824  -0.841 -16.909  1.00  0.00    -0.005 C 
HETATM   24  C1  UNL     1       8.044   0.580 -16.410  1.00  0.00     0.005 C 
ENDBRANCH  22  23
ENDBRANCH  21  22
ENDBRANCH  20  21
ENDBRANCH  19  20
BRANCH  19  25
HETATM   25  C7  UNL     1      10.423  -3.631 -20.178  1.00  0.00     0.119 C 
BRANCH  25  26
HETATM   26  C8  UNL     1      11.764  -4.228 -20.125  1.00  0.00     0.241 C 
HETATM   27  O1  UNL     1      12.787  -3.694 -20.618  1.00  0.00    -0.271 OA
HETATM   28  N1  UNL     1      11.909  -5.493 -19.471  1.00  0.00    -0.237 N 
ATOM     29  H1  UNL     1      11.106  -5.963 -19.055  1.00  0.00     0.197 HD
BRANCH  28  30
HETATM   30  O2  UNL     1      13.136  -6.043 -19.420  1.00  0.00    -0.287 OA
ATOM     31  H2  UNL     1      13.409  -6.454 -18.608  1.00  0.00     0.244 HD
ENDBRANCH  28  30
ENDBRANCH  25  26
ENDBRANCH  19  25
ENDBRANCH   1  19
TORSDOF 13
ENDMDL
