MODEL 9
REMARK VINA RESULT: -7.474496140      2.190      3.014
REMARK  13 active torsions:
REMARK  status: ('A' for Active; 'I' for Inactive)
REMARK    1  A    between atoms: C2_2  and  C3_3 
REMARK    2  A    between atoms: C3_3  and  C4_4 
REMARK    3  A    between atoms: C4_4  and  C5_5 
REMARK    4  A    between atoms: C5_5  and  C6_6 
REMARK    5  A    between atoms: C6_6  and  C7_7 
REMARK    6  A    between atoms: C6_6  and  C9_14 
REMARK    7  A    between atoms: C7_7  and  C8_8 
REMARK       I    between atoms: C8_8  and  N1_10 
REMARK    8  A    between atoms: N1_10  and  O2_12 
REMARK       I    between atoms: C9_14  and  N2_16 
REMARK    9  A    between atoms: N2_16  and  C10_18 
REMARK   10  A    between atoms: C10_18  and  C11_19 
REMARK   11  A    between atoms: C10_18  and  C17_29 
REMARK       I    between atoms: C11_19  and  N3_21 
REMARK   12  A    between atoms: C15_25  and  C16_26 
REMARK   13  A    between atoms: C16_26  and  O5_27 
ROOT
HETATM    1  C9  UNL     1       9.262  -6.102 -17.572  1.00  0.00     0.223 C 
HETATM    2  O3  UNL     1       8.896  -5.136 -16.848  1.00  0.00    -0.273 OA
HETATM    3  N2  UNL     1       9.909  -5.758 -18.795  1.00  0.00    -0.347 N 
ATOM      4  H2  UNL     1      10.230  -6.494 -19.424  1.00  0.00     0.163 HD
ENDROOT
BRANCH   3   5
HETATM    5  C10 UNL     1      10.111  -4.353 -19.148  1.00  0.00     0.180 C 
BRANCH   5   6
HETATM    6  C11 UNL     1       8.872  -3.738 -19.654  1.00  0.00     0.243 C 
HETATM    7  O4  UNL     1       8.241  -4.433 -20.541  1.00  0.00    -0.271 OA
HETATM    8  N3  UNL     1       8.359  -2.494 -19.242  1.00  0.00    -0.344 N 
HETATM    9  C12 UNL     1       7.156  -1.852 -19.797  1.00  0.00     0.126 C 
HETATM   10  C15 UNL     1       8.791  -1.582 -18.224  1.00  0.00     0.111 C 
HETATM   11  C13 UNL     1       7.526  -0.382 -19.782  1.00  0.00     0.022 C 
HETATM   12  C14 UNL     1       8.779  -0.241 -18.940  1.00  0.00     0.029 C 
BRANCH  10  13
HETATM   13  C16 UNL     1       7.699  -1.437 -17.138  1.00  0.00     0.189 C 
BRANCH  13  14
HETATM   14  O5  UNL     1       8.038  -0.503 -16.189  1.00  0.00    -0.399 OA
ATOM     15  H5  UNL     1       7.353  -0.390 -15.541  1.00  0.00     0.209 HD
ENDBRANCH  13  14
ENDBRANCH  10  13
ENDBRANCH   5   6
BRANCH   5  16
HETATM   16  C17 UNL     1      11.192  -4.273 -20.223  1.00  0.00     0.009 C 
HETATM   17  C18 UNL     1      12.027  -3.036 -20.065  1.00  0.00     0.012 C 
HETATM   18  C19 UNL     1      12.034  -5.533 -20.196  1.00  0.00     0.012 C 
ENDBRANCH   5  16
ENDBRANCH   3   5
BRANCH   1  19
HETATM   19  C6  UNL     1       9.002  -7.472 -17.119  1.00  0.00     0.086 C 
BRANCH  19  20
HETATM   20  C5  UNL     1       7.578  -7.841 -17.413  1.00  0.00     0.014 C 
BRANCH  20  21
HETATM   21  C4  UNL     1       7.203  -9.221 -17.062  1.00  0.00     0.001 C 
BRANCH  21  22
HETATM   22  C3  UNL     1       5.719  -9.454 -17.043  1.00  0.00    -0.000 C 
BRANCH  22  23
HETATM   23  C2  UNL     1       5.020  -8.474 -17.929  1.00  0.00    -0.005 C 
HETATM   24  C1  UNL     1       4.654  -9.222 -19.204  1.00  0.00     0.005 C 
ENDBRANCH  22  23
ENDBRANCH  21  22
ENDBRANCH  20  21
ENDBRANCH  19  20
BRANCH  19  25
HETATM   25  C7  UNL     1       9.468  -7.669 -15.733  1.00  0.00     0.119 C 
BRANCH  25  26
HETATM   26  C8  UNL     1      10.346  -8.837 -15.593  1.00  0.00     0.241 C 
HETATM   27  O1  UNL     1      11.007  -9.333 -16.539  1.00  0.00    -0.271 OA
HETATM   28  N1  UNL     1      10.452  -9.446 -14.302  1.00  0.00    -0.237 N 
ATOM     29  H1  UNL     1       9.934  -9.077 -13.504  1.00  0.00     0.197 HD
BRANCH  28  30
HETATM   30  O2  UNL     1      11.255 -10.517 -14.170  1.00  0.00    -0.287 OA
ATOM     31  H2  UNL     1      10.991 -11.329 -14.586  1.00  0.00     0.244 HD
ENDBRANCH  28  30
ENDBRANCH  25  26
ENDBRANCH  19  25
ENDBRANCH   1  19
TORSDOF 13
ENDMDL
