MODEL 20
REMARK VINA RESULT: -7.025719492      1.605      4.230
REMARK  13 active torsions:
REMARK  status: ('A' for Active; 'I' for Inactive)
REMARK    1  A    between atoms: C2_2  and  C3_3 
REMARK    2  A    between atoms: C3_3  and  C4_4 
REMARK    3  A    between atoms: C4_4  and  C5_5 
REMARK    4  A    between atoms: C5_5  and  C6_6 
REMARK    5  A    between atoms: C6_6  and  C7_7 
REMARK    6  A    between atoms: C6_6  and  C9_14 
REMARK    7  A    between atoms: C7_7  and  C8_8 
REMARK       I    between atoms: C8_8  and  N1_10 
REMARK    8  A    between atoms: N1_10  and  O2_12 
REMARK       I    between atoms: C9_14  and  N2_16 
REMARK    9  A    between atoms: N2_16  and  C10_18 
REMARK   10  A    between atoms: C10_18  and  C11_19 
REMARK   11  A    between atoms: C10_18  and  C17_29 
REMARK       I    between atoms: C11_19  and  N3_21 
REMARK   12  A    between atoms: C15_25  and  C16_26 
REMARK   13  A    between atoms: C16_26  and  O5_27 
ROOT
HETATM    1  C9  UNL     1       9.058  -6.210 -17.510  1.00  0.00     0.223 C 
HETATM    2  O3  UNL     1       8.470  -5.301 -16.862  1.00  0.00    -0.273 OA
HETATM    3  N2  UNL     1       8.534  -6.495 -18.804  1.00  0.00    -0.347 N 
ATOM      4  H2  UNL     1       8.965  -7.218 -19.380  1.00  0.00     0.163 HD
ENDROOT
BRANCH   3   5
HETATM    5  C10 UNL     1       7.379  -5.752 -19.309  1.00  0.00     0.180 C 
BRANCH   5   6
HETATM    6  C11 UNL     1       6.354  -6.653 -19.862  1.00  0.00     0.243 C 
HETATM    7  O4  UNL     1       5.944  -6.350 -21.048  1.00  0.00    -0.271 OA
HETATM    8  N3  UNL     1       5.821  -7.775 -19.202  1.00  0.00    -0.344 N 
HETATM    9  C12 UNL     1       4.749  -8.635 -19.731  1.00  0.00     0.126 C 
HETATM   10  C15 UNL     1       6.160  -8.386 -17.949  1.00  0.00     0.111 C 
HETATM   11  C13 UNL     1       3.966  -8.996 -18.484  1.00  0.00     0.022 C 
HETATM   12  C14 UNL     1       4.804  -8.584 -17.290  1.00  0.00     0.029 C 
BRANCH  10  13
HETATM   13  C16 UNL     1       6.677  -9.826 -18.180  1.00  0.00     0.189 C 
BRANCH  13  14
HETATM   14  O5  UNL     1       7.687  -9.866 -19.111  1.00  0.00    -0.399 OA
ATOM     15  H5  UNL     1       8.320 -10.547 -18.920  1.00  0.00     0.209 HD
ENDBRANCH  13  14
ENDBRANCH  10  13
ENDBRANCH   5   6
BRANCH   5  16
HETATM   16  C17 UNL     1       7.855  -4.795 -20.399  1.00  0.00     0.009 C 
HETATM   17  C18 UNL     1       8.261  -3.470 -19.822  1.00  0.00     0.012 C 
HETATM   18  C19 UNL     1       8.978  -5.438 -21.188  1.00  0.00     0.012 C 
ENDBRANCH   5  16
ENDBRANCH   3   5
BRANCH   1  19
HETATM   19  C6  UNL     1      10.204  -6.893 -16.903  1.00  0.00     0.086 C 
BRANCH  19  20
HETATM   20  C5  UNL     1      11.467  -6.479 -17.599  1.00  0.00     0.014 C 
BRANCH  20  21
HETATM   21  C4  UNL     1      11.282  -5.571 -18.744  1.00  0.00     0.001 C 
BRANCH  21  22
HETATM   22  C3  UNL     1      12.221  -5.842 -19.884  1.00  0.00    -0.000 C 
BRANCH  22  23
HETATM   23  C2  UNL     1      12.858  -4.575 -20.356  1.00  0.00    -0.005 C 
HETATM   24  C1  UNL     1      11.896  -3.447 -20.008  1.00  0.00     0.005 C 
ENDBRANCH  22  23
ENDBRANCH  21  22
ENDBRANCH  20  21
ENDBRANCH  19  20
BRANCH  19  25
HETATM   25  C7  UNL     1       9.955  -8.342 -16.784  1.00  0.00     0.119 C 
BRANCH  25  26
HETATM   26  C8  UNL     1      10.811  -8.982 -15.777  1.00  0.00     0.241 C 
HETATM   27  O1  UNL     1      11.935  -9.480 -16.028  1.00  0.00    -0.271 OA
HETATM   28  N1  UNL     1      10.332  -9.038 -14.429  1.00  0.00    -0.237 N 
ATOM     29  H1  UNL     1       9.425  -8.646 -14.177  1.00  0.00     0.197 HD
BRANCH  28  30
HETATM   30  O2  UNL     1      11.114  -9.623 -13.503  1.00  0.00    -0.287 OA
ATOM     31  H2  UNL     1      10.853 -10.473 -13.169  1.00  0.00     0.244 HD
ENDBRANCH  28  30
ENDBRANCH  25  26
ENDBRANCH  19  25
ENDBRANCH   1  19
TORSDOF 13
ENDMDL
