MODEL 10
REMARK VINA RESULT: -7.465212304      2.322      3.384
REMARK  13 active torsions:
REMARK  status: ('A' for Active; 'I' for Inactive)
REMARK    1  A    between atoms: C2_2  and  C3_3 
REMARK    2  A    between atoms: C3_3  and  C4_4 
REMARK    3  A    between atoms: C4_4  and  C5_5 
REMARK    4  A    between atoms: C5_5  and  C6_6 
REMARK    5  A    between atoms: C6_6  and  C7_7 
REMARK    6  A    between atoms: C6_6  and  C9_14 
REMARK    7  A    between atoms: C7_7  and  C8_8 
REMARK       I    between atoms: C8_8  and  N1_10 
REMARK    8  A    between atoms: N1_10  and  O2_12 
REMARK       I    between atoms: C9_14  and  N2_16 
REMARK    9  A    between atoms: N2_16  and  C10_18 
REMARK   10  A    between atoms: C10_18  and  C11_19 
REMARK   11  A    between atoms: C10_18  and  C17_29 
REMARK       I    between atoms: C11_19  and  N3_21 
REMARK   12  A    between atoms: C15_25  and  C16_26 
REMARK   13  A    between atoms: C16_26  and  O5_27 
ROOT
HETATM    1  C9  UNL     1       9.199  -6.323 -17.722  1.00  0.00     0.223 C 
HETATM    2  O3  UNL     1      10.274  -5.665 -17.762  1.00  0.00    -0.273 OA
HETATM    3  N2  UNL     1       8.106  -5.781 -18.459  1.00  0.00    -0.347 N 
ATOM      4  H2  UNL     1       7.209  -6.266 -18.468  1.00  0.00     0.163 HD
ENDROOT
BRANCH   3   5
HETATM    5  C10 UNL     1       8.268  -4.531 -19.200  1.00  0.00     0.180 C 
BRANCH   5   6
HETATM    6  C11 UNL     1       7.182  -3.580 -18.905  1.00  0.00     0.243 C 
HETATM    7  O4  UNL     1       6.120  -4.109 -18.395  1.00  0.00    -0.271 OA
HETATM    8  N3  UNL     1       7.234  -2.194 -19.135  1.00  0.00    -0.344 N 
HETATM    9  C12 UNL     1       6.123  -1.257 -18.900  1.00  0.00     0.126 C 
HETATM   10  C15 UNL     1       8.301  -1.348 -19.586  1.00  0.00     0.111 C 
HETATM   11  C13 UNL     1       6.278  -0.264 -20.036  1.00  0.00     0.022 C 
HETATM   12  C14 UNL     1       7.636  -0.507 -20.664  1.00  0.00     0.029 C 
BRANCH  10  13
HETATM   13  C16 UNL     1       8.672  -0.324 -18.488  1.00  0.00     0.189 C 
BRANCH  13  14
HETATM   14  O5  UNL     1       8.881  -0.928 -17.271  1.00  0.00    -0.399 OA
ATOM     15  H5  UNL     1       9.260  -0.331 -16.638  1.00  0.00     0.209 HD
ENDBRANCH  13  14
ENDBRANCH  10  13
ENDBRANCH   5   6
BRANCH   5  16
HETATM   16  C17 UNL     1       8.272  -4.848 -20.693  1.00  0.00     0.009 C 
HETATM   17  C18 UNL     1       9.668  -5.072 -21.199  1.00  0.00     0.012 C 
HETATM   18  C19 UNL     1       7.373  -6.038 -20.965  1.00  0.00     0.012 C 
ENDBRANCH   5  16
ENDBRANCH   3   5
BRANCH   1  19
HETATM   19  C6  UNL     1       9.149  -7.563 -16.941  1.00  0.00     0.086 C 
BRANCH  19  20
HETATM   20  C5  UNL     1       7.724  -7.897 -16.614  1.00  0.00     0.014 C 
BRANCH  20  21
HETATM   21  C4  UNL     1       7.258  -9.206 -17.105  1.00  0.00     0.001 C 
BRANCH  21  22
HETATM   22  C3  UNL     1       5.817  -9.488 -16.791  1.00  0.00    -0.000 C 
BRANCH  22  23
HETATM   23  C2  UNL     1       5.136 -10.120 -17.962  1.00  0.00    -0.005 C 
HETATM   24  C1  UNL     1       4.535  -8.987 -18.782  1.00  0.00     0.005 C 
ENDBRANCH  22  23
ENDBRANCH  21  22
ENDBRANCH  20  21
ENDBRANCH  19  20
BRANCH  19  25
HETATM   25  C7  UNL     1      10.097  -7.515 -15.811  1.00  0.00     0.119 C 
BRANCH  25  26
HETATM   26  C8  UNL     1      10.745  -8.809 -15.564  1.00  0.00     0.241 C 
HETATM   27  O1  UNL     1      11.418  -9.430 -16.423  1.00  0.00    -0.271 OA
HETATM   28  N1  UNL     1      10.599  -9.395 -14.266  1.00  0.00    -0.237 N 
ATOM     29  H1  UNL     1      10.062  -8.927 -13.537  1.00  0.00     0.197 HD
BRANCH  28  30
HETATM   30  O2  UNL     1      11.191 -10.581 -14.035  1.00  0.00    -0.287 OA
ATOM     31  H2  UNL     1      10.935 -11.321 -14.573  1.00  0.00     0.244 HD
ENDBRANCH  28  30
ENDBRANCH  25  26
ENDBRANCH  19  25
ENDBRANCH   1  19
TORSDOF 13
ENDMDL
