MODEL 12
REMARK VINA RESULT: -7.386080868      2.470      5.753
REMARK  13 active torsions:
REMARK  status: ('A' for Active; 'I' for Inactive)
REMARK    1  A    between atoms: C2_2  and  C3_3 
REMARK    2  A    between atoms: C3_3  and  C4_4 
REMARK    3  A    between atoms: C4_4  and  C5_5 
REMARK    4  A    between atoms: C5_5  and  C6_6 
REMARK    5  A    between atoms: C6_6  and  C7_7 
REMARK    6  A    between atoms: C6_6  and  C9_14 
REMARK    7  A    between atoms: C7_7  and  C8_8 
REMARK       I    between atoms: C8_8  and  N1_10 
REMARK    8  A    between atoms: N1_10  and  O2_12 
REMARK       I    between atoms: C9_14  and  N2_16 
REMARK    9  A    between atoms: N2_16  and  C10_18 
REMARK   10  A    between atoms: C10_18  and  C11_19 
REMARK   11  A    between atoms: C10_18  and  C17_29 
REMARK       I    between atoms: C11_19  and  N3_21 
REMARK   12  A    between atoms: C15_25  and  C16_26 
REMARK   13  A    between atoms: C16_26  and  O5_27 
ROOT
HETATM    1  C9  UNL     1       9.357  -5.010 -18.584  1.00  0.00     0.223 C 
HETATM    2  O3  UNL     1       9.113  -5.466 -17.433  1.00  0.00    -0.273 OA
HETATM    3  N2  UNL     1       8.280  -5.052 -19.515  1.00  0.00    -0.347 N 
ATOM      4  H2  UNL     1       8.412  -4.697 -20.462  1.00  0.00     0.163 HD
ENDROOT
BRANCH   3   5
HETATM    5  C10 UNL     1       6.985  -5.603 -19.115  1.00  0.00     0.180 C 
BRANCH   5   6
HETATM    6  C11 UNL     1       6.846  -7.011 -19.524  1.00  0.00     0.243 C 
HETATM    7  O4  UNL     1       6.800  -7.206 -20.800  1.00  0.00    -0.271 OA
HETATM    8  N3  UNL     1       6.765  -8.105 -18.644  1.00  0.00    -0.344 N 
HETATM    9  C12 UNL     1       6.560  -9.504 -19.053  1.00  0.00     0.126 C 
HETATM   10  C15 UNL     1       6.889  -8.184 -17.217  1.00  0.00     0.111 C 
HETATM   11  C13 UNL     1       5.683 -10.051 -17.944  1.00  0.00     0.022 C 
HETATM   12  C14 UNL     1       5.694  -9.036 -16.818  1.00  0.00     0.029 C 
BRANCH  10  13
HETATM   13  C16 UNL     1       8.111  -9.051 -16.834  1.00  0.00     0.189 C 
BRANCH  13  14
HETATM   14  O5  UNL     1       9.299  -8.417 -17.114  1.00  0.00    -0.399 OA
ATOM     15  H5  UNL     1       9.936  -9.008 -17.497  1.00  0.00     0.209 HD
ENDBRANCH  13  14
ENDBRANCH  10  13
ENDBRANCH   5   6
BRANCH   5  16
HETATM   16  C17 UNL     1       5.881  -4.774 -19.768  1.00  0.00     0.009 C 
HETATM   17  C18 UNL     1       5.051  -4.064 -18.738  1.00  0.00     0.012 C 
HETATM   18  C19 UNL     1       6.489  -3.811 -20.768  1.00  0.00     0.012 C 
ENDBRANCH   5  16
ENDBRANCH   3   5
BRANCH   1  19
HETATM   19  C6  UNL     1      10.695  -4.486 -18.875  1.00  0.00     0.086 C 
BRANCH  19  20
HETATM   20  C5  UNL     1      10.741  -3.018 -18.571  1.00  0.00     0.014 C 
BRANCH  20  21
HETATM   21  C4  UNL     1       9.776  -2.193 -19.317  1.00  0.00     0.001 C 
BRANCH  21  22
HETATM   22  C3  UNL     1       9.048  -1.197 -18.460  1.00  0.00    -0.000 C 
BRANCH  22  23
HETATM   23  C2  UNL     1       8.042  -1.882 -17.592  1.00  0.00    -0.005 C 
HETATM   24  C1  UNL     1       7.632  -0.878 -16.524  1.00  0.00     0.005 C 
ENDBRANCH  22  23
ENDBRANCH  21  22
ENDBRANCH  20  21
ENDBRANCH  19  20
BRANCH  19  25
HETATM   25  C7  UNL     1      11.145  -4.902 -20.217  1.00  0.00     0.119 C 
BRANCH  25  26
HETATM   26  C8  UNL     1      12.602  -4.816 -20.376  1.00  0.00     0.241 C 
HETATM   27  O1  UNL     1      13.188  -3.877 -20.969  1.00  0.00    -0.271 OA
HETATM   28  N1  UNL     1      13.401  -5.866 -19.819  1.00  0.00    -0.237 N 
ATOM     29  H1  UNL     1      12.969  -6.649 -19.328  1.00  0.00     0.197 HD
BRANCH  28  30
HETATM   30  O2  UNL     1      14.736  -5.791 -19.962  1.00  0.00    -0.287 OA
ATOM     31  H2  UNL     1      15.252  -6.563 -19.760  1.00  0.00     0.244 HD
ENDBRANCH  28  30
ENDBRANCH  25  26
ENDBRANCH  19  25
ENDBRANCH   1  19
TORSDOF 13
ENDMDL
