MODEL 11
REMARK VINA RESULT: -8.469615966      1.178      1.996
REMARK  8 active torsions:
REMARK  status: ('A' for Active; 'I' for Inactive)
REMARK    1  A    between atoms: O1_2  and  C2_3 
REMARK    2  A    between atoms: C5_6  and  O2_7 
REMARK    3  A    between atoms: O2_7  and  C6_8 
REMARK    4  A    between atoms: C6_8  and  C7_9 
REMARK    5  A    between atoms: C7_9  and  N1_10 
REMARK    6  A    between atoms: N2_20  and  S1_21 
REMARK    7  A    between atoms: S1_21  and  C16_24 
REMARK    8  A    between atoms: C24_36  and  O7_37 
ROOT
HETATM    1  N1  UNL     1      11.818 -15.500 -18.513  1.00  0.00    -0.348 N 
HETATM    2  C8  UNL     1      11.058 -16.669 -18.855  1.00  0.00     0.128 C 
HETATM    3  C9  UNL     1       9.777 -16.364 -19.535  1.00  0.00     0.046 C 
HETATM    4  C10 UNL     1       8.719 -15.738 -18.627  1.00  0.00     0.098 C 
HETATM    5  C11 UNL     1       8.400 -16.651 -17.459  1.00  0.00     0.026 C 
HETATM    6  C12 UNL     1       8.560 -15.966 -16.126  1.00  0.00     0.004 C 
HETATM    7  C13 UNL     1       9.836 -15.174 -16.061  1.00  0.00     0.036 C 
HETATM    8  C14 UNL     1       9.965 -14.218 -17.206  1.00  0.00     0.188 C 
HETATM    9  C15 UNL     1      11.333 -14.353 -17.781  1.00  0.00     0.243 C 
HETATM   10  O3  UNL     1      12.171 -13.457 -17.666  1.00  0.00    -0.271 OA
HETATM   11  N2  UNL     1       9.041 -14.414 -18.252  1.00  0.00    -0.288 N 
ENDROOT
BRANCH  11  12
HETATM   12  S1  UNL     1       7.860 -13.219 -18.457  1.00  0.00     0.262 S 
HETATM   13  O4  UNL     1       6.672 -13.404 -17.547  1.00  0.00    -0.200 OA
HETATM   14  O5  UNL     1       8.412 -11.840 -18.144  1.00  0.00    -0.200 OA
BRANCH  12  15
HETATM   15  C16 UNL     1       7.328 -13.195 -20.092  1.00  0.00     0.081 A 
HETATM   16  C17 UNL     1       6.039 -12.841 -20.435  1.00  0.00     0.027 A 
HETATM   17  C18 UNL     1       5.557 -12.807 -21.709  1.00  0.00     0.032 A 
HETATM   18  C19 UNL     1       6.411 -13.150 -22.787  1.00  0.00     0.052 A 
HETATM   19  N3  UNL     1       6.072 -13.161 -24.062  1.00  0.00    -0.316 N 
HETATM   20  C21 UNL     1       7.688 -13.501 -22.462  1.00  0.00     0.038 A 
HETATM   21  C20 UNL     1       7.003 -13.515 -24.958  1.00  0.00     0.289 A 
ATOM     22  H3  UNL     1       5.129 -12.906 -24.357  1.00  0.00     0.170 HD
HETATM   23  O6  UNL     1       6.849 -13.580 -26.229  1.00  0.00    -0.260 OA
HETATM   24  S2  UNL     1       8.366 -13.837 -23.995  1.00  0.00    -0.027 SA
HETATM   25  C22 UNL     1       8.153 -13.528 -21.132  1.00  0.00     0.046 A 
ENDBRANCH  12  15
ENDBRANCH  11  12
BRANCH   1  26
HETATM   26  C7  UNL     1      13.200 -15.419 -18.909  1.00  0.00     0.152 C 
BRANCH  26  27
HETATM   27  C6  UNL     1      13.401 -14.913 -20.328  1.00  0.00     0.195 C 
BRANCH  27  28
HETATM   28  O2  UNL     1      14.831 -14.733 -20.478  1.00  0.00    -0.349 OA
BRANCH  28  29
HETATM   29  C5  UNL     1      15.252 -13.403 -20.534  1.00  0.00     0.071 A 
HETATM   30  C4  UNL     1      15.706 -12.843 -19.375  1.00  0.00     0.039 A 
HETATM   31  C3  UNL     1      16.125 -11.524 -19.388  1.00  0.00     0.042 A 
HETATM   32  C2  UNL     1      16.098 -10.759 -20.522  1.00  0.00     0.101 A 
HETATM   33  C24 UNL     1      15.639 -11.316 -21.710  1.00  0.00     0.104 A 
HETATM   34  C23 UNL     1      15.217 -12.664 -21.682  1.00  0.00     0.076 A 
BRANCH  32  35
HETATM   35  O1  UNL     1      16.512  -9.439 -20.547  1.00  0.00    -0.353 OA
HETATM   36  C1  UNL     1      17.630  -9.064 -19.729  1.00  0.00     0.210 C 
ENDBRANCH  32  35
BRANCH  33  37
HETATM   37  O7  UNL     1      15.594 -10.618 -22.844  1.00  0.00    -0.353 OA
HETATM   38  C25 UNL     1      14.950 -10.526 -24.004  1.00  0.00     0.210 C 
ENDBRANCH  33  37
ENDBRANCH  28  29
ENDBRANCH  27  28
ENDBRANCH  26  27
ENDBRANCH   1  26
TORSDOF 8
ENDMDL
