MODEL 5
REMARK VINA RESULT: -8.714364628      0.888      1.039
REMARK  8 active torsions:
REMARK  status: ('A' for Active; 'I' for Inactive)
REMARK    1  A    between atoms: O1_2  and  C2_3 
REMARK    2  A    between atoms: C5_6  and  O2_7 
REMARK    3  A    between atoms: O2_7  and  C6_8 
REMARK    4  A    between atoms: C6_8  and  C7_9 
REMARK    5  A    between atoms: C7_9  and  N1_10 
REMARK    6  A    between atoms: N2_20  and  S1_21 
REMARK    7  A    between atoms: S1_21  and  C16_24 
REMARK    8  A    between atoms: C24_36  and  O7_37 
ROOT
HETATM    1  N1  UNL     1      11.842 -15.415 -18.492  1.00  0.00    -0.348 N 
HETATM    2  C8  UNL     1      11.107 -16.596 -18.847  1.00  0.00     0.128 C 
HETATM    3  C9  UNL     1       9.826 -16.311 -19.537  1.00  0.00     0.046 C 
HETATM    4  C10 UNL     1       8.749 -15.711 -18.635  1.00  0.00     0.098 C 
HETATM    5  C11 UNL     1       8.436 -16.636 -17.475  1.00  0.00     0.026 C 
HETATM    6  C12 UNL     1       8.571 -15.956 -16.138  1.00  0.00     0.004 C 
HETATM    7  C13 UNL     1       9.832 -15.140 -16.057  1.00  0.00     0.036 C 
HETATM    8  C14 UNL     1       9.953 -14.176 -17.195  1.00  0.00     0.188 C 
HETATM    9  C15 UNL     1      11.329 -14.282 -17.759  1.00  0.00     0.243 C 
HETATM   10  O3  UNL     1      12.149 -13.371 -17.631  1.00  0.00    -0.271 OA
HETATM   11  N2  UNL     1       9.042 -14.383 -18.250  1.00  0.00    -0.288 N 
ENDROOT
BRANCH  11  12
HETATM   12  S1  UNL     1       7.841 -13.209 -18.460  1.00  0.00     0.262 S 
HETATM   13  O4  UNL     1       6.651 -13.418 -17.558  1.00  0.00    -0.200 OA
HETATM   14  O5  UNL     1       8.366 -11.821 -18.140  1.00  0.00    -0.200 OA
BRANCH  12  15
HETATM   15  C16 UNL     1       7.319 -13.191 -20.098  1.00  0.00     0.081 A 
HETATM   16  C17 UNL     1       6.039 -12.816 -20.452  1.00  0.00     0.027 A 
HETATM   17  C18 UNL     1       5.565 -12.784 -21.729  1.00  0.00     0.032 A 
HETATM   18  C19 UNL     1       6.418 -13.153 -22.799  1.00  0.00     0.052 A 
HETATM   19  N3  UNL     1       6.087 -13.169 -24.076  1.00  0.00    -0.316 N 
HETATM   20  C21 UNL     1       7.687 -13.524 -22.463  1.00  0.00     0.038 A 
HETATM   21  C20 UNL     1       7.016 -13.549 -24.962  1.00  0.00     0.289 A 
ATOM     22  H3  UNL     1       5.151 -12.900 -24.378  1.00  0.00     0.170 HD
HETATM   23  O6  UNL     1       6.869 -13.623 -26.234  1.00  0.00    -0.260 OA
HETATM   24  S2  UNL     1       8.367 -13.887 -23.989  1.00  0.00    -0.027 SA
HETATM   25  C22 UNL     1       8.144 -13.549 -21.130  1.00  0.00     0.046 A 
ENDBRANCH  12  15
ENDBRANCH  11  12
BRANCH   1  26
HETATM   26  C7  UNL     1      13.225 -15.306 -18.875  1.00  0.00     0.152 C 
BRANCH  26  27
HETATM   27  C6  UNL     1      13.430 -14.759 -20.278  1.00  0.00     0.195 C 
BRANCH  27  28
HETATM   28  O2  UNL     1      14.865 -14.641 -20.444  1.00  0.00    -0.349 OA
BRANCH  28  29
HETATM   29  C5  UNL     1      15.357 -13.336 -20.377  1.00  0.00     0.071 A 
HETATM   30  C4  UNL     1      15.259 -12.574 -21.505  1.00  0.00     0.039 A 
HETATM   31  C3  UNL     1      15.743 -11.277 -21.482  1.00  0.00     0.042 A 
HETATM   32  C2  UNL     1      16.319 -10.731 -20.368  1.00  0.00     0.101 A 
HETATM   33  C24 UNL     1      16.425 -11.495 -19.210  1.00  0.00     0.104 A 
HETATM   34  C23 UNL     1      15.924 -12.816 -19.249  1.00  0.00     0.076 A 
BRANCH  32  35
HETATM   35  O1  UNL     1      16.808  -9.437 -20.332  1.00  0.00    -0.353 OA
HETATM   36  C1  UNL     1      16.285  -8.490 -21.274  1.00  0.00     0.210 C 
ENDBRANCH  32  35
BRANCH  33  37
HETATM   37  O7  UNL     1      16.975 -11.013 -18.096  1.00  0.00    -0.353 OA
HETATM   38  C25 UNL     1      18.094 -11.028 -17.378  1.00  0.00     0.210 C 
ENDBRANCH  33  37
ENDBRANCH  28  29
ENDBRANCH  27  28
ENDBRANCH  26  27
ENDBRANCH   1  26
TORSDOF 8
ENDMDL
