MODEL 10
REMARK VINA RESULT: -8.472107383      1.285      2.012
REMARK  8 active torsions:
REMARK  status: ('A' for Active; 'I' for Inactive)
REMARK    1  A    between atoms: O1_2  and  C2_3 
REMARK    2  A    between atoms: C5_6  and  O2_7 
REMARK    3  A    between atoms: O2_7  and  C6_8 
REMARK    4  A    between atoms: C6_8  and  C7_9 
REMARK    5  A    between atoms: C7_9  and  N1_10 
REMARK    6  A    between atoms: N2_20  and  S1_21 
REMARK    7  A    between atoms: S1_21  and  C16_24 
REMARK    8  A    between atoms: C24_36  and  O7_37 
ROOT
HETATM    1  N1  UNL     1      11.769 -15.417 -18.512  1.00  0.00    -0.348 N 
HETATM    2  C8  UNL     1      11.017 -16.580 -18.888  1.00  0.00     0.128 C 
HETATM    3  C9  UNL     1       9.745 -16.264 -19.580  1.00  0.00     0.046 C 
HETATM    4  C10 UNL     1       8.672 -15.658 -18.676  1.00  0.00     0.098 C 
HETATM    5  C11 UNL     1       8.338 -16.594 -17.531  1.00  0.00     0.026 C 
HETATM    6  C12 UNL     1       8.477 -15.935 -16.183  1.00  0.00     0.004 C 
HETATM    7  C13 UNL     1       9.751 -15.141 -16.084  1.00  0.00     0.036 C 
HETATM    8  C14 UNL     1       9.895 -14.164 -17.208  1.00  0.00     0.188 C 
HETATM    9  C15 UNL     1      11.272 -14.286 -17.766  1.00  0.00     0.243 C 
HETATM   10  O3  UNL     1      12.106 -13.390 -17.621  1.00  0.00    -0.271 OA
HETATM   11  N2  UNL     1       8.987 -14.341 -18.271  1.00  0.00    -0.288 N 
ENDROOT
BRANCH  11  12
HETATM   12  S1  UNL     1       7.807 -13.143 -18.470  1.00  0.00     0.262 S 
HETATM   13  O4  UNL     1       6.573 -13.391 -17.640  1.00  0.00    -0.200 OA
HETATM   14  O5  UNL     1       8.327 -11.782 -18.047  1.00  0.00    -0.200 OA
BRANCH  12  15
HETATM   15  C16 UNL     1       7.365 -13.027 -20.128  1.00  0.00     0.081 A 
HETATM   16  C17 UNL     1       8.021 -12.183 -21.001  1.00  0.00     0.027 A 
HETATM   17  C18 UNL     1       7.717 -12.043 -22.322  1.00  0.00     0.032 A 
HETATM   18  C19 UNL     1       6.659 -12.805 -22.878  1.00  0.00     0.052 A 
HETATM   19  N3  UNL     1       6.261 -12.764 -24.135  1.00  0.00    -0.316 N 
HETATM   20  C21 UNL     1       6.002 -13.644 -22.027  1.00  0.00     0.038 A 
HETATM   21  C20 UNL     1       5.238 -13.549 -24.497  1.00  0.00     0.289 A 
ATOM     22  H3  UNL     1       6.719 -12.152 -24.811  1.00  0.00     0.170 HD
HETATM   23  O6  UNL     1       4.723 -13.637 -25.668  1.00  0.00    -0.260 OA
HETATM   24  S2  UNL     1       4.832 -14.350 -23.054  1.00  0.00    -0.027 SA
HETATM   25  C22 UNL     1       6.342 -13.762 -20.663  1.00  0.00     0.046 A 
ENDBRANCH  12  15
ENDBRANCH  11  12
BRANCH   1  26
HETATM   26  C7  UNL     1      13.156 -15.327 -18.886  1.00  0.00     0.152 C 
BRANCH  26  27
HETATM   27  C6  UNL     1      13.375 -15.096 -20.372  1.00  0.00     0.195 C 
BRANCH  27  28
HETATM   28  O2  UNL     1      13.721 -13.695 -20.502  1.00  0.00    -0.349 OA
BRANCH  28  29
HETATM   29  C5  UNL     1      15.031 -13.378 -20.137  1.00  0.00     0.071 A 
HETATM   30  C4  UNL     1      15.211 -12.273 -19.356  1.00  0.00     0.039 A 
HETATM   31  C3  UNL     1      16.495 -11.920 -18.979  1.00  0.00     0.042 A 
HETATM   32  C2  UNL     1      17.594 -12.640 -19.363  1.00  0.00     0.101 A 
HETATM   33  C24 UNL     1      17.426 -13.769 -20.158  1.00  0.00     0.104 A 
HETATM   34  C23 UNL     1      16.109 -14.117 -20.532  1.00  0.00     0.076 A 
BRANCH  32  35
HETATM   35  O1  UNL     1      18.882 -12.297 -18.995  1.00  0.00    -0.353 OA
HETATM   36  C1  UNL     1      19.266 -12.480 -17.624  1.00  0.00     0.210 C 
ENDBRANCH  32  35
BRANCH  33  37
HETATM   37  O7  UNL     1      18.460 -14.507 -20.559  1.00  0.00    -0.353 OA
HETATM   38  C25 UNL     1      18.795 -15.501 -21.377  1.00  0.00     0.210 C 
ENDBRANCH  33  37
ENDBRANCH  28  29
ENDBRANCH  27  28
ENDBRANCH  26  27
ENDBRANCH   1  26
TORSDOF 8
ENDMDL
