MODEL 2
REMARK VINA RESULT: -8.816757235      2.710      4.253
REMARK  8 active torsions:
REMARK  status: ('A' for Active; 'I' for Inactive)
REMARK    1  A    between atoms: O1_2  and  C2_3 
REMARK    2  A    between atoms: C5_6  and  O2_7 
REMARK    3  A    between atoms: O2_7  and  C6_8 
REMARK    4  A    between atoms: C6_8  and  C7_9 
REMARK    5  A    between atoms: C7_9  and  N1_10 
REMARK    6  A    between atoms: N2_20  and  S1_21 
REMARK    7  A    between atoms: S1_21  and  C16_24 
REMARK    8  A    between atoms: C24_36  and  O7_37 
ROOT
HETATM    1  N1  UNL     1      11.783 -15.450 -18.568  1.00  0.00    -0.348 N 
HETATM    2  C8  UNL     1      11.012 -16.618 -18.887  1.00  0.00     0.128 C 
HETATM    3  C9  UNL     1       9.717 -16.311 -19.542  1.00  0.00     0.046 C 
HETATM    4  C10 UNL     1       8.681 -15.675 -18.616  1.00  0.00     0.098 C 
HETATM    5  C11 UNL     1       8.383 -16.580 -17.436  1.00  0.00     0.026 C 
HETATM    6  C12 UNL     1       8.574 -15.886 -16.111  1.00  0.00     0.004 C 
HETATM    7  C13 UNL     1       9.854 -15.099 -16.078  1.00  0.00     0.036 C 
HETATM    8  C14 UNL     1       9.963 -14.152 -17.232  1.00  0.00     0.188 C 
HETATM    9  C15 UNL     1      11.319 -14.296 -17.835  1.00  0.00     0.243 C 
HETATM   10  O3  UNL     1      12.163 -13.403 -17.743  1.00  0.00    -0.271 OA
HETATM   11  N2  UNL     1       9.017 -14.351 -18.256  1.00  0.00    -0.288 N 
ENDROOT
BRANCH  11  12
HETATM   12  S1  UNL     1       7.837 -13.151 -18.445  1.00  0.00     0.262 S 
HETATM   13  O4  UNL     1       6.602 -13.407 -17.619  1.00  0.00    -0.200 OA
HETATM   14  O5  UNL     1       8.356 -11.794 -18.006  1.00  0.00    -0.200 OA
BRANCH  12  15
HETATM   15  C16 UNL     1       7.398 -13.017 -20.102  1.00  0.00     0.081 A 
HETATM   16  C17 UNL     1       8.056 -12.164 -20.965  1.00  0.00     0.027 A 
HETATM   17  C18 UNL     1       7.753 -12.010 -22.285  1.00  0.00     0.032 A 
HETATM   18  C19 UNL     1       6.695 -12.766 -22.850  1.00  0.00     0.052 A 
HETATM   19  N3  UNL     1       6.299 -12.711 -24.107  1.00  0.00    -0.316 N 
HETATM   20  C21 UNL     1       6.038 -13.613 -22.009  1.00  0.00     0.038 A 
HETATM   21  C20 UNL     1       5.276 -13.492 -24.479  1.00  0.00     0.289 A 
ATOM     22  H3  UNL     1       6.759 -12.093 -24.776  1.00  0.00     0.170 HD
HETATM   23  O6  UNL     1       4.764 -13.567 -25.652  1.00  0.00    -0.260 OA
HETATM   24  S2  UNL     1       4.869 -14.308 -23.045  1.00  0.00    -0.027 SA
HETATM   25  C22 UNL     1       6.375 -13.746 -20.646  1.00  0.00     0.046 A 
ENDBRANCH  12  15
ENDBRANCH  11  12
BRANCH   1  26
HETATM   26  C7  UNL     1      13.157 -15.378 -18.994  1.00  0.00     0.152 C 
BRANCH  26  27
HETATM   27  C6  UNL     1      13.328 -15.329 -20.503  1.00  0.00     0.195 C 
BRANCH  27  28
HETATM   28  O2  UNL     1      12.752 -14.066 -20.920  1.00  0.00    -0.349 OA
BRANCH  28  29
HETATM   29  C5  UNL     1      12.195 -14.070 -22.200  1.00  0.00     0.071 A 
HETATM   30  C4  UNL     1      13.002 -13.687 -23.232  1.00  0.00     0.039 A 
HETATM   31  C3  UNL     1      12.485 -13.669 -24.516  1.00  0.00     0.042 A 
HETATM   32  C2  UNL     1      11.191 -14.020 -24.788  1.00  0.00     0.101 A 
HETATM   33  C24 UNL     1      10.357 -14.413 -23.747  1.00  0.00     0.104 A 
HETATM   34  C23 UNL     1      10.900 -14.429 -22.443  1.00  0.00     0.076 A 
BRANCH  32  35
HETATM   35  O1  UNL     1      10.662 -14.004 -26.067  1.00  0.00    -0.353 OA
HETATM   36  C1  UNL     1      11.144 -13.015 -26.987  1.00  0.00     0.210 C 
ENDBRANCH  32  35
BRANCH  33  37
HETATM   37  O7  UNL     1       9.090 -14.767 -23.956  1.00  0.00    -0.353 OA
HETATM   38  C25 UNL     1       8.296 -15.826 -24.088  1.00  0.00     0.210 C 
ENDBRANCH  33  37
ENDBRANCH  28  29
ENDBRANCH  27  28
ENDBRANCH  26  27
ENDBRANCH   1  26
TORSDOF 8
ENDMDL
