MODEL 3
REMARK VINA RESULT: -8.787903738      0.580      1.572
REMARK  8 active torsions:
REMARK  status: ('A' for Active; 'I' for Inactive)
REMARK    1  A    between atoms: O1_2  and  C2_3 
REMARK    2  A    between atoms: C5_6  and  O2_7 
REMARK    3  A    between atoms: O2_7  and  C6_8 
REMARK    4  A    between atoms: C6_8  and  C7_9 
REMARK    5  A    between atoms: C7_9  and  N1_10 
REMARK    6  A    between atoms: N2_20  and  S1_21 
REMARK    7  A    between atoms: S1_21  and  C16_24 
REMARK    8  A    between atoms: C24_36  and  O7_37 
ROOT
HETATM    1  N1  UNL     1      11.808 -15.387 -18.501  1.00  0.00    -0.348 N 
HETATM    2  C8  UNL     1      11.072 -16.546 -18.919  1.00  0.00     0.128 C 
HETATM    3  C9  UNL     1       9.809 -16.223 -19.625  1.00  0.00     0.046 C 
HETATM    4  C10 UNL     1       8.717 -15.647 -18.724  1.00  0.00     0.098 C 
HETATM    5  C11 UNL     1       8.371 -16.615 -17.608  1.00  0.00     0.026 C 
HETATM    6  C12 UNL     1       8.482 -15.988 -16.242  1.00  0.00     0.004 C 
HETATM    7  C13 UNL     1       9.748 -15.188 -16.102  1.00  0.00     0.036 C 
HETATM    8  C14 UNL     1       9.902 -14.181 -17.199  1.00  0.00     0.188 C 
HETATM    9  C15 UNL     1      11.289 -14.279 -17.736  1.00  0.00     0.243 C 
HETATM   10  O3  UNL     1      12.114 -13.381 -17.555  1.00  0.00    -0.271 OA
HETATM   11  N2  UNL     1       9.013 -14.339 -18.281  1.00  0.00    -0.288 N 
ENDROOT
BRANCH  11  12
HETATM   12  S1  UNL     1       7.828 -13.146 -18.470  1.00  0.00     0.262 S 
HETATM   13  O4  UNL     1       6.597 -13.403 -17.637  1.00  0.00    -0.200 OA
HETATM   14  O5  UNL     1       8.342 -11.784 -18.041  1.00  0.00    -0.200 OA
BRANCH  12  15
HETATM   15  C16 UNL     1       7.380 -13.023 -20.126  1.00  0.00     0.081 A 
HETATM   16  C17 UNL     1       8.021 -12.161 -20.993  1.00  0.00     0.027 A 
HETATM   17  C18 UNL     1       7.711 -12.015 -22.312  1.00  0.00     0.032 A 
HETATM   18  C19 UNL     1       6.664 -12.789 -22.872  1.00  0.00     0.052 A 
HETATM   19  N3  UNL     1       6.262 -12.744 -24.128  1.00  0.00    -0.316 N 
HETATM   20  C21 UNL     1       6.023 -13.645 -22.027  1.00  0.00     0.038 A 
HETATM   21  C20 UNL     1       5.251 -13.542 -24.494  1.00  0.00     0.289 A 
ATOM     22  H3  UNL     1       6.709 -12.120 -24.800  1.00  0.00     0.170 HD
HETATM   23  O6  UNL     1       4.735 -13.628 -25.665  1.00  0.00    -0.260 OA
HETATM   24  S2  UNL     1       4.862 -14.361 -23.057  1.00  0.00    -0.027 SA
HETATM   25  C22 UNL     1       6.367 -13.769 -20.665  1.00  0.00     0.046 A 
ENDBRANCH  12  15
ENDBRANCH  11  12
BRANCH   1  26
HETATM   26  C7  UNL     1      13.201 -15.277 -18.850  1.00  0.00     0.152 C 
BRANCH  26  27
HETATM   27  C6  UNL     1      13.439 -14.791 -20.270  1.00  0.00     0.195 C 
BRANCH  27  28
HETATM   28  O2  UNL     1      14.869 -14.895 -20.482  1.00  0.00    -0.349 OA
BRANCH  28  29
HETATM   29  C5  UNL     1      15.613 -13.816 -19.998  1.00  0.00     0.071 A 
HETATM   30  C4  UNL     1      16.685 -14.105 -19.204  1.00  0.00     0.039 A 
HETATM   31  C3  UNL     1      17.444 -13.063 -18.698  1.00  0.00     0.042 A 
HETATM   32  C2  UNL     1      17.155 -11.752 -18.964  1.00  0.00     0.101 A 
HETATM   33  C24 UNL     1      16.067 -11.443 -19.773  1.00  0.00     0.104 A 
HETATM   34  C23 UNL     1      15.304 -12.517 -20.284  1.00  0.00     0.076 A 
BRANCH  32  35
HETATM   35  O1  UNL     1      17.904 -10.702 -18.464  1.00  0.00    -0.353 OA
HETATM   36  C1  UNL     1      18.352 -10.778 -17.103  1.00  0.00     0.210 C 
ENDBRANCH  32  35
BRANCH  33  37
HETATM   37  O7  UNL     1      15.743 -10.185 -20.066  1.00  0.00    -0.353 OA
HETATM   38  C25 UNL     1      16.090  -9.155 -20.834  1.00  0.00     0.210 C 
ENDBRANCH  33  37
ENDBRANCH  28  29
ENDBRANCH  27  28
ENDBRANCH  26  27
ENDBRANCH   1  26
TORSDOF 8
ENDMDL
