MODEL 6
REMARK VINA RESULT: -8.674631287      2.896      4.419
REMARK  8 active torsions:
REMARK  status: ('A' for Active; 'I' for Inactive)
REMARK    1  A    between atoms: O1_2  and  C2_3 
REMARK    2  A    between atoms: C5_6  and  O2_7 
REMARK    3  A    between atoms: O2_7  and  C6_8 
REMARK    4  A    between atoms: C6_8  and  C7_9 
REMARK    5  A    between atoms: C7_9  and  N1_10 
REMARK    6  A    between atoms: N2_20  and  S1_21 
REMARK    7  A    between atoms: S1_21  and  C16_24 
REMARK    8  A    between atoms: C24_36  and  O7_37 
ROOT
HETATM    1  N1  UNL     1      11.727 -15.609 -18.668  1.00  0.00    -0.348 N 
HETATM    2  C8  UNL     1      10.911 -16.771 -18.880  1.00  0.00     0.128 C 
HETATM    3  C9  UNL     1       9.588 -16.464 -19.476  1.00  0.00     0.046 C 
HETATM    4  C10 UNL     1       8.623 -15.755 -18.529  1.00  0.00     0.098 C 
HETATM    5  C11 UNL     1       8.372 -16.590 -17.288  1.00  0.00     0.026 C 
HETATM    6  C12 UNL     1       8.655 -15.835 -16.014  1.00  0.00     0.004 C 
HETATM    7  C13 UNL     1       9.953 -15.081 -16.094  1.00  0.00     0.036 C 
HETATM    8  C14 UNL     1      10.018 -14.197 -17.300  1.00  0.00     0.188 C 
HETATM    9  C15 UNL     1      11.332 -14.408 -17.970  1.00  0.00     0.243 C 
HETATM   10  O3  UNL     1      12.201 -13.534 -17.973  1.00  0.00    -0.271 OA
HETATM   11  N2  UNL     1       9.009 -14.423 -18.258  1.00  0.00    -0.288 N 
ENDROOT
BRANCH  11  12
HETATM   12  S1  UNL     1       7.849 -13.204 -18.442  1.00  0.00     0.262 S 
HETATM   13  O4  UNL     1       6.614 -13.438 -17.610  1.00  0.00    -0.200 OA
HETATM   14  O5  UNL     1       8.393 -11.855 -18.008  1.00  0.00    -0.200 OA
BRANCH  12  15
HETATM   15  C16 UNL     1       7.404 -13.064 -20.098  1.00  0.00     0.081 A 
HETATM   16  C17 UNL     1       7.954 -12.103 -20.923  1.00  0.00     0.027 A 
HETATM   17  C18 UNL     1       7.641 -11.939 -22.239  1.00  0.00     0.032 A 
HETATM   18  C19 UNL     1       6.689 -12.800 -22.841  1.00  0.00     0.052 A 
HETATM   19  N3  UNL     1       6.295 -12.749 -24.099  1.00  0.00    -0.316 N 
HETATM   20  C21 UNL     1       6.139 -13.754 -22.037  1.00  0.00     0.038 A 
HETATM   21  C20 UNL     1       5.380 -13.637 -24.509  1.00  0.00     0.289 A 
ATOM     22  H3  UNL     1       6.676 -12.053 -24.740  1.00  0.00     0.170 HD
HETATM   23  O6  UNL     1       4.887 -13.732 -25.688  1.00  0.00    -0.260 OA
HETATM   24  S2  UNL     1       5.071 -14.551 -23.109  1.00  0.00    -0.027 SA
HETATM   25  C22 UNL     1       6.484 -13.894 -20.678  1.00  0.00     0.046 A 
ENDBRANCH  12  15
ENDBRANCH  11  12
BRANCH   1  26
HETATM   26  C7  UNL     1      13.075 -15.595 -19.173  1.00  0.00     0.152 C 
BRANCH  26  27
HETATM   27  C6  UNL     1      13.160 -15.630 -20.690  1.00  0.00     0.195 C 
BRANCH  27  28
HETATM   28  O2  UNL     1      12.814 -14.294 -21.130  1.00  0.00    -0.349 OA
BRANCH  28  29
HETATM   29  C5  UNL     1      11.882 -14.242 -22.169  1.00  0.00     0.071 A 
HETATM   30  C4  UNL     1      10.646 -14.765 -21.925  1.00  0.00     0.039 A 
HETATM   31  C3  UNL     1       9.696 -14.740 -22.933  1.00  0.00     0.042 A 
HETATM   32  C2  UNL     1       9.955 -14.210 -24.168  1.00  0.00     0.101 A 
HETATM   33  C24 UNL     1      11.210 -13.673 -24.430  1.00  0.00     0.104 A 
HETATM   34  C23 UNL     1      12.167 -13.703 -23.392  1.00  0.00     0.076 A 
BRANCH  32  35
HETATM   35  O1  UNL     1       9.016 -14.181 -25.183  1.00  0.00    -0.353 OA
HETATM   36  C1  UNL     1       8.531 -15.431 -25.694  1.00  0.00     0.210 C 
ENDBRANCH  32  35
BRANCH  33  37
HETATM   37  O7  UNL     1      11.515 -13.142 -25.614  1.00  0.00    -0.353 OA
HETATM   38  C25 UNL     1      12.097 -13.418 -26.778  1.00  0.00     0.210 C 
ENDBRANCH  33  37
ENDBRANCH  28  29
ENDBRANCH  27  28
ENDBRANCH  26  27
ENDBRANCH   1  26
TORSDOF 8
ENDMDL
