MODEL 16
REMARK VINA RESULT: -7.995168513      3.207      5.631
REMARK  8 active torsions:
REMARK  status: ('A' for Active; 'I' for Inactive)
REMARK    1  A    between atoms: O1_2  and  C2_3 
REMARK    2  A    between atoms: C5_6  and  O2_7 
REMARK    3  A    between atoms: O2_7  and  C6_8 
REMARK    4  A    between atoms: C6_8  and  C7_9 
REMARK    5  A    between atoms: C7_9  and  N1_10 
REMARK    6  A    between atoms: N2_20  and  S1_21 
REMARK    7  A    between atoms: S1_21  and  C16_24 
REMARK    8  A    between atoms: C24_36  and  O7_37 
ROOT
HETATM    1  N1  UNL     1      11.740 -15.697 -18.647  1.00  0.00    -0.348 N 
HETATM    2  C8  UNL     1      10.907 -16.851 -18.830  1.00  0.00     0.128 C 
HETATM    3  C9  UNL     1       9.586 -16.539 -19.427  1.00  0.00     0.046 C 
HETATM    4  C10 UNL     1       8.636 -15.795 -18.491  1.00  0.00     0.098 C 
HETATM    5  C11 UNL     1       8.379 -16.599 -17.230  1.00  0.00     0.026 C 
HETATM    6  C12 UNL     1       8.679 -15.821 -15.975  1.00  0.00     0.004 C 
HETATM    7  C13 UNL     1       9.987 -15.087 -16.078  1.00  0.00     0.036 C 
HETATM    8  C14 UNL     1      10.058 -14.231 -17.304  1.00  0.00     0.188 C 
HETATM    9  C15 UNL     1      11.367 -14.475 -17.975  1.00  0.00     0.243 C 
HETATM   10  O3  UNL     1      12.248 -13.614 -18.001  1.00  0.00    -0.271 OA
HETATM   11  N2  UNL     1       9.042 -14.463 -18.252  1.00  0.00    -0.288 N 
ENDROOT
BRANCH  11  12
HETATM   12  S1  UNL     1       7.899 -13.232 -18.458  1.00  0.00     0.262 S 
HETATM   13  O4  UNL     1       6.710 -13.376 -17.542  1.00  0.00    -0.200 OA
HETATM   14  O5  UNL     1       8.494 -11.870 -18.154  1.00  0.00    -0.200 OA
BRANCH  12  15
HETATM   15  C16 UNL     1       7.360 -13.200 -20.091  1.00  0.00     0.081 A 
HETATM   16  C17 UNL     1       6.085 -12.798 -20.431  1.00  0.00     0.027 A 
HETATM   17  C18 UNL     1       5.599 -12.754 -21.703  1.00  0.00     0.032 A 
HETATM   18  C19 UNL     1       6.433 -13.138 -22.782  1.00  0.00     0.052 A 
HETATM   19  N3  UNL     1       6.089 -13.145 -24.056  1.00  0.00    -0.316 N 
HETATM   20  C21 UNL     1       7.697 -13.537 -22.460  1.00  0.00     0.038 A 
HETATM   21  C20 UNL     1       7.001 -13.542 -24.953  1.00  0.00     0.289 A 
ATOM     22  H3  UNL     1       5.155 -12.855 -24.348  1.00  0.00     0.170 HD
HETATM   23  O6  UNL     1       6.839 -13.610 -26.223  1.00  0.00    -0.260 OA
HETATM   24  S2  UNL     1       8.354 -13.911 -23.993  1.00  0.00    -0.027 SA
HETATM   25  C22 UNL     1       8.167 -13.573 -21.132  1.00  0.00     0.046 A 
ENDBRANCH  12  15
ENDBRANCH  11  12
BRANCH   1  26
HETATM   26  C7  UNL     1      13.086 -15.713 -19.158  1.00  0.00     0.152 C 
BRANCH  26  27
HETATM   27  C6  UNL     1      13.168 -15.949 -20.658  1.00  0.00     0.195 C 
BRANCH  27  28
HETATM   28  O2  UNL     1      13.956 -17.154 -20.820  1.00  0.00    -0.349 OA
BRANCH  28  29
HETATM   29  C5  UNL     1      13.224 -18.342 -20.783  1.00  0.00     0.071 A 
HETATM   30  C4  UNL     1      12.243 -18.499 -21.719  1.00  0.00     0.039 A 
HETATM   31  C3  UNL     1      11.488 -19.660 -21.711  1.00  0.00     0.042 A 
HETATM   32  C2  UNL     1      11.691 -20.657 -20.796  1.00  0.00     0.101 A 
HETATM   33  C24 UNL     1      12.688 -20.512 -19.837  1.00  0.00     0.104 A 
HETATM   34  C23 UNL     1      13.450 -19.323 -19.860  1.00  0.00     0.076 A 
BRANCH  32  35
HETATM   35  O1  UNL     1      10.943 -21.821 -20.776  1.00  0.00    -0.353 OA
HETATM   36  C1  UNL     1       9.515 -21.707 -20.700  1.00  0.00     0.210 C 
ENDBRANCH  32  35
BRANCH  33  37
HETATM   37  O7  UNL     1      12.928 -21.452 -18.924  1.00  0.00    -0.353 OA
HETATM   38  C25 UNL     1      13.525 -21.661 -17.754  1.00  0.00     0.210 C 
ENDBRANCH  33  37
ENDBRANCH  28  29
ENDBRANCH  27  28
ENDBRANCH  26  27
ENDBRANCH   1  26
TORSDOF 8
ENDMDL
