MODEL 14
REMARK VINA RESULT: -7.501114322      3.601      6.396
REMARK  10 active torsions:
REMARK  status: ('A' for Active; 'I' for Inactive)
REMARK    1  A    between atoms: O1_2  and  C2_3 
REMARK    2  A    between atoms: C5_6  and  O2_7 
REMARK    3  A    between atoms: O2_7  and  C6_8 
REMARK    4  A    between atoms: C6_8  and  C7_9 
REMARK    5  A    between atoms: C7_9  and  O3_10 
REMARK    6  A    between atoms: O3_10  and  C8_11 
REMARK    7  A    between atoms: C8_11  and  C9_13 
REMARK    8  A    between atoms: N1_18  and  S1_19 
REMARK    9  A    between atoms: S1_19  and  C14_22 
REMARK   10  A    between atoms: C22_34  and  O8_35 
ROOT
HETATM    1  C9  UNL     1       9.437  15.411  17.582  1.00  0.00     0.097 C 
HETATM    2  C10 UNL     1       8.909  15.707  16.172  1.00  0.00     0.064 C 
HETATM    3  C11 UNL     1       9.898  15.057  15.225  1.00  0.00     0.008 C 
HETATM    4  C12 UNL     1      10.004  13.610  15.564  1.00  0.00     0.021 C 
HETATM    5  C13 UNL     1      10.314  13.322  17.011  1.00  0.00     0.142 C 
HETATM    6  N1  UNL     1       9.453  14.054  17.914  1.00  0.00    -0.270 N 
ENDROOT
BRANCH   1   7
HETATM    7  C8  UNL     1       8.970  16.376  18.583  1.00  0.00     0.306 C 
HETATM    8  O4  UNL     1       7.813  16.837  18.701  1.00  0.00    -0.258 OA
BRANCH   7   9
HETATM    9  O3  UNL     1       9.905  16.830  19.500  1.00  0.00    -0.315 OA
BRANCH   9  10
HETATM   10  C7  UNL     1      11.309  16.700  19.354  1.00  0.00     0.205 C 
BRANCH  10  11
HETATM   11  C6  UNL     1      11.921  16.199  20.624  1.00  0.00     0.202 C 
BRANCH  11  12
HETATM   12  O2  UNL     1      13.290  16.153  20.588  1.00  0.00    -0.349 OA
BRANCH  12  13
HETATM   13  C5  UNL     1      14.133  15.091  20.489  1.00  0.00     0.071 A 
HETATM   14  C4  UNL     1      14.521  14.499  19.315  1.00  0.00     0.039 A 
HETATM   15  C3  UNL     1      15.389  13.400  19.255  1.00  0.00     0.042 A 
HETATM   16  C2  UNL     1      15.890  12.871  20.419  1.00  0.00     0.101 A 
HETATM   17  C22 UNL     1      15.516  13.450  21.615  1.00  0.00     0.104 A 
HETATM   18  C21 UNL     1      14.667  14.525  21.669  1.00  0.00     0.076 A 
BRANCH  16  19
HETATM   19  O1  UNL     1      16.751  11.790  20.457  1.00  0.00    -0.353 OA
HETATM   20  C1  UNL     1      16.499  10.707  19.562  1.00  0.00     0.210 C 
ENDBRANCH  16  19
BRANCH  17  21
HETATM   21  O8  UNL     1      16.027  12.913  22.797  1.00  0.00    -0.353 OA
HETATM   22  C23 UNL     1      15.156  12.537  23.830  1.00  0.00     0.210 C 
ENDBRANCH  17  21
ENDBRANCH  12  13
ENDBRANCH  11  12
ENDBRANCH  10  11
ENDBRANCH   9  10
ENDBRANCH   7   9
ENDBRANCH   1   7
BRANCH   6  23
HETATM   23  S1  UNL     1       8.105  13.231  18.427  1.00  0.00     0.265 S 
HETATM   24  O5  UNL     1       8.145  11.736  18.172  1.00  0.00    -0.200 OA
HETATM   25  O6  UNL     1       6.949  13.687  17.519  1.00  0.00    -0.200 OA
BRANCH  23  26
HETATM   26  C14 UNL     1       7.551  13.563  20.050  1.00  0.00     0.081 A 
HETATM   27  C15 UNL     1       6.210  13.697  20.345  1.00  0.00     0.027 A 
HETATM   28  C16 UNL     1       5.714  13.949  21.598  1.00  0.00     0.032 A 
HETATM   29  C17 UNL     1       6.592  14.090  22.685  1.00  0.00     0.052 A 
HETATM   30  N2  UNL     1       6.239  14.334  23.934  1.00  0.00    -0.316 N 
HETATM   31  C19 UNL     1       7.919  13.963  22.416  1.00  0.00     0.038 A 
HETATM   32  C18 UNL     1       7.199  14.439  24.852  1.00  0.00     0.289 A 
ATOM     33  H2  UNL     1       5.257  14.439  24.190  1.00  0.00     0.170 HD
HETATM   34  O7  UNL     1       7.059  14.671  26.107  1.00  0.00    -0.260 OA
HETATM   35  S2  UNL     1       8.626  14.194  23.955  1.00  0.00    -0.027 SA
HETATM   36  C20 UNL     1       8.398  13.704  21.125  1.00  0.00     0.046 A 
ENDBRANCH  23  26
ENDBRANCH   6  23
TORSDOF 10
ENDMDL
