MODEL 17
REMARK VINA RESULT: -7.427113492      3.527      6.137
REMARK  10 active torsions:
REMARK  status: ('A' for Active; 'I' for Inactive)
REMARK    1  A    between atoms: O1_2  and  C2_3 
REMARK    2  A    between atoms: C5_6  and  O2_7 
REMARK    3  A    between atoms: O2_7  and  C6_8 
REMARK    4  A    between atoms: C6_8  and  C7_9 
REMARK    5  A    between atoms: C7_9  and  O3_10 
REMARK    6  A    between atoms: O3_10  and  C8_11 
REMARK    7  A    between atoms: C8_11  and  C9_13 
REMARK    8  A    between atoms: N1_18  and  S1_19 
REMARK    9  A    between atoms: S1_19  and  C14_22 
REMARK   10  A    between atoms: C22_34  and  O8_35 
ROOT
HETATM    1  C9  UNL     1       8.990  13.410  17.054  1.00  0.00     0.097 C 
HETATM    2  C10 UNL     1      10.514  13.519  16.918  1.00  0.00     0.064 C 
HETATM    3  C11 UNL     1      10.759  14.033  15.514  1.00  0.00     0.008 C 
HETATM    4  C12 UNL     1      10.020  15.315  15.337  1.00  0.00     0.021 C 
HETATM    5  C13 UNL     1       8.554  15.250  15.681  1.00  0.00     0.142 C 
HETATM    6  N1  UNL     1       8.318  14.632  16.968  1.00  0.00    -0.270 N 
ENDROOT
BRANCH   1   7
HETATM    7  C8  UNL     1       8.574  12.448  18.079  1.00  0.00     0.306 C 
HETATM    8  O4  UNL     1       7.948  11.380  17.899  1.00  0.00    -0.258 OA
BRANCH   7   9
HETATM    9  O3  UNL     1       8.905  12.747  19.391  1.00  0.00    -0.315 OA
BRANCH   9  10
HETATM   10  C7  UNL     1       8.047  12.559  20.505  1.00  0.00     0.205 C 
BRANCH  10  11
HETATM   11  C6  UNL     1       8.820  12.662  21.782  1.00  0.00     0.202 C 
BRANCH  11  12
HETATM   12  O2  UNL     1       8.094  12.304  22.888  1.00  0.00    -0.349 OA
BRANCH  12  13
HETATM   13  C5  UNL     1       7.483  13.074  23.827  1.00  0.00     0.071 A 
HETATM   14  C4  UNL     1       7.598  12.905  25.182  1.00  0.00     0.039 A 
HETATM   15  C3  UNL     1       6.945  13.718  26.119  1.00  0.00     0.042 A 
HETATM   16  C2  UNL     1       6.144  14.745  25.681  1.00  0.00     0.101 A 
HETATM   17  C22 UNL     1       6.013  14.937  24.321  1.00  0.00     0.104 A 
HETATM   18  C21 UNL     1       6.653  14.140  23.407  1.00  0.00     0.076 A 
BRANCH  16  19
HETATM   19  O1  UNL     1       5.463  15.596  26.531  1.00  0.00    -0.353 OA
HETATM   20  C1  UNL     1       4.277  15.105  27.155  1.00  0.00     0.210 C 
ENDBRANCH  16  19
BRANCH  17  21
HETATM   21  O8  UNL     1       5.201  15.981  23.876  1.00  0.00    -0.353 OA
HETATM   22  C23 UNL     1       5.220  16.357  22.526  1.00  0.00     0.210 C 
ENDBRANCH  17  21
ENDBRANCH  12  13
ENDBRANCH  11  12
ENDBRANCH  10  11
ENDBRANCH   9  10
ENDBRANCH   7   9
ENDBRANCH   1   7
BRANCH   6  23
HETATM   23  S1  UNL     1       8.188  15.686  18.245  1.00  0.00     0.265 S 
HETATM   24  O5  UNL     1       7.044  15.386  19.195  1.00  0.00    -0.200 OA
HETATM   25  O6  UNL     1       7.769  17.040  17.645  1.00  0.00    -0.200 OA
BRANCH  23  26
HETATM   26  C14 UNL     1       9.652  16.029  19.134  1.00  0.00     0.081 A 
HETATM   27  C15 UNL     1      10.767  16.559  18.518  1.00  0.00     0.027 A 
HETATM   28  C16 UNL     1      11.940  16.857  19.162  1.00  0.00     0.032 A 
HETATM   29  C17 UNL     1      12.062  16.624  20.542  1.00  0.00     0.052 A 
HETATM   30  N2  UNL     1      13.134  16.866  21.273  1.00  0.00    -0.316 N 
HETATM   31  C19 UNL     1      10.975  16.100  21.169  1.00  0.00     0.038 A 
HETATM   32  C18 UNL     1      13.088  16.587  22.575  1.00  0.00     0.289 A 
ATOM     33  H2  UNL     1      13.977  17.258  20.852  1.00  0.00     0.170 HD
HETATM   34  O7  UNL     1      14.018  16.751  23.444  1.00  0.00    -0.260 OA
HETATM   35  S2  UNL     1      11.514  15.971  22.786  1.00  0.00    -0.027 SA
HETATM   36  C20 UNL     1       9.787  15.806  20.484  1.00  0.00     0.046 A 
ENDBRANCH  23  26
ENDBRANCH   6  23
TORSDOF 10
ENDMDL
