MODEL 15
REMARK VINA RESULT: -7.472932063      3.790      6.667
REMARK  10 active torsions:
REMARK  status: ('A' for Active; 'I' for Inactive)
REMARK    1  A    between atoms: O1_2  and  C2_3 
REMARK    2  A    between atoms: C5_6  and  O2_7 
REMARK    3  A    between atoms: O2_7  and  C6_8 
REMARK    4  A    between atoms: C6_8  and  C7_9 
REMARK    5  A    between atoms: C7_9  and  O3_10 
REMARK    6  A    between atoms: O3_10  and  C8_11 
REMARK    7  A    between atoms: C8_11  and  C9_13 
REMARK    8  A    between atoms: N1_18  and  S1_19 
REMARK    9  A    between atoms: S1_19  and  C14_22 
REMARK   10  A    between atoms: C22_34  and  O8_35 
ROOT
HETATM    1  C9  UNL     1       9.437  15.422  17.575  1.00  0.00     0.097 C 
HETATM    2  C10 UNL     1       8.903  15.710  16.166  1.00  0.00     0.064 C 
HETATM    3  C11 UNL     1       9.901  15.077  15.217  1.00  0.00     0.008 C 
HETATM    4  C12 UNL     1      10.032  13.631  15.555  1.00  0.00     0.021 C 
HETATM    5  C13 UNL     1      10.349  13.348  17.002  1.00  0.00     0.142 C 
HETATM    6  N1  UNL     1       9.477  14.066  17.906  1.00  0.00    -0.270 N 
ENDROOT
BRANCH   1   7
HETATM    7  C8  UNL     1       8.955  16.378  18.576  1.00  0.00     0.306 C 
HETATM    8  O4  UNL     1       7.795  16.832  18.686  1.00  0.00    -0.258 OA
BRANCH   7   9
HETATM    9  O3  UNL     1       9.879  16.833  19.505  1.00  0.00    -0.315 OA
BRANCH   9  10
HETATM   10  C7  UNL     1      11.273  16.947  19.268  1.00  0.00     0.205 C 
BRANCH  10  11
HETATM   11  C6  UNL     1      12.036  16.080  20.219  1.00  0.00     0.202 C 
BRANCH  11  12
HETATM   12  O2  UNL     1      13.107  15.450  19.641  1.00  0.00    -0.349 OA
BRANCH  12  13
HETATM   13  C5  UNL     1      14.100  14.708  20.201  1.00  0.00     0.071 A 
HETATM   14  C4  UNL     1      14.270  14.506  21.546  1.00  0.00     0.039 A 
HETATM   15  C3  UNL     1      15.311  13.738  22.085  1.00  0.00     0.042 A 
HETATM   16  C2  UNL     1      16.220  13.146  21.242  1.00  0.00     0.101 A 
HETATM   17  C22 UNL     1      16.069  13.333  19.883  1.00  0.00     0.104 A 
HETATM   18  C21 UNL     1      15.050  14.085  19.360  1.00  0.00     0.076 A 
BRANCH  16  19
HETATM   19  O1  UNL     1      17.277  12.372  21.683  1.00  0.00    -0.353 OA
HETATM   20  C1  UNL     1      16.977  11.104  22.266  1.00  0.00     0.210 C 
ENDBRANCH  16  19
BRANCH  17  21
HETATM   21  O8  UNL     1      16.992  12.730  19.027  1.00  0.00    -0.353 OA
HETATM   22  C23 UNL     1      16.742  11.447  18.519  1.00  0.00     0.210 C 
ENDBRANCH  17  21
ENDBRANCH  12  13
ENDBRANCH  11  12
ENDBRANCH  10  11
ENDBRANCH   9  10
ENDBRANCH   7   9
ENDBRANCH   1   7
BRANCH   6  23
HETATM   23  S1  UNL     1       8.143  13.220  18.421  1.00  0.00     0.265 S 
HETATM   24  O5  UNL     1       8.215  11.724  18.180  1.00  0.00    -0.200 OA
HETATM   25  O6  UNL     1       6.983  13.643  17.503  1.00  0.00    -0.200 OA
BRANCH  23  26
HETATM   26  C14 UNL     1       7.574  13.556  20.038  1.00  0.00     0.081 A 
HETATM   27  C15 UNL     1       6.231  13.705  20.317  1.00  0.00     0.027 A 
HETATM   28  C16 UNL     1       5.723  13.961  21.564  1.00  0.00     0.032 A 
HETATM   29  C17 UNL     1       6.590  14.091  22.662  1.00  0.00     0.052 A 
HETATM   30  N2  UNL     1       6.225  14.338  23.907  1.00  0.00    -0.316 N 
HETATM   31  C19 UNL     1       7.918  13.950  22.408  1.00  0.00     0.038 A 
HETATM   32  C18 UNL     1       7.175  14.432  24.836  1.00  0.00     0.289 A 
ATOM     33  H2  UNL     1       5.242  14.454  24.151  1.00  0.00     0.170 HD
HETATM   34  O7  UNL     1       7.023  14.664  26.089  1.00  0.00    -0.260 OA
HETATM   35  S2  UNL     1       8.609  14.172  23.956  1.00  0.00    -0.027 SA
HETATM   36  C20 UNL     1       8.410  13.687  21.122  1.00  0.00     0.046 A 
ENDBRANCH  23  26
ENDBRANCH   6  23
TORSDOF 10
ENDMDL
