MODEL 1
REMARK VINA RESULT: -6.505816317      0.000      0.000
REMARK  4 active torsions:
REMARK  status: ('A' for Active; 'I' for Inactive)
REMARK    1  A    between atoms: O1_2  and  C2_3 
REMARK    2  A    between atoms: C5_6  and  C6_7 
REMARK    3  A    between atoms: C7_8  and  O2_9 
REMARK    4  A    between atoms: C8_11  and  O3_12 
ROOT
HETATM    1  C6  UNL     1     -15.192  11.912  34.211  1.00  0.00     0.287 C 
HETATM    2  C7  UNL     1     -14.010  12.817  33.985  1.00  0.00     0.187 C 
HETATM    3  C8  UNL     1     -14.220  13.814  35.134  1.00  0.00     0.182 C 
HETATM    4  C9  UNL     1     -15.648  13.546  35.632  1.00  0.00     0.250 C 
HETATM    5  C10 UNL     1     -15.656  12.655  36.830  1.00  0.00     0.045 C 
HETATM    6  N1  UNL     1     -16.249  12.808  34.499  1.00  0.00     0.102 N 
HETATM    7  C11 UNL     1     -16.605  13.780  33.529  1.00  0.00     0.311 C 
ENDROOT
BRANCH   1   8
HETATM    8  C5  UNL     1     -15.399  10.864  33.238  1.00  0.00    -0.022 A 
HETATM    9  C4  UNL     1     -14.795  10.811  32.000  1.00  0.00     0.012 A 
HETATM   10  C3  UNL     1     -15.062   9.752  31.122  1.00  0.00     0.037 A 
HETATM   11  C2  UNL     1     -15.920   8.747  31.456  1.00  0.00     0.068 A 
HETATM   12  C13 UNL     1     -16.533   8.771  32.673  1.00  0.00     0.037 A 
HETATM   13  C12 UNL     1     -16.273   9.800  33.525  1.00  0.00     0.012 A 
BRANCH  11  14
HETATM   14  O1  UNL     1     -16.171   7.704  30.567  1.00  0.00    -0.356 OA
HETATM   15  C1  UNL     1     -16.345   6.377  30.962  1.00  0.00     0.210 C 
ENDBRANCH  11  14
ENDBRANCH   1   8
BRANCH   2  16
HETATM   16  O2  UNL     1     -12.806  12.143  34.205  1.00  0.00    -0.390 OA
ATOM     17  H2  UNL     1     -12.108  12.749  34.425  1.00  0.00     0.210 HD
ENDBRANCH   2  16
BRANCH   3  18
HETATM   18  O3  UNL     1     -13.289  13.623  36.144  1.00  0.00    -0.391 OA
ATOM     19  H3  UNL     1     -13.360  14.295  36.811  1.00  0.00     0.210 HD
ENDBRANCH   3  18
TORSDOF 4
ENDMDL
