MODEL 2
REMARK VINA RESULT: -6.434155835      1.636      2.152
REMARK  4 active torsions:
REMARK  status: ('A' for Active; 'I' for Inactive)
REMARK    1  A    between atoms: O1_2  and  C2_3 
REMARK    2  A    between atoms: C5_6  and  C6_7 
REMARK    3  A    between atoms: C7_8  and  O2_9 
REMARK    4  A    between atoms: C8_11  and  O3_12 
ROOT
HETATM    1  C6  UNL     1     -14.922  12.542  33.786  1.00  0.00     0.287 C 
HETATM    2  C7  UNL     1     -16.148  13.295  34.231  1.00  0.00     0.187 C 
HETATM    3  C8  UNL     1     -15.492  14.365  35.116  1.00  0.00     0.182 C 
HETATM    4  C9  UNL     1     -14.050  13.875  35.323  1.00  0.00     0.250 C 
HETATM    5  C10 UNL     1     -13.103  14.534  34.376  1.00  0.00     0.045 C 
HETATM    6  N1  UNL     1     -14.145  12.442  34.964  1.00  0.00     0.102 N 
HETATM    7  C11 UNL     1     -14.695  11.780  36.092  1.00  0.00     0.311 C 
ENDROOT
BRANCH   1   8
HETATM    8  C5  UNL     1     -15.146  11.361  32.983  1.00  0.00    -0.022 A 
HETATM    9  C4  UNL     1     -14.485  11.072  31.808  1.00  0.00     0.012 A 
HETATM   10  C3  UNL     1     -14.773   9.900  31.099  1.00  0.00     0.037 A 
HETATM   11  C2  UNL     1     -15.709   9.011  31.538  1.00  0.00     0.068 A 
HETATM   12  C13 UNL     1     -16.380   9.268  32.696  1.00  0.00     0.037 A 
HETATM   13  C12 UNL     1     -16.098  10.408  33.385  1.00  0.00     0.012 A 
BRANCH  11  14
HETATM   14  O1  UNL     1     -15.980   7.851  30.816  1.00  0.00    -0.356 OA
HETATM   15  C1  UNL     1     -16.366   6.646  31.405  1.00  0.00     0.210 C 
ENDBRANCH  11  14
ENDBRANCH   1   8
BRANCH   2  16
HETATM   16  O2  UNL     1     -16.768  13.937  33.156  1.00  0.00    -0.390 OA
ATOM     17  H2  UNL     1     -17.193  14.741  33.433  1.00  0.00     0.210 HD
ENDBRANCH   2  16
BRANCH   3  18
HETATM   18  O3  UNL     1     -15.520  15.609  34.507  1.00  0.00    -0.391 OA
ATOM     19  H3  UNL     1     -14.735  16.107  34.703  1.00  0.00     0.210 HD
ENDBRANCH   3  18
TORSDOF 4
ENDMDL
