MODEL 4
REMARK VINA RESULT: -6.313239501      1.612      2.418
REMARK  4 active torsions:
REMARK  status: ('A' for Active; 'I' for Inactive)
REMARK    1  A    between atoms: O1_2  and  C2_3 
REMARK    2  A    between atoms: C5_6  and  C6_7 
REMARK    3  A    between atoms: C7_8  and  O2_9 
REMARK    4  A    between atoms: C8_11  and  O3_12 
ROOT
HETATM    1  C6  UNL     1     -14.973  12.471  33.809  1.00  0.00     0.287 C 
HETATM    2  C7  UNL     1     -16.137  13.330  34.224  1.00  0.00     0.187 C 
HETATM    3  C8  UNL     1     -15.397  14.400  35.040  1.00  0.00     0.182 C 
HETATM    4  C9  UNL     1     -13.990  13.824  35.259  1.00  0.00     0.250 C 
HETATM    5  C10 UNL     1     -13.013  14.363  34.267  1.00  0.00     0.045 C 
HETATM    6  N1  UNL     1     -14.187  12.383  34.984  1.00  0.00     0.102 N 
HETATM    7  C11 UNL     1     -14.765  11.826  36.153  1.00  0.00     0.311 C 
ENDROOT
BRANCH   1   8
HETATM    8  C5  UNL     1     -15.287  11.265  33.078  1.00  0.00    -0.022 A 
HETATM    9  C4  UNL     1     -16.258  10.356  33.441  1.00  0.00     0.012 A 
HETATM   10  C3  UNL     1     -16.489   9.213  32.666  1.00  0.00     0.037 A 
HETATM   11  C2  UNL     1     -15.768   8.958  31.537  1.00  0.00     0.068 A 
HETATM   12  C13 UNL     1     -14.801   9.837  31.151  1.00  0.00     0.037 A 
HETATM   13  C12 UNL     1     -14.578  10.949  31.906  1.00  0.00     0.012 A 
BRANCH  11  14
HETATM   14  O1  UNL     1     -16.013   7.814  30.782  1.00  0.00    -0.356 OA
HETATM   15  C1  UNL     1     -16.362   6.581  31.337  1.00  0.00     0.210 C 
ENDBRANCH  11  14
ENDBRANCH   1   8
BRANCH   2  16
HETATM   16  O2  UNL     1     -16.728  13.952  33.121  1.00  0.00    -0.390 OA
ATOM     17  H2  UNL     1     -16.771  14.894  33.238  1.00  0.00     0.210 HD
ENDBRANCH   2  16
BRANCH   3  18
HETATM   18  O3  UNL     1     -15.348  15.608  34.360  1.00  0.00    -0.391 OA
ATOM     19  H3  UNL     1     -16.154  16.098  34.471  1.00  0.00     0.210 HD
ENDBRANCH   3  18
TORSDOF 4
ENDMDL
