MODEL 2
REMARK VINA RESULT: -6.714068391      3.239      5.372
REMARK  4 active torsions:
REMARK  status: ('A' for Active; 'I' for Inactive)
REMARK    1  A    between atoms: C5_7  and  C6_8 
REMARK    2  A    between atoms: C12_16  and  C13_17 
REMARK    3  A    between atoms: N3_21  and  C15_22 
REMARK    4  A    between atoms: C15_22  and  C16_23 
REMARK       I    between atoms: C16_23  and  N4_25 
ROOT
HETATM    1  C1  UNL     1      60.080  52.166  34.975  1.00  0.00     0.069 C 
HETATM    2  C2  UNL     1      59.332  50.883  34.955  1.00  0.00     0.017 A 
HETATM    3  N1  UNL     1      59.988  49.723  34.937  1.00  0.00    -0.360 N 
ATOM      4  H1  UNL     1      61.007  49.734  34.937  1.00  0.00     0.165 HD
HETATM    5  C3  UNL     1      59.354  48.538  34.919  1.00  0.00     0.044 A 
HETATM    6  C4  UNL     1      57.990  48.536  34.920  1.00  0.00     0.068 A 
HETATM    7  C5  UNL     1      57.296  49.757  34.940  1.00  0.00     0.007 A 
HETATM    8  C12 UNL     1      57.918  50.956  34.958  1.00  0.00     0.011 A 
HETATM    9  C14 UNL     1      57.589  47.135  34.898  1.00  0.00     0.257 A 
HETATM   10  O1  UNL     1      56.405  46.714  34.892  1.00  0.00    -0.267 OA
HETATM   11  N3  UNL     1      58.713  46.290  34.884  1.00  0.00    -0.334 N 
HETATM   12  C19 UNL     1      59.874  47.124  34.897  1.00  0.00     0.184 A 
ENDROOT
BRANCH   7  13
HETATM   13  C6  UNL     1      55.848  49.591  34.935  1.00  0.00    -0.002 A 
HETATM   14  C7  UNL     1      55.125  49.430  36.095  1.00  0.00     0.016 A 
HETATM   15  C8  UNL     1      53.768  49.245  35.979  1.00  0.00     0.025 A 
HETATM   16  C9  UNL     1      53.135  49.219  34.755  1.00  0.00     0.035 A 
HETATM   17 CL1  UNL     1      51.404  48.984  34.598  1.00  0.00    -0.084 Cl
HETATM   18  C10 UNL     1      53.863  49.380  33.599  1.00  0.00     0.048 A 
HETATM   19  C11 UNL     1      55.221  49.566  33.683  1.00  0.00     0.046 A 
HETATM   20 CL2  UNL     1      56.166  49.773  32.221  1.00  0.00    -0.083 Cl
ENDBRANCH   7  13
BRANCH   8  21
HETATM   21  C13 UNL     1      57.335  52.269  34.982  1.00  0.00     0.114 C 
HETATM   22  N2  UNL     1      56.608  52.745  36.090  1.00  0.00    -0.114 NA
ENDBRANCH   8  21
BRANCH  11  23
HETATM   23  C15 UNL     1      58.779  44.841  34.862  1.00  0.00     0.229 C 
BRANCH  23  24
HETATM   24  C16 UNL     1      58.364  44.344  33.508  1.00  0.00     0.237 C 
HETATM   25  O2  UNL     1      57.154  44.161  33.269  1.00  0.00    -0.272 OA
HETATM   26  N4  UNL     1      59.315  44.077  32.495  1.00  0.00    -0.359 N 
HETATM   27  C17 UNL     1      58.857  43.601  31.211  1.00  0.00     0.152 C 
HETATM   28  C18 UNL     1      60.743  44.287  32.761  1.00  0.00     0.152 C 
ENDBRANCH  23  24
ENDBRANCH  11  23
TORSDOF 4
ENDMDL
