MODEL 3
REMARK VINA RESULT: -6.667996344      6.817     10.340
REMARK  4 active torsions:
REMARK  status: ('A' for Active; 'I' for Inactive)
REMARK    1  A    between atoms: C5_7  and  C6_8 
REMARK    2  A    between atoms: C12_16  and  C13_17 
REMARK    3  A    between atoms: N3_21  and  C15_22 
REMARK    4  A    between atoms: C15_22  and  C16_23 
REMARK       I    between atoms: C16_23  and  N4_25 
ROOT
HETATM    1  C1  UNL     1      45.771  50.908  36.233  1.00  0.00     0.069 C 
HETATM    2  C2  UNL     1      45.751  50.266  34.895  1.00  0.00     0.017 A 
HETATM    3  N1  UNL     1      44.842  50.627  33.989  1.00  0.00    -0.360 N 
ATOM      4  H1  UNL     1      44.165  51.349  34.234  1.00  0.00     0.165 HD
HETATM    5  C3  UNL     1      44.786  50.074  32.766  1.00  0.00     0.044 A 
HETATM    6  C4  UNL     1      45.698  49.110  32.450  1.00  0.00     0.068 A 
HETATM    7  C5  UNL     1      46.658  48.728  33.403  1.00  0.00     0.007 A 
HETATM    8  C12 UNL     1      46.727  49.273  34.637  1.00  0.00     0.011 A 
HETATM    9  C14 UNL     1      45.399  48.703  31.084  1.00  0.00     0.257 A 
HETATM   10  O1  UNL     1      46.020  47.828  30.429  1.00  0.00    -0.267 OA
HETATM   11  N3  UNL     1      44.304  49.423  30.572  1.00  0.00    -0.334 N 
HETATM   12  C19 UNL     1      43.865  50.318  31.598  1.00  0.00     0.184 A 
ENDROOT
BRANCH   7  13
HETATM   13  C6  UNL     1      47.557  47.687  32.920  1.00  0.00    -0.002 A 
HETATM   14  C7  UNL     1      47.284  46.348  33.086  1.00  0.00     0.016 A 
HETATM   15  C8  UNL     1      48.215  45.447  32.627  1.00  0.00     0.025 A 
HETATM   16  C9  UNL     1      49.385  45.849  32.020  1.00  0.00     0.035 A 
HETATM   17 CL1  UNL     1      50.578  44.706  31.430  1.00  0.00    -0.084 Cl
HETATM   18  C10 UNL     1      49.652  47.189  31.857  1.00  0.00     0.048 A 
HETATM   19  C11 UNL     1      48.741  48.113  32.306  1.00  0.00     0.046 A 
HETATM   20 CL2  UNL     1      49.064  49.825  32.108  1.00  0.00    -0.083 Cl
ENDBRANCH   7  13
BRANCH   8  21
HETATM   21  C13 UNL     1      47.652  48.980  35.696  1.00  0.00     0.114 C 
HETATM   22  N2  UNL     1      48.981  49.443  35.680  1.00  0.00    -0.114 NA
ENDBRANCH   8  21
BRANCH  11  23
HETATM   23  C15 UNL     1      43.672  49.342  29.269  1.00  0.00     0.229 C 
BRANCH  23  24
HETATM   24  C16 UNL     1      44.553  50.002  28.247  1.00  0.00     0.237 C 
HETATM   25  O2  UNL     1      44.780  51.225  28.336  1.00  0.00    -0.272 OA
HETATM   26  N4  UNL     1      45.131  49.270  27.185  1.00  0.00    -0.359 N 
HETATM   27  C17 UNL     1      45.969  49.958  26.232  1.00  0.00     0.152 C 
HETATM   28  C18 UNL     1      44.873  47.829  27.066  1.00  0.00     0.152 C 
ENDBRANCH  23  24
ENDBRANCH  11  23
TORSDOF 4
ENDMDL
