MODEL 1
REMARK VINA RESULT: -6.775208035      0.000      0.000
REMARK  4 active torsions:
REMARK  status: ('A' for Active; 'I' for Inactive)
REMARK    1  A    between atoms: C5_7  and  C6_8 
REMARK    2  A    between atoms: C12_16  and  C13_17 
REMARK    3  A    between atoms: N3_21  and  C15_22 
REMARK    4  A    between atoms: C15_22  and  C16_23 
REMARK       I    between atoms: C16_23  and  N4_25 
ROOT
HETATM    1  C1  UNL     1      49.721  46.693  32.259  1.00  0.00     0.069 C 
HETATM    2  C2  UNL     1      51.136  46.767  32.703  1.00  0.00     0.017 A 
HETATM    3  N1  UNL     1      51.961  45.742  32.489  1.00  0.00    -0.360 N 
ATOM      4  H1  UNL     1      51.603  44.912  32.017  1.00  0.00     0.165 HD
HETATM    5  C3  UNL     1      53.249  45.763  32.873  1.00  0.00     0.044 A 
HETATM    6  C4  UNL     1      53.717  46.879  33.503  1.00  0.00     0.068 A 
HETATM    7  C5  UNL     1      52.849  47.960  33.729  1.00  0.00     0.007 A 
HETATM    8  C12 UNL     1      51.553  47.955  33.350  1.00  0.00     0.011 A 
HETATM    9  C14 UNL     1      55.120  46.618  33.797  1.00  0.00     0.257 A 
HETATM   10  O1  UNL     1      55.905  47.410  34.376  1.00  0.00    -0.267 OA
HETATM   11  N3  UNL     1      55.501  45.342  33.342  1.00  0.00    -0.334 N 
HETATM   12  C19 UNL     1      54.350  44.742  32.741  1.00  0.00     0.184 A 
ENDROOT
BRANCH   7  13
HETATM   13  C6  UNL     1      53.493  49.074  34.414  1.00  0.00    -0.002 A 
HETATM   14  C7  UNL     1      53.504  49.183  35.786  1.00  0.00     0.016 A 
HETATM   15  C8  UNL     1      54.106  50.292  36.331  1.00  0.00     0.025 A 
HETATM   16  C9  UNL     1      54.684  51.269  35.551  1.00  0.00     0.035 A 
HETATM   17 CL1  UNL     1      55.456  52.686  36.239  1.00  0.00    -0.084 Cl
HETATM   18  C10 UNL     1      54.670  51.155  34.180  1.00  0.00     0.048 A 
HETATM   19  C11 UNL     1      54.075  50.059  33.606  1.00  0.00     0.046 A 
HETATM   20 CL2  UNL     1      54.046  49.895  31.860  1.00  0.00    -0.083 Cl
ENDBRANCH   7  13
BRANCH   8  21
HETATM   21  C13 UNL     1      50.565  48.986  33.515  1.00  0.00     0.114 C 
HETATM   22  N2  UNL     1      49.944  49.236  34.752  1.00  0.00    -0.114 NA
ENDBRANCH   8  21
BRANCH  11  23
HETATM   23  C15 UNL     1      56.788  44.679  33.423  1.00  0.00     0.229 C 
BRANCH  23  24
HETATM   24  C16 UNL     1      57.100  44.369  34.858  1.00  0.00     0.237 C 
HETATM   25  O2  UNL     1      56.362  43.586  35.488  1.00  0.00    -0.272 OA
HETATM   26  N4  UNL     1      58.212  44.946  35.515  1.00  0.00    -0.359 N 
HETATM   27  C17 UNL     1      58.462  44.611  36.897  1.00  0.00     0.152 C 
HETATM   28  C18 UNL     1      59.091  45.870  34.787  1.00  0.00     0.152 C 
ENDBRANCH  23  24
ENDBRANCH  11  23
TORSDOF 4
ENDMDL
