MODEL 5
REMARK VINA RESULT: -9.350989776      3.220      8.488
REMARK  5 active torsions:
REMARK  status: ('A' for Active; 'I' for Inactive)
REMARK    1  A    between atoms: O1_2  and  C2_3 
REMARK    2  A    between atoms: C5_6  and  C6_7 
REMARK    3  A    between atoms: C11_14  and  N2_15 
REMARK    4  A    between atoms: N2_15  and  C12_17 
REMARK    5  A    between atoms: C15_20  and  N3_21 
ROOT
HETATM    1  C6  UNL     1      14.580 -26.716 -20.437  1.00  0.00     0.069 A 
HETATM    2  C7  UNL     1      15.620 -27.597 -20.231  1.00  0.00     0.032 A 
HETATM    3  C8  UNL     1      15.456 -28.844 -19.664  1.00  0.00     0.006 A 
HETATM    4  C9  UNL     1      14.180 -29.206 -19.292  1.00  0.00     0.051 A 
HETATM    5  C10 UNL     1      13.152 -28.311 -19.506  1.00  0.00     0.143 A 
HETATM    6  N1  UNL     1      11.807 -28.368 -19.255  1.00  0.00    -0.173 N 
ATOM      7  H1  UNL     1      11.333 -29.166 -18.831  1.00  0.00     0.186 HD
HETATM    8  C11 UNL     1      11.193 -27.242 -19.638  1.00  0.00     0.699 A 
HETATM    9  N5  UNL     1      12.200 -26.454 -20.148  1.00  0.00    -0.123 N 
ATOM     10  H5  UNL     1      12.084 -25.516 -20.533  1.00  0.00     0.206 HD
HETATM   11  N6  UNL     1      13.336 -27.107 -20.058  1.00  0.00    -0.225 N 
ENDROOT
BRANCH   8  12
HETATM   12  N2  UNL     1       9.830 -26.900 -19.590  1.00  0.00    -0.190 N 
ATOM     13  H2  UNL     1       9.249 -27.530 -19.039  1.00  0.00     0.184 HD
BRANCH  12  14
HETATM   14  C12 UNL     1       9.150 -25.839 -20.175  1.00  0.00     0.049 A 
HETATM   15  C13 UNL     1       9.774 -24.764 -20.738  1.00  0.00     0.032 A 
HETATM   16  C14 UNL     1       9.092 -23.694 -21.289  1.00  0.00     0.031 A 
HETATM   17  C15 UNL     1       7.709 -23.713 -21.273  1.00  0.00     0.030 A 
HETATM   18  C21 UNL     1       7.043 -24.777 -20.717  1.00  0.00     0.031 A 
HETATM   19  C22 UNL     1       7.767 -25.846 -20.166  1.00  0.00     0.032 A 
BRANCH  17  20
HETATM   20  N3  UNL     1       6.981 -22.631 -21.810  1.00  0.00    -0.378 N 
HETATM   21  C16 UNL     1       6.343 -21.614 -21.001  1.00  0.00     0.153 C 
HETATM   22  C17 UNL     1       5.029 -21.157 -21.538  1.00  0.00     0.291 C 
HETATM   23  N4  UNL     1       4.762 -21.418 -22.894  1.00  0.00     0.087 N 
HETATM   24  C18 UNL     1       5.179 -20.296 -23.737  1.00  0.00     0.310 C 
HETATM   25  C19 UNL     1       5.337 -22.612 -23.464  1.00  0.00     0.291 C 
HETATM   26  C20 UNL     1       6.854 -22.482 -23.235  1.00  0.00     0.153 C 
ENDBRANCH  17  20
ENDBRANCH  12  14
ENDBRANCH   8  12
BRANCH   1  27
HETATM   27  C5  UNL     1      14.759 -25.393 -21.040  1.00  0.00    -0.007 A 
HETATM   28  C4  UNL     1      15.923 -24.670 -20.855  1.00  0.00     0.016 A 
HETATM   29  C3  UNL     1      16.075 -23.425 -21.430  1.00  0.00     0.037 A 
HETATM   30  C2  UNL     1      15.095 -22.842 -22.206  1.00  0.00     0.068 A 
HETATM   31  C24 UNL     1      13.933 -23.562 -22.392  1.00  0.00     0.037 A 
HETATM   32  C23 UNL     1      13.781 -24.807 -21.817  1.00  0.00     0.016 A 
BRANCH  30  33
HETATM   33  O1  UNL     1      15.280 -21.582 -22.773  1.00  0.00    -0.356 OA
HETATM   34  C1  UNL     1      16.524 -20.951 -22.742  1.00  0.00     0.210 C 
ENDBRANCH  30  33
ENDBRANCH   1  27
TORSDOF 5
ENDMDL
