MODEL 1
REMARK VINA RESULT: -9.769252335      0.000      0.000
REMARK  5 active torsions:
REMARK  status: ('A' for Active; 'I' for Inactive)
REMARK    1  A    between atoms: O1_2  and  C2_3 
REMARK    2  A    between atoms: C5_6  and  C6_7 
REMARK    3  A    between atoms: C11_14  and  N2_15 
REMARK    4  A    between atoms: N2_15  and  C12_17 
REMARK    5  A    between atoms: C15_20  and  N3_21 
ROOT
HETATM    1  C6  UNL     1      10.085 -25.813 -20.277  1.00  0.00     0.069 A 
HETATM    2  C7  UNL     1       8.804 -26.306 -20.157  1.00  0.00     0.032 A 
HETATM    3  C8  UNL     1       7.674 -25.532 -20.328  1.00  0.00     0.006 A 
HETATM    4  C9  UNL     1       7.861 -24.203 -20.635  1.00  0.00     0.051 A 
HETATM    5  C10 UNL     1       9.150 -23.727 -20.751  1.00  0.00     0.143 A 
HETATM    6  N1  UNL     1       9.659 -22.489 -21.040  1.00  0.00    -0.173 N 
ATOM      7  H1  UNL     1       9.091 -21.663 -21.228  1.00  0.00     0.186 HD
HETATM    8  C11 UNL     1      10.997 -22.502 -21.043  1.00  0.00     0.699 A 
HETATM    9  N5  UNL     1      11.332 -23.803 -20.745  1.00  0.00    -0.123 N 
ATOM     10  H5  UNL     1      12.281 -24.169 -20.665  1.00  0.00     0.206 HD
HETATM   11  N6  UNL     1      10.230 -24.498 -20.580  1.00  0.00    -0.225 N 
ENDROOT
BRANCH   8  12
HETATM   12  N2  UNL     1      11.906 -21.465 -21.318  1.00  0.00    -0.190 N 
ATOM     13  H2  UNL     1      11.557 -20.526 -21.123  1.00  0.00     0.184 HD
BRANCH  12  14
HETATM   14  C12 UNL     1      13.203 -21.516 -21.814  1.00  0.00     0.049 A 
HETATM   15  C13 UNL     1      13.806 -22.668 -22.226  1.00  0.00     0.032 A 
HETATM   16  C14 UNL     1      15.109 -22.719 -22.687  1.00  0.00     0.031 A 
HETATM   17  C15 UNL     1      15.839 -21.545 -22.736  1.00  0.00     0.030 A 
HETATM   18  C21 UNL     1      15.268 -20.363 -22.331  1.00  0.00     0.031 A 
HETATM   19  C22 UNL     1      13.944 -20.348 -21.868  1.00  0.00     0.032 A 
BRANCH  17  20
HETATM   20  N3  UNL     1      17.176 -21.562 -23.184  1.00  0.00    -0.378 N 
HETATM   21  C16 UNL     1      17.598 -22.179 -24.424  1.00  0.00     0.153 C 
HETATM   22  C17 UNL     1      18.919 -22.864 -24.334  1.00  0.00     0.291 C 
HETATM   23  N4  UNL     1      19.761 -22.503 -23.266  1.00  0.00     0.087 N 
HETATM   24  C18 UNL     1      20.664 -21.419 -23.653  1.00  0.00     0.310 C 
HETATM   25  C19 UNL     1      19.129 -22.107 -22.031  1.00  0.00     0.291 C 
HETATM   26  C20 UNL     1      18.207 -20.931 -22.404  1.00  0.00     0.153 C 
ENDBRANCH  17  20
ENDBRANCH  12  14
ENDBRANCH   8  12
BRANCH   1  27
HETATM   27  C5  UNL     1      11.281 -26.639 -20.094  1.00  0.00    -0.007 A 
HETATM   28  C4  UNL     1      11.325 -27.639 -19.140  1.00  0.00     0.016 A 
HETATM   29  C3  UNL     1      12.460 -28.407 -18.981  1.00  0.00     0.037 A 
HETATM   30  C2  UNL     1      13.592 -28.226 -19.748  1.00  0.00     0.068 A 
HETATM   31  C24 UNL     1      13.549 -27.230 -20.701  1.00  0.00     0.037 A 
HETATM   32  C23 UNL     1      12.414 -26.461 -20.860  1.00  0.00     0.016 A 
BRANCH  30  33
HETATM   33  O1  UNL     1      14.723 -29.020 -19.562  1.00  0.00    -0.356 OA
HETATM   34  C1  UNL     1      16.003 -28.464 -19.561  1.00  0.00     0.210 C 
ENDBRANCH  30  33
ENDBRANCH   1  27
TORSDOF 5
ENDMDL
