MODEL 4
REMARK VINA RESULT: -9.370975044      3.223      8.215
REMARK  5 active torsions:
REMARK  status: ('A' for Active; 'I' for Inactive)
REMARK    1  A    between atoms: O1_2  and  C2_3 
REMARK    2  A    between atoms: C5_6  and  C6_7 
REMARK    3  A    between atoms: C11_14  and  N2_15 
REMARK    4  A    between atoms: N2_15  and  C12_17 
REMARK    5  A    between atoms: C15_20  and  N3_21 
ROOT
HETATM    1  C6  UNL     1      14.567 -26.716 -20.440  1.00  0.00     0.069 A 
HETATM    2  C7  UNL     1      15.615 -27.585 -20.227  1.00  0.00     0.032 A 
HETATM    3  C8  UNL     1      15.461 -28.836 -19.666  1.00  0.00     0.006 A 
HETATM    4  C9  UNL     1      14.185 -29.214 -19.308  1.00  0.00     0.051 A 
HETATM    5  C10 UNL     1      13.149 -28.331 -19.528  1.00  0.00     0.143 A 
HETATM    6  N1  UNL     1      11.803 -28.404 -19.291  1.00  0.00    -0.173 N 
ATOM      7  H1  UNL     1      11.335 -29.209 -18.874  1.00  0.00     0.186 HD
HETATM    8  C11 UNL     1      11.180 -27.283 -19.676  1.00  0.00     0.699 A 
HETATM    9  N5  UNL     1      12.182 -26.482 -20.173  1.00  0.00    -0.123 N 
ATOM     10  H5  UNL     1      12.059 -25.545 -20.556  1.00  0.00     0.206 HD
HETATM   11  N6  UNL     1      13.324 -27.122 -20.075  1.00  0.00    -0.225 N 
ENDROOT
BRANCH   8  12
HETATM   12  N2  UNL     1       9.813 -26.957 -19.640  1.00  0.00    -0.190 N 
ATOM     13  H2  UNL     1       9.226 -27.622 -19.136  1.00  0.00     0.184 HD
BRANCH  12  14
HETATM   14  C12 UNL     1       9.134 -25.873 -20.183  1.00  0.00     0.049 A 
HETATM   15  C13 UNL     1       9.760 -24.795 -20.737  1.00  0.00     0.032 A 
HETATM   16  C14 UNL     1       9.081 -23.702 -21.246  1.00  0.00     0.031 A 
HETATM   17  C15 UNL     1       7.698 -23.701 -21.194  1.00  0.00     0.030 A 
HETATM   18  C21 UNL     1       7.030 -24.768 -20.645  1.00  0.00     0.031 A 
HETATM   19  C22 UNL     1       7.751 -25.859 -20.137  1.00  0.00     0.032 A 
BRANCH  17  20
HETATM   20  N3  UNL     1       6.974 -22.596 -21.687  1.00  0.00    -0.378 N 
HETATM   21  C16 UNL     1       6.865 -22.273 -23.094  1.00  0.00     0.153 C 
HETATM   22  C17 UNL     1       6.890 -20.809 -23.377  1.00  0.00     0.291 C 
HETATM   23  N4  UNL     1       6.601 -19.941 -22.308  1.00  0.00     0.087 N 
HETATM   24  C18 UNL     1       5.172 -19.624 -22.260  1.00  0.00     0.310 C 
HETATM   25  C19 UNL     1       6.982 -20.372 -20.984  1.00  0.00     0.291 C 
HETATM   26  C20 UNL     1       6.277 -21.726 -20.778  1.00  0.00     0.153 C 
ENDBRANCH  17  20
ENDBRANCH  12  14
ENDBRANCH   8  12
BRANCH   1  27
HETATM   27  C5  UNL     1      14.737 -25.389 -21.037  1.00  0.00    -0.007 A 
HETATM   28  C4  UNL     1      15.891 -24.652 -20.837  1.00  0.00     0.016 A 
HETATM   29  C3  UNL     1      16.034 -23.404 -21.406  1.00  0.00     0.037 A 
HETATM   30  C2  UNL     1      15.055 -22.830 -22.191  1.00  0.00     0.068 A 
HETATM   31  C24 UNL     1      13.904 -23.563 -22.391  1.00  0.00     0.037 A 
HETATM   32  C23 UNL     1      13.761 -24.811 -21.822  1.00  0.00     0.016 A 
BRANCH  30  33
HETATM   33  O1  UNL     1      15.231 -21.566 -22.752  1.00  0.00    -0.356 OA
HETATM   34  C1  UNL     1      16.486 -20.958 -22.785  1.00  0.00     0.210 C 
ENDBRANCH  30  33
ENDBRANCH   1  27
TORSDOF 5
ENDMDL
