MODEL 3
REMARK VINA RESULT: -9.507196748      2.154      2.643
REMARK  5 active torsions:
REMARK  status: ('A' for Active; 'I' for Inactive)
REMARK    1  A    between atoms: O1_2  and  C2_3 
REMARK    2  A    between atoms: C5_6  and  C6_7 
REMARK    3  A    between atoms: C11_14  and  N2_15 
REMARK    4  A    between atoms: N2_15  and  C12_17 
REMARK    5  A    between atoms: C15_20  and  N3_21 
ROOT
HETATM    1  C6  UNL     1      10.694 -24.503 -20.285  1.00  0.00     0.069 A 
HETATM    2  C7  UNL     1       9.435 -24.496 -20.843  1.00  0.00     0.032 A 
HETATM    3  C8  UNL     1       8.694 -23.347 -21.029  1.00  0.00     0.006 A 
HETATM    4  C9  UNL     1       9.263 -22.158 -20.628  1.00  0.00     0.051 A 
HETATM    5  C10 UNL     1      10.524 -22.184 -20.072  1.00  0.00     0.143 A 
HETATM    6  N1  UNL     1      11.345 -21.201 -19.586  1.00  0.00    -0.173 N 
ATOM      7  H1  UNL     1      11.107 -20.209 -19.570  1.00  0.00     0.186 HD
HETATM    8  C11 UNL     1      12.499 -21.709 -19.136  1.00  0.00     0.699 A 
HETATM    9  N5  UNL     1      12.390 -23.064 -19.353  1.00  0.00    -0.123 N 
ATOM     10  H5  UNL     1      13.098 -23.761 -19.124  1.00  0.00     0.206 HD
HETATM   11  N6  UNL     1      11.224 -23.313 -19.902  1.00  0.00    -0.225 N 
ENDROOT
BRANCH   8  12
HETATM   12  N2  UNL     1      13.617 -21.054 -18.592  1.00  0.00    -0.190 N 
ATOM     13  H2  UNL     1      13.433 -20.525 -17.740  1.00  0.00     0.184 HD
BRANCH  12  14
HETATM   14  C12 UNL     1      14.935 -21.012 -19.032  1.00  0.00     0.049 A 
HETATM   15  C13 UNL     1      15.788 -22.074 -18.956  1.00  0.00     0.032 A 
HETATM   16  C14 UNL     1      17.108 -22.017 -19.365  1.00  0.00     0.031 A 
HETATM   17  C15 UNL     1      17.590 -20.826 -19.878  1.00  0.00     0.030 A 
HETATM   18  C21 UNL     1      16.763 -19.734 -19.973  1.00  0.00     0.031 A 
HETATM   19  C22 UNL     1      15.429 -19.827 -19.548  1.00  0.00     0.032 A 
BRANCH  17  20
HETATM   20  N3  UNL     1      18.935 -20.727 -20.288  1.00  0.00    -0.378 N 
HETATM   21  C16 UNL     1      19.740 -19.535 -20.116  1.00  0.00     0.153 C 
HETATM   22  C17 UNL     1      20.666 -19.267 -21.254  1.00  0.00     0.291 C 
HETATM   23  N4  UNL     1      20.960 -20.342 -22.112  1.00  0.00     0.087 N 
HETATM   24  C18 UNL     1      22.160 -21.055 -21.668  1.00  0.00     0.310 C 
HETATM   25  C19 UNL     1      19.929 -21.333 -22.309  1.00  0.00     0.291 C 
HETATM   26  C20 UNL     1      19.589 -21.853 -20.900  1.00  0.00     0.153 C 
ENDBRANCH  17  20
ENDBRANCH  12  14
ENDBRANCH   8  12
BRANCH   1  27
HETATM   27  C5  UNL     1      11.477 -25.726 -20.091  1.00  0.00    -0.007 A 
HETATM   28  C4  UNL     1      11.121 -26.664 -19.138  1.00  0.00     0.016 A 
HETATM   29  C3  UNL     1      11.869 -27.810 -18.968  1.00  0.00     0.037 A 
HETATM   30  C2  UNL     1      12.992 -28.082 -19.721  1.00  0.00     0.068 A 
HETATM   31  C24 UNL     1      13.348 -27.148 -20.673  1.00  0.00     0.037 A 
HETATM   32  C23 UNL     1      12.600 -26.002 -20.843  1.00  0.00     0.016 A 
BRANCH  30  33
HETATM   33  O1  UNL     1      13.727 -29.250 -19.525  1.00  0.00    -0.356 OA
HETATM   34  C1  UNL     1      15.109 -29.275 -19.717  1.00  0.00     0.210 C 
ENDBRANCH  30  33
ENDBRANCH   1  27
TORSDOF 5
ENDMDL
