MODEL 2
REMARK VINA RESULT: -9.539309388      1.095      1.853
REMARK  5 active torsions:
REMARK  status: ('A' for Active; 'I' for Inactive)
REMARK    1  A    between atoms: O1_2  and  C2_3 
REMARK    2  A    between atoms: C5_6  and  C6_7 
REMARK    3  A    between atoms: C11_14  and  N2_15 
REMARK    4  A    between atoms: N2_15  and  C12_17 
REMARK    5  A    between atoms: C15_20  and  N3_21 
ROOT
HETATM    1  C6  UNL     1      10.449 -25.925 -20.316  1.00  0.00     0.069 A 
HETATM    2  C7  UNL     1       9.167 -26.404 -20.154  1.00  0.00     0.032 A 
HETATM    3  C8  UNL     1       8.039 -25.628 -20.328  1.00  0.00     0.006 A 
HETATM    4  C9  UNL     1       8.229 -24.310 -20.683  1.00  0.00     0.051 A 
HETATM    5  C10 UNL     1       9.519 -23.849 -20.840  1.00  0.00     0.143 A 
HETATM    6  N1  UNL     1      10.030 -22.624 -21.180  1.00  0.00    -0.173 N 
ATOM      7  H1  UNL     1       9.464 -21.801 -21.383  1.00  0.00     0.186 HD
HETATM    8  C11 UNL     1      11.368 -22.648 -21.209  1.00  0.00     0.699 A 
HETATM    9  N5  UNL     1      11.700 -23.941 -20.875  1.00  0.00    -0.123 N 
ATOM     10  H5  UNL     1      12.648 -24.311 -20.802  1.00  0.00     0.206 HD
HETATM   11  N6  UNL     1      10.597 -24.621 -20.666  1.00  0.00    -0.225 N 
ENDROOT
BRANCH   8  12
HETATM   12  N2  UNL     1      12.278 -21.627 -21.537  1.00  0.00    -0.190 N 
ATOM     13  H2  UNL     1      11.856 -20.783 -21.921  1.00  0.00     0.184 HD
BRANCH  12  14
HETATM   14  C12 UNL     1      13.662 -21.587 -21.419  1.00  0.00     0.049 A 
HETATM   15  C13 UNL     1      14.314 -20.907 -20.433  1.00  0.00     0.032 A 
HETATM   16  C14 UNL     1      15.693 -20.842 -20.340  1.00  0.00     0.031 A 
HETATM   17  C15 UNL     1      16.451 -21.500 -21.291  1.00  0.00     0.030 A 
HETATM   18  C21 UNL     1      15.833 -22.198 -22.300  1.00  0.00     0.031 A 
HETATM   19  C22 UNL     1      14.432 -22.242 -22.365  1.00  0.00     0.032 A 
BRANCH  17  20
HETATM   20  N3  UNL     1      17.859 -21.441 -21.238  1.00  0.00    -0.378 N 
HETATM   21  C16 UNL     1      18.591 -20.399 -20.549  1.00  0.00     0.153 C 
HETATM   22  C17 UNL     1      19.835 -19.974 -21.254  1.00  0.00     0.291 C 
HETATM   23  N4  UNL     1      20.364 -20.855 -22.215  1.00  0.00     0.087 N 
HETATM   24  C18 UNL     1      21.347 -21.758 -21.614  1.00  0.00     0.310 C 
HETATM   25  C19 UNL     1      19.429 -21.675 -22.947  1.00  0.00     0.291 C 
HETATM   26  C20 UNL     1      18.650 -22.459 -21.875  1.00  0.00     0.153 C 
ENDBRANCH  17  20
ENDBRANCH  12  14
ENDBRANCH   8  12
BRANCH   1  27
HETATM   27  C5  UNL     1      11.642 -26.753 -20.130  1.00  0.00    -0.007 A 
HETATM   28  C4  UNL     1      12.796 -26.526 -20.859  1.00  0.00     0.016 A 
HETATM   29  C3  UNL     1      13.911 -27.316 -20.672  1.00  0.00     0.037 A 
HETATM   30  C2  UNL     1      13.940 -28.356 -19.766  1.00  0.00     0.068 A 
HETATM   31  C24 UNL     1      12.790 -28.584 -19.038  1.00  0.00     0.037 A 
HETATM   32  C23 UNL     1      11.675 -27.794 -19.225  1.00  0.00     0.016 A 
BRANCH  30  33
HETATM   33  O1  UNL     1      15.083 -29.137 -19.601  1.00  0.00    -0.356 OA
HETATM   34  C1  UNL     1      16.326 -28.553 -19.352  1.00  0.00     0.210 C 
ENDBRANCH  30  33
ENDBRANCH   1  27
TORSDOF 5
ENDMDL
