MODEL 1
REMARK VINA RESULT: -8.050725326      0.000      0.000
REMARK  4 active torsions:
REMARK  status: ('A' for Active; 'I' for Inactive)
REMARK    1  A    between atoms: N4_10  and  C5_11 
REMARK       I    between atoms: N5_13  and  C7_14 
REMARK    2  A    between atoms: C7_14  and  C8_16 
REMARK    3  A    between atoms: C8_16  and  P1_17 
REMARK    4  A    between atoms: C10_22  and  O5_23 
ROOT
HETATM    1  N1  UNL     1      19.259 -39.246 -74.169  1.00  0.00    -0.063 NA
HETATM    2  C1  UNL     1      20.393 -39.875 -73.549  1.00  0.00     0.196 A 
HETATM    3  N2  UNL     1      20.618 -41.189 -73.703  1.00  0.00    -0.314 N 
ATOM      4  H2  UNL     1      19.968 -41.733 -74.269  1.00  0.00     0.170 HD
HETATM    5  C2  UNL     1      21.664 -41.816 -73.141  1.00  0.00     0.144 A 
HETATM    6  C3  UNL     1      22.509 -41.019 -72.386  1.00  0.00     0.146 A 
HETATM    7  N3  UNL     1      23.470 -41.859 -71.930  1.00  0.00    -0.345 N 
ATOM      8  H3  UNL     1      24.257 -41.597 -71.336  1.00  0.00     0.167 HD
HETATM    9  C4  UNL     1      23.211 -43.099 -72.394  1.00  0.00     0.185 A 
HETATM   10  N4  UNL     1      22.107 -43.099 -73.140  1.00  0.00    -0.318 N 
HETATM   11  C11 UNL     1      22.292 -39.671 -72.217  1.00  0.00     0.278 A 
HETATM   12  O6  UNL     1      23.054 -38.946 -71.535  1.00  0.00    -0.265 OA
HETATM   13  N6  UNL     1      21.226 -39.120 -72.811  1.00  0.00    -0.295 N 
ATOM     14  H6  UNL     1      21.044 -38.123 -72.702  1.00  0.00     0.171 HD
ENDROOT
BRANCH  10  15
HETATM   15  C5  UNL     1      21.481 -44.185 -73.815  1.00  0.00     0.140 C 
HETATM   16  C6  UNL     1      22.169 -45.495 -73.701  1.00  0.00     0.154 C 
HETATM   17  N5  UNL     1      21.093 -46.484 -73.853  1.00  0.00    -0.347 N 
HETATM   18  C7  UNL     1      21.253 -47.878 -73.807  1.00  0.00     0.232 C 
HETATM   19  C9  UNL     1      19.827 -45.790 -74.060  1.00  0.00     0.159 C 
HETATM   20  O1  UNL     1      20.293 -48.653 -73.946  1.00  0.00    -0.273 OA
HETATM   21  C10 UNL     1      20.091 -44.511 -73.251  1.00  0.00     0.161 C 
BRANCH  18  22
HETATM   22  C8  UNL     1      22.605 -48.480 -73.589  1.00  0.00     0.248 C 
BRANCH  22  23
HETATM   23  P1  UNL     1      23.349 -48.997 -75.155  1.00  0.00     0.268 P 
HETATM   24  O2  UNL     1      22.987 -50.469 -75.361  1.00  0.00    -0.639 OA
HETATM   25  O3  UNL     1      25.026 -48.801 -75.118  1.00  0.00    -0.639 OA
HETATM   26  O4  UNL     1      22.724 -48.114 -76.451  1.00  0.00    -0.639 OA
ENDBRANCH  22  23
ENDBRANCH  18  22
BRANCH  21  27
HETATM   27  O5  UNL     1      20.142 -44.891 -71.930  1.00  0.00    -0.392 OA
ATOM     28  H5  UNL     1      19.469 -44.469 -71.408  1.00  0.00     0.210 HD
ENDBRANCH  21  27
ENDBRANCH  10  15
TORSDOF 4
ENDMDL
