MODEL 2
REMARK VINA RESULT: -7.332852008      1.233      1.345
REMARK  4 active torsions:
REMARK  status: ('A' for Active; 'I' for Inactive)
REMARK    1  A    between atoms: N4_10  and  C5_11 
REMARK       I    between atoms: N5_13  and  C7_14 
REMARK    2  A    between atoms: C7_14  and  C8_16 
REMARK    3  A    between atoms: C8_16  and  P1_17 
REMARK    4  A    between atoms: C10_22  and  O5_23 
ROOT
HETATM    1  N1  UNL     1      19.149 -39.294 -74.275  1.00  0.00    -0.063 NA
HETATM    2  C1  UNL     1      20.315 -39.873 -73.665  1.00  0.00     0.196 A 
HETATM    3  N2  UNL     1      20.684 -41.132 -73.949  1.00  0.00    -0.314 N 
ATOM      4  H2  UNL     1      20.121 -41.670 -74.607  1.00  0.00     0.170 HD
HETATM    5  C2  UNL     1      21.764 -41.711 -73.402  1.00  0.00     0.144 A 
HETATM    6  C3  UNL     1      22.486 -40.925 -72.517  1.00  0.00     0.146 A 
HETATM    7  N3  UNL     1      23.510 -41.711 -72.104  1.00  0.00    -0.345 N 
ATOM      8  H3  UNL     1      24.237 -41.442 -71.442  1.00  0.00     0.167 HD
HETATM    9  C4  UNL     1      23.404 -42.910 -72.714  1.00  0.00     0.185 A 
HETATM   10  N4  UNL     1      22.340 -42.935 -73.516  1.00  0.00    -0.318 N 
HETATM   11  C11 UNL     1      22.121 -39.634 -72.215  1.00  0.00     0.278 A 
HETATM   12  O6  UNL     1      22.770 -38.919 -71.416  1.00  0.00    -0.265 OA
HETATM   13  N6  UNL     1      21.029 -39.129 -72.803  1.00  0.00    -0.295 N 
ATOM     14  H6  UNL     1      20.738 -38.174 -72.597  1.00  0.00     0.171 HD
ENDROOT
BRANCH  10  15
HETATM   15  C5  UNL     1      21.863 -43.993 -74.340  1.00  0.00     0.140 C 
HETATM   16  C6  UNL     1      22.804 -45.123 -74.543  1.00  0.00     0.154 C 
HETATM   17  N5  UNL     1      21.933 -46.279 -74.801  1.00  0.00    -0.347 N 
HETATM   18  C7  UNL     1      22.368 -47.590 -75.045  1.00  0.00     0.232 C 
HETATM   19  C9  UNL     1      20.540 -45.848 -74.764  1.00  0.00     0.159 C 
HETATM   20  O1  UNL     1      21.569 -48.517 -75.256  1.00  0.00    -0.273 OA
HETATM   21  C10 UNL     1      20.642 -44.706 -73.742  1.00  0.00     0.161 C 
BRANCH  18  22
HETATM   22  C8  UNL     1      23.828 -47.916 -75.059  1.00  0.00     0.248 C 
BRANCH  22  23
HETATM   23  P1  UNL     1      24.477 -47.923 -76.747  1.00  0.00     0.268 P 
HETATM   24  O2  UNL     1      25.397 -49.139 -76.872  1.00  0.00    -0.639 OA
HETATM   25  O3  UNL     1      25.331 -46.501 -77.069  1.00  0.00    -0.639 OA
HETATM   26  O4  UNL     1      23.236 -48.083 -77.880  1.00  0.00    -0.639 OA
ENDBRANCH  22  23
ENDBRANCH  18  22
BRANCH  21  27
HETATM   27  O5  UNL     1      20.925 -45.293 -72.530  1.00  0.00    -0.392 OA
ATOM     28  H5  UNL     1      20.912 -46.242 -72.579  1.00  0.00     0.210 HD
ENDBRANCH  21  27
ENDBRANCH  10  15
TORSDOF 4
ENDMDL
