MODEL 3
REMARK VINA RESULT: -7.235393937      6.024      9.101
REMARK  4 active torsions:
REMARK  status: ('A' for Active; 'I' for Inactive)
REMARK    1  A    between atoms: N4_10  and  C5_11 
REMARK       I    between atoms: N5_13  and  C7_14 
REMARK    2  A    between atoms: C7_14  and  C8_16 
REMARK    3  A    between atoms: C8_16  and  P1_17 
REMARK    4  A    between atoms: C10_22  and  O5_23 
ROOT
HETATM    1  N1  UNL     1      14.633 -49.269 -74.296  1.00  0.00    -0.063 NA
HETATM    2  C1  UNL     1      15.932 -48.716 -74.025  1.00  0.00     0.196 A 
HETATM    3  N2  UNL     1      16.076 -47.412 -73.736  1.00  0.00    -0.314 N 
ATOM      4  H2  UNL     1      15.245 -46.822 -73.712  1.00  0.00     0.170 HD
HETATM    5  C2  UNL     1      17.269 -46.855 -73.477  1.00  0.00     0.144 A 
HETATM    6  C3  UNL     1      18.357 -47.712 -73.524  1.00  0.00     0.146 A 
HETATM    7  N3  UNL     1      19.429 -46.935 -73.235  1.00  0.00    -0.345 N 
ATOM      8  H3  UNL     1      20.398 -47.252 -73.185  1.00  0.00     0.167 HD
HETATM    9  C4  UNL     1      19.000 -45.673 -73.024  1.00  0.00     0.185 A 
HETATM   10  N4  UNL     1      17.678 -45.598 -73.167  1.00  0.00    -0.318 N 
HETATM   11  C11 UNL     1      18.227 -49.049 -73.819  1.00  0.00     0.278 A 
HETATM   12  O6  UNL     1      19.208 -49.829 -73.863  1.00  0.00    -0.265 OA
HETATM   13  N6  UNL     1      17.002 -49.529 -74.066  1.00  0.00    -0.295 N 
ATOM     14  H6  UNL     1      16.878 -50.517 -74.286  1.00  0.00     0.171 HD
ENDROOT
BRANCH  10  15
HETATM   15  C5  UNL     1      16.824 -44.467 -73.034  1.00  0.00     0.140 C 
HETATM   16  C6  UNL     1      15.705 -44.389 -74.007  1.00  0.00     0.154 C 
HETATM   17  N5  UNL     1      14.669 -43.617 -73.306  1.00  0.00    -0.347 N 
HETATM   18  C7  UNL     1      13.407 -43.288 -73.824  1.00  0.00     0.232 C 
HETATM   19  C9  UNL     1      15.158 -43.246 -71.983  1.00  0.00     0.159 C 
HETATM   20  O1  UNL     1      12.582 -42.629 -73.169  1.00  0.00    -0.273 OA
HETATM   21  C10 UNL     1      16.076 -44.443 -71.694  1.00  0.00     0.161 C 
BRANCH  18  22
HETATM   22  C8  UNL     1      13.013 -43.724 -75.199  1.00  0.00     0.248 C 
BRANCH  22  23
HETATM   23  P1  UNL     1      13.140 -42.357 -76.378  1.00  0.00     0.268 P 
HETATM   24  O2  UNL     1      11.720 -41.846 -76.629  1.00  0.00    -0.639 OA
HETATM   25  O3  UNL     1      13.847 -42.872 -77.823  1.00  0.00    -0.639 OA
HETATM   26  O4  UNL     1      14.054 -41.086 -75.745  1.00  0.00    -0.639 OA
ENDBRANCH  22  23
ENDBRANCH  18  22
BRANCH  21  27
HETATM   27  O5  UNL     1      15.253 -45.535 -71.539  1.00  0.00    -0.392 OA
ATOM     28  H5  UNL     1      15.680 -46.345 -71.794  1.00  0.00     0.210 HD
ENDBRANCH  21  27
ENDBRANCH  10  15
TORSDOF 4
ENDMDL
