MODEL 4
REMARK VINA RESULT: -6.740388023      0.049      2.115
REMARK  5 active torsions:
REMARK  status: ('A' for Active; 'I' for Inactive)
REMARK    1  A    between atoms: O1_2  and  C2_3 
REMARK    2  A    between atoms: C5_6  and  S1_7 
REMARK    3  A    between atoms: S1_7  and  N1_10 
REMARK    4  A    between atoms: N1_10  and  C6_12 
REMARK    5  A    between atoms: C10_16  and  O4_17 
ROOT
HETATM    1  N1  UNL     1      28.882  12.724  56.530  1.00  0.00    -0.280 N 
ATOM      2  H1  UNL     1      29.469  13.257  57.172  1.00  0.00     0.179 HD
ENDROOT
BRANCH   1   3
HETATM    3  S1  UNL     1      28.785  13.198  54.876  1.00  0.00     0.263 S 
HETATM    4  O2  UNL     1      30.084  13.846  54.493  1.00  0.00    -0.200 OA
HETATM    5  O3  UNL     1      27.686  14.217  54.702  1.00  0.00    -0.200 OA
BRANCH   3   6
HETATM    6  C5  UNL     1      28.456  11.819  53.843  1.00  0.00     0.080 A 
HETATM    7  C4  UNL     1      29.430  11.224  53.068  1.00  0.00     0.028 A 
HETATM    8  C3  UNL     1      29.154  10.134  52.257  1.00  0.00     0.038 A 
HETATM    9  C2  UNL     1      27.883   9.603  52.198  1.00  0.00     0.068 A 
HETATM   10  C15 UNL     1      26.903  10.200  52.977  1.00  0.00     0.038 A 
HETATM   11  C14 UNL     1      27.192  11.282  53.778  1.00  0.00     0.028 A 
BRANCH   9  12
HETATM   12  O1  UNL     1      27.566   8.500  51.389  1.00  0.00    -0.356 OA
HETATM   13  C1  UNL     1      28.614   7.583  51.137  1.00  0.00     0.210 C 
ENDBRANCH   9  12
ENDBRANCH   3   6
ENDBRANCH   1   3
BRANCH   1  14
HETATM   14  C6  UNL     1      28.152  11.592  57.019  1.00  0.00     0.054 A 
HETATM   15  C7  UNL     1      26.880  11.806  57.496  1.00  0.00    -0.032 A 
HETATM   16  C8  UNL     1      26.320  13.180  57.488  1.00  0.00     0.050 C 
HETATM   17  C9  UNL     1      26.160  10.710  57.973  1.00  0.00     0.045 A 
HETATM   18  C10 UNL     1      26.712   9.440  57.965  1.00  0.00     0.066 A 
HETATM   19  C11 UNL     1      27.990   9.259  57.480  1.00  0.00     0.045 A 
HETATM   20  C12 UNL     1      28.724  10.350  56.998  1.00  0.00    -0.032 A 
HETATM   21  C13 UNL     1      30.101  10.173  56.472  1.00  0.00     0.050 C 
BRANCH  18  22
HETATM   22  O4  UNL     1      25.997   8.346  58.440  1.00  0.00    -0.361 OA
ATOM     23  H4  UNL     1      26.285   7.459  58.262  1.00  0.00     0.217 HD
ENDBRANCH  18  22
ENDBRANCH   1  14
TORSDOF 5
ENDMDL
