MODEL 2
REMARK VINA RESULT: -6.754444053      0.046      1.029
REMARK  5 active torsions:
REMARK  status: ('A' for Active; 'I' for Inactive)
REMARK    1  A    between atoms: O1_2  and  C2_3 
REMARK    2  A    between atoms: C5_6  and  S1_7 
REMARK    3  A    between atoms: S1_7  and  N1_10 
REMARK    4  A    between atoms: N1_10  and  C6_12 
REMARK    5  A    between atoms: C10_16  and  O4_17 
ROOT
HETATM    1  N1  UNL     1      28.966  12.703  56.521  1.00  0.00    -0.280 N 
ATOM      2  H1  UNL     1      29.596  13.203  57.149  1.00  0.00     0.179 HD
ENDROOT
BRANCH   1   3
HETATM    3  S1  UNL     1      28.842  13.198  54.874  1.00  0.00     0.263 S 
HETATM    4  O2  UNL     1      30.134  13.851  54.478  1.00  0.00    -0.200 OA
HETATM    5  O3  UNL     1      27.740  14.219  54.731  1.00  0.00    -0.200 OA
BRANCH   3   6
HETATM    6  C5  UNL     1      28.496  11.832  53.831  1.00  0.00     0.080 A 
HETATM    7  C4  UNL     1      29.458  11.243  53.036  1.00  0.00     0.028 A 
HETATM    8  C3  UNL     1      29.168  10.163  52.217  1.00  0.00     0.038 A 
HETATM    9  C2  UNL     1      27.895   9.637  52.168  1.00  0.00     0.068 A 
HETATM   10  C15 UNL     1      26.927  10.228  52.965  1.00  0.00     0.038 A 
HETATM   11  C14 UNL     1      27.229  11.300  53.775  1.00  0.00     0.028 A 
BRANCH   9  12
HETATM   12  O1  UNL     1      27.564   8.543  51.350  1.00  0.00    -0.356 OA
HETATM   13  C1  UNL     1      28.596   7.606  51.106  1.00  0.00     0.210 C 
ENDBRANCH   9  12
ENDBRANCH   3   6
ENDBRANCH   1   3
BRANCH   1  14
HETATM   14  C6  UNL     1      28.200  11.601  57.022  1.00  0.00     0.054 A 
HETATM   15  C7  UNL     1      28.781  10.356  57.009  1.00  0.00    -0.032 A 
HETATM   16  C8  UNL     1      30.161  10.201  56.486  1.00  0.00     0.050 C 
HETATM   17  C9  UNL     1      28.043   9.276  57.495  1.00  0.00     0.045 A 
HETATM   18  C10 UNL     1      26.758   9.455  57.978  1.00  0.00     0.066 A 
HETATM   19  C11 UNL     1      26.203  10.717  57.977  1.00  0.00     0.045 A 
HETATM   20  C12 UNL     1      26.932  11.810  57.493  1.00  0.00    -0.032 A 
HETATM   21  C13 UNL     1      26.350  13.175  57.484  1.00  0.00     0.050 C 
BRANCH  18  22
HETATM   22  O4  UNL     1      26.020   8.381  58.463  1.00  0.00    -0.361 OA
ATOM     23  H4  UNL     1      25.178   8.516  58.884  1.00  0.00     0.217 HD
ENDBRANCH  18  22
ENDBRANCH   1  14
TORSDOF 5
ENDMDL
