MODEL 15
REMARK VINA RESULT: -5.873494596      3.192      4.706
REMARK  5 active torsions:
REMARK  status: ('A' for Active; 'I' for Inactive)
REMARK    1  A    between atoms: O1_2  and  C2_3 
REMARK    2  A    between atoms: C5_6  and  S1_7 
REMARK    3  A    between atoms: S1_7  and  N1_10 
REMARK    4  A    between atoms: N1_10  and  C6_12 
REMARK    5  A    between atoms: C10_16  and  O4_17 
ROOT
HETATM    1  N1  UNL     1      28.931  10.109  55.418  1.00  0.00    -0.280 N 
ATOM      2  H1  UNL     1      28.538   9.489  54.711  1.00  0.00     0.179 HD
ENDROOT
BRANCH   1   3
HETATM    3  S1  UNL     1      30.621  10.049  55.756  1.00  0.00     0.263 S 
HETATM    4  O2  UNL     1      31.093   8.639  55.553  1.00  0.00    -0.200 OA
HETATM    5  O3  UNL     1      30.865  10.419  57.199  1.00  0.00    -0.200 OA
BRANCH   3   6
HETATM    6  C5  UNL     1      31.510  11.153  54.724  1.00  0.00     0.080 A 
HETATM    7  C4  UNL     1      31.646  10.952  53.366  1.00  0.00     0.028 A 
HETATM    8  C3  UNL     1      32.352  11.834  52.563  1.00  0.00     0.038 A 
HETATM    9  C2  UNL     1      32.948  12.954  53.101  1.00  0.00     0.068 A 
HETATM   10  C15 UNL     1      32.813  13.158  54.467  1.00  0.00     0.038 A 
HETATM   11  C14 UNL     1      32.108  12.273  55.252  1.00  0.00     0.028 A 
BRANCH   9  12
HETATM   12  O1  UNL     1      33.671  13.871  52.320  1.00  0.00    -0.356 OA
HETATM   13  C1  UNL     1      34.541  14.741  53.017  1.00  0.00     0.210 C 
ENDBRANCH   9  12
ENDBRANCH   3   6
ENDBRANCH   1   3
BRANCH   1  14
HETATM   14  C6  UNL     1      28.070  11.018  56.115  1.00  0.00     0.054 A 
HETATM   15  C7  UNL     1      27.486  10.582  57.281  1.00  0.00    -0.032 A 
HETATM   16  C8  UNL     1      27.764   9.208  57.766  1.00  0.00     0.050 C 
HETATM   17  C9  UNL     1      26.646  11.459  57.968  1.00  0.00     0.045 A 
HETATM   18  C10 UNL     1      26.408  12.737  57.488  1.00  0.00     0.066 A 
HETATM   19  C11 UNL     1      27.010  13.143  56.316  1.00  0.00     0.045 A 
HETATM   20  C12 UNL     1      27.855  12.273  55.616  1.00  0.00    -0.032 A 
HETATM   21  C13 UNL     1      28.511  12.694  54.353  1.00  0.00     0.050 C 
BRANCH  18  22
HETATM   22  O4  UNL     1      25.572  13.613  58.170  1.00  0.00    -0.361 OA
ATOM     23  H4  UNL     1      25.541  14.536  57.943  1.00  0.00     0.217 HD
ENDBRANCH  18  22
ENDBRANCH   1  14
TORSDOF 5
ENDMDL
