MODEL 1
REMARK VINA RESULT: -6.783076461      0.000      0.000
REMARK  5 active torsions:
REMARK  status: ('A' for Active; 'I' for Inactive)
REMARK    1  A    between atoms: O1_2  and  C2_3 
REMARK    2  A    between atoms: C5_6  and  S1_7 
REMARK    3  A    between atoms: S1_7  and  N1_10 
REMARK    4  A    between atoms: N1_10  and  C6_12 
REMARK    5  A    between atoms: C10_16  and  O4_17 
ROOT
HETATM    1  N1  UNL     1      28.943  12.688  56.525  1.00  0.00    -0.280 N 
ATOM      2  H1  UNL     1      29.561  13.195  57.158  1.00  0.00     0.179 HD
ENDROOT
BRANCH   1   3
HETATM    3  S1  UNL     1      28.839  13.171  54.873  1.00  0.00     0.263 S 
HETATM    4  O2  UNL     1      30.157  13.769  54.472  1.00  0.00    -0.200 OA
HETATM    5  O3  UNL     1      27.779  14.235  54.719  1.00  0.00    -0.200 OA
BRANCH   3   6
HETATM    6  C5  UNL     1      28.439  11.811  53.842  1.00  0.00     0.080 A 
HETATM    7  C4  UNL     1      27.167  11.280  53.774  1.00  0.00     0.028 A 
HETATM    8  C3  UNL     1      26.867  10.204  52.953  1.00  0.00     0.038 A 
HETATM    9  C2  UNL     1      27.840   9.622  52.170  1.00  0.00     0.068 A 
HETATM   10  C15 UNL     1      29.119  10.154  52.236  1.00  0.00     0.038 A 
HETATM   11  C14 UNL     1      29.403  11.224  53.056  1.00  0.00     0.028 A 
BRANCH   9  12
HETATM   12  O1  UNL     1      27.573   8.531  51.326  1.00  0.00    -0.356 OA
HETATM   13  C1  UNL     1      28.626   7.602  51.149  1.00  0.00     0.210 C 
ENDBRANCH   9  12
ENDBRANCH   3   6
ENDBRANCH   1   3
BRANCH   1  14
HETATM   14  C6  UNL     1      28.175  11.585  57.021  1.00  0.00     0.054 A 
HETATM   15  C7  UNL     1      28.756  10.339  57.004  1.00  0.00    -0.032 A 
HETATM   16  C8  UNL     1      30.135  10.184  56.479  1.00  0.00     0.050 C 
HETATM   17  C9  UNL     1      28.017   9.258  57.486  1.00  0.00     0.045 A 
HETATM   18  C10 UNL     1      26.732   9.437  57.971  1.00  0.00     0.066 A 
HETATM   19  C11 UNL     1      26.178  10.700  57.975  1.00  0.00     0.045 A 
HETATM   20  C12 UNL     1      26.909  11.794  57.494  1.00  0.00    -0.032 A 
HETATM   21  C13 UNL     1      26.328  13.160  57.491  1.00  0.00     0.050 C 
BRANCH  18  22
HETATM   22  O4  UNL     1      25.992   8.363  58.452  1.00  0.00    -0.361 OA
ATOM     23  H4  UNL     1      25.043   8.365  58.413  1.00  0.00     0.217 HD
ENDBRANCH  18  22
ENDBRANCH   1  14
TORSDOF 5
ENDMDL
