MODEL 3
REMARK VINA RESULT: -6.754304295      0.032      1.848
REMARK  5 active torsions:
REMARK  status: ('A' for Active; 'I' for Inactive)
REMARK    1  A    between atoms: O1_2  and  C2_3 
REMARK    2  A    between atoms: C5_6  and  S1_7 
REMARK    3  A    between atoms: S1_7  and  N1_10 
REMARK    4  A    between atoms: N1_10  and  C6_12 
REMARK    5  A    between atoms: C10_16  and  O4_17 
ROOT
HETATM    1  N1  UNL     1      28.902  12.733  56.528  1.00  0.00    -0.280 N 
ATOM      2  H1  UNL     1      29.484  13.269  57.170  1.00  0.00     0.179 HD
ENDROOT
BRANCH   1   3
HETATM    3  S1  UNL     1      28.810  13.202  54.871  1.00  0.00     0.263 S 
HETATM    4  O2  UNL     1      30.129  13.803  54.477  1.00  0.00    -0.200 OA
HETATM    5  O3  UNL     1      27.746  14.258  54.699  1.00  0.00    -0.200 OA
BRANCH   3   6
HETATM    6  C5  UNL     1      28.427  11.831  53.848  1.00  0.00     0.080 A 
HETATM    7  C4  UNL     1      27.159  11.293  53.772  1.00  0.00     0.028 A 
HETATM    8  C3  UNL     1      26.872  10.208  52.958  1.00  0.00     0.038 A 
HETATM    9  C2  UNL     1      27.855   9.626  52.188  1.00  0.00     0.068 A 
HETATM   10  C15 UNL     1      29.131  10.165  52.262  1.00  0.00     0.038 A 
HETATM   11  C14 UNL     1      29.401  11.243  53.076  1.00  0.00     0.028 A 
BRANCH   9  12
HETATM   12  O1  UNL     1      27.602   8.526  51.351  1.00  0.00    -0.356 OA
HETATM   13  C1  UNL     1      28.658   7.597  51.198  1.00  0.00     0.210 C 
ENDBRANCH   9  12
ENDBRANCH   3   6
ENDBRANCH   1   3
BRANCH   1  14
HETATM   14  C6  UNL     1      28.172  11.601  57.016  1.00  0.00     0.054 A 
HETATM   15  C7  UNL     1      26.899  11.813  57.489  1.00  0.00    -0.032 A 
HETATM   16  C8  UNL     1      26.336  13.186  57.477  1.00  0.00     0.050 C 
HETATM   17  C9  UNL     1      26.179  10.717  57.967  1.00  0.00     0.045 A 
HETATM   18  C10 UNL     1      26.733   9.448  57.962  1.00  0.00     0.066 A 
HETATM   19  C11 UNL     1      28.013   9.268  57.481  1.00  0.00     0.045 A 
HETATM   20  C12 UNL     1      28.747  10.359  56.999  1.00  0.00    -0.032 A 
HETATM   21  C13 UNL     1      30.125  10.184  56.477  1.00  0.00     0.050 C 
BRANCH  18  22
HETATM   22  O4  UNL     1      26.019   8.354  58.437  1.00  0.00    -0.361 OA
ATOM     23  H4  UNL     1      26.097   7.502  58.023  1.00  0.00     0.217 HD
ENDBRANCH  18  22
ENDBRANCH   1  14
TORSDOF 5
ENDMDL
