MODEL 16
REMARK VINA RESULT: -5.848858449      3.205      4.783
REMARK  5 active torsions:
REMARK  status: ('A' for Active; 'I' for Inactive)
REMARK    1  A    between atoms: O1_2  and  C2_3 
REMARK    2  A    between atoms: C5_6  and  S1_7 
REMARK    3  A    between atoms: S1_7  and  N1_10 
REMARK    4  A    between atoms: N1_10  and  C6_12 
REMARK    5  A    between atoms: C10_16  and  O4_17 
ROOT
HETATM    1  N1  UNL     1      28.945  10.157  55.398  1.00  0.00    -0.280 N 
ATOM      2  H1  UNL     1      28.559   9.569  54.660  1.00  0.00     0.179 HD
ENDROOT
BRANCH   1   3
HETATM    3  S1  UNL     1      30.632  10.083  55.748  1.00  0.00     0.263 S 
HETATM    4  O2  UNL     1      31.095   8.670  55.543  1.00  0.00    -0.200 OA
HETATM    5  O3  UNL     1      30.868  10.446  57.194  1.00  0.00    -0.200 OA
BRANCH   3   6
HETATM    6  C5  UNL     1      31.536  11.184  54.726  1.00  0.00     0.080 A 
HETATM    7  C4  UNL     1      31.658  11.000  53.364  1.00  0.00     0.028 A 
HETATM    8  C3  UNL     1      32.377  11.880  52.569  1.00  0.00     0.038 A 
HETATM    9  C2  UNL     1      32.999  12.979  53.120  1.00  0.00     0.068 A 
HETATM   10  C15 UNL     1      32.877  13.166  54.489  1.00  0.00     0.038 A 
HETATM   11  C14 UNL     1      32.160  12.284  55.266  1.00  0.00     0.028 A 
BRANCH   9  12
HETATM   12  O1  UNL     1      33.735  13.893  52.346  1.00  0.00    -0.356 OA
HETATM   13  C1  UNL     1      34.534  14.817  53.059  1.00  0.00     0.210 C 
ENDBRANCH   9  12
ENDBRANCH   3   6
ENDBRANCH   1   3
BRANCH   1  14
HETATM   14  C6  UNL     1      28.076  11.031  56.129  1.00  0.00     0.054 A 
HETATM   15  C7  UNL     1      27.863  12.292  55.625  1.00  0.00    -0.032 A 
HETATM   16  C8  UNL     1      28.530  12.695  54.362  1.00  0.00     0.050 C 
HETATM   17  C9  UNL     1      27.018  13.151  56.329  1.00  0.00     0.045 A 
HETATM   18  C10 UNL     1      26.410  12.743  57.504  1.00  0.00     0.066 A 
HETATM   19  C11 UNL     1      26.644  11.472  57.983  1.00  0.00     0.045 A 
HETATM   20  C12 UNL     1      27.490  10.599  57.287  1.00  0.00    -0.032 A 
HETATM   21  C13 UNL     1      27.754   9.227  57.788  1.00  0.00     0.050 C 
BRANCH  18  22
HETATM   22  O4  UNL     1      25.568  13.596  58.208  1.00  0.00    -0.361 OA
ATOM     23  H4  UNL     1      25.243  13.363  59.070  1.00  0.00     0.217 HD
ENDBRANCH  18  22
ENDBRANCH   1  14
TORSDOF 5
ENDMDL
