MODEL 20
REMARK VINA RESULT: -5.774923115      2.594      4.988
REMARK  5 active torsions:
REMARK  status: ('A' for Active; 'I' for Inactive)
REMARK    1  A    between atoms: O1_2  and  C2_3 
REMARK    2  A    between atoms: C5_6  and  S1_7 
REMARK    3  A    between atoms: S1_7  and  N1_10 
REMARK    4  A    between atoms: N1_10  and  C6_12 
REMARK    5  A    between atoms: C10_16  and  O4_17 
ROOT
HETATM    1  N1  UNL     1      26.431  11.132  56.482  1.00  0.00    -0.280 N 
ATOM      2  H1  UNL     1      25.418  11.084  56.593  1.00  0.00     0.179 HD
ENDROOT
BRANCH   1   3
HETATM    3  S1  UNL     1      27.431  10.008  57.324  1.00  0.00     0.263 S 
HETATM    4  O2  UNL     1      26.718   8.687  57.375  1.00  0.00    -0.200 OA
HETATM    5  O3  UNL     1      27.643  10.478  58.743  1.00  0.00    -0.200 OA
BRANCH   3   6
HETATM    6  C5  UNL     1      28.989   9.838  56.538  1.00  0.00     0.080 A 
HETATM    7  C4  UNL     1      29.218   8.921  55.534  1.00  0.00     0.028 A 
HETATM    8  C3  UNL     1      30.456   8.799  54.922  1.00  0.00     0.038 A 
HETATM    9  C2  UNL     1      31.511   9.601  55.302  1.00  0.00     0.068 A 
HETATM   10  C15 UNL     1      31.283  10.524  56.311  1.00  0.00     0.038 A 
HETATM   11  C14 UNL     1      30.048  10.634  56.909  1.00  0.00     0.028 A 
BRANCH   9  12
HETATM   12  O1  UNL     1      32.779   9.507  54.705  1.00  0.00    -0.356 OA
HETATM   13  C1  UNL     1      33.237   8.203  54.405  1.00  0.00     0.210 C 
ENDBRANCH   9  12
ENDBRANCH   3   6
ENDBRANCH   1   3
BRANCH   1  14
HETATM   14  C6  UNL     1      27.001  12.133  55.630  1.00  0.00     0.054 A 
HETATM   15  C7  UNL     1      27.351  13.335  56.197  1.00  0.00    -0.032 A 
HETATM   16  C8  UNL     1      27.131  13.548  57.649  1.00  0.00     0.050 C 
HETATM   17  C9  UNL     1      27.907  14.316  55.375  1.00  0.00     0.045 A 
HETATM   18  C10 UNL     1      28.102  14.084  54.024  1.00  0.00     0.066 A 
HETATM   19  C11 UNL     1      27.739  12.868  53.486  1.00  0.00     0.045 A 
HETATM   20  C12 UNL     1      27.180  11.874  54.299  1.00  0.00    -0.032 A 
HETATM   21  C13 UNL     1      26.784  10.558  53.736  1.00  0.00     0.050 C 
BRANCH  18  22
HETATM   22  O4  UNL     1      28.655  15.060  53.203  1.00  0.00    -0.361 OA
ATOM     23  H4  UNL     1      28.421  15.116  52.284  1.00  0.00     0.217 HD
ENDBRANCH  18  22
ENDBRANCH   1  14
TORSDOF 5
ENDMDL
