MODEL 1
REMARK VINA RESULT: -7.757214347      0.000      0.000
REMARK  11 active torsions:
REMARK  status: ('A' for Active; 'I' for Inactive)
REMARK    1  A    between atoms: O1_2  and  C2_3 
REMARK    2  A    between atoms: C5_6  and  C6_7 
REMARK       I    between atoms: C6_7  and  N1_9 
REMARK    3  A    between atoms: N1_9  and  C7_11 
REMARK    4  A    between atoms: C10_14  and  O3_15 
REMARK    5  A    between atoms: O3_15  and  C11_16 
REMARK    6  A    between atoms: C14_19  and  N2_20 
REMARK    7  A    between atoms: N2_20  and  C15_21 
REMARK    8  A    between atoms: N2_20  and  C23_31 
REMARK    9  A    between atoms: C15_21  and  O4_22 
REMARK   10  A    between atoms: C15_21  and  C16_24 
REMARK   11  A    between atoms: C26_34  and  C27_35 
ROOT
HETATM    1  C11 UNL     1      18.526   1.942  15.501  1.00  0.00     0.077 A 
HETATM    2  C12 UNL     1      17.206   2.273  15.154  1.00  0.00     0.039 A 
HETATM    3  C13 UNL     1      16.822   2.195  13.844  1.00  0.00     0.033 A 
HETATM    4  C14 UNL     1      17.697   1.795  12.807  1.00  0.00     0.053 A 
HETATM    5  C26 UNL     1      18.953   1.483  13.142  1.00  0.00     0.070 A 
HETATM    6  C28 UNL     1      19.341   1.563  14.483  1.00  0.00     0.058 A 
ENDROOT
BRANCH   1   7
HETATM    7  O3  UNL     1      18.926   2.004  16.814  1.00  0.00    -0.311 OA
BRANCH   7   8
HETATM    8  C10 UNL     1      19.723   1.118  17.477  1.00  0.00     0.076 A 
HETATM    9  C9  UNL     1      19.824  -0.231  17.268  1.00  0.00     0.039 A 
HETATM   10  C8  UNL     1      20.661  -1.059  18.003  1.00  0.00     0.032 A 
HETATM   11  C7  UNL     1      21.451  -0.569  18.994  1.00  0.00     0.035 A 
HETATM   12  C30 UNL     1      21.376   0.805  19.235  1.00  0.00     0.032 A 
HETATM   13  C29 UNL     1      20.544   1.605  18.502  1.00  0.00     0.039 A 
BRANCH  11  14
HETATM   14  N1  UNL     1      22.316  -1.306  19.828  1.00  0.00    -0.323 N 
HETATM   15  C6  UNL     1      21.985  -2.402  20.651  1.00  0.00     0.256 C 
HETATM   16  O2  UNL     1      20.803  -2.806  20.665  1.00  0.00    -0.267 OA
ATOM     17  H1  UNL     1      23.292  -1.012  19.837  1.00  0.00     0.169 HD
BRANCH  15  18
HETATM   18  C5  UNL     1      23.014  -3.072  21.488  1.00  0.00     0.032 A 
HETATM   19  C4  UNL     1      23.464  -4.325  21.147  1.00  0.00     0.020 A 
HETATM   20  C3  UNL     1      24.423  -4.986  21.914  1.00  0.00     0.038 A 
HETATM   21  C2  UNL     1      24.969  -4.413  23.058  1.00  0.00     0.068 A 
HETATM   22  C32 UNL     1      24.504  -3.155  23.386  1.00  0.00     0.038 A 
HETATM   23  C31 UNL     1      23.546  -2.498  22.617  1.00  0.00     0.020 A 
BRANCH  21  24
HETATM   24  O1  UNL     1      25.923  -5.032  23.847  1.00  0.00    -0.356 OA
HETATM   25  C1  UNL     1      26.032  -4.776  25.226  1.00  0.00     0.210 C 
ENDBRANCH  21  24
ENDBRANCH  15  18
ENDBRANCH  11  14
ENDBRANCH   7   8
ENDBRANCH   1   7
BRANCH   5  26
HETATM   26  C27 UNL     1      19.908   1.063  12.162  1.00  0.00     0.211 C 
HETATM   27  O5  UNL     1      20.641   1.947  11.609  1.00  0.00    -0.644 OA
HETATM   28  O6  UNL     1      20.129  -0.210  11.741  1.00  0.00    -0.644 OA
ENDBRANCH   5  26
BRANCH   4  29
HETATM   29  N2  UNL     1      17.097   1.711  11.486  1.00  0.00    -0.326 N 
BRANCH  29  30
HETATM   30  C15 UNL     1      16.315   0.561  11.304  1.00  0.00     0.122 C 
BRANCH  30  31
HETATM   31  O4  UNL     1      15.035   0.801  11.191  1.00  0.00    -0.349 OA
ATOM     32  H4  UNL     1      14.651   1.222  11.951  1.00  0.00     0.219 HD
ENDBRANCH  30  31
BRANCH  30  33
HETATM   33  C16 UNL     1      16.667  -0.851  11.222  1.00  0.00     0.060 C 
HETATM   34  C17 UNL     1      15.437  -1.565  10.629  1.00  0.00     0.013 C 
HETATM   35  C18 UNL     1      14.888  -2.614  11.538  1.00  0.00     0.005 C 
HETATM   36  C19 UNL     1      14.561  -2.042  12.887  1.00  0.00    -0.019 C 
HETATM   37  C20 UNL     1      14.067  -3.161  13.782  1.00  0.00     0.010 C 
HETATM   38  C21 UNL     1      15.750  -1.332  13.501  1.00  0.00     0.005 C 
HETATM   39  C22 UNL     1      16.960  -1.457  12.589  1.00  0.00     0.013 C 
ENDBRANCH  30  33
ENDBRANCH  29  30
BRANCH  29  40
HETATM   40  C23 UNL     1      17.162   2.751  10.528  1.00  0.00     0.084 C 
HETATM   41  C24 UNL     1      17.951   2.259   9.274  1.00  0.00     0.032 C 
HETATM   42  C25 UNL     1      17.811   4.027  10.897  1.00  0.00     0.032 C 
ENDBRANCH  29  40
ENDBRANCH   4  29
TORSDOF 11
ENDMDL
