MODEL 8
REMARK VINA RESULT: -7.142397691      3.656     12.324
REMARK  11 active torsions:
REMARK  status: ('A' for Active; 'I' for Inactive)
REMARK    1  A    between atoms: O1_2  and  C2_3 
REMARK    2  A    between atoms: C5_6  and  C6_7 
REMARK       I    between atoms: C6_7  and  N1_9 
REMARK    3  A    between atoms: N1_9  and  C7_11 
REMARK    4  A    between atoms: C10_14  and  O3_15 
REMARK    5  A    between atoms: O3_15  and  C11_16 
REMARK    6  A    between atoms: C14_19  and  N2_20 
REMARK    7  A    between atoms: N2_20  and  C15_21 
REMARK    8  A    between atoms: N2_20  and  C23_31 
REMARK    9  A    between atoms: C15_21  and  O4_22 
REMARK   10  A    between atoms: C15_21  and  C16_24 
REMARK   11  A    between atoms: C26_34  and  C27_35 
ROOT
HETATM    1  C11 UNL     1      22.153  -1.689  20.265  1.00  0.00     0.077 A 
HETATM    2  C12 UNL     1      21.162  -2.682  20.182  1.00  0.00     0.039 A 
HETATM    3  C13 UNL     1      20.842  -3.399  21.302  1.00  0.00     0.033 A 
HETATM    4  C14 UNL     1      21.465  -3.191  22.555  1.00  0.00     0.053 A 
HETATM    5  C26 UNL     1      22.409  -2.247  22.628  1.00  0.00     0.070 A 
HETATM    6  C28 UNL     1      22.733  -1.515  21.481  1.00  0.00     0.058 A 
ENDROOT
BRANCH   1   7
HETATM    7  O3  UNL     1      22.479  -0.952  19.153  1.00  0.00    -0.311 OA
BRANCH   7   8
HETATM    8  C10 UNL     1      21.626  -0.453  18.213  1.00  0.00     0.076 A 
HETATM    9  C9  UNL     1      20.984   0.755  18.227  1.00  0.00     0.039 A 
HETATM   10  C8  UNL     1      20.120   1.175  17.224  1.00  0.00     0.032 A 
HETATM   11  C7  UNL     1      19.855   0.395  16.144  1.00  0.00     0.035 A 
HETATM   12  C30 UNL     1      20.494  -0.846  16.095  1.00  0.00     0.032 A 
HETATM   13  C29 UNL     1      21.341  -1.244  17.092  1.00  0.00     0.039 A 
BRANCH  11  14
HETATM   14  N1  UNL     1      18.980   0.692  15.081  1.00  0.00    -0.323 N 
HETATM   15  C6  UNL     1      19.314   1.224  13.819  1.00  0.00     0.256 C 
HETATM   16  O2  UNL     1      20.514   1.466  13.569  1.00  0.00    -0.267 OA
ATOM     17  H1  UNL     1      17.991   0.500  15.243  1.00  0.00     0.169 HD
BRANCH  15  18
HETATM   18  C5  UNL     1      18.269   1.496  12.798  1.00  0.00     0.032 A 
HETATM   19  C4  UNL     1      18.605   2.137  11.629  1.00  0.00     0.020 A 
HETATM   20  C3  UNL     1      17.648   2.415  10.653  1.00  0.00     0.038 A 
HETATM   21  C2  UNL     1      16.313   2.059  10.813  1.00  0.00     0.068 A 
HETATM   22  C32 UNL     1      15.995   1.417  11.993  1.00  0.00     0.038 A 
HETATM   23  C31 UNL     1      16.952   1.142  12.966  1.00  0.00     0.020 A 
BRANCH  21  24
HETATM   24  O1  UNL     1      15.332   2.313   9.870  1.00  0.00    -0.356 OA
HETATM   25  C1  UNL     1      15.618   2.943   8.646  1.00  0.00     0.210 C 
ENDBRANCH  21  24
ENDBRANCH  15  18
ENDBRANCH  11  14
ENDBRANCH   7   8
ENDBRANCH   1   7
BRANCH   5  26
HETATM   26  C27 UNL     1      23.091  -1.962  23.854  1.00  0.00     0.211 C 
HETATM   27  O5  UNL     1      22.547  -1.159  24.680  1.00  0.00    -0.644 OA
HETATM   28  O6  UNL     1      24.290  -2.466  24.249  1.00  0.00    -0.644 OA
ENDBRANCH   5  26
BRANCH   4  29
HETATM   29  N2  UNL     1      20.952  -4.002  23.646  1.00  0.00    -0.326 N 
BRANCH  29  30
HETATM   30  C15 UNL     1      19.704  -3.571  24.118  1.00  0.00     0.122 C 
BRANCH  30  31
HETATM   31  O4  UNL     1      19.744  -2.439  24.771  1.00  0.00    -0.349 OA
ATOM     32  H4  UNL     1      18.905  -1.998  24.833  1.00  0.00     0.219 HD
ENDBRANCH  30  31
BRANCH  30  33
HETATM   33  C16 UNL     1      18.372  -4.155  24.019  1.00  0.00     0.060 C 
HETATM   34  C17 UNL     1      17.384  -3.034  24.395  1.00  0.00     0.013 C 
HETATM   35  C18 UNL     1      16.539  -3.386  25.574  1.00  0.00     0.005 C 
HETATM   36  C19 UNL     1      17.389  -3.755  26.757  1.00  0.00    -0.019 C 
HETATM   37  C20 UNL     1      16.479  -4.159  27.900  1.00  0.00     0.010 C 
HETATM   38  C21 UNL     1      18.373  -4.856  26.421  1.00  0.00     0.005 C 
HETATM   39  C22 UNL     1      18.173  -5.315  24.986  1.00  0.00     0.013 C 
ENDBRANCH  30  33
ENDBRANCH  29  30
BRANCH  29  40
HETATM   40  C23 UNL     1      21.567  -5.198  24.089  1.00  0.00     0.084 C 
HETATM   41  C24 UNL     1      22.027  -5.030  25.571  1.00  0.00     0.032 C 
HETATM   42  C25 UNL     1      22.767  -5.693  23.382  1.00  0.00     0.032 C 
ENDBRANCH  29  40
ENDBRANCH   4  29
TORSDOF 11
ENDMDL
