MODEL 4
REMARK VINA RESULT: -7.243283664      2.381     12.497
REMARK  11 active torsions:
REMARK  status: ('A' for Active; 'I' for Inactive)
REMARK    1  A    between atoms: O1_2  and  C2_3 
REMARK    2  A    between atoms: C5_6  and  C6_7 
REMARK       I    between atoms: C6_7  and  N1_9 
REMARK    3  A    between atoms: N1_9  and  C7_11 
REMARK    4  A    between atoms: C10_14  and  O3_15 
REMARK    5  A    between atoms: O3_15  and  C11_16 
REMARK    6  A    between atoms: C14_19  and  N2_20 
REMARK    7  A    between atoms: N2_20  and  C15_21 
REMARK    8  A    between atoms: N2_20  and  C23_31 
REMARK    9  A    between atoms: C15_21  and  O4_22 
REMARK   10  A    between atoms: C15_21  and  C16_24 
REMARK   11  A    between atoms: C26_34  and  C27_35 
ROOT
HETATM    1  C11 UNL     1      22.200  -1.160  20.812  1.00  0.00     0.077 A 
HETATM    2  C12 UNL     1      23.207  -1.159  21.792  1.00  0.00     0.039 A 
HETATM    3  C13 UNL     1      23.787  -2.345  22.151  1.00  0.00     0.033 A 
HETATM    4  C14 UNL     1      23.421  -3.587  21.580  1.00  0.00     0.053 A 
HETATM    5  C26 UNL     1      22.460  -3.581  20.650  1.00  0.00     0.070 A 
HETATM    6  C28 UNL     1      21.870  -2.367  20.285  1.00  0.00     0.058 A 
ENDROOT
BRANCH   1   7
HETATM    7  O3  UNL     1      21.614   0.024  20.431  1.00  0.00    -0.311 OA
BRANCH   7   8
HETATM    8  C10 UNL     1      21.025   0.305  19.233  1.00  0.00     0.076 A 
HETATM    9  C9  UNL     1      21.125   1.460  18.506  1.00  0.00     0.039 A 
HETATM   10  C8  UNL     1      20.477   1.660  17.295  1.00  0.00     0.032 A 
HETATM   11  C7  UNL     1      19.690   0.700  16.745  1.00  0.00     0.035 A 
HETATM   12  C30 UNL     1      19.566  -0.494  17.459  1.00  0.00     0.032 A 
HETATM   13  C29 UNL     1      20.210  -0.673  18.651  1.00  0.00     0.039 A 
BRANCH  11  14
HETATM   14  N1  UNL     1      18.959   0.792  15.544  1.00  0.00    -0.323 N 
HETATM   15  C6  UNL     1      17.894   1.670  15.254  1.00  0.00     0.256 C 
HETATM   16  O2  UNL     1      17.531   2.482  16.130  1.00  0.00    -0.267 OA
ATOM     17  H1  UNL     1      19.231   0.150  14.799  1.00  0.00     0.169 HD
BRANCH  15  18
HETATM   18  C5  UNL     1      17.209   1.638  13.936  1.00  0.00     0.032 A 
HETATM   19  C4  UNL     1      16.412   0.568  13.605  1.00  0.00     0.020 A 
HETATM   20  C3  UNL     1      15.760   0.502  12.373  1.00  0.00     0.038 A 
HETATM   21  C2  UNL     1      15.885   1.510  11.423  1.00  0.00     0.068 A 
HETATM   22  C32 UNL     1      16.690   2.575  11.772  1.00  0.00     0.038 A 
HETATM   23  C31 UNL     1      17.340   2.638  13.002  1.00  0.00     0.020 A 
BRANCH  21  24
HETATM   24  O1  UNL     1      15.256   1.486  10.190  1.00  0.00    -0.356 OA
HETATM   25  C1  UNL     1      15.798   2.128   9.062  1.00  0.00     0.210 C 
ENDBRANCH  21  24
ENDBRANCH  15  18
ENDBRANCH  11  14
ENDBRANCH   7   8
ENDBRANCH   1   7
BRANCH   5  26
HETATM   26  C27 UNL     1      22.026  -4.788  20.013  1.00  0.00     0.211 C 
HETATM   27  O5  UNL     1      22.383  -5.002  18.809  1.00  0.00    -0.644 OA
HETATM   28  O6  UNL     1      21.254  -5.761  20.564  1.00  0.00    -0.644 OA
ENDBRANCH   5  26
BRANCH   4  29
HETATM   29  N2  UNL     1      24.188  -4.732  22.039  1.00  0.00    -0.326 N 
BRANCH  29  30
HETATM   30  C15 UNL     1      23.782  -5.203  23.296  1.00  0.00     0.122 C 
BRANCH  30  31
HETATM   31  O4  UNL     1      22.531  -5.579  23.345  1.00  0.00    -0.349 OA
ATOM     32  H4  UNL     1      22.271  -5.953  24.179  1.00  0.00     0.219 HD
ENDBRANCH  30  31
BRANCH  30  33
HETATM   33  C16 UNL     1      24.497  -5.346  24.558  1.00  0.00     0.060 C 
HETATM   34  C17 UNL     1      23.470  -5.882  25.574  1.00  0.00     0.013 C 
HETATM   35  C18 UNL     1      23.288  -4.971  26.743  1.00  0.00     0.005 C 
HETATM   36  C19 UNL     1      22.911  -3.588  26.294  1.00  0.00    -0.019 C 
HETATM   37  C20 UNL     1      22.801  -2.696  27.516  1.00  0.00     0.010 C 
HETATM   38  C21 UNL     1      23.901  -3.030  25.294  1.00  0.00     0.005 C 
HETATM   39  C22 UNL     1      25.035  -4.018  25.075  1.00  0.00     0.013 C 
ENDBRANCH  30  33
ENDBRANCH  29  30
BRANCH  29  40
HETATM   40  C23 UNL     1      25.144  -5.406  21.242  1.00  0.00     0.084 C 
HETATM   41  C24 UNL     1      24.854  -6.939  21.263  1.00  0.00     0.032 C 
HETATM   42  C25 UNL     1      26.576  -5.294  21.591  1.00  0.00     0.032 C 
ENDBRANCH  29  40
ENDBRANCH   4  29
TORSDOF 11
ENDMDL
