MODEL 7
REMARK VINA RESULT: -7.142677250      4.182     12.933
REMARK  11 active torsions:
REMARK  status: ('A' for Active; 'I' for Inactive)
REMARK    1  A    between atoms: O1_2  and  C2_3 
REMARK    2  A    between atoms: C5_6  and  C6_7 
REMARK       I    between atoms: C6_7  and  N1_9 
REMARK    3  A    between atoms: N1_9  and  C7_11 
REMARK    4  A    between atoms: C10_14  and  O3_15 
REMARK    5  A    between atoms: O3_15  and  C11_16 
REMARK    6  A    between atoms: C14_19  and  N2_20 
REMARK    7  A    between atoms: N2_20  and  C15_21 
REMARK    8  A    between atoms: N2_20  and  C23_31 
REMARK    9  A    between atoms: C15_21  and  O4_22 
REMARK   10  A    between atoms: C15_21  and  C16_24 
REMARK   11  A    between atoms: C26_34  and  C27_35 
ROOT
HETATM    1  C11 UNL     1      22.213  -2.582  21.617  1.00  0.00     0.077 A 
HETATM    2  C12 UNL     1      22.416  -1.580  22.581  1.00  0.00     0.039 A 
HETATM    3  C13 UNL     1      22.092  -1.836  23.885  1.00  0.00     0.033 A 
HETATM    4  C14 UNL     1      21.555  -3.071  24.318  1.00  0.00     0.053 A 
HETATM    5  C26 UNL     1      21.360  -4.019  23.396  1.00  0.00     0.070 A 
HETATM    6  C28 UNL     1      21.694  -3.755  22.064  1.00  0.00     0.058 A 
ENDROOT
BRANCH   1   7
HETATM    7  O3  UNL     1      22.544  -2.346  20.304  1.00  0.00    -0.311 OA
BRANCH   7   8
HETATM    8  C10 UNL     1      21.740  -1.828  19.331  1.00  0.00     0.076 A 
HETATM    9  C9  UNL     1      20.743  -2.468  18.646  1.00  0.00     0.039 A 
HETATM   10  C8  UNL     1      19.980  -1.858  17.659  1.00  0.00     0.032 A 
HETATM   11  C7  UNL     1      20.180  -0.562  17.308  1.00  0.00     0.035 A 
HETATM   12  C30 UNL     1      21.189   0.124  17.988  1.00  0.00     0.032 A 
HETATM   13  C29 UNL     1      21.932  -0.493  18.957  1.00  0.00     0.039 A 
BRANCH  11  14
HETATM   14  N1  UNL     1      19.497   0.159  16.308  1.00  0.00    -0.323 N 
HETATM   15  C6  UNL     1      19.803   0.215  14.932  1.00  0.00     0.256 C 
HETATM   16  O2  UNL     1      20.778  -0.442  14.508  1.00  0.00    -0.267 OA
ATOM     17  H1  UNL     1      18.689   0.701  16.613  1.00  0.00     0.169 HD
BRANCH  15  18
HETATM   18  C5  UNL     1      18.991   1.035  13.997  1.00  0.00     0.032 A 
HETATM   19  C4  UNL     1      19.407   1.204  12.698  1.00  0.00     0.020 A 
HETATM   20  C3  UNL     1      18.672   1.973  11.795  1.00  0.00     0.038 A 
HETATM   21  C2  UNL     1      17.489   2.605  12.163  1.00  0.00     0.068 A 
HETATM   22  C32 UNL     1      17.088   2.424  13.472  1.00  0.00     0.038 A 
HETATM   23  C31 UNL     1      17.824   1.656  14.370  1.00  0.00     0.020 A 
BRANCH  21  24
HETATM   24  O1  UNL     1      16.728   3.375  11.300  1.00  0.00    -0.356 OA
HETATM   25  C1  UNL     1      17.297   4.384  10.501  1.00  0.00     0.210 C 
ENDBRANCH  21  24
ENDBRANCH  15  18
ENDBRANCH  11  14
ENDBRANCH   7   8
ENDBRANCH   1   7
BRANCH   5  26
HETATM   26  C27 UNL     1      20.826  -5.302  23.741  1.00  0.00     0.211 C 
HETATM   27  O5  UNL     1      19.581  -5.510  23.562  1.00  0.00    -0.644 OA
HETATM   28  O6  UNL     1      21.515  -6.355  24.253  1.00  0.00    -0.644 OA
ENDBRANCH   5  26
BRANCH   4  29
HETATM   29  N2  UNL     1      21.330  -3.183  25.750  1.00  0.00    -0.326 N 
BRANCH  29  30
HETATM   30  C15 UNL     1      19.972  -3.152  26.101  1.00  0.00     0.122 C 
BRANCH  30  31
HETATM   31  O4  UNL     1      19.249  -2.351  25.365  1.00  0.00    -0.349 OA
ATOM     32  H4  UNL     1      18.826  -2.777  24.629  1.00  0.00     0.219 HD
ENDBRANCH  30  31
BRANCH  30  33
HETATM   33  C16 UNL     1      19.222  -3.848  27.140  1.00  0.00     0.060 C 
HETATM   34  C17 UNL     1      17.739  -3.503  26.899  1.00  0.00     0.013 C 
HETATM   35  C18 UNL     1      17.110  -2.823  28.069  1.00  0.00     0.005 C 
HETATM   36  C19 UNL     1      17.878  -1.591  28.454  1.00  0.00    -0.019 C 
HETATM   37  C20 UNL     1      17.230  -0.979  29.680  1.00  0.00     0.010 C 
HETATM   38  C21 UNL     1      19.342  -1.894  28.699  1.00  0.00     0.005 C 
HETATM   39  C22 UNL     1      19.601  -3.383  28.540  1.00  0.00     0.013 C 
ENDBRANCH  30  33
ENDBRANCH  29  30
BRANCH  29  40
HETATM   40  C23 UNL     1      22.357  -3.450  26.686  1.00  0.00     0.084 C 
HETATM   41  C24 UNL     1      22.790  -2.121  27.381  1.00  0.00     0.032 C 
HETATM   42  C25 UNL     1      23.622  -4.051  26.212  1.00  0.00     0.032 C 
ENDBRANCH  29  40
ENDBRANCH   4  29
TORSDOF 11
ENDMDL
