MODEL 9
REMARK VINA RESULT: -7.124364939      1.003      1.679
REMARK  11 active torsions:
REMARK  status: ('A' for Active; 'I' for Inactive)
REMARK    1  A    between atoms: O1_2  and  C2_3 
REMARK    2  A    between atoms: C5_6  and  C6_7 
REMARK       I    between atoms: C6_7  and  N1_9 
REMARK    3  A    between atoms: N1_9  and  C7_11 
REMARK    4  A    between atoms: C10_14  and  O3_15 
REMARK    5  A    between atoms: O3_15  and  C11_16 
REMARK    6  A    between atoms: C14_19  and  N2_20 
REMARK    7  A    between atoms: N2_20  and  C15_21 
REMARK    8  A    between atoms: N2_20  and  C23_31 
REMARK    9  A    between atoms: C15_21  and  O4_22 
REMARK   10  A    between atoms: C15_21  and  C16_24 
REMARK   11  A    between atoms: C26_34  and  C27_35 
ROOT
HETATM    1  C11 UNL     1      18.692   1.932  15.470  1.00  0.00     0.077 A 
HETATM    2  C12 UNL     1      17.301   2.070  15.334  1.00  0.00     0.039 A 
HETATM    3  C13 UNL     1      16.727   1.853  14.111  1.00  0.00     0.033 A 
HETATM    4  C14 UNL     1      17.471   1.492  12.963  1.00  0.00     0.053 A 
HETATM    5  C26 UNL     1      18.795   1.364  13.098  1.00  0.00     0.070 A 
HETATM    6  C28 UNL     1      19.378   1.586  14.349  1.00  0.00     0.058 A 
ENDROOT
BRANCH   1   7
HETATM    7  O3  UNL     1      19.285   2.136  16.693  1.00  0.00    -0.311 OA
BRANCH   7   8
HETATM    8  C10 UNL     1      20.069   1.261  17.387  1.00  0.00     0.076 A 
HETATM    9  C9  UNL     1      20.498   0.026  16.983  1.00  0.00     0.039 A 
HETATM   10  C8  UNL     1      21.291  -0.802  17.766  1.00  0.00     0.032 A 
HETATM   11  C7  UNL     1      21.699  -0.428  19.006  1.00  0.00     0.035 A 
HETATM   12  C30 UNL     1      21.281   0.829  19.451  1.00  0.00     0.032 A 
HETATM   13  C29 UNL     1      20.499   1.631  18.667  1.00  0.00     0.039 A 
BRANCH  11  14
HETATM   14  N1  UNL     1      22.474  -1.185  19.906  1.00  0.00    -0.323 N 
HETATM   15  C6  UNL     1      22.086  -2.347  20.605  1.00  0.00     0.256 C 
HETATM   16  O2  UNL     1      20.933  -2.795  20.428  1.00  0.00    -0.267 OA
ATOM     17  H1  UNL     1      23.425  -0.856  20.071  1.00  0.00     0.169 HD
BRANCH  15  18
HETATM   18  C5  UNL     1      23.019  -3.033  21.535  1.00  0.00     0.032 A 
HETATM   19  C4  UNL     1      23.466  -2.380  22.660  1.00  0.00     0.020 A 
HETATM   20  C3  UNL     1      24.348  -2.990  23.551  1.00  0.00     0.038 A 
HETATM   21  C2  UNL     1      24.819  -4.283  23.346  1.00  0.00     0.068 A 
HETATM   22  C32 UNL     1      24.361  -4.922  22.212  1.00  0.00     0.038 A 
HETATM   23  C31 UNL     1      23.480  -4.309  21.324  1.00  0.00     0.020 A 
BRANCH  21  24
HETATM   24  O1  UNL     1      25.694  -4.927  24.205  1.00  0.00    -0.356 OA
HETATM   25  C1  UNL     1      26.916  -5.465  23.761  1.00  0.00     0.210 C 
ENDBRANCH  21  24
ENDBRANCH  15  18
ENDBRANCH  11  14
ENDBRANCH   7   8
ENDBRANCH   1   7
BRANCH   5  26
HETATM   26  C27 UNL     1      19.629   0.998  11.994  1.00  0.00     0.211 C 
HETATM   27  O5  UNL     1      20.323   1.906  11.429  1.00  0.00    -0.644 OA
HETATM   28  O6  UNL     1      19.769  -0.245  11.463  1.00  0.00    -0.644 OA
ENDBRANCH   5  26
BRANCH   4  29
HETATM   29  N2  UNL     1      16.685   1.241  11.767  1.00  0.00    -0.326 N 
BRANCH  29  30
HETATM   30  C15 UNL     1      16.037  -0.003  11.781  1.00  0.00     0.122 C 
BRANCH  30  31
HETATM   31  O4  UNL     1      16.838  -1.022  11.604  1.00  0.00    -0.349 OA
ATOM     32  H4  UNL     1      16.514  -1.836  11.971  1.00  0.00     0.219 HD
ENDBRANCH  30  31
BRANCH  30  33
HETATM   33  C16 UNL     1      14.636  -0.368  11.951  1.00  0.00     0.060 C 
HETATM   34  C17 UNL     1      14.628  -1.857  12.350  1.00  0.00     0.013 C 
HETATM   35  C18 UNL     1      13.865  -2.705  11.388  1.00  0.00     0.005 C 
HETATM   36  C19 UNL     1      14.389  -2.540   9.990  1.00  0.00    -0.019 C 
HETATM   37  C20 UNL     1      13.540  -3.375   9.052  1.00  0.00     0.010 C 
HETATM   38  C21 UNL     1      14.411  -1.087   9.565  1.00  0.00     0.005 C 
HETATM   39  C22 UNL     1      13.835  -0.211  10.666  1.00  0.00     0.013 C 
ENDBRANCH  30  33
ENDBRANCH  29  30
BRANCH  29  40
HETATM   40  C23 UNL     1      16.463   2.208  10.758  1.00  0.00     0.084 C 
HETATM   41  C24 UNL     1      17.037   1.689   9.402  1.00  0.00     0.032 C 
HETATM   42  C25 UNL     1      17.046   3.557  10.915  1.00  0.00     0.032 C 
ENDBRANCH  29  40
ENDBRANCH   4  29
TORSDOF 11
ENDMDL
