MODEL 3
REMARK VINA RESULT: -8.363118683      0.776      1.291
REMARK  12 active torsions:
REMARK  status: ('A' for Active; 'I' for Inactive)
REMARK    1  A    between atoms: C2_3  and  C3_4 
REMARK    2  A    between atoms: C3_4  and  N2_5 
REMARK    3  A    between atoms: N2_5  and  C4_7 
REMARK    4  A    between atoms: C7_10  and  C8_11 
REMARK    5  A    between atoms: C8_11  and  N4_13 
REMARK    6  A    between atoms: C13_22  and  C14_23 
REMARK    7  A    between atoms: C14_23  and  O1_24 
REMARK    8  A    between atoms: C14_23  and  N6_26 
REMARK    9  A    between atoms: N6_26  and  C15_27 
REMARK   10  A    between atoms: N6_26  and  C18_32 
REMARK   11  A    between atoms: C15_27  and  C16_28 
REMARK   12  A    between atoms: C16_28  and  C17_29 
ROOT
HETATM    1  C1  UNL     1     -37.643  56.015   5.793  1.00  0.00     0.158 C 
HETATM    2  N1  UNL     1     -38.263  56.510   4.595  1.00  0.00    -0.338 N 
HETATM    3  C2  UNL     1     -38.999  55.816   3.728  1.00  0.00     0.102 A 
HETATM    4  N5  UNL     1     -39.377  56.655   2.757  1.00  0.00    -0.343 N 
ATOM      5  H5  UNL     1     -39.949  56.406   1.952  1.00  0.00     0.167 HD
HETATM    6  C11 UNL     1     -38.878  57.888   3.014  1.00  0.00     0.061 A 
HETATM    7  C12 UNL     1     -38.972  59.117   2.323  1.00  0.00     0.047 A 
HETATM    8  C13 UNL     1     -38.374  60.253   2.776  1.00  0.00     0.017 A 
HETATM    9  C23 UNL     1     -37.659  60.106   3.980  1.00  0.00     0.018 A 
HETATM   10  C24 UNL     1     -37.563  58.923   4.653  1.00  0.00     0.033 A 
HETATM   11  C25 UNL     1     -38.174  57.801   4.173  1.00  0.00     0.062 A 
ENDROOT
BRANCH   8  12
HETATM   12  C14 UNL     1     -38.428  61.531   2.126  1.00  0.00     0.154 C 
BRANCH  12  13
HETATM   13  O1  UNL     1     -37.695  61.628   1.036  1.00  0.00    -0.345 OA
ATOM     14  H1  UNL     1     -36.757  61.588   1.181  1.00  0.00     0.219 HD
ENDBRANCH  12  13
BRANCH  12  15
HETATM   15  N6  UNL     1     -39.111  62.703   2.426  1.00  0.00    -0.313 N 
BRANCH  15  16
HETATM   16  C15 UNL     1     -38.606  64.036   2.638  1.00  0.00     0.143 C 
BRANCH  16  17
HETATM   17  C16 UNL     1     -37.440  63.933   3.618  1.00  0.00     0.133 C 
BRANCH  17  18
HETATM   18  C17 UNL     1     -36.161  64.323   2.989  1.00  0.00     0.174 C 
HETATM   19  O2  UNL     1     -35.585  63.518   2.228  1.00  0.00    -0.648 OA
HETATM   20  O3  UNL     1     -35.609  65.556   3.237  1.00  0.00    -0.648 OA
ENDBRANCH  17  18
ENDBRANCH  16  17
ENDBRANCH  15  16
BRANCH  15  21
HETATM   21  C18 UNL     1     -40.576  62.604   2.531  1.00  0.00     0.109 A 
HETATM   22  C19 UNL     1     -41.305  61.997   1.543  1.00  0.00     0.049 A 
HETATM   23  C20 UNL     1     -42.677  61.916   1.668  1.00  0.00     0.005 A 
HETATM   24  C21 UNL     1     -43.314  62.439   2.776  1.00  0.00     0.017 A 
HETATM   25  C22 UNL     1     -42.544  63.046   3.755  1.00  0.00     0.089 A 
HETATM   26  N7  UNL     1     -41.219  63.103   3.594  1.00  0.00    -0.352 N 
ATOM     27  H7  UNL     1     -40.666  63.552   4.323  1.00  0.00     0.166 HD
ENDBRANCH  15  21
ENDBRANCH  12  15
ENDBRANCH   8  12
BRANCH   3  28
HETATM   28  C3  UNL     1     -39.334  54.372   3.817  1.00  0.00     0.196 C 
BRANCH  28  29
HETATM   29  N2  UNL     1     -39.549  53.793   2.508  1.00  0.00    -0.383 N 
ATOM     30  H2  UNL     1     -40.489  53.670   2.133  1.00  0.00     0.160 HD
BRANCH  29  31
HETATM   31  C4  UNL     1     -38.397  53.401   1.764  1.00  0.00     0.028 A 
HETATM   32  C5  UNL     1     -37.278  53.029   2.492  1.00  0.00     0.030 A 
HETATM   33  C6  UNL     1     -36.144  52.650   1.851  1.00  0.00     0.017 A 
HETATM   34  C7  UNL     1     -36.089  52.630   0.458  1.00  0.00     0.005 A 
HETATM   35  C9  UNL     1     -37.213  53.003  -0.244  1.00  0.00     0.017 A 
HETATM   36  C10 UNL     1     -38.371  53.390   0.396  1.00  0.00     0.030 A 
BRANCH  34  37
HETATM   37  C8  UNL     1     -34.868  52.224  -0.227  1.00  0.00     0.120 C 
HETATM   38  N3  UNL     1     -33.766  51.806   0.559  1.00  0.00    -0.082 NA
BRANCH  37  39
HETATM   39  N4  UNL     1     -34.761  52.237  -1.497  1.00  0.00    -0.387 N 
ATOM     40  H42 UNL     1     -34.909  53.110  -2.003  1.00  0.00     0.157 HD
ATOM     41  H41 UNL     1     -34.534  51.401  -2.035  1.00  0.00     0.157 HD
ENDBRANCH  37  39
ENDBRANCH  34  37
ENDBRANCH  29  31
ENDBRANCH  28  29
ENDBRANCH   3  28
TORSDOF 12
ENDMDL
