MODEL 1
REMARK VINA RESULT: -8.555621204      0.000      0.000
REMARK  12 active torsions:
REMARK  status: ('A' for Active; 'I' for Inactive)
REMARK    1  A    between atoms: C2_3  and  C3_4 
REMARK    2  A    between atoms: C3_4  and  N2_5 
REMARK    3  A    between atoms: N2_5  and  C4_7 
REMARK    4  A    between atoms: C7_10  and  C8_11 
REMARK    5  A    between atoms: C8_11  and  N4_13 
REMARK    6  A    between atoms: C13_22  and  C14_23 
REMARK    7  A    between atoms: C14_23  and  O1_24 
REMARK    8  A    between atoms: C14_23  and  N6_26 
REMARK    9  A    between atoms: N6_26  and  C15_27 
REMARK   10  A    between atoms: N6_26  and  C18_32 
REMARK   11  A    between atoms: C15_27  and  C16_28 
REMARK   12  A    between atoms: C16_28  and  C17_29 
ROOT
HETATM    1  C1  UNL     1     -37.346  56.022   5.890  1.00  0.00     0.158 C 
HETATM    2  N1  UNL     1     -38.098  56.435   4.737  1.00  0.00    -0.338 N 
HETATM    3  C2  UNL     1     -38.918  55.685   4.004  1.00  0.00     0.102 A 
HETATM    4  N5  UNL     1     -39.407  56.457   3.028  1.00  0.00    -0.343 N 
ATOM      5  H5  UNL     1     -40.063  56.153   2.308  1.00  0.00     0.167 HD
HETATM    6  C11 UNL     1     -38.893  57.704   3.145  1.00  0.00     0.061 A 
HETATM    7  C12 UNL     1     -39.071  58.883   2.388  1.00  0.00     0.047 A 
HETATM    8  C13 UNL     1     -38.435  60.048   2.696  1.00  0.00     0.017 A 
HETATM    9  C23 UNL     1     -37.591  59.982   3.821  1.00  0.00     0.018 A 
HETATM   10  C24 UNL     1     -37.413  58.847   4.556  1.00  0.00     0.033 A 
HETATM   11  C25 UNL     1     -38.065  57.696   4.222  1.00  0.00     0.062 A 
ENDROOT
BRANCH   8  12
HETATM   12  C14 UNL     1     -38.570  61.280   1.972  1.00  0.00     0.154 C 
BRANCH  12  13
HETATM   13  O1  UNL     1     -37.901  61.330   0.838  1.00  0.00    -0.345 OA
ATOM     14  H1  UNL     1     -37.205  61.976   0.815  1.00  0.00     0.219 HD
ENDBRANCH  12  13
BRANCH  12  15
HETATM   15  N6  UNL     1     -39.277  62.445   2.236  1.00  0.00    -0.313 N 
BRANCH  15  16
HETATM   16  C15 UNL     1     -38.804  63.729   2.685  1.00  0.00     0.143 C 
BRANCH  16  17
HETATM   17  C16 UNL     1     -37.632  63.479   3.631  1.00  0.00     0.133 C 
BRANCH  17  18
HETATM   18  C17 UNL     1     -36.341  63.854   3.015  1.00  0.00     0.174 C 
HETATM   19  O2  UNL     1     -35.783  63.054   2.235  1.00  0.00    -0.648 OA
HETATM   20  O3  UNL     1     -35.761  65.066   3.295  1.00  0.00    -0.648 OA
ENDBRANCH  17  18
ENDBRANCH  16  17
ENDBRANCH  15  16
BRANCH  15  21
HETATM   21  C18 UNL     1     -40.732  62.399   2.015  1.00  0.00     0.109 A 
HETATM   22  C19 UNL     1     -41.559  63.305   2.627  1.00  0.00     0.049 A 
HETATM   23  C20 UNL     1     -42.918  63.240   2.400  1.00  0.00     0.005 A 
HETATM   24  C21 UNL     1     -43.446  62.274   1.567  1.00  0.00     0.017 A 
HETATM   25  C22 UNL     1     -42.581  61.376   0.966  1.00  0.00     0.089 A 
HETATM   26  N7  UNL     1     -41.271  61.474   1.212  1.00  0.00    -0.352 N 
ATOM     27  H7  UNL     1     -40.647  60.806   0.762  1.00  0.00     0.166 HD
ENDBRANCH  15  21
ENDBRANCH  12  15
ENDBRANCH   8  12
BRANCH   3  28
HETATM   28  C3  UNL     1     -39.231  54.249   4.227  1.00  0.00     0.196 C 
BRANCH  28  29
HETATM   29  N2  UNL     1     -39.615  53.591   2.996  1.00  0.00    -0.383 N 
ATOM     30  H2  UNL     1     -40.582  53.321   2.820  1.00  0.00     0.160 HD
BRANCH  29  31
HETATM   31  C4  UNL     1     -38.589  53.335   2.038  1.00  0.00     0.028 A 
HETATM   32  C5  UNL     1     -38.955  53.385   0.702  1.00  0.00     0.030 A 
HETATM   33  C6  UNL     1     -38.033  53.146  -0.265  1.00  0.00     0.017 A 
HETATM   34  C7  UNL     1     -36.713  52.848   0.071  1.00  0.00     0.005 A 
HETATM   35  C9  UNL     1     -36.374  52.804   1.405  1.00  0.00     0.017 A 
HETATM   36  C10 UNL     1     -37.301  53.045   2.396  1.00  0.00     0.030 A 
BRANCH  34  37
HETATM   37  C8  UNL     1     -35.726  52.589  -0.971  1.00  0.00     0.120 C 
HETATM   38  N3  UNL     1     -34.587  51.815  -0.636  1.00  0.00    -0.082 NA
BRANCH  37  39
HETATM   39  N4  UNL     1     -35.854  53.033  -2.158  1.00  0.00    -0.387 N 
ATOM     40  H42 UNL     1     -35.657  54.015  -2.349  1.00  0.00     0.157 HD
ATOM     41  H41 UNL     1     -36.150  52.440  -2.934  1.00  0.00     0.157 HD
ENDBRANCH  37  39
ENDBRANCH  34  37
ENDBRANCH  29  31
ENDBRANCH  28  29
ENDBRANCH   3  28
TORSDOF 12
ENDMDL
