MODEL 2
REMARK VINA RESULT: -8.519591645      0.471      1.075
REMARK  12 active torsions:
REMARK  status: ('A' for Active; 'I' for Inactive)
REMARK    1  A    between atoms: C2_3  and  C3_4 
REMARK    2  A    between atoms: C3_4  and  N2_5 
REMARK    3  A    between atoms: N2_5  and  C4_7 
REMARK    4  A    between atoms: C7_10  and  C8_11 
REMARK    5  A    between atoms: C8_11  and  N4_13 
REMARK    6  A    between atoms: C13_22  and  C14_23 
REMARK    7  A    between atoms: C14_23  and  O1_24 
REMARK    8  A    between atoms: C14_23  and  N6_26 
REMARK    9  A    between atoms: N6_26  and  C15_27 
REMARK   10  A    between atoms: N6_26  and  C18_32 
REMARK   11  A    between atoms: C15_27  and  C16_28 
REMARK   12  A    between atoms: C16_28  and  C17_29 
ROOT
HETATM    1  C1  UNL     1     -37.630  56.008   5.857  1.00  0.00     0.158 C 
HETATM    2  N1  UNL     1     -38.261  56.474   4.653  1.00  0.00    -0.338 N 
HETATM    3  C2  UNL     1     -38.997  55.758   3.805  1.00  0.00     0.102 A 
HETATM    4  N5  UNL     1     -39.387  56.574   2.820  1.00  0.00    -0.343 N 
ATOM      5  H5  UNL     1     -39.962  56.304   2.023  1.00  0.00     0.167 HD
HETATM    6  C11 UNL     1     -38.895  57.815   3.049  1.00  0.00     0.061 A 
HETATM    7  C12 UNL     1     -39.002  59.029   2.333  1.00  0.00     0.047 A 
HETATM    8  C13 UNL     1     -38.409  60.178   2.759  1.00  0.00     0.017 A 
HETATM    9  C23 UNL     1     -37.686  60.061   3.962  1.00  0.00     0.018 A 
HETATM   10  C24 UNL     1     -37.577  58.893   4.658  1.00  0.00     0.033 A 
HETATM   11  C25 UNL     1     -38.184  57.757   4.204  1.00  0.00     0.062 A 
ENDROOT
BRANCH   8  12
HETATM   12  C14 UNL     1     -38.477  61.443   2.084  1.00  0.00     0.154 C 
BRANCH  12  13
HETATM   13  O1  UNL     1     -37.696  61.547   1.028  1.00  0.00    -0.345 OA
ATOM     14  H1  UNL     1     -38.112  61.329   0.202  1.00  0.00     0.219 HD
ENDBRANCH  12  13
BRANCH  12  15
HETATM   15  N6  UNL     1     -39.213  62.594   2.329  1.00  0.00    -0.313 N 
BRANCH  15  16
HETATM   16  C15 UNL     1     -38.769  63.910   2.710  1.00  0.00     0.143 C 
BRANCH  16  17
HETATM   17  C16 UNL     1     -37.620  63.736   3.701  1.00  0.00     0.133 C 
BRANCH  17  18
HETATM   18  C17 UNL     1     -36.338  64.215   3.143  1.00  0.00     0.174 C 
HETATM   19  O2  UNL     1     -35.920  65.347   3.462  1.00  0.00    -0.648 OA
HETATM   20  O3  UNL     1     -35.614  63.426   2.283  1.00  0.00    -0.648 OA
ENDBRANCH  17  18
ENDBRANCH  16  17
ENDBRANCH  15  16
BRANCH  15  21
HETATM   21  C18 UNL     1     -40.673  62.491   2.164  1.00  0.00     0.109 A 
HETATM   22  C19 UNL     1     -41.515  63.266   2.918  1.00  0.00     0.049 A 
HETATM   23  C20 UNL     1     -42.879  63.150   2.741  1.00  0.00     0.005 A 
HETATM   24  C21 UNL     1     -43.395  62.265   1.816  1.00  0.00     0.017 A 
HETATM   25  C22 UNL     1     -42.514  61.499   1.072  1.00  0.00     0.089 A 
HETATM   26  N7  UNL     1     -41.201  61.642   1.275  1.00  0.00    -0.352 N 
ATOM     27  H7  UNL     1     -40.564  61.071   0.719  1.00  0.00     0.166 HD
ENDBRANCH  15  21
ENDBRANCH  12  15
ENDBRANCH   8  12
BRANCH   3  28
HETATM   28  C3  UNL     1     -39.321  54.313   3.926  1.00  0.00     0.196 C 
BRANCH  28  29
HETATM   29  N2  UNL     1     -39.567  53.712   2.633  1.00  0.00    -0.383 N 
ATOM     30  H2  UNL     1     -40.516  53.554   2.294  1.00  0.00     0.160 HD
BRANCH  29  31
HETATM   31  C4  UNL     1     -38.432  53.350   1.848  1.00  0.00     0.028 A 
HETATM   32  C5  UNL     1     -37.258  53.079   2.535  1.00  0.00     0.030 A 
HETATM   33  C6  UNL     1     -36.136  52.732   1.854  1.00  0.00     0.017 A 
HETATM   34  C7  UNL     1     -36.149  52.646   0.463  1.00  0.00     0.005 A 
HETATM   35  C9  UNL     1     -37.326  52.920  -0.197  1.00  0.00     0.017 A 
HETATM   36  C10 UNL     1     -38.472  53.272   0.483  1.00  0.00     0.030 A 
BRANCH  34  37
HETATM   37  C8  UNL     1     -34.940  52.277  -0.266  1.00  0.00     0.120 C 
HETATM   38  N3  UNL     1     -33.897  51.638   0.449  1.00  0.00    -0.082 NA
BRANCH  37  39
HETATM   39  N4  UNL     1     -34.795  52.511  -1.510  1.00  0.00    -0.387 N 
ATOM     40  H42 UNL     1     -34.815  51.735  -2.171  1.00  0.00     0.157 HD
ATOM     41  H41 UNL     1     -34.657  53.453  -1.876  1.00  0.00     0.157 HD
ENDBRANCH  37  39
ENDBRANCH  34  37
ENDBRANCH  29  31
ENDBRANCH  28  29
ENDBRANCH   3  28
TORSDOF 12
ENDMDL
