MODEL 9
REMARK VINA RESULT: -7.753758440      3.141      5.139
REMARK  12 active torsions:
REMARK  status: ('A' for Active; 'I' for Inactive)
REMARK    1  A    between atoms: C2_3  and  C3_4 
REMARK    2  A    between atoms: C3_4  and  N2_5 
REMARK    3  A    between atoms: N2_5  and  C4_7 
REMARK    4  A    between atoms: C7_10  and  C8_11 
REMARK    5  A    between atoms: C8_11  and  N4_13 
REMARK    6  A    between atoms: C13_22  and  C14_23 
REMARK    7  A    between atoms: C14_23  and  O1_24 
REMARK    8  A    between atoms: C14_23  and  N6_26 
REMARK    9  A    between atoms: N6_26  and  C15_27 
REMARK   10  A    between atoms: N6_26  and  C18_32 
REMARK   11  A    between atoms: C15_27  and  C16_28 
REMARK   12  A    between atoms: C16_28  and  C17_29 
ROOT
HETATM    1  C1  UNL     1     -39.849  52.547   4.414  1.00  0.00     0.158 C 
HETATM    2  N1  UNL     1     -39.569  53.796   3.760  1.00  0.00    -0.338 N 
HETATM    3  C2  UNL     1     -39.529  54.023   2.449  1.00  0.00     0.102 A 
HETATM    4  N5  UNL     1     -39.231  55.314   2.271  1.00  0.00    -0.343 N 
ATOM      5  H5  UNL     1     -39.130  55.778   1.369  1.00  0.00     0.167 HD
HETATM    6  C11 UNL     1     -39.083  55.908   3.479  1.00  0.00     0.061 A 
HETATM    7  C12 UNL     1     -38.770  57.232   3.858  1.00  0.00     0.047 A 
HETATM    8  C13 UNL     1     -38.668  57.611   5.162  1.00  0.00     0.017 A 
HETATM    9  C23 UNL     1     -38.898  56.583   6.096  1.00  0.00     0.018 A 
HETATM   10  C24 UNL     1     -39.200  55.302   5.739  1.00  0.00     0.033 A 
HETATM   11  C25 UNL     1     -39.294  54.954   4.423  1.00  0.00     0.062 A 
ENDROOT
BRANCH   8  12
HETATM   12  C14 UNL     1     -38.355  58.936   5.617  1.00  0.00     0.154 C 
BRANCH  12  13
HETATM   13  O1  UNL     1     -39.335  59.808   5.493  1.00  0.00    -0.345 OA
ATOM     14  H1  UNL     1     -39.421  60.415   6.220  1.00  0.00     0.219 HD
ENDBRANCH  12  13
BRANCH  12  15
HETATM   15  N6  UNL     1     -37.206  59.486   6.168  1.00  0.00    -0.313 N 
BRANCH  15  16
HETATM   16  C15 UNL     1     -36.885  60.862   6.449  1.00  0.00     0.143 C 
BRANCH  16  17
HETATM   17  C16 UNL     1     -36.117  61.407   5.248  1.00  0.00     0.133 C 
BRANCH  17  18
HETATM   18  C17 UNL     1     -37.013  62.085   4.287  1.00  0.00     0.174 C 
HETATM   19  O2  UNL     1     -36.607  62.307   3.127  1.00  0.00    -0.648 OA
HETATM   20  O3  UNL     1     -38.277  62.467   4.662  1.00  0.00    -0.648 OA
ENDBRANCH  17  18
ENDBRANCH  16  17
ENDBRANCH  15  16
BRANCH  15  21
HETATM   21  C18 UNL     1     -36.142  58.544   6.552  1.00  0.00     0.109 A 
HETATM   22  C19 UNL     1     -35.412  57.890   5.595  1.00  0.00     0.049 A 
HETATM   23  C20 UNL     1     -34.419  57.014   5.982  1.00  0.00     0.005 A 
HETATM   24  C21 UNL     1     -34.159  56.794   7.320  1.00  0.00     0.017 A 
HETATM   25  C22 UNL     1     -34.916  57.472   8.260  1.00  0.00     0.089 A 
HETATM   26  N7  UNL     1     -35.868  58.312   7.841  1.00  0.00    -0.352 N 
ATOM     27  H7  UNL     1     -36.417  58.804   8.545  1.00  0.00     0.166 HD
ENDBRANCH  15  21
ENDBRANCH  12  15
ENDBRANCH   8  12
BRANCH   3  28
HETATM   28  C3  UNL     1     -39.767  53.022   1.376  1.00  0.00     0.196 C 
BRANCH  28  29
HETATM   29  N2  UNL     1     -38.978  53.309   0.197  1.00  0.00    -0.383 N 
ATOM     30  H2  UNL     1     -39.408  53.687  -0.648  1.00  0.00     0.160 HD
BRANCH  29  31
HETATM   31  C4  UNL     1     -37.578  53.043   0.259  1.00  0.00     0.028 A 
HETATM   32  C5  UNL     1     -36.875  53.114  -0.933  1.00  0.00     0.030 A 
HETATM   33  C6  UNL     1     -35.540  52.868  -0.952  1.00  0.00     0.017 A 
HETATM   34  C7  UNL     1     -34.863  52.541   0.223  1.00  0.00     0.005 A 
HETATM   35  C9  UNL     1     -35.583  52.476   1.394  1.00  0.00     0.017 A 
HETATM   36  C10 UNL     1     -36.938  52.725   1.426  1.00  0.00     0.030 A 
BRANCH  34  37
HETATM   37  C8  UNL     1     -33.429  52.274   0.199  1.00  0.00     0.120 C 
HETATM   38  N3  UNL     1     -32.768  52.282  -1.054  1.00  0.00    -0.082 NA
BRANCH  37  39
HETATM   39  N4  UNL     1     -32.762  52.035   1.258  1.00  0.00    -0.387 N 
ATOM     40  H42 UNL     1     -31.930  52.590   1.461  1.00  0.00     0.157 HD
ATOM     41  H41 UNL     1     -33.027  51.304   1.918  1.00  0.00     0.157 HD
ENDBRANCH  37  39
ENDBRANCH  34  37
ENDBRANCH  29  31
ENDBRANCH  28  29
ENDBRANCH   3  28
TORSDOF 12
ENDMDL
