MODEL 3
REMARK VINA RESULT: -5.929096973      1.166      1.166
REMARK  2 active torsions:
REMARK  status: ('A' for Active; 'I' for Inactive)
REMARK    1  A    between atoms: N1_1  and  S1_4 
REMARK    2  A    between atoms: S1_4  and  C1_7 
ROOT
HETATM    1  C1  UNL     1      15.663   2.527  15.600  1.00  0.00     0.079 A 
HETATM    2  C2  UNL     1      16.897   2.976  15.177  1.00  0.00     0.025 A 
HETATM    3  C3  UNL     1      17.096   4.278  14.756  1.00  0.00     0.002 A 
HETATM    4  C4  UNL     1      16.058   5.188  14.741  1.00  0.00     0.000 A 
HETATM    5  C5  UNL     1      14.823   4.738  15.163  1.00  0.00     0.002 A 
HETATM    6  C6  UNL     1      14.615   3.431  15.589  1.00  0.00     0.025 A 
ENDROOT
BRANCH   1   7
HETATM    7  S1  UNL     1      15.461   0.865  16.126  1.00  0.00     0.256 S 
HETATM    8  O1  UNL     1      15.756   0.785  17.597  1.00  0.00    -0.201 OA
HETATM    9  O2  UNL     1      14.069   0.380  15.832  1.00  0.00    -0.201 OA
BRANCH   7  10
HETATM   10  N1  UNL     1      16.567  -0.181  15.310  1.00  0.00    -0.324 N 
ATOM     11  H12 UNL     1      17.552  -0.298  15.547  1.00  0.00     0.169 HD
ATOM     12  H11 UNL     1      16.056  -0.649  14.561  1.00  0.00     0.169 HD
ENDBRANCH   7  10
ENDBRANCH   1   7
TORSDOF 2
ENDMDL
