MODEL 5
REMARK VINA RESULT: -5.875851453      1.319      1.633
REMARK  2 active torsions:
REMARK  status: ('A' for Active; 'I' for Inactive)
REMARK    1  A    between atoms: N1_1  and  S1_4 
REMARK    2  A    between atoms: S1_4  and  C1_7 
ROOT
HETATM    1  C1  UNL     1      15.908   2.603  15.357  1.00  0.00     0.079 A 
HETATM    2  C2  UNL     1      17.002   3.351  14.972  1.00  0.00     0.025 A 
HETATM    3  C3  UNL     1      16.902   4.701  14.695  1.00  0.00     0.002 A 
HETATM    4  C4  UNL     1      15.694   5.361  14.792  1.00  0.00     0.000 A 
HETATM    5  C5  UNL     1      14.600   4.614  15.177  1.00  0.00     0.002 A 
HETATM    6  C6  UNL     1      14.690   3.255  15.458  1.00  0.00     0.025 A 
ENDROOT
BRANCH   1   7
HETATM    7  S1  UNL     1      16.083   0.891  15.700  1.00  0.00     0.256 S 
HETATM    8  O1  UNL     1      15.655   0.110  14.491  1.00  0.00    -0.201 OA
HETATM    9  O2  UNL     1      17.503   0.566  16.071  1.00  0.00    -0.201 OA
BRANCH   7  10
HETATM   10  N1  UNL     1      15.073   0.418  17.018  1.00  0.00    -0.324 N 
ATOM     11  H12 UNL     1      14.352  -0.303  16.979  1.00  0.00     0.169 HD
ATOM     12  H11 UNL     1      15.330   0.985  17.826  1.00  0.00     0.169 HD
ENDBRANCH   7  10
ENDBRANCH   1   7
TORSDOF 2
ENDMDL
