MODEL 2
REMARK VINA RESULT: -6.261472635      0.039      1.492
REMARK  2 active torsions:
REMARK  status: ('A' for Active; 'I' for Inactive)
REMARK    1  A    between atoms: N1_1  and  S1_4 
REMARK    2  A    between atoms: S1_4  and  C1_7 
ROOT
HETATM    1  C1  UNL     1      15.911   2.365  14.978  1.00  0.00     0.079 A 
HETATM    2  C2  UNL     1      14.646   2.867  14.751  1.00  0.00     0.025 A 
HETATM    3  C3  UNL     1      14.419   4.217  14.560  1.00  0.00     0.002 A 
HETATM    4  C4  UNL     1      15.458   5.125  14.588  1.00  0.00     0.000 A 
HETATM    5  C5  UNL     1      16.724   4.624  14.815  1.00  0.00     0.002 A 
HETATM    6  C6  UNL     1      16.961   3.267  15.008  1.00  0.00     0.025 A 
ENDROOT
BRANCH   1   7
HETATM    7  S1  UNL     1      16.150   0.643  15.214  1.00  0.00     0.256 S 
HETATM    8  O1  UNL     1      17.443   0.431  15.949  1.00  0.00    -0.201 OA
HETATM    9  O2  UNL     1      14.999   0.046  15.975  1.00  0.00    -0.201 OA
BRANCH   7  10
HETATM   10  N1  UNL     1      16.264  -0.179  13.700  1.00  0.00    -0.324 N 
ATOM     11  H12 UNL     1      15.759  -1.029  13.450  1.00  0.00     0.169 HD
ATOM     12  H11 UNL     1      16.921   0.338  13.115  1.00  0.00     0.169 HD
ENDBRANCH   7  10
ENDBRANCH   1   7
TORSDOF 2
ENDMDL
