MODEL 4
REMARK VINA RESULT: -5.892226934      1.232      2.142
REMARK  2 active torsions:
REMARK  status: ('A' for Active; 'I' for Inactive)
REMARK    1  A    between atoms: N1_1  and  S1_4 
REMARK    2  A    between atoms: S1_4  and  C1_7 
ROOT
HETATM    1  C1  UNL     1      15.907   2.528  15.123  1.00  0.00     0.079 A 
HETATM    2  C2  UNL     1      14.647   3.024  14.858  1.00  0.00     0.025 A 
HETATM    3  C3  UNL     1      14.440   4.346  14.511  1.00  0.00     0.002 A 
HETATM    4  C4  UNL     1      15.494   5.231  14.416  1.00  0.00     0.000 A 
HETATM    5  C5  UNL     1      16.755   4.736  14.681  1.00  0.00     0.002 A 
HETATM    6  C6  UNL     1      16.973   3.408  15.030  1.00  0.00     0.025 A 
ENDROOT
BRANCH   1   7
HETATM    7  S1  UNL     1      16.120   0.842  15.558  1.00  0.00     0.256 S 
HETATM    8  O1  UNL     1      15.847  -0.007  14.350  1.00  0.00    -0.201 OA
HETATM    9  O2  UNL     1      17.509   0.599  16.079  1.00  0.00    -0.201 OA
BRANCH   7  10
HETATM   10  N1  UNL     1      15.005   0.376  16.792  1.00  0.00    -0.324 N 
ATOM     11  H12 UNL     1      14.029   0.122  16.639  1.00  0.00     0.169 HD
ATOM     12  H11 UNL     1      15.500   0.404  17.684  1.00  0.00     0.169 HD
ENDBRANCH   7  10
ENDBRANCH   1   7
TORSDOF 2
ENDMDL
