MODEL 20
REMARK VINA RESULT: -5.113922375      4.439      5.301
REMARK  2 active torsions:
REMARK  status: ('A' for Active; 'I' for Inactive)
REMARK    1  A    between atoms: N1_1  and  S1_4 
REMARK    2  A    between atoms: S1_4  and  C1_7 
ROOT
HETATM    1  C1  UNL     1      17.175   1.036  12.052  1.00  0.00     0.079 A 
HETATM    2  C2  UNL     1      16.497  -0.156  12.198  1.00  0.00     0.025 A 
HETATM    3  C3  UNL     1      16.955  -1.331  11.631  1.00  0.00     0.002 A 
HETATM    4  C4  UNL     1      18.118  -1.358  10.890  1.00  0.00     0.000 A 
HETATM    5  C5  UNL     1      18.797  -0.165  10.743  1.00  0.00     0.002 A 
HETATM    6  C6  UNL     1      18.344   1.021  11.310  1.00  0.00     0.025 A 
ENDROOT
BRANCH   1   7
HETATM    7  S1  UNL     1      16.555   2.502  12.791  1.00  0.00     0.256 S 
HETATM    8  O1  UNL     1      17.511   2.945  13.862  1.00  0.00    -0.201 OA
HETATM    9  O2  UNL     1      16.370   3.580  11.760  1.00  0.00    -0.201 OA
BRANCH   7  10
HETATM   10  N1  UNL     1      15.024   2.218  13.537  1.00  0.00    -0.324 N 
ATOM     11  H12 UNL     1      14.422   2.935  13.942  1.00  0.00     0.169 HD
ATOM     12  H11 UNL     1      14.840   1.215  13.496  1.00  0.00     0.169 HD
ENDBRANCH   7  10
ENDBRANCH   1   7
TORSDOF 2
ENDMDL
