MODEL 1
REMARK VINA RESULT: -6.277455783      0.000      0.000
REMARK  2 active torsions:
REMARK  status: ('A' for Active; 'I' for Inactive)
REMARK    1  A    between atoms: N1_1  and  S1_4 
REMARK    2  A    between atoms: S1_4  and  C1_7 
ROOT
HETATM    1  C1  UNL     1      15.873   2.362  14.968  1.00  0.00     0.079 A 
HETATM    2  C2  UNL     1      16.932   3.244  15.013  1.00  0.00     0.025 A 
HETATM    3  C3  UNL     1      16.760   4.602  14.820  1.00  0.00     0.002 A 
HETATM    4  C4  UNL     1      15.511   5.134  14.572  1.00  0.00     0.000 A 
HETATM    5  C5  UNL     1      14.451   4.251  14.526  1.00  0.00     0.002 A 
HETATM    6  C6  UNL     1      14.615   2.884  14.719  1.00  0.00     0.025 A 
ENDROOT
BRANCH   1   7
HETATM    7  S1  UNL     1      16.141   0.646  15.220  1.00  0.00     0.256 S 
HETATM    8  O1  UNL     1      17.440   0.462  15.951  1.00  0.00    -0.201 OA
HETATM    9  O2  UNL     1      15.002   0.037  15.990  1.00  0.00    -0.201 OA
BRANCH   7  10
HETATM   10  N1  UNL     1      16.263  -0.188  13.713  1.00  0.00    -0.324 N 
ATOM     11  H12 UNL     1      15.512  -0.714  13.266  1.00  0.00     0.169 HD
ATOM     12  H11 UNL     1      17.212  -0.057  13.361  1.00  0.00     0.169 HD
ENDBRANCH   7  10
ENDBRANCH   1   7
TORSDOF 2
ENDMDL
