MODEL 8
REMARK VINA RESULT: -8.382624919      3.563     10.158
REMARK  8 active torsions:
REMARK  status: ('A' for Active; 'I' for Inactive)
REMARK    1  A    between atoms: C2_2  and  N1_3 
REMARK       I    between atoms: N1_3  and  C3_5 
REMARK    2  A    between atoms: C3_5  and  C4_7 
REMARK    3  A    between atoms: C7_10  and  C8_11 
REMARK       I    between atoms: C8_11  and  N2_13 
REMARK    4  A    between atoms: N2_13  and  C9_15 
REMARK    5  A    between atoms: C9_15  and  C10_16 
REMARK    6  A    between atoms: C10_16  and  C11_17 
REMARK    7  A    between atoms: N3_20  and  C14_21 
REMARK    8  A    between atoms: C18_29  and  C19_30 
ROOT
HETATM    1  C11 UNL     1      23.904  44.310  -2.170  1.00  0.00    -0.010 C 
HETATM    2  C12 UNL     1      22.792  43.324  -1.810  1.00  0.00     0.024 C 
HETATM    3  C13 UNL     1      22.400  43.451  -0.381  1.00  0.00     0.125 C 
HETATM    4  N3  UNL     1      23.342  44.195   0.431  1.00  0.00    -0.366 N 
HETATM    5  C21 UNL     1      23.945  45.427  -0.021  1.00  0.00     0.125 C 
HETATM    6  C22 UNL     1      23.533  45.596  -1.478  1.00  0.00     0.024 C 
ENDROOT
BRANCH   1   7
HETATM    7  C10 UNL     1      23.941  44.497  -3.646  1.00  0.00     0.024 C 
BRANCH   7   8
HETATM    8  C9  UNL     1      25.084  45.391  -4.035  1.00  0.00     0.123 C 
BRANCH   8   9
HETATM    9  N2  UNL     1      24.625  46.559  -4.786  1.00  0.00    -0.356 N 
HETATM   10  C8  UNL     1      24.386  47.766  -4.099  1.00  0.00     0.258 C 
HETATM   11  O2  UNL     1      24.534  47.933  -2.858  1.00  0.00    -0.267 OA
ATOM     12  H2  UNL     1      24.480  46.501  -5.793  1.00  0.00     0.162 HD
BRANCH  10  13
HETATM   13  C7  UNL     1      23.923  48.921  -4.909  1.00  0.00     0.073 A 
HETATM   14  C6  UNL     1      22.825  49.011  -5.715  1.00  0.00     0.026 A 
HETATM   15  C5  UNL     1      22.614  50.170  -6.350  1.00  0.00     0.026 A 
HETATM   16  C4  UNL     1      23.520  51.175  -6.139  1.00  0.00     0.073 A 
HETATM   17  S2  UNL     1      24.634  50.471  -5.062  1.00  0.00    -0.079 SA
BRANCH  16  18
HETATM   18  C3  UNL     1      23.503  52.538  -6.724  1.00  0.00     0.258 C 
HETATM   19  N1  UNL     1      23.689  52.737  -8.114  1.00  0.00    -0.357 N 
ATOM     20  H1  UNL     1      23.836  51.924  -8.713  1.00  0.00     0.162 HD
HETATM   21  O1  UNL     1      23.320  53.483  -5.950  1.00  0.00    -0.267 OA
BRANCH  19  22
HETATM   22  C2  UNL     1      23.678  54.048  -8.712  1.00  0.00     0.118 C 
HETATM   23  C1  UNL     1      22.586  54.233  -9.723  1.00  0.00     0.026 C 
ENDBRANCH  19  22
ENDBRANCH  16  18
ENDBRANCH  10  13
ENDBRANCH   8   9
ENDBRANCH   7   8
ENDBRANCH   1   7
BRANCH   4  24
HETATM   24  C14 UNL     1      23.698  43.714   1.719  1.00  0.00     0.123 A 
HETATM   25  N4  UNL     1      24.570  44.348   2.540  1.00  0.00    -0.338 N 
HETATM   26  C15 UNL     1      24.776  43.730   3.723  1.00  0.00     0.182 A 
ATOM     27  H4  UNL     1      25.033  45.221   2.285  1.00  0.00     0.168 HD
HETATM   28  N5  UNL     1      24.217  42.604   4.119  1.00  0.00    -0.351 N 
HETATM   29  C16 UNL     1      23.327  41.926   3.321  1.00  0.00     0.055 A 
ATOM     30  H5  UNL     1      24.449  42.227   5.038  1.00  0.00     0.166 HD
HETATM   31  C17 UNL     1      22.685  40.780   3.590  1.00  0.00     0.055 A 
HETATM   32  C20 UNL     1      23.086  42.514   2.111  1.00  0.00     0.076 A 
HETATM   33  C18 UNL     1      21.839  40.290   2.632  1.00  0.00     0.072 A 
HETATM   34  S1  UNL     1      21.968  41.447   1.384  1.00  0.00    -0.079 SA
BRANCH  33  35
HETATM   35  C19 UNL     1      21.020  39.068   2.665  1.00  0.00     0.271 C 
HETATM   36  N6  UNL     1      20.603  38.561   3.902  1.00  0.00    -0.057 NA
HETATM   37  O3  UNL     1      20.741  38.546   1.556  1.00  0.00    -0.270 OA
ENDBRANCH  33  35
ENDBRANCH   4  24
TORSDOF 8
ENDMDL
