MODEL 1
REMARK VINA RESULT: -9.096369564      0.000      0.000
REMARK  8 active torsions:
REMARK  status: ('A' for Active; 'I' for Inactive)
REMARK    1  A    between atoms: C2_2  and  N1_3 
REMARK       I    between atoms: N1_3  and  C3_5 
REMARK    2  A    between atoms: C3_5  and  C4_7 
REMARK    3  A    between atoms: C7_10  and  C8_11 
REMARK       I    between atoms: C8_11  and  N2_13 
REMARK    4  A    between atoms: N2_13  and  C9_15 
REMARK    5  A    between atoms: C9_15  and  C10_16 
REMARK    6  A    between atoms: C10_16  and  C11_17 
REMARK    7  A    between atoms: N3_20  and  C14_21 
REMARK    8  A    between atoms: C18_29  and  C19_30 
ROOT
HETATM    1  C11 UNL     1      24.802  49.004   0.884  1.00  0.00    -0.010 C 
HETATM    2  C12 UNL     1      26.145  49.243   0.194  1.00  0.00     0.024 C 
HETATM    3  C13 UNL     1      25.959  49.653  -1.224  1.00  0.00     0.125 C 
HETATM    4  N3  UNL     1      24.627  49.414  -1.742  1.00  0.00    -0.366 N 
HETATM    5  C21 UNL     1      23.437  49.723  -0.984  1.00  0.00     0.125 C 
HETATM    6  C22 UNL     1      23.908  50.121   0.409  1.00  0.00     0.024 C 
ENDROOT
BRANCH   1   7
HETATM    7  C10 UNL     1      24.985  49.067   2.359  1.00  0.00     0.024 C 
BRANCH   7   8
HETATM    8  C9  UNL     1      23.816  48.438   3.063  1.00  0.00     0.123 C 
BRANCH   8   9
HETATM    9  N2  UNL     1      23.722  47.005   2.780  1.00  0.00    -0.356 N 
HETATM   10  C8  UNL     1      22.846  46.211   3.545  1.00  0.00     0.258 C 
HETATM   11  O2  UNL     1      22.115  46.635   4.481  1.00  0.00    -0.267 OA
ATOM     12  H2  UNL     1      24.284  46.588   2.039  1.00  0.00     0.162 HD
BRANCH  10  13
HETATM   13  C7  UNL     1      22.788  44.764   3.216  1.00  0.00     0.073 A 
HETATM   14  C6  UNL     1      23.663  43.775   3.564  1.00  0.00     0.026 A 
HETATM   15  C5  UNL     1      23.395  42.533   3.144  1.00  0.00     0.026 A 
HETATM   16  C4  UNL     1      22.261  42.354   2.397  1.00  0.00     0.073 A 
HETATM   17  S2  UNL     1      21.607  43.922   2.306  1.00  0.00    -0.079 SA
BRANCH  16  18
HETATM   18  C3  UNL     1      21.754  41.083   1.822  1.00  0.00     0.258 C 
HETATM   19  N1  UNL     1      21.346  40.017   2.660  1.00  0.00    -0.357 N 
ATOM     20  H1  UNL     1      21.405  40.134   3.672  1.00  0.00     0.162 HD
HETATM   21  O1  UNL     1      21.705  41.000   0.591  1.00  0.00    -0.267 OA
BRANCH  19  22
HETATM   22  C2  UNL     1      20.850  38.771   2.132  1.00  0.00     0.118 C 
HETATM   23  C1  UNL     1      21.935  37.785   1.813  1.00  0.00     0.026 C 
ENDBRANCH  19  22
ENDBRANCH  16  18
ENDBRANCH  10  13
ENDBRANCH   8   9
ENDBRANCH   7   8
ENDBRANCH   1   7
BRANCH   4  24
HETATM   24  C14 UNL     1      24.463  48.858  -3.039  1.00  0.00     0.123 A 
HETATM   25  N4  UNL     1      24.522  49.588  -4.179  1.00  0.00    -0.338 N 
HETATM   26  C15 UNL     1      24.341  48.874  -5.311  1.00  0.00     0.182 A 
ATOM     27  H4  UNL     1      24.689  50.595  -4.182  1.00  0.00     0.168 HD
HETATM   28  N5  UNL     1      24.119  47.577  -5.385  1.00  0.00    -0.351 N 
HETATM   29  C16 UNL     1      24.050  46.796  -4.256  1.00  0.00     0.055 A 
ATOM     30  H5  UNL     1      23.995  47.142  -6.299  1.00  0.00     0.166 HD
HETATM   31  C17 UNL     1      23.833  45.476  -4.178  1.00  0.00     0.055 A 
HETATM   32  C20 UNL     1      24.228  47.475  -3.083  1.00  0.00     0.076 A 
HETATM   33  C18 UNL     1      23.808  44.912  -2.931  1.00  0.00     0.072 A 
HETATM   34  S1  UNL     1      24.087  46.247  -1.906  1.00  0.00    -0.079 SA
BRANCH  33  35
HETATM   35  C19 UNL     1      23.593  43.504  -2.562  1.00  0.00     0.271 C 
HETATM   36  N6  UNL     1      24.116  42.497  -3.383  1.00  0.00    -0.057 NA
HETATM   37  O3  UNL     1      22.938  43.291  -1.510  1.00  0.00    -0.270 OA
ENDBRANCH  33  35
ENDBRANCH   4  24
TORSDOF 8
ENDMDL
