MODEL 4
REMARK VINA RESULT: -8.779622232      3.625      9.977
REMARK  8 active torsions:
REMARK  status: ('A' for Active; 'I' for Inactive)
REMARK    1  A    between atoms: C2_2  and  N1_3 
REMARK       I    between atoms: N1_3  and  C3_5 
REMARK    2  A    between atoms: C3_5  and  C4_7 
REMARK    3  A    between atoms: C7_10  and  C8_11 
REMARK       I    between atoms: C8_11  and  N2_13 
REMARK    4  A    between atoms: N2_13  and  C9_15 
REMARK    5  A    between atoms: C9_15  and  C10_16 
REMARK    6  A    between atoms: C10_16  and  C11_17 
REMARK    7  A    between atoms: N3_20  and  C14_21 
REMARK    8  A    between atoms: C18_29  and  C19_30 
ROOT
HETATM    1  C11 UNL     1      23.995  44.290  -2.087  1.00  0.00    -0.010 C 
HETATM    2  C12 UNL     1      22.927  43.251  -1.747  1.00  0.00     0.024 C 
HETATM    3  C13 UNL     1      22.490  43.368  -0.330  1.00  0.00     0.125 C 
HETATM    4  N3  UNL     1      23.371  44.166   0.499  1.00  0.00    -0.366 N 
HETATM    5  C21 UNL     1      23.920  45.425   0.051  1.00  0.00     0.125 C 
HETATM    6  C22 UNL     1      23.539  45.560  -1.417  1.00  0.00     0.024 C 
ENDROOT
BRANCH   1   7
HETATM    7  C10 UNL     1      24.061  44.467  -3.563  1.00  0.00     0.024 C 
BRANCH   7   8
HETATM    8  C9  UNL     1      25.052  45.539  -3.921  1.00  0.00     0.123 C 
BRANCH   8   9
HETATM    9  N2  UNL     1      24.431  46.611  -4.700  1.00  0.00    -0.356 N 
HETATM   10  C8  UNL     1      24.277  47.883  -4.115  1.00  0.00     0.258 C 
HETATM   11  O2  UNL     1      24.635  48.190  -2.946  1.00  0.00    -0.267 OA
ATOM     12  H2  UNL     1      24.113  46.439  -5.653  1.00  0.00     0.162 HD
BRANCH  10  13
HETATM   13  C7  UNL     1      23.642  48.935  -4.950  1.00  0.00     0.073 A 
HETATM   14  C6  UNL     1      23.481  48.965  -6.306  1.00  0.00     0.026 A 
HETATM   15  C5  UNL     1      22.871  50.032  -6.835  1.00  0.00     0.026 A 
HETATM   16  C4  UNL     1      22.457  51.011  -5.971  1.00  0.00     0.073 A 
HETATM   17  S2  UNL     1      22.930  50.410  -4.451  1.00  0.00    -0.079 SA
BRANCH  16  18
HETATM   18  C3  UNL     1      21.764  52.277  -6.313  1.00  0.00     0.258 C 
HETATM   19  N1  UNL     1      21.803  52.796  -7.631  1.00  0.00    -0.357 N 
ATOM     20  H1  UNL     1      22.317  52.283  -8.347  1.00  0.00     0.162 HD
HETATM   21  O1  UNL     1      21.157  52.852  -5.404  1.00  0.00    -0.267 OA
BRANCH  19  22
HETATM   22  C2  UNL     1      21.140  54.023  -7.993  1.00  0.00     0.118 C 
HETATM   23  C1  UNL     1      19.741  53.819  -8.496  1.00  0.00     0.026 C 
ENDBRANCH  19  22
ENDBRANCH  16  18
ENDBRANCH  10  13
ENDBRANCH   8   9
ENDBRANCH   7   8
ENDBRANCH   1   7
BRANCH   4  24
HETATM   24  C14 UNL     1      23.717  43.715   1.801  1.00  0.00     0.123 A 
HETATM   25  N4  UNL     1      24.567  44.378   2.621  1.00  0.00    -0.338 N 
HETATM   26  C15 UNL     1      24.767  43.784   3.818  1.00  0.00     0.182 A 
ATOM     27  H4  UNL     1      25.020  45.253   2.357  1.00  0.00     0.168 HD
HETATM   28  N5  UNL     1      24.221  42.656   4.227  1.00  0.00    -0.351 N 
HETATM   29  C16 UNL     1      23.354  41.949   3.429  1.00  0.00     0.055 A 
ATOM     30  H5  UNL     1      24.447  42.300   5.156  1.00  0.00     0.166 HD
HETATM   31  C17 UNL     1      22.728  40.798   3.710  1.00  0.00     0.055 A 
HETATM   32  C20 UNL     1      23.120  42.512   2.206  1.00  0.00     0.076 A 
HETATM   33  C18 UNL     1      21.903  40.277   2.751  1.00  0.00     0.072 A 
HETATM   34  S1  UNL     1      22.030  41.413   1.484  1.00  0.00    -0.079 SA
BRANCH  33  35
HETATM   35  C19 UNL     1      21.104  39.042   2.795  1.00  0.00     0.271 C 
HETATM   36  N6  UNL     1      20.754  38.413   1.594  1.00  0.00    -0.057 NA
HETATM   37  O3  UNL     1      20.779  38.622   3.935  1.00  0.00    -0.270 OA
ENDBRANCH  33  35
ENDBRANCH   4  24
TORSDOF 8
ENDMDL
