MODEL 5
REMARK VINA RESULT: -8.681803551      3.820     10.450
REMARK  8 active torsions:
REMARK  status: ('A' for Active; 'I' for Inactive)
REMARK    1  A    between atoms: C2_2  and  N1_3 
REMARK       I    between atoms: N1_3  and  C3_5 
REMARK    2  A    between atoms: C3_5  and  C4_7 
REMARK    3  A    between atoms: C7_10  and  C8_11 
REMARK       I    between atoms: C8_11  and  N2_13 
REMARK    4  A    between atoms: N2_13  and  C9_15 
REMARK    5  A    between atoms: C9_15  and  C10_16 
REMARK    6  A    between atoms: C10_16  and  C11_17 
REMARK    7  A    between atoms: N3_20  and  C14_21 
REMARK    8  A    between atoms: C18_29  and  C19_30 
ROOT
HETATM    1  C11 UNL     1      24.686  44.616  -2.200  1.00  0.00    -0.010 C 
HETATM    2  C12 UNL     1      24.213  43.167  -2.088  1.00  0.00     0.024 C 
HETATM    3  C13 UNL     1      23.455  42.941  -0.828  1.00  0.00     0.125 C 
HETATM    4  N3  UNL     1      23.612  43.993   0.157  1.00  0.00    -0.366 N 
HETATM    5  C21 UNL     1      23.568  45.392  -0.196  1.00  0.00     0.125 C 
HETATM    6  C22 UNL     1      23.526  45.449  -1.717  1.00  0.00     0.024 C 
ENDROOT
BRANCH   1   7
HETATM    7  C10 UNL     1      25.002  44.925  -3.621  1.00  0.00     0.024 C 
BRANCH   7   8
HETATM    8  C9  UNL     1      23.859  45.653  -4.269  1.00  0.00     0.123 C 
BRANCH   8   9
HETATM    9  N2  UNL     1      24.232  47.015  -4.650  1.00  0.00    -0.356 N 
HETATM   10  C8  UNL     1      23.304  47.811  -5.351  1.00  0.00     0.258 C 
HETATM   11  O2  UNL     1      22.147  47.443  -5.690  1.00  0.00    -0.267 OA
ATOM     12  H2  UNL     1      25.152  47.384  -4.412  1.00  0.00     0.162 HD
BRANCH  10  13
HETATM   13  C7  UNL     1      23.733  49.186  -5.711  1.00  0.00     0.073 A 
HETATM   14  C6  UNL     1      24.916  49.810  -5.433  1.00  0.00     0.026 A 
HETATM   15  C5  UNL     1      25.072  51.066  -5.867  1.00  0.00     0.026 A 
HETATM   16  C4  UNL     1      24.030  51.625  -6.559  1.00  0.00     0.073 A 
HETATM   17  S2  UNL     1      22.869  50.382  -6.580  1.00  0.00    -0.079 SA
BRANCH  16  18
HETATM   18  C3  UNL     1      23.965  52.990  -7.137  1.00  0.00     0.258 C 
HETATM   19  N1  UNL     1      23.637  53.187  -8.501  1.00  0.00    -0.357 N 
ATOM     20  H1  UNL     1      23.445  52.373  -9.085  1.00  0.00     0.162 HD
HETATM   21  O1  UNL     1      24.207  53.936  -6.381  1.00  0.00    -0.267 OA
BRANCH  19  22
HETATM   22  C2  UNL     1      23.566  54.500  -9.092  1.00  0.00     0.118 C 
HETATM   23  C1  UNL     1      22.823  54.529 -10.395  1.00  0.00     0.026 C 
ENDBRANCH  19  22
ENDBRANCH  16  18
ENDBRANCH  10  13
ENDBRANCH   8   9
ENDBRANCH   7   8
ENDBRANCH   1   7
BRANCH   4  24
HETATM   24  C14 UNL     1      23.817  43.657   1.522  1.00  0.00     0.123 A 
HETATM   25  N4  UNL     1      24.603  44.376   2.359  1.00  0.00    -0.338 N 
HETATM   26  C15 UNL     1      24.668  43.893   3.619  1.00  0.00     0.182 A 
ATOM     27  H4  UNL     1      25.104  45.214   2.063  1.00  0.00     0.168 HD
HETATM   28  N5  UNL     1      24.053  42.819   4.072  1.00  0.00    -0.351 N 
HETATM   29  C16 UNL     1      23.247  42.059   3.260  1.00  0.00     0.055 A 
ATOM     30  H5  UNL     1      24.177  42.547   5.048  1.00  0.00     0.166 HD
HETATM   31  C17 UNL     1      22.563  40.951   3.580  1.00  0.00     0.055 A 
HETATM   32  C20 UNL     1      23.148  42.509   1.973  1.00  0.00     0.076 A 
HETATM   33  C18 UNL     1      21.820  40.360   2.595  1.00  0.00     0.072 A 
HETATM   34  S1  UNL     1      22.102  41.371   1.249  1.00  0.00    -0.079 SA
BRANCH  33  35
HETATM   35  C19 UNL     1      20.984  39.151   2.671  1.00  0.00     0.271 C 
HETATM   36  N6  UNL     1      20.654  38.630   3.929  1.00  0.00    -0.057 NA
HETATM   37  O3  UNL     1      20.612  38.652   1.579  1.00  0.00    -0.270 OA
ENDBRANCH  33  35
ENDBRANCH   4  24
TORSDOF 8
ENDMDL
