MODEL 3
REMARK VINA RESULT: -8.792804686      3.525      9.637
REMARK  8 active torsions:
REMARK  status: ('A' for Active; 'I' for Inactive)
REMARK    1  A    between atoms: C2_2  and  N1_3 
REMARK       I    between atoms: N1_3  and  C3_5 
REMARK    2  A    between atoms: C3_5  and  C4_7 
REMARK    3  A    between atoms: C7_10  and  C8_11 
REMARK       I    between atoms: C8_11  and  N2_13 
REMARK    4  A    between atoms: N2_13  and  C9_15 
REMARK    5  A    between atoms: C9_15  and  C10_16 
REMARK    6  A    between atoms: C10_16  and  C11_17 
REMARK    7  A    between atoms: N3_20  and  C14_21 
REMARK    8  A    between atoms: C18_29  and  C19_30 
ROOT
HETATM    1  C11 UNL     1      23.930  43.168  -1.962  1.00  0.00    -0.010 C 
HETATM    2  C12 UNL     1      22.548  43.481  -1.389  1.00  0.00     0.024 C 
HETATM    3  C13 UNL     1      22.649  44.118  -0.049  1.00  0.00     0.125 C 
HETATM    4  N3  UNL     1      23.955  43.999   0.569  1.00  0.00    -0.366 N 
HETATM    5  C21 UNL     1      25.178  44.212  -0.168  1.00  0.00     0.125 C 
HETATM    6  C22 UNL     1      24.778  44.369  -1.628  1.00  0.00     0.024 C 
ENDROOT
BRANCH   1   7
HETATM    7  C10 UNL     1      23.826  42.988  -3.435  1.00  0.00     0.024 C 
BRANCH   7   8
HETATM    8  C9  UNL     1      24.715  43.968  -4.149  1.00  0.00     0.123 C 
BRANCH   8   9
HETATM    9  N2  UNL     1      24.060  45.264  -4.322  1.00  0.00    -0.356 N 
HETATM   10  C8  UNL     1      24.766  46.311  -4.948  1.00  0.00     0.258 C 
HETATM   11  O2  UNL     1      25.946  46.229  -5.383  1.00  0.00    -0.267 OA
ATOM     12  H2  UNL     1      23.106  45.409  -3.994  1.00  0.00     0.162 HD
BRANCH  10  13
HETATM   13  C7  UNL     1      24.054  47.606  -5.100  1.00  0.00     0.073 A 
HETATM   14  C6  UNL     1      23.333  48.062  -6.166  1.00  0.00     0.026 A 
HETATM   15  C5  UNL     1      22.779  49.275  -6.067  1.00  0.00     0.026 A 
HETATM   16  C4  UNL     1      22.979  49.964  -4.900  1.00  0.00     0.073 A 
HETATM   17  S2  UNL     1      23.933  48.896  -3.981  1.00  0.00    -0.079 SA
BRANCH  16  18
HETATM   18  C3  UNL     1      22.470  51.314  -4.554  1.00  0.00     0.258 C 
HETATM   19  N1  UNL     1      21.781  52.099  -5.510  1.00  0.00    -0.357 N 
ATOM     20  H1  UNL     1      21.637  51.722  -6.447  1.00  0.00     0.162 HD
HETATM   21  O1  UNL     1      22.673  51.716  -3.404  1.00  0.00    -0.267 OA
BRANCH  19  22
HETATM   22  C2  UNL     1      21.275  53.414  -5.205  1.00  0.00     0.118 C 
HETATM   23  C1  UNL     1      20.221  53.885  -6.163  1.00  0.00     0.026 C 
ENDBRANCH  19  22
ENDBRANCH  16  18
ENDBRANCH  10  13
ENDBRANCH   8   9
ENDBRANCH   7   8
ENDBRANCH   1   7
BRANCH   4  24
HETATM   24  C14 UNL     1      24.057  43.663   1.945  1.00  0.00     0.123 A 
HETATM   25  N4  UNL     1      24.789  44.374   2.837  1.00  0.00    -0.338 N 
HETATM   26  C15 UNL     1      24.757  43.891   4.098  1.00  0.00     0.182 A 
ATOM     27  H4  UNL     1      25.320  45.205   2.577  1.00  0.00     0.168 HD
HETATM   28  N5  UNL     1      24.097  42.826   4.506  1.00  0.00    -0.351 N 
HETATM   29  C16 UNL     1      23.342  42.074   3.638  1.00  0.00     0.055 A 
ATOM     30  H5  UNL     1      24.148  42.553   5.488  1.00  0.00     0.166 HD
HETATM   31  C17 UNL     1      22.623  40.976   3.910  1.00  0.00     0.055 A 
HETATM   32  C20 UNL     1      23.343  42.524   2.348  1.00  0.00     0.076 A 
HETATM   33  C18 UNL     1      21.946  40.392   2.873  1.00  0.00     0.072 A 
HETATM   34  S1  UNL     1      22.337  41.398   1.551  1.00  0.00    -0.079 SA
BRANCH  33  35
HETATM   35  C19 UNL     1      21.092  39.194   2.890  1.00  0.00     0.271 C 
HETATM   36  N6  UNL     1      20.795  38.552   1.682  1.00  0.00    -0.057 NA
HETATM   37  O3  UNL     1      20.675  38.815   4.014  1.00  0.00    -0.270 OA
ENDBRANCH  33  35
ENDBRANCH   4  24
TORSDOF 8
ENDMDL
