MODEL 10
REMARK VINA RESULT: -8.362235770      3.835     10.343
REMARK  8 active torsions:
REMARK  status: ('A' for Active; 'I' for Inactive)
REMARK    1  A    between atoms: C2_2  and  N1_3 
REMARK       I    between atoms: N1_3  and  C3_5 
REMARK    2  A    between atoms: C3_5  and  C4_7 
REMARK    3  A    between atoms: C7_10  and  C8_11 
REMARK       I    between atoms: C8_11  and  N2_13 
REMARK    4  A    between atoms: N2_13  and  C9_15 
REMARK    5  A    between atoms: C9_15  and  C10_16 
REMARK    6  A    between atoms: C10_16  and  C11_17 
REMARK    7  A    between atoms: N3_20  and  C14_21 
REMARK    8  A    between atoms: C18_29  and  C19_30 
ROOT
HETATM    1  C11 UNL     1      24.794  44.803  -1.931  1.00  0.00    -0.010 C 
HETATM    2  C12 UNL     1      24.206  43.393  -1.903  1.00  0.00     0.024 C 
HETATM    3  C13 UNL     1      23.429  43.156  -0.657  1.00  0.00     0.125 C 
HETATM    4  N3  UNL     1      23.667  44.133   0.388  1.00  0.00    -0.366 N 
HETATM    5  C21 UNL     1      23.737  45.549   0.116  1.00  0.00     0.125 C 
HETATM    6  C22 UNL     1      23.704  45.698  -1.399  1.00  0.00     0.024 C 
ENDROOT
BRANCH   1   7
HETATM    7  C10 UNL     1      25.139  45.168  -3.332  1.00  0.00     0.024 C 
BRANCH   7   8
HETATM    8  C9  UNL     1      23.973  45.837  -4.005  1.00  0.00     0.123 C 
BRANCH   8   9
HETATM    9  N2  UNL     1      24.287  47.213  -4.388  1.00  0.00    -0.356 N 
HETATM   10  C8  UNL     1      23.380  47.923  -5.199  1.00  0.00     0.258 C 
HETATM   11  O2  UNL     1      22.291  47.465  -5.639  1.00  0.00    -0.267 OA
ATOM     12  H2  UNL     1      25.151  47.652  -4.072  1.00  0.00     0.162 HD
BRANCH  10  13
HETATM   13  C7  UNL     1      23.746  49.317  -5.557  1.00  0.00     0.073 A 
HETATM   14  C6  UNL     1      24.936  49.961  -5.368  1.00  0.00     0.026 A 
HETATM   15  C5  UNL     1      25.026  51.231  -5.778  1.00  0.00     0.026 A 
HETATM   16  C4  UNL     1      23.915  51.785  -6.357  1.00  0.00     0.073 A 
HETATM   17  S2  UNL     1      22.782  50.516  -6.309  1.00  0.00    -0.079 SA
BRANCH  16  18
HETATM   18  C3  UNL     1      23.769  53.163  -6.887  1.00  0.00     0.258 C 
HETATM   19  N1  UNL     1      23.101  54.164  -6.139  1.00  0.00    -0.357 N 
ATOM     20  H1  UNL     1      22.719  53.923  -5.224  1.00  0.00     0.162 HD
HETATM   21  O1  UNL     1      24.252  53.394  -7.999  1.00  0.00    -0.267 OA
BRANCH  19  22
HETATM   22  C2  UNL     1      22.944  55.510  -6.627  1.00  0.00     0.118 C 
HETATM   23  C1  UNL     1      23.668  56.533  -5.802  1.00  0.00     0.026 C 
ENDBRANCH  19  22
ENDBRANCH  16  18
ENDBRANCH  10  13
ENDBRANCH   8   9
ENDBRANCH   7   8
ENDBRANCH   1   7
BRANCH   4  24
HETATM   24  C14 UNL     1      23.840  43.703   1.730  1.00  0.00     0.123 A 
HETATM   25  N4  UNL     1      24.601  44.365   2.635  1.00  0.00    -0.338 N 
HETATM   26  C15 UNL     1      24.638  43.795   3.859  1.00  0.00     0.182 A 
ATOM     27  H4  UNL     1      25.104  45.224   2.411  1.00  0.00     0.168 HD
HETATM   28  N5  UNL     1      24.018  42.689   4.220  1.00  0.00    -0.351 N 
HETATM   29  C16 UNL     1      23.237  41.984   3.336  1.00  0.00     0.055 A 
ATOM     30  H5  UNL     1      24.120  42.349   5.177  1.00  0.00     0.166 HD
HETATM   31  C17 UNL     1      22.553  40.853   3.561  1.00  0.00     0.055 A 
HETATM   32  C20 UNL     1      23.168  42.523   2.083  1.00  0.00     0.076 A 
HETATM   33  C18 UNL     1      21.838  40.329   2.518  1.00  0.00     0.072 A 
HETATM   34  S1  UNL     1      22.147  41.433   1.254  1.00  0.00    -0.079 SA
BRANCH  33  35
HETATM   35  C19 UNL     1      21.009  39.114   2.489  1.00  0.00     0.271 C 
HETATM   36  N6  UNL     1      20.591  38.546   3.699  1.00  0.00    -0.057 NA
HETATM   37  O3  UNL     1      20.723  38.654   1.355  1.00  0.00    -0.270 OA
ENDBRANCH  33  35
ENDBRANCH   4  24
TORSDOF 8
ENDMDL
