MODEL 6
REMARK VINA RESULT: -8.450348886      3.999      9.676
REMARK  8 active torsions:
REMARK  status: ('A' for Active; 'I' for Inactive)
REMARK    1  A    between atoms: C2_2  and  N1_3 
REMARK       I    between atoms: N1_3  and  C3_5 
REMARK    2  A    between atoms: C3_5  and  C4_7 
REMARK    3  A    between atoms: C7_10  and  C8_11 
REMARK       I    between atoms: C8_11  and  N2_13 
REMARK    4  A    between atoms: N2_13  and  C9_15 
REMARK    5  A    between atoms: C9_15  and  C10_16 
REMARK    6  A    between atoms: C10_16  and  C11_17 
REMARK    7  A    between atoms: N3_20  and  C14_21 
REMARK    8  A    between atoms: C18_29  and  C19_30 
ROOT
HETATM    1  C11 UNL     1      22.284  44.905   3.729  1.00  0.00    -0.010 C 
HETATM    2  C12 UNL     1      20.767  44.838   3.905  1.00  0.00     0.024 C 
HETATM    3  C13 UNL     1      20.198  46.179   4.204  1.00  0.00     0.125 C 
HETATM    4  N3  UNL     1      21.181  47.168   4.601  1.00  0.00    -0.366 N 
HETATM    5  C21 UNL     1      22.445  47.314   3.917  1.00  0.00     0.125 C 
HETATM    6  C22 UNL     1      22.536  46.158   2.931  1.00  0.00     0.024 C 
ENDROOT
BRANCH   1   7
HETATM    7  C10 UNL     1      22.750  43.703   2.986  1.00  0.00     0.024 C 
BRANCH   7   8
HETATM    8  C9  UNL     1      21.843  43.419   1.822  1.00  0.00     0.123 C 
BRANCH   8   9
HETATM    9  N2  UNL     1      22.401  43.920   0.567  1.00  0.00    -0.356 N 
HETATM   10  C8  UNL     1      22.759  43.002  -0.441  1.00  0.00     0.258 C 
HETATM   11  O2  UNL     1      22.639  41.750  -0.354  1.00  0.00    -0.267 OA
ATOM     12  H2  UNL     1      22.531  44.921   0.422  1.00  0.00     0.162 HD
BRANCH  10  13
HETATM   13  C7  UNL     1      23.319  43.564  -1.696  1.00  0.00     0.073 A 
HETATM   14  C6  UNL     1      23.748  42.901  -2.810  1.00  0.00     0.026 A 
HETATM   15  C5  UNL     1      24.218  43.634  -3.826  1.00  0.00     0.026 A 
HETATM   16  C4  UNL     1      24.230  44.994  -3.666  1.00  0.00     0.073 A 
HETATM   17  S2  UNL     1      23.586  45.205  -2.106  1.00  0.00    -0.079 SA
BRANCH  16  18
HETATM   18  C3  UNL     1      24.699  46.009  -4.641  1.00  0.00     0.258 C 
HETATM   19  N1  UNL     1      23.902  47.137  -4.958  1.00  0.00    -0.357 N 
ATOM     20  H1  UNL     1      22.995  47.243  -4.504  1.00  0.00     0.162 HD
HETATM   21  O1  UNL     1      25.806  45.828  -5.158  1.00  0.00    -0.267 OA
BRANCH  19  22
HETATM   22  C2  UNL     1      24.329  48.139  -5.901  1.00  0.00     0.118 C 
HETATM   23  C1  UNL     1      23.341  49.255  -6.074  1.00  0.00     0.026 C 
ENDBRANCH  19  22
ENDBRANCH  16  18
ENDBRANCH  10  13
ENDBRANCH   8   9
ENDBRANCH   7   8
ENDBRANCH   1   7
BRANCH   4  24
HETATM   24  C14 UNL     1      20.912  48.032   5.695  1.00  0.00     0.123 A 
HETATM   25  N4  UNL     1      20.749  49.371   5.568  1.00  0.00    -0.338 N 
HETATM   26  C15 UNL     1      20.501  50.017   6.728  1.00  0.00     0.182 A 
ATOM     27  H4  UNL     1      20.810  49.852   4.670  1.00  0.00     0.168 HD
HETATM   28  N5  UNL     1      20.411  49.465   7.921  1.00  0.00    -0.351 N 
HETATM   29  C16 UNL     1      20.569  48.112   8.098  1.00  0.00     0.055 A 
ATOM     30  H5  UNL     1      20.220  50.055   8.731  1.00  0.00     0.166 HD
HETATM   31  C17 UNL     1      20.504  47.417   9.243  1.00  0.00     0.055 A 
HETATM   32  C20 UNL     1      20.822  47.414   6.951  1.00  0.00     0.076 A 
HETATM   33  C18 UNL     1      20.697  46.064   9.172  1.00  0.00     0.072 A 
HETATM   34  S1  UNL     1      20.963  45.805   7.506  1.00  0.00    -0.079 SA
BRANCH  33  35
HETATM   35  C19 UNL     1      20.680  45.073  10.260  1.00  0.00     0.271 C 
HETATM   36  N6  UNL     1      19.901  45.324  11.397  1.00  0.00    -0.057 NA
HETATM   37  O3  UNL     1      21.381  44.043  10.096  1.00  0.00    -0.270 OA
ENDBRANCH  33  35
ENDBRANCH   4  24
TORSDOF 8
ENDMDL
