MODEL 2
REMARK VINA RESULT: -8.975237084      1.489      1.589
REMARK  8 active torsions:
REMARK  status: ('A' for Active; 'I' for Inactive)
REMARK    1  A    between atoms: C2_2  and  N1_3 
REMARK       I    between atoms: N1_3  and  C3_5 
REMARK    2  A    between atoms: C3_5  and  C4_7 
REMARK    3  A    between atoms: C7_10  and  C8_11 
REMARK       I    between atoms: C8_11  and  N2_13 
REMARK    4  A    between atoms: N2_13  and  C9_15 
REMARK    5  A    between atoms: C9_15  and  C10_16 
REMARK    6  A    between atoms: C10_16  and  C11_17 
REMARK    7  A    between atoms: N3_20  and  C14_21 
REMARK    8  A    between atoms: C18_29  and  C19_30 
ROOT
HETATM    1  C11 UNL     1      24.538  49.116   0.694  1.00  0.00    -0.010 C 
HETATM    2  C12 UNL     1      25.938  49.203   0.085  1.00  0.00     0.024 C 
HETATM    3  C13 UNL     1      25.879  49.561  -1.357  1.00  0.00     0.125 C 
HETATM    4  N3  UNL     1      24.566  49.416  -1.953  1.00  0.00    -0.366 N 
HETATM    5  C21 UNL     1      23.364  49.864  -1.289  1.00  0.00     0.125 C 
HETATM    6  C22 UNL     1      23.781  50.284   0.114  1.00  0.00     0.024 C 
ENDROOT
BRANCH   1   7
HETATM    7  C10 UNL     1      24.634  49.232   2.174  1.00  0.00     0.024 C 
BRANCH   7   8
HETATM    8  C9  UNL     1      25.612  48.229   2.719  1.00  0.00     0.123 C 
BRANCH   8   9
HETATM    9  N2  UNL     1      24.960  46.959   3.042  1.00  0.00    -0.356 N 
HETATM   10  C8  UNL     1      25.359  45.791   2.363  1.00  0.00     0.258 C 
HETATM   11  O2  UNL     1      26.252  45.740   1.474  1.00  0.00    -0.267 OA
ATOM     12  H2  UNL     1      24.227  46.921   3.749  1.00  0.00     0.162 HD
BRANCH  10  13
HETATM   13  C7  UNL     1      24.667  44.530   2.731  1.00  0.00     0.073 A 
HETATM   14  C6  UNL     1      24.789  43.793   3.874  1.00  0.00     0.026 A 
HETATM   15  C5  UNL     1      24.053  42.680   3.977  1.00  0.00     0.026 A 
HETATM   16  C4  UNL     1      23.234  42.370   2.924  1.00  0.00     0.073 A 
HETATM   17  S2  UNL     1      23.517  43.639   1.827  1.00  0.00    -0.079 SA
BRANCH  16  18
HETATM   18  C3  UNL     1      22.330  41.200   2.804  1.00  0.00     0.258 C 
HETATM   19  N1  UNL     1      22.368  40.149   3.753  1.00  0.00    -0.357 N 
ATOM     20  H1  UNL     1      23.030  40.208   4.527  1.00  0.00     0.162 HD
HETATM   21  O1  UNL     1      21.549  41.185   1.846  1.00  0.00    -0.267 OA
BRANCH  19  22
HETATM   22  C2  UNL     1      21.502  39.000   3.663  1.00  0.00     0.118 C 
HETATM   23  C1  UNL     1      20.722  38.741   4.918  1.00  0.00     0.026 C 
ENDBRANCH  19  22
ENDBRANCH  16  18
ENDBRANCH  10  13
ENDBRANCH   8   9
ENDBRANCH   7   8
ENDBRANCH   1   7
BRANCH   4  24
HETATM   24  C14 UNL     1      24.434  48.816  -3.234  1.00  0.00     0.123 A 
HETATM   25  N4  UNL     1      24.516  49.508  -4.396  1.00  0.00    -0.338 N 
HETATM   26  C15 UNL     1      24.363  48.755  -5.507  1.00  0.00     0.182 A 
ATOM     27  H4  UNL     1      24.681  50.514  -4.429  1.00  0.00     0.168 HD
HETATM   28  N5  UNL     1      24.147  47.455  -5.542  1.00  0.00    -0.351 N 
HETATM   29  C16 UNL     1      24.055  46.713  -4.389  1.00  0.00     0.055 A 
ATOM     30  H5  UNL     1      24.046  46.990  -6.444  1.00  0.00     0.166 HD
HETATM   31  C17 UNL     1      23.841  45.395  -4.273  1.00  0.00     0.055 A 
HETATM   32  C20 UNL     1      24.204  47.432  -3.237  1.00  0.00     0.076 A 
HETATM   33  C18 UNL     1      23.789  44.873  -3.008  1.00  0.00     0.072 A 
HETATM   34  S1  UNL     1      24.040  46.243  -2.022  1.00  0.00    -0.079 SA
BRANCH  33  35
HETATM   35  C19 UNL     1      23.569  43.477  -2.597  1.00  0.00     0.271 C 
HETATM   36  N6  UNL     1      22.668  43.207  -1.560  1.00  0.00    -0.057 NA
HETATM   37  O3  UNL     1      24.220  42.598  -3.217  1.00  0.00    -0.270 OA
ENDBRANCH  33  35
ENDBRANCH   4  24
TORSDOF 8
ENDMDL
