MODEL 3
REMARK VINA RESULT: -4.073773484      0.921      1.137
REMARK  1 active torsions:
REMARK  status: ('A' for Active; 'I' for Inactive)
REMARK    1  A    between atoms: O1_1  and  N1_3 
ROOT
HETATM    1  N1  UNL     1      16.441   0.766  11.259  1.00  0.00    -0.251 N 
HETATM    2  C1  UNL     1      16.629  -0.619  11.602  1.00  0.00     0.183 C 
HETATM    3  C2  UNL     1      17.783  -1.126  10.810  1.00  0.00    -0.008 C 
HETATM    4  C3  UNL     1      18.841  -0.342  10.678  1.00  0.00    -0.022 C 
HETATM    5  C4  UNL     1      18.920   1.012  11.288  1.00  0.00     0.098 C 
HETATM    6  C5  UNL     1      17.565   1.614  11.163  1.00  0.00     0.104 C 
HETATM    7  S1  UNL     1      17.425   3.223  10.921  1.00  0.00    -0.063 SA
ENDROOT
BRANCH   1   8
HETATM    8  O1  UNL     1      15.200   1.225  11.036  1.00  0.00    -0.286 OA
ATOM      9  H1  UNL     1      15.013   1.687  10.228  1.00  0.00     0.244 HD
ENDBRANCH   1   8
TORSDOF 1
ENDMDL
