MODEL 5
REMARK VINA RESULT: -3.999267818      1.970      2.431
REMARK  1 active torsions:
REMARK  status: ('A' for Active; 'I' for Inactive)
REMARK    1  A    between atoms: O1_1  and  N1_3 
ROOT
HETATM    1  N1  UNL     1      18.170   0.281  10.686  1.00  0.00    -0.251 N 
HETATM    2  C1  UNL     1      17.464  -0.919  10.321  1.00  0.00     0.183 C 
HETATM    3  C2  UNL     1      16.795  -1.437  11.547  1.00  0.00    -0.008 C 
HETATM    4  C3  UNL     1      16.215  -0.565  12.356  1.00  0.00    -0.022 C 
HETATM    5  C4  UNL     1      16.206   0.898  12.089  1.00  0.00     0.098 C 
HETATM    6  C5  UNL     1      17.536   1.233  11.513  1.00  0.00     0.104 C 
HETATM    7  S1  UNL     1      18.212   2.680  11.853  1.00  0.00    -0.063 SA
ENDROOT
BRANCH   1   8
HETATM    8  O1  UNL     1      19.419   0.472  10.233  1.00  0.00    -0.286 OA
ATOM      9  H1  UNL     1      20.095   0.755  10.837  1.00  0.00     0.244 HD
ENDBRANCH   1   8
TORSDOF 1
ENDMDL
