MODEL 1
REMARK VINA RESULT: -4.467045276      0.000      0.000
REMARK  1 active torsions:
REMARK  status: ('A' for Active; 'I' for Inactive)
REMARK    1  A    between atoms: O1_1  and  N1_3 
ROOT
HETATM    1  N1  UNL     1      16.442   0.884  12.208  1.00  0.00    -0.251 N 
HETATM    2  C1  UNL     1      16.204  -0.498  12.531  1.00  0.00     0.183 C 
HETATM    3  C2  UNL     1      16.549  -1.306  11.329  1.00  0.00    -0.008 C 
HETATM    4  C3  UNL     1      17.635  -0.978  10.647  1.00  0.00    -0.022 C 
HETATM    5  C4  UNL     1      18.515   0.156  11.034  1.00  0.00     0.098 C 
HETATM    6  C5  UNL     1      17.622   1.242  11.520  1.00  0.00     0.104 C 
HETATM    7  S1  UNL     1      18.032   2.798  11.245  1.00  0.00    -0.063 SA
ENDROOT
BRANCH   1   8
HETATM    8  O1  UNL     1      15.536   1.808  12.566  1.00  0.00    -0.286 OA
ATOM      9  H1  UNL     1      15.833   2.651  12.886  1.00  0.00     0.244 HD
ENDBRANCH   1   8
TORSDOF 1
ENDMDL
