MODEL 2
REMARK VINA RESULT: -5.261809055      0.043      1.492
REMARK  2 active torsions:
REMARK  status: ('A' for Active; 'I' for Inactive)
REMARK    1  A    between atoms: N1_1  and  S1_4 
REMARK    2  A    between atoms: S1_4  and  C1_7 
ROOT
HETATM    1  C1  UNL     1      26.263  -6.027   6.318  1.00  0.00     0.079 A 
HETATM    2  C2  UNL     1      26.863  -6.623   5.228  1.00  0.00     0.025 A 
HETATM    3  C3  UNL     1      27.127  -7.979   5.191  1.00  0.00     0.002 A 
HETATM    4  C4  UNL     1      26.799  -8.798   6.252  1.00  0.00     0.000 A 
HETATM    5  C5  UNL     1      26.200  -8.202   7.343  1.00  0.00     0.002 A 
HETATM    6  C6  UNL     1      25.930  -6.839   7.389  1.00  0.00     0.025 A 
ENDROOT
BRANCH   1   7
HETATM    7  S1  UNL     1      25.947  -4.301   6.318  1.00  0.00     0.256 S 
HETATM    8  O1  UNL     1      24.910  -4.000   7.362  1.00  0.00    -0.201 OA
HETATM    9  O2  UNL     1      27.210  -3.529   6.581  1.00  0.00    -0.201 OA
BRANCH   7  10
HETATM   10  N1  UNL     1      25.322  -3.787   4.793  1.00  0.00    -0.324 N 
ATOM     11  H12 UNL     1      24.752  -4.355   4.167  1.00  0.00     0.169 HD
ATOM     12  H11 UNL     1      25.627  -2.825   4.641  1.00  0.00     0.169 HD
ENDBRANCH   7  10
ENDBRANCH   1   7
TORSDOF 2
ENDMDL
