MODEL 1
REMARK VINA RESULT: -5.272550948      0.000      0.000
REMARK  2 active torsions:
REMARK  status: ('A' for Active; 'I' for Inactive)
REMARK    1  A    between atoms: N1_1  and  S1_4 
REMARK    2  A    between atoms: S1_4  and  C1_7 
ROOT
HETATM    1  C1  UNL     1      26.289  -6.004   6.273  1.00  0.00     0.079 A 
HETATM    2  C2  UNL     1      25.938  -6.797   7.347  1.00  0.00     0.025 A 
HETATM    3  C3  UNL     1      26.182  -8.157   7.361  1.00  0.00     0.002 A 
HETATM    4  C4  UNL     1      26.791  -8.783   6.293  1.00  0.00     0.000 A 
HETATM    5  C5  UNL     1      27.142  -7.991   5.218  1.00  0.00     0.002 A 
HETATM    6  C6  UNL     1      26.901  -6.622   5.195  1.00  0.00     0.025 A 
ENDROOT
BRANCH   1   7
HETATM    7  S1  UNL     1      25.960  -4.281   6.302  1.00  0.00     0.256 S 
HETATM    8  O1  UNL     1      24.928  -4.004   7.357  1.00  0.00    -0.201 OA
HETATM    9  O2  UNL     1      27.219  -3.504   6.567  1.00  0.00    -0.201 OA
BRANCH   7  10
HETATM   10  N1  UNL     1      25.321  -3.749   4.788  1.00  0.00    -0.324 N 
ATOM     11  H12 UNL     1      24.656  -4.267   4.214  1.00  0.00     0.169 HD
ATOM     12  H11 UNL     1      25.727  -2.836   4.583  1.00  0.00     0.169 HD
ENDBRANCH   7  10
ENDBRANCH   1   7
TORSDOF 2
ENDMDL
