MODEL 16
REMARK VINA RESULT: -4.495430659     10.317     10.683
REMARK  2 active torsions:
REMARK  status: ('A' for Active; 'I' for Inactive)
REMARK    1  A    between atoms: N1_1  and  S1_4 
REMARK    2  A    between atoms: S1_4  and  C1_7 
ROOT
HETATM    1  C1  UNL     1      33.238  -2.209  12.901  1.00  0.00     0.079 A 
HETATM    2  C2  UNL     1      33.288  -2.236  11.522  1.00  0.00     0.025 A 
HETATM    3  C3  UNL     1      34.307  -2.873  10.840  1.00  0.00     0.002 A 
HETATM    4  C4  UNL     1      35.325  -3.513  11.517  1.00  0.00     0.000 A 
HETATM    5  C5  UNL     1      35.276  -3.486  12.897  1.00  0.00     0.002 A 
HETATM    6  C6  UNL     1      34.254  -2.848  13.591  1.00  0.00     0.025 A 
ENDROOT
BRANCH   1   7
HETATM    7  S1  UNL     1      31.923  -1.388  13.722  1.00  0.00     0.256 S 
HETATM    8  O1  UNL     1      31.430  -0.270  12.847  1.00  0.00    -0.201 OA
HETATM    9  O2  UNL     1      30.811  -2.348  14.039  1.00  0.00    -0.201 OA
BRANCH   7  10
HETATM   10  N1  UNL     1      32.460  -0.693  15.209  1.00  0.00    -0.324 N 
ATOM     11  H12 UNL     1      33.389  -0.809  15.612  1.00  0.00     0.169 HD
ATOM     12  H11 UNL     1      31.684  -0.156  15.599  1.00  0.00     0.169 HD
ENDBRANCH   7  10
ENDBRANCH   1   7
TORSDOF 2
ENDMDL
