MODEL 15
REMARK VINA RESULT: -4.497710266     10.333     10.629
REMARK  2 active torsions:
REMARK  status: ('A' for Active; 'I' for Inactive)
REMARK    1  A    between atoms: N1_1  and  S1_4 
REMARK    2  A    between atoms: S1_4  and  C1_7 
ROOT
HETATM    1  C1  UNL     1      33.231  -2.202  12.883  1.00  0.00     0.079 A 
HETATM    2  C2  UNL     1      34.219  -2.843  13.602  1.00  0.00     0.025 A 
HETATM    3  C3  UNL     1      35.268  -3.496  12.982  1.00  0.00     0.002 A 
HETATM    4  C4  UNL     1      35.369  -3.534  11.606  1.00  0.00     0.000 A 
HETATM    5  C5  UNL     1      34.380  -2.893  10.886  1.00  0.00     0.002 A 
HETATM    6  C6  UNL     1      33.323  -2.234  11.502  1.00  0.00     0.025 A 
ENDROOT
BRANCH   1   7
HETATM    7  S1  UNL     1      31.920  -1.386  13.716  1.00  0.00     0.256 S 
HETATM    8  O1  UNL     1      31.419  -0.267  12.848  1.00  0.00    -0.201 OA
HETATM    9  O2  UNL     1      30.813  -2.350  14.038  1.00  0.00    -0.201 OA
BRANCH   7  10
HETATM   10  N1  UNL     1      32.467  -0.695  15.201  1.00  0.00    -0.324 N 
ATOM     11  H12 UNL     1      32.122   0.173  15.610  1.00  0.00     0.169 HD
ATOM     12  H11 UNL     1      33.187  -1.309  15.583  1.00  0.00     0.169 HD
ENDBRANCH   7  10
ENDBRANCH   1   7
TORSDOF 2
ENDMDL
