MODEL 7
REMARK VINA RESULT: -4.815785283      1.206      2.073
REMARK  2 active torsions:
REMARK  status: ('A' for Active; 'I' for Inactive)
REMARK    1  A    between atoms: N1_1  and  S1_4 
REMARK    2  A    between atoms: S1_4  and  C1_7 
ROOT
HETATM    1  C1  UNL     1      26.328  -5.785   6.349  1.00  0.00     0.079 A 
HETATM    2  C2  UNL     1      27.133  -6.381   5.400  1.00  0.00     0.025 A 
HETATM    3  C3  UNL     1      27.402  -7.737   5.417  1.00  0.00     0.002 A 
HETATM    4  C4  UNL     1      26.871  -8.556   6.393  1.00  0.00     0.000 A 
HETATM    5  C5  UNL     1      26.066  -7.960   7.343  1.00  0.00     0.002 A 
HETATM    6  C6  UNL     1      25.790  -6.597   7.333  1.00  0.00     0.025 A 
ENDROOT
BRANCH   1   7
HETATM    7  S1  UNL     1      26.016  -4.060   6.285  1.00  0.00     0.256 S 
HETATM    8  O1  UNL     1      25.580  -3.699   4.893  1.00  0.00    -0.201 OA
HETATM    9  O2  UNL     1      24.968  -3.672   7.291  1.00  0.00    -0.201 OA
BRANCH   7  10
HETATM   10  N1  UNL     1      27.446  -3.159   6.639  1.00  0.00    -0.324 N 
ATOM     11  H12 UNL     1      27.797  -2.953   7.574  1.00  0.00     0.169 HD
ATOM     12  H11 UNL     1      27.864  -2.878   5.752  1.00  0.00     0.169 HD
ENDBRANCH   7  10
ENDBRANCH   1   7
TORSDOF 2
ENDMDL
