MODEL 7
REMARK VINA RESULT: -5.529179511      3.177      5.935
REMARK  5 active torsions:
REMARK  status: ('A' for Active; 'I' for Inactive)
REMARK    1  A    between atoms: N2_5  and  C4_6 
REMARK    2  A    between atoms: C5_8  and  C6_9 
REMARK    3  A    between atoms: C6_9  and  O2_10 
REMARK    4  A    between atoms: C7_12  and  O3_13 
REMARK    5  A    between atoms: C8_15  and  O4_16 
ROOT
HETATM    1  C4  UNL     1       0.305  13.900  28.521  1.00  0.00     0.263 C 
HETATM    2  O1  UNL     1       1.149  14.122  29.622  1.00  0.00    -0.353 OA
HETATM    3  C5  UNL     1       1.938  15.164  29.156  1.00  0.00     0.179 C 
HETATM    4  C7  UNL     1       0.885  16.180  28.741  1.00  0.00     0.182 C 
HETATM    5  C8  UNL     1      -0.118  15.261  28.028  1.00  0.00     0.198 C 
ENDROOT
BRANCH   1   6
HETATM    6  N2  UNL     1      -0.793  13.036  28.832  1.00  0.00    -0.280 N 
HETATM    7  C3  UNL     1      -1.197  12.850  30.111  1.00  0.00     0.102 A 
HETATM    8  C2  UNL     1      -2.248  12.025  30.444  1.00  0.00     0.062 A 
HETATM    9  C1  UNL     1      -2.926  11.359  29.461  1.00  0.00     0.121 A 
HETATM   10  N1  UNL     1      -4.014  10.504  29.790  1.00  0.00    -0.083 NA
HETATM   11  N3  UNL     1      -2.510  11.555  28.188  1.00  0.00    -0.297 N 
HETATM   12  C9  UNL     1      -1.478  12.368  27.888  1.00  0.00     0.329 A 
ATOM     13  H3  UNL     1      -2.994  11.073  27.432  1.00  0.00     0.171 HD
HETATM   14  O5  UNL     1      -1.156  12.494  26.677  1.00  0.00    -0.246 OA
ENDBRANCH   1   6
BRANCH   5  15
HETATM   15  O4  UNL     1       0.195  15.372  26.661  1.00  0.00    -0.388 OA
ATOM     16  H4  UNL     1      -0.440  15.942  26.243  1.00  0.00     0.210 HD
ENDBRANCH   5  15
BRANCH   3  17
HETATM   17  C6  UNL     1       2.860  15.716  30.202  1.00  0.00     0.198 C 
BRANCH  17  18
HETATM   18  O2  UNL     1       3.543  16.795  29.623  1.00  0.00    -0.398 OA
ATOM     19  H2  UNL     1       4.352  16.907  30.107  1.00  0.00     0.209 HD
ENDBRANCH  17  18
ENDBRANCH   3  17
BRANCH   4  20
HETATM   20  O3  UNL     1       1.381  17.145  27.900  1.00  0.00    -0.390 OA
ATOM     21  H3  UNL     1       0.907  17.195  27.078  1.00  0.00     0.210 HD
ENDBRANCH   4  20
TORSDOF 5
ENDMDL
