MODEL 5
REMARK VINA RESULT: -5.581516699      3.901      6.591
REMARK  5 active torsions:
REMARK  status: ('A' for Active; 'I' for Inactive)
REMARK    1  A    between atoms: N2_5  and  C4_6 
REMARK    2  A    between atoms: C5_8  and  C6_9 
REMARK    3  A    between atoms: C6_9  and  O2_10 
REMARK    4  A    between atoms: C7_12  and  O3_13 
REMARK    5  A    between atoms: C8_15  and  O4_16 
ROOT
HETATM    1  C4  UNL     1      -1.005  13.616  27.582  1.00  0.00     0.263 C 
HETATM    2  O1  UNL     1       0.261  13.354  28.133  1.00  0.00    -0.353 OA
HETATM    3  C5  UNL     1       0.722  14.638  28.380  1.00  0.00     0.179 C 
HETATM    4  C7  UNL     1      -0.409  15.211  29.220  1.00  0.00     0.182 C 
HETATM    5  C8  UNL     1      -1.622  14.697  28.433  1.00  0.00     0.198 C 
ENDROOT
BRANCH   1   6
HETATM    6  N2  UNL     1      -1.813  12.440  27.472  1.00  0.00    -0.280 N 
HETATM    7  C3  UNL     1      -2.555  11.999  28.515  1.00  0.00     0.102 A 
HETATM    8  C2  UNL     1      -3.342  10.872  28.442  1.00  0.00     0.062 A 
HETATM    9  C1  UNL     1      -3.392  10.153  27.280  1.00  0.00     0.121 A 
HETATM   10  N1  UNL     1      -4.201   8.987  27.190  1.00  0.00    -0.083 NA
HETATM   11  N3  UNL     1      -2.645  10.606  26.246  1.00  0.00    -0.297 N 
HETATM   12  C9  UNL     1      -1.883  11.713  26.343  1.00  0.00     0.329 A 
ATOM     13  H3  UNL     1      -2.659  10.093  25.365  1.00  0.00     0.171 HD
HETATM   14  O5  UNL     1      -1.218  12.065  25.332  1.00  0.00    -0.246 OA
ENDBRANCH   1   6
BRANCH   5  15
HETATM   15  O4  UNL     1      -2.003  15.770  27.606  1.00  0.00    -0.388 OA
ATOM     16  H4  UNL     1      -1.254  16.043  27.088  1.00  0.00     0.210 HD
ENDBRANCH   5  15
BRANCH   3  17
HETATM   17  C6  UNL     1       2.028  14.662  29.118  1.00  0.00     0.198 C 
BRANCH  17  18
HETATM   18  O2  UNL     1       2.698  15.833  28.737  1.00  0.00    -0.398 OA
ATOM     19  H2  UNL     1       3.616  15.712  28.948  1.00  0.00     0.209 HD
ENDBRANCH  17  18
ENDBRANCH   3  17
BRANCH   4  20
HETATM   20  O3  UNL     1      -0.383  16.583  29.281  1.00  0.00    -0.390 OA
ATOM     21  H3  UNL     1      -1.001  16.988  28.685  1.00  0.00     0.210 HD
ENDBRANCH   4  20
TORSDOF 5
ENDMDL
