MODEL 3
REMARK VINA RESULT: -5.634223929      2.809      5.652
REMARK  5 active torsions:
REMARK  status: ('A' for Active; 'I' for Inactive)
REMARK    1  A    between atoms: N2_5  and  C4_6 
REMARK    2  A    between atoms: C5_8  and  C6_9 
REMARK    3  A    between atoms: C6_9  and  O2_10 
REMARK    4  A    between atoms: C7_12  and  O3_13 
REMARK    5  A    between atoms: C8_15  and  O4_16 
ROOT
HETATM    1  C4  UNL     1       1.730  15.385  28.732  1.00  0.00     0.263 C 
HETATM    2  O1  UNL     1       2.283  15.197  30.010  1.00  0.00    -0.353 OA
HETATM    3  C5  UNL     1       3.040  16.351  30.153  1.00  0.00     0.179 C 
HETATM    4  C7  UNL     1       2.001  17.429  29.886  1.00  0.00     0.182 C 
HETATM    5  C8  UNL     1       1.283  16.824  28.671  1.00  0.00     0.198 C 
ENDROOT
BRANCH   1   6
HETATM    6  N2  UNL     1       0.689  14.448  28.439  1.00  0.00    -0.280 N 
HETATM    7  C3  UNL     1       0.410  13.423  29.278  1.00  0.00     0.102 A 
HETATM    8  C2  UNL     1      -0.583  12.505  29.024  1.00  0.00     0.062 A 
HETATM    9  C1  UNL     1      -1.332  12.613  27.885  1.00  0.00     0.121 A 
HETATM   10  N1  UNL     1      -2.362  11.671  27.611  1.00  0.00    -0.083 NA
HETATM   11  N3  UNL     1      -1.042  13.642  27.056  1.00  0.00    -0.297 N 
HETATM   12  C9  UNL     1      -0.064  14.528  27.327  1.00  0.00     0.329 A 
ATOM     13  H3  UNL     1      -1.582  13.751  26.198  1.00  0.00     0.171 HD
HETATM   14  O5  UNL     1       0.140  15.457  26.501  1.00  0.00    -0.246 OA
ENDBRANCH   1   6
BRANCH   5  15
HETATM   15  O4  UNL     1       1.874  17.441  27.553  1.00  0.00    -0.388 OA
ATOM     16  H4  UNL     1       1.914  18.378  27.701  1.00  0.00     0.210 HD
ENDBRANCH   5  15
BRANCH   3  17
HETATM   17  C6  UNL     1       3.647  16.491  31.517  1.00  0.00     0.198 C 
BRANCH  17  18
HETATM   18  O2  UNL     1       4.438  17.648  31.501  1.00  0.00    -0.398 OA
ATOM     19  H2  UNL     1       3.917  18.338  31.109  1.00  0.00     0.209 HD
ENDBRANCH  17  18
ENDBRANCH   3  17
BRANCH   4  20
HETATM   20  O3  UNL     1       2.564  18.647  29.592  1.00  0.00    -0.390 OA
ATOM     21  H3  UNL     1       2.814  18.725  28.679  1.00  0.00     0.210 HD
ENDBRANCH   4  20
TORSDOF 5
ENDMDL
