MODEL 3
REMARK VINA RESULT: -5.043510010      3.171      6.526
REMARK  5 active torsions:
REMARK  status: ('A' for Active; 'I' for Inactive)
REMARK    1  A    between atoms: N1_5  and  C4_6 
REMARK    2  A    between atoms: C5_8  and  C6_9 
REMARK    3  A    between atoms: C6_9  and  O3_10 
REMARK    4  A    between atoms: C7_12  and  O4_13 
REMARK    5  A    between atoms: C8_15  and  O5_16 
ROOT
HETATM    1  C4  UNL     1      -0.040  12.728  29.279  1.00  0.00     0.263 C 
HETATM    2  O2  UNL     1       0.947  12.901  30.218  1.00  0.00    -0.353 OA
HETATM    3  C5  UNL     1       1.789  13.788  29.545  1.00  0.00     0.179 C 
HETATM    4  C7  UNL     1       0.853  14.888  29.115  1.00  0.00     0.182 C 
HETATM    5  C8  UNL     1      -0.481  14.162  29.013  1.00  0.00     0.198 C 
ENDROOT
BRANCH   1   6
HETATM    6  N1  UNL     1      -1.115  11.884  29.677  1.00  0.00    -0.280 N 
HETATM    7  C3  UNL     1      -1.933  12.149  30.694  1.00  0.00     0.104 A 
HETATM    8  C2  UNL     1      -2.944  11.238  30.976  1.00  0.00     0.092 A 
HETATM    9  C1  UNL     1      -3.106  10.092  30.235  1.00  0.00     0.250 A 
HETATM   10  O1  UNL     1      -4.031   9.251  30.488  1.00  0.00    -0.268 OA
HETATM   11  N2  UNL     1      -2.262   9.861  29.219  1.00  0.00    -0.275 N 
HETATM   12  C9  UNL     1      -1.293  10.739  28.953  1.00  0.00     0.331 A 
ATOM     13  H2  UNL     1      -2.360   9.018  28.653  1.00  0.00     0.173 HD
HETATM   14  O6  UNL     1      -0.523  10.469  27.980  1.00  0.00    -0.246 OA
ENDBRANCH   1   6
BRANCH   5  15
HETATM   15  O5  UNL     1      -1.005  14.202  27.733  1.00  0.00    -0.388 OA
ATOM     16  H5  UNL     1      -0.511  14.850  27.244  1.00  0.00     0.210 HD
ENDBRANCH   5  15
BRANCH   3  17
HETATM   17  C6  UNL     1       2.906  14.291  30.422  1.00  0.00     0.198 C 
BRANCH  17  18
HETATM   18  O3  UNL     1       3.535  15.331  29.703  1.00  0.00    -0.398 OA
ATOM     19  H3  UNL     1       3.582  16.073  30.295  1.00  0.00     0.209 HD
ENDBRANCH  17  18
ENDBRANCH   3  17
BRANCH   4  20
HETATM   20  O4  UNL     1       1.187  15.290  27.826  1.00  0.00    -0.390 OA
ATOM     21  H4  UNL     1       0.667  16.051  27.594  1.00  0.00     0.210 HD
ENDBRANCH   4  20
TORSDOF 5
ENDMDL
