MODEL 8
REMARK VINA RESULT: -4.758135068      1.539      1.602
REMARK  5 active torsions:
REMARK  status: ('A' for Active; 'I' for Inactive)
REMARK    1  A    between atoms: N1_5  and  C4_6 
REMARK    2  A    between atoms: C5_8  and  C6_9 
REMARK    3  A    between atoms: C6_9  and  O3_10 
REMARK    4  A    between atoms: C7_12  and  O4_13 
REMARK    5  A    between atoms: C8_15  and  O5_16 
ROOT
HETATM    1  C4  UNL     1       0.834  14.509  30.305  1.00  0.00     0.263 C 
HETATM    2  O2  UNL     1       0.938  13.186  29.953  1.00  0.00    -0.353 OA
HETATM    3  C5  UNL     1      -0.329  12.964  29.410  1.00  0.00     0.179 C 
HETATM    4  C7  UNL     1      -0.471  14.080  28.407  1.00  0.00     0.182 C 
HETATM    5  C8  UNL     1       0.433  15.159  28.987  1.00  0.00     0.198 C 
ENDROOT
BRANCH   1   6
HETATM    6  N1  UNL     1       2.009  15.081  30.869  1.00  0.00    -0.280 N 
HETATM    7  C3  UNL     1       3.245  14.795  30.462  1.00  0.00     0.104 A 
HETATM    8  C2  UNL     1       4.307  15.426  31.100  1.00  0.00     0.092 A 
HETATM    9  C1  UNL     1       4.102  16.321  32.123  1.00  0.00     0.250 A 
HETATM   10  O1  UNL     1       5.071  16.903  32.713  1.00  0.00    -0.268 OA
HETATM   11  N2  UNL     1       2.842  16.581  32.504  1.00  0.00    -0.275 N 
HETATM   12  C9  UNL     1       1.827  15.973  31.888  1.00  0.00     0.331 A 
ATOM     13  H2  UNL     1       2.662  17.242  33.260  1.00  0.00     0.173 HD
HETATM   14  O6  UNL     1       0.657  16.257  32.289  1.00  0.00    -0.246 OA
ENDBRANCH   1   6
BRANCH   5  15
HETATM   15  O5  UNL     1      -0.260  16.318  29.292  1.00  0.00    -0.388 OA
ATOM     16  H5  UNL     1      -0.377  16.800  28.482  1.00  0.00     0.210 HD
ENDBRANCH   5  15
BRANCH   3  17
HETATM   17  C6  UNL     1      -0.449  11.602  28.777  1.00  0.00     0.198 C 
BRANCH  17  18
HETATM   18  O3  UNL     1      -0.635  11.823  27.395  1.00  0.00    -0.398 OA
ATOM     19  H3  UNL     1       0.000  11.275  26.950  1.00  0.00     0.209 HD
ENDBRANCH  17  18
ENDBRANCH   3  17
BRANCH   4  20
HETATM   20  O4  UNL     1      -1.769  14.577  28.461  1.00  0.00    -0.390 OA
ATOM     21  H4  UNL     1      -1.858  15.281  27.830  1.00  0.00     0.210 HD
ENDBRANCH   4  20
TORSDOF 5
ENDMDL
