MODEL 2
REMARK VINA RESULT: -5.060677773      3.132      5.245
REMARK  5 active torsions:
REMARK  status: ('A' for Active; 'I' for Inactive)
REMARK    1  A    between atoms: N1_5  and  C4_6 
REMARK    2  A    between atoms: C5_8  and  C6_9 
REMARK    3  A    between atoms: C6_9  and  O3_10 
REMARK    4  A    between atoms: C7_12  and  O4_13 
REMARK    5  A    between atoms: C8_15  and  O5_16 
ROOT
HETATM    1  C4  UNL     1      -0.469  11.374  28.434  1.00  0.00     0.263 C 
HETATM    2  O2  UNL     1      -1.105  10.940  27.297  1.00  0.00    -0.353 OA
HETATM    3  C5  UNL     1      -1.643   9.734  27.748  1.00  0.00     0.179 C 
HETATM    4  C7  UNL     1      -2.374  10.134  29.005  1.00  0.00     0.182 C 
HETATM    5  C8  UNL     1      -1.600  11.366  29.454  1.00  0.00     0.198 C 
ENDROOT
BRANCH   1   6
HETATM    6  N1  UNL     1       0.169  12.642  28.325  1.00  0.00    -0.280 N 
HETATM    7  C3  UNL     1      -0.317  13.662  27.621  1.00  0.00     0.104 A 
HETATM    8  C2  UNL     1       0.408  14.848  27.599  1.00  0.00     0.092 A 
HETATM    9  C1  UNL     1       1.595  14.977  28.280  1.00  0.00     0.250 A 
HETATM   10  O1  UNL     1       2.266  16.062  28.264  1.00  0.00    -0.268 OA
HETATM   11  N2  UNL     1       2.051  13.927  28.978  1.00  0.00    -0.275 N 
HETATM   12  C9  UNL     1       1.350  12.791  28.996  1.00  0.00     0.331 A 
ATOM     13  H2  UNL     1       2.929  13.996  29.493  1.00  0.00     0.173 HD
HETATM   14  O6  UNL     1       1.830  11.830  29.672  1.00  0.00    -0.246 OA
ENDBRANCH   1   6
BRANCH   5  15
HETATM   15  O5  UNL     1      -1.028  11.200  30.704  1.00  0.00    -0.388 OA
ATOM     16  H5  UNL     1      -0.248  11.743  30.733  1.00  0.00     0.210 HD
ENDBRANCH   5  15
BRANCH   3  17
HETATM   17  C6  UNL     1      -2.554   9.098  26.731  1.00  0.00     0.198 C 
BRANCH  17  18
HETATM   18  O3  UNL     1      -2.427   9.865  25.553  1.00  0.00    -0.398 OA
ATOM     19  H3  UNL     1      -2.944  10.650  25.690  1.00  0.00     0.209 HD
ENDBRANCH  17  18
ENDBRANCH   3  17
BRANCH   4  20
HETATM   20  O4  UNL     1      -2.172   9.161  29.978  1.00  0.00    -0.390 OA
ATOM     21  H4  UNL     1      -2.886   9.194  30.603  1.00  0.00     0.210 HD
ENDBRANCH   4  20
TORSDOF 5
ENDMDL
