MODEL 4
REMARK VINA RESULT: -4.936458021      2.827      4.797
REMARK  5 active torsions:
REMARK  status: ('A' for Active; 'I' for Inactive)
REMARK    1  A    between atoms: N1_5  and  C4_6 
REMARK    2  A    between atoms: C5_8  and  C6_9 
REMARK    3  A    between atoms: C6_9  and  O3_10 
REMARK    4  A    between atoms: C7_12  and  O4_13 
REMARK    5  A    between atoms: C8_15  and  O5_16 
ROOT
HETATM    1  C4  UNL     1      -1.333  12.059  29.389  1.00  0.00     0.263 C 
HETATM    2  O2  UNL     1      -2.012  11.781  30.550  1.00  0.00    -0.353 OA
HETATM    3  C5  UNL     1      -3.073  11.023  30.052  1.00  0.00     0.179 C 
HETATM    4  C7  UNL     1      -2.382   9.970  29.224  1.00  0.00     0.182 C 
HETATM    5  C8  UNL     1      -1.089  10.667  28.822  1.00  0.00     0.198 C 
ENDROOT
BRANCH   1   6
HETATM    6  N1  UNL     1      -0.134  12.808  29.553  1.00  0.00    -0.280 N 
HETATM    7  C3  UNL     1       0.690  12.677  30.591  1.00  0.00     0.104 A 
HETATM    8  C2  UNL     1       1.830  13.472  30.627  1.00  0.00     0.092 A 
HETATM    9  C1  UNL     1       2.111  14.371  29.626  1.00  0.00     0.250 A 
HETATM   10  O1  UNL     1       3.155  15.103  29.652  1.00  0.00    -0.268 OA
HETATM   11  N2  UNL     1       1.257  14.473  28.597  1.00  0.00    -0.275 N 
HETATM   12  C9  UNL     1       0.164  13.707  28.568  1.00  0.00     0.331 A 
ATOM     13  H2  UNL     1       1.442  15.132  27.841  1.00  0.00     0.173 HD
HETATM   14  O6  UNL     1      -0.609  13.846  27.571  1.00  0.00    -0.246 OA
ENDBRANCH   1   6
BRANCH   5  15
HETATM   15  O5  UNL     1      -0.967  10.796  27.449  1.00  0.00    -0.388 OA
ATOM     16  H5  UNL     1      -1.711  10.356  27.055  1.00  0.00     0.210 HD
ENDBRANCH   5  15
BRANCH   3  17
HETATM   17  C6  UNL     1      -3.917  10.430  31.150  1.00  0.00     0.198 C 
BRANCH  17  18
HETATM   18  O3  UNL     1      -4.149   9.085  30.788  1.00  0.00    -0.398 OA
ATOM     19  H3  UNL     1      -4.514   8.662  31.556  1.00  0.00     0.209 HD
ENDBRANCH  17  18
ENDBRANCH   3  17
BRANCH   4  20
HETATM   20  O4  UNL     1      -3.105   9.766  28.053  1.00  0.00    -0.390 OA
ATOM     21  H4  UNL     1      -3.465  10.596  27.762  1.00  0.00     0.210 HD
ENDBRANCH   4  20
TORSDOF 5
ENDMDL
