MODEL 1
REMARK VINA RESULT: -5.107799775      0.000      0.000
REMARK  5 active torsions:
REMARK  status: ('A' for Active; 'I' for Inactive)
REMARK    1  A    between atoms: N1_5  and  C4_6 
REMARK    2  A    between atoms: C5_8  and  C6_9 
REMARK    3  A    between atoms: C6_9  and  O3_10 
REMARK    4  A    between atoms: C7_12  and  O4_13 
REMARK    5  A    between atoms: C8_15  and  O5_16 
ROOT
HETATM    1  C4  UNL     1       1.500  15.226  29.747  1.00  0.00     0.263 C 
HETATM    2  O2  UNL     1       1.193  13.954  30.165  1.00  0.00    -0.353 OA
HETATM    3  C5  UNL     1       0.342  13.544  29.138  1.00  0.00     0.179 C 
HETATM    4  C7  UNL     1       1.141  13.837  27.894  1.00  0.00     0.182 C 
HETATM    5  C8  UNL     1       2.042  14.978  28.345  1.00  0.00     0.198 C 
ENDROOT
BRANCH   1   6
HETATM    6  N1  UNL     1       2.414  15.934  30.577  1.00  0.00    -0.280 N 
HETATM    7  C3  UNL     1       3.466  15.375  31.172  1.00  0.00     0.104 A 
HETATM    8  C2  UNL     1       4.280  16.182  31.958  1.00  0.00     0.092 A 
HETATM    9  C1  UNL     1       4.018  17.522  32.124  1.00  0.00     0.250 A 
HETATM   10  O1  UNL     1       4.761  18.268  32.843  1.00  0.00    -0.268 OA
HETATM   11  N2  UNL     1       2.949  18.047  31.508  1.00  0.00    -0.275 N 
HETATM   12  C9  UNL     1       2.171  17.267  30.755  1.00  0.00     0.331 A 
ATOM     13  H2  UNL     1       2.733  19.038  31.614  1.00  0.00     0.173 HD
HETATM   14  O6  UNL     1       1.174  17.818  30.196  1.00  0.00    -0.246 OA
ENDBRANCH   1   6
BRANCH   5  15
HETATM   15  O5  UNL     1       1.834  16.134  27.612  1.00  0.00    -0.388 OA
ATOM     16  H5  UNL     1       2.215  15.996  26.752  1.00  0.00     0.210 HD
ENDBRANCH   5  15
BRANCH   3  17
HETATM   17  C6  UNL     1      -0.032  12.089  29.253  1.00  0.00     0.198 C 
BRANCH  17  18
HETATM   18  O3  UNL     1      -0.546  11.712  27.993  1.00  0.00    -0.398 OA
ATOM     19  H3  UNL     1      -0.750  10.787  28.055  1.00  0.00     0.209 HD
ENDBRANCH  17  18
ENDBRANCH   3  17
BRANCH   4  20
HETATM   20  O4  UNL     1       0.293  14.360  26.923  1.00  0.00    -0.390 OA
ATOM     21  H4  UNL     1       0.741  15.062  26.466  1.00  0.00     0.210 HD
ENDBRANCH   4  20
TORSDOF 5
ENDMDL
