MODEL 7
REMARK VINA RESULT: -7.437146930      3.143      7.773
REMARK  6 active torsions:
REMARK  status: ('A' for Active; 'I' for Inactive)
REMARK    1  A    between atoms: C1_2  and  C2_4 
REMARK    2  A    between atoms: C5_7  and  C6_8 
REMARK    3  A    between atoms: C6_8  and  N1_9 
REMARK    4  A    between atoms: N1_9  and  S1_11 
REMARK    5  A    between atoms: S1_11  and  C7_14 
REMARK    6  A    between atoms: C10_18  and  C11_19 
ROOT
HETATM    1  N1  UNL     1      80.716   4.852  28.605  1.00  0.00    -0.311 N 
ATOM      2  H1  UNL     1      80.056   4.118  28.863  1.00  0.00     0.172 HD
ENDROOT
BRANCH   1   3
HETATM    3  C6  UNL     1      81.178   5.158  27.242  1.00  0.00     0.170 C 
BRANCH   3   4
HETATM    4  C5  UNL     1      80.020   5.330  26.325  1.00  0.00    -0.040 A 
HETATM    5  C4  UNL     1      79.259   4.249  25.919  1.00  0.00     0.010 A 
HETATM    6  C3  UNL     1      78.178   4.399  25.065  1.00  0.00     0.019 A 
HETATM    7  C2  UNL     1      77.813   5.634  24.580  1.00  0.00     0.040 A 
HETATM    8  C13 UNL     1      78.566   6.716  24.978  1.00  0.00     0.019 A 
HETATM    9  C12 UNL     1      79.644   6.565  25.831  1.00  0.00     0.010 A 
BRANCH   7  10
HETATM   10  C1  UNL     1      76.662   5.791  23.670  1.00  0.00     0.209 C 
HETATM   11  O1  UNL     1      75.963   4.817  23.363  1.00  0.00    -0.644 OA
HETATM   12  O2  UNL     1      76.331   7.027  23.136  1.00  0.00    -0.644 OA
ENDBRANCH   7  10
ENDBRANCH   3   4
ENDBRANCH   1   3
BRANCH   1  13
HETATM   13  S1  UNL     1      81.482   5.942  29.684  1.00  0.00     0.260 S 
HETATM   14  O3  UNL     1      80.648   7.180  29.756  1.00  0.00    -0.200 OA
HETATM   15  O4  UNL     1      82.834   6.312  29.185  1.00  0.00    -0.200 OA
BRANCH  13  16
HETATM   16  C7  UNL     1      81.596   5.190  31.304  1.00  0.00     0.103 A 
HETATM   17  C8  UNL     1      82.762   5.075  31.965  1.00  0.00     0.034 A 
HETATM   18  C9  UNL     1      82.733   4.484  33.196  1.00  0.00     0.052 A 
HETATM   19  S2  UNL     1      81.090   4.103  33.407  1.00  0.00    -0.094 SA
HETATM   20  C10 UNL     1      80.475   4.696  31.940  1.00  0.00     0.104 A 
BRANCH  20  21
HETATM   21  C11 UNL     1      79.096   4.711  31.416  1.00  0.00     0.218 C 
HETATM   22  O5  UNL     1      78.378   5.682  31.745  1.00  0.00    -0.643 OA
HETATM   23  O6  UNL     1      78.583   3.735  30.608  1.00  0.00    -0.643 OA
ENDBRANCH  20  21
ENDBRANCH  13  16
ENDBRANCH   1  13
TORSDOF 6
ENDMDL
