MODEL 12
REMARK VINA RESULT: -7.329728012      2.091      2.601
REMARK  6 active torsions:
REMARK  status: ('A' for Active; 'I' for Inactive)
REMARK    1  A    between atoms: C1_2  and  C2_4 
REMARK    2  A    between atoms: C5_7  and  C6_8 
REMARK    3  A    between atoms: C6_8  and  N1_9 
REMARK    4  A    between atoms: N1_9  and  S1_11 
REMARK    5  A    between atoms: S1_11  and  C7_14 
REMARK    6  A    between atoms: C10_18  and  C11_19 
ROOT
HETATM    1  N1  UNL     1      79.192   5.107  30.209  1.00  0.00    -0.311 N 
ATOM      2  H1  UNL     1      79.829   4.476  29.722  1.00  0.00     0.172 HD
ENDROOT
BRANCH   1   3
HETATM    3  C6  UNL     1      78.682   4.931  31.578  1.00  0.00     0.170 C 
BRANCH   3   4
HETATM    4  C5  UNL     1      79.802   4.922  32.556  1.00  0.00    -0.040 A 
HETATM    5  C4  UNL     1      80.598   3.804  32.725  1.00  0.00     0.010 A 
HETATM    6  C3  UNL     1      81.645   3.785  33.633  1.00  0.00     0.019 A 
HETATM    7  C2  UNL     1      81.940   4.881  34.410  1.00  0.00     0.040 A 
HETATM    8  C13 UNL     1      81.152   6.000  34.249  1.00  0.00     0.019 A 
HETATM    9  C12 UNL     1      80.109   6.017  33.342  1.00  0.00     0.010 A 
BRANCH   7  10
HETATM   10  C1  UNL     1      83.054   4.859  35.377  1.00  0.00     0.209 C 
HETATM   11  O1  UNL     1      84.228   4.883  34.986  1.00  0.00    -0.644 OA
HETATM   12  O2  UNL     1      82.821   4.814  36.743  1.00  0.00    -0.644 OA
ENDBRANCH   7  10
ENDBRANCH   3   4
ENDBRANCH   1   3
BRANCH   1  13
HETATM   13  S1  UNL     1      78.529   6.554  29.575  1.00  0.00     0.260 S 
HETATM   14  O3  UNL     1      78.601   7.599  30.640  1.00  0.00    -0.200 OA
HETATM   15  O4  UNL     1      77.102   6.358  29.201  1.00  0.00    -0.200 OA
BRANCH  13  16
HETATM   16  C7  UNL     1      79.484   7.069  28.151  1.00  0.00     0.103 A 
HETATM   17  C8  UNL     1      80.193   8.213  28.135  1.00  0.00     0.034 A 
HETATM   18  C9  UNL     1      80.886   8.508  26.996  1.00  0.00     0.052 A 
HETATM   19  S2  UNL     1      80.538   7.194  25.976  1.00  0.00    -0.094 SA
HETATM   20  C10 UNL     1      79.527   6.300  27.007  1.00  0.00     0.104 A 
BRANCH  20  21
HETATM   21  C11 UNL     1      78.836   5.015  26.791  1.00  0.00     0.218 C 
HETATM   22  O5  UNL     1      77.815   5.038  26.066  1.00  0.00    -0.643 OA
HETATM   23  O6  UNL     1      79.250   3.832  27.335  1.00  0.00    -0.643 OA
ENDBRANCH  20  21
ENDBRANCH  13  16
ENDBRANCH   1  13
TORSDOF 6
ENDMDL
