MODEL 11
REMARK VINA RESULT: -7.387136828      3.220      7.594
REMARK  6 active torsions:
REMARK  status: ('A' for Active; 'I' for Inactive)
REMARK    1  A    between atoms: C1_2  and  C2_4 
REMARK    2  A    between atoms: C5_7  and  C6_8 
REMARK    3  A    between atoms: C6_8  and  N1_9 
REMARK    4  A    between atoms: N1_9  and  S1_11 
REMARK    5  A    between atoms: S1_11  and  C7_14 
REMARK    6  A    between atoms: C10_18  and  C11_19 
ROOT
HETATM    1  N1  UNL     1      80.317   5.759  29.021  1.00  0.00    -0.311 N 
ATOM      2  H1  UNL     1      80.895   6.539  28.707  1.00  0.00     0.172 HD
ENDROOT
BRANCH   1   3
HETATM    3  C6  UNL     1      79.993   4.555  28.240  1.00  0.00     0.170 C 
BRANCH   3   4
HETATM    4  C5  UNL     1      79.326   4.924  26.963  1.00  0.00    -0.040 A 
HETATM    5  C4  UNL     1      79.110   6.247  26.622  1.00  0.00     0.010 A 
HETATM    6  C3  UNL     1      78.490   6.601  25.435  1.00  0.00     0.019 A 
HETATM    7  C2  UNL     1      78.060   5.650  24.539  1.00  0.00     0.040 A 
HETATM    8  C13 UNL     1      78.270   4.330  24.870  1.00  0.00     0.019 A 
HETATM    9  C12 UNL     1      78.889   3.978  26.055  1.00  0.00     0.010 A 
BRANCH   7  10
HETATM   10  C1  UNL     1      77.399   6.029  23.275  1.00  0.00     0.209 C 
HETATM   11  O1  UNL     1      76.462   6.839  23.272  1.00  0.00    -0.644 OA
HETATM   12  O2  UNL     1      77.805   5.495  22.062  1.00  0.00    -0.644 OA
ENDBRANCH   7  10
ENDBRANCH   3   4
ENDBRANCH   1   3
BRANCH   1  13
HETATM   13  S1  UNL     1      79.555   5.623  30.550  1.00  0.00     0.260 S 
HETATM   14  O3  UNL     1      78.478   4.595  30.438  1.00  0.00    -0.200 OA
HETATM   15  O4  UNL     1      78.935   6.917  30.944  1.00  0.00    -0.200 OA
BRANCH  13  16
HETATM   16  C7  UNL     1      80.762   5.109  31.769  1.00  0.00     0.103 A 
HETATM   17  C8  UNL     1      80.523   4.116  32.645  1.00  0.00     0.034 A 
HETATM   18  C9  UNL     1      81.514   3.806  33.532  1.00  0.00     0.052 A 
HETATM   19  S2  UNL     1      82.753   4.899  33.130  1.00  0.00    -0.094 SA
HETATM   20  C10 UNL     1      81.995   5.723  31.853  1.00  0.00     0.104 A 
BRANCH  20  21
HETATM   21  C11 UNL     1      82.480   6.827  31.005  1.00  0.00     0.218 C 
HETATM   22  O5  UNL     1      82.347   7.987  31.458  1.00  0.00    -0.643 OA
HETATM   23  O6  UNL     1      83.053   6.645  29.778  1.00  0.00    -0.643 OA
ENDBRANCH  20  21
ENDBRANCH  13  16
ENDBRANCH   1  13
TORSDOF 6
ENDMDL
