MODEL 15
REMARK VINA RESULT: -7.258889066      3.217      7.545
REMARK  6 active torsions:
REMARK  status: ('A' for Active; 'I' for Inactive)
REMARK    1  A    between atoms: C1_2  and  C2_4 
REMARK    2  A    between atoms: C5_7  and  C6_8 
REMARK    3  A    between atoms: C6_8  and  N1_9 
REMARK    4  A    between atoms: N1_9  and  S1_11 
REMARK    5  A    between atoms: S1_11  and  C7_14 
REMARK    6  A    between atoms: C10_18  and  C11_19 
ROOT
HETATM    1  N1  UNL     1      80.108   4.592  28.930  1.00  0.00    -0.311 N 
ATOM      2  H1  UNL     1      79.905   3.596  29.026  1.00  0.00     0.172 HD
ENDROOT
BRANCH   1   3
HETATM    3  C6  UNL     1      80.684   5.246  27.744  1.00  0.00     0.170 C 
BRANCH   3   4
HETATM    4  C5  UNL     1      79.658   5.389  26.677  1.00  0.00    -0.040 A 
HETATM    5  C4  UNL     1      79.377   6.619  26.111  1.00  0.00     0.010 A 
HETATM    6  C3  UNL     1      78.425   6.763  25.116  1.00  0.00     0.019 A 
HETATM    7  C2  UNL     1      77.712   5.684  24.644  1.00  0.00     0.040 A 
HETATM    8  C13 UNL     1      77.985   4.455  25.202  1.00  0.00     0.019 A 
HETATM    9  C12 UNL     1      78.936   4.313  26.195  1.00  0.00     0.010 A 
BRANCH   7  10
HETATM   10  C1  UNL     1      76.697   5.839  23.585  1.00  0.00     0.209 C 
HETATM   11  O1  UNL     1      76.518   6.936  23.039  1.00  0.00    -0.644 OA
HETATM   12  O2  UNL     1      75.920   4.768  23.170  1.00  0.00    -0.644 OA
ENDBRANCH   7  10
ENDBRANCH   3   4
ENDBRANCH   1   3
BRANCH   1  13
HETATM   13  S1  UNL     1      79.837   5.793  30.122  1.00  0.00     0.260 S 
HETATM   14  O3  UNL     1      78.376   5.810  30.435  1.00  0.00    -0.200 OA
HETATM   15  O4  UNL     1      80.226   7.135  29.612  1.00  0.00    -0.200 OA
BRANCH  13  16
HETATM   16  C7  UNL     1      80.770   5.387  31.595  1.00  0.00     0.103 A 
HETATM   17  C8  UNL     1      80.178   5.155  32.782  1.00  0.00     0.034 A 
HETATM   18  C9  UNL     1      80.987   4.854  33.840  1.00  0.00     0.052 A 
HETATM   19  S2  UNL     1      82.546   4.898  33.165  1.00  0.00    -0.094 SA
HETATM   20  C10 UNL     1      82.146   5.295  31.563  1.00  0.00     0.104 A 
BRANCH  20  21
HETATM   21  C11 UNL     1      83.008   5.505  30.385  1.00  0.00     0.218 C 
HETATM   22  O5  UNL     1      83.439   6.666  30.201  1.00  0.00    -0.643 OA
HETATM   23  O6  UNL     1      83.348   4.513  29.509  1.00  0.00    -0.643 OA
ENDBRANCH  20  21
ENDBRANCH  13  16
ENDBRANCH   1  13
TORSDOF 6
ENDMDL
