MODEL 1
REMARK VINA RESULT: -8.830713393      0.000      0.000
REMARK  10 active torsions:
REMARK  status: ('A' for Active; 'I' for Inactive)
REMARK    1  A    between atoms: N4_10  and  C5_11 
REMARK    2  A    between atoms: C6_13  and  C7_14 
REMARK    3  A    between atoms: C7_14  and  O2_15 
REMARK    4  A    between atoms: O2_15  and  P1_16 
REMARK    5  A    between atoms: P1_16  and  O5_19 
REMARK    6  A    between atoms: O5_19  and  P2_20 
REMARK    7  A    between atoms: P2_20  and  N5_23 
REMARK    8  A    between atoms: N5_23  and  P3_25 
REMARK    9  A    between atoms: C8_29  and  O11_30 
REMARK   10  A    between atoms: C9_32  and  O12_33 
ROOT
HETATM    1  C5  UNL     1      64.267   3.462  48.125  1.00  0.00     0.262 C 
HETATM    2  O1  UNL     1      63.756   3.525  46.857  1.00  0.00    -0.353 OA
HETATM    3  C6  UNL     1      62.921   2.408  46.810  1.00  0.00     0.180 C 
HETATM    4  C8  UNL     1      62.082   2.575  48.041  1.00  0.00     0.182 C 
HETATM    5  C9  UNL     1      63.014   3.281  48.989  1.00  0.00     0.198 C 
ENDROOT
BRANCH   3   6
HETATM    6  C7  UNL     1      62.152   2.302  45.545  1.00  0.00     0.216 C 
BRANCH   6   7
HETATM    7  O2  UNL     1      60.862   2.768  45.864  1.00  0.00    -0.287 OA
BRANCH   7   8
HETATM    8  P1  UNL     1      59.888   2.783  44.686  1.00  0.00     0.417 P 
HETATM    9  O3  UNL     1      60.505   1.288  44.210  1.00  0.00    -0.624 OA
HETATM   10  O4  UNL     1      58.566   2.741  45.668  1.00  0.00    -0.624 OA
BRANCH   8  11
HETATM   11  O5  UNL     1      60.498   4.145  44.067  1.00  0.00    -0.186 OA
BRANCH  11  12
HETATM   12  P2  UNL     1      59.702   5.364  43.646  1.00  0.00     0.379 P 
HETATM   13  O6  UNL     1      60.944   5.907  42.726  1.00  0.00    -0.629 OA
HETATM   14  O7  UNL     1      59.513   5.912  45.172  1.00  0.00    -0.629 OA
BRANCH  12  15
HETATM   15  N5  UNL     1      58.461   4.380  42.946  1.00  0.00    -0.218 N 
ATOM     16  H5  UNL     1      58.668   3.423  42.659  1.00  0.00     0.179 HD
BRANCH  15  17
HETATM   17  P3  UNL     1      56.948   4.990  42.744  1.00  0.00     0.381 P 
HETATM   18  O8  UNL     1      55.749   4.097  42.047  1.00  0.00    -0.622 OA
HETATM   19  O9  UNL     1      56.346   4.730  44.138  1.00  0.00    -0.622 OA
HETATM   20  O10 UNL     1      56.628   6.653  43.046  1.00  0.00    -0.622 OA
ENDBRANCH  15  17
ENDBRANCH  12  15
ENDBRANCH  11  12
ENDBRANCH   8  11
ENDBRANCH   7   8
ENDBRANCH   6   7
ENDBRANCH   3   6
BRANCH   4  21
HETATM   21  O11 UNL     1      61.648   1.350  48.524  1.00  0.00    -0.390 OA
ATOM     22  H11 UNL     1      62.343   0.895  48.985  1.00  0.00     0.210 HD
ENDBRANCH   4  21
BRANCH   1  23
HETATM   23  N4  UNL     1      64.938   4.648  48.562  1.00  0.00    -0.297 N 
HETATM   24  C2  UNL     1      66.197   4.845  48.995  1.00  0.00     0.146 A 
HETATM   25  N2  UNL     1      67.188   3.975  49.142  1.00  0.00    -0.314 N 
HETATM   26  C3  UNL     1      66.367   6.179  49.303  1.00  0.00     0.146 A 
HETATM   27  C1  UNL     1      68.382   4.439  49.606  1.00  0.00     0.196 A 
ATOM     28  H2  UNL     1      67.060   2.990  48.914  1.00  0.00     0.170 HD
HETATM   29  N1  UNL     1      69.448   3.551  49.773  1.00  0.00    -0.063 NA
HETATM   30  N6  UNL     1      68.564   5.745  49.911  1.00  0.00    -0.295 N 
HETATM   31  C10 UNL     1      67.571   6.636  49.768  1.00  0.00     0.278 A 
ATOM     32  H6  UNL     1      69.471   6.057  50.256  1.00  0.00     0.171 HD
HETATM   33  O13 UNL     1      67.693   7.864  50.040  1.00  0.00    -0.265 OA
HETATM   34  N3  UNL     1      65.212   6.778  49.052  1.00  0.00    -0.345 N 
HETATM   35  C4  UNL     1      64.342   5.860  48.604  1.00  0.00     0.188 A 
ATOM     36  H3  UNL     1      65.016   7.771  49.179  1.00  0.00     0.167 HD
ENDBRANCH   1  23
BRANCH   5  37
HETATM   37  O12 UNL     1      63.314   2.526  50.098  1.00  0.00    -0.388 OA
ATOM     38  H12 UNL     1      62.696   1.809  50.180  1.00  0.00     0.210 HD
ENDBRANCH   5  37
TORSDOF 10
ENDMDL
