MODEL 5
REMARK VINA RESULT: -8.360006391      0.948      1.979
REMARK  10 active torsions:
REMARK  status: ('A' for Active; 'I' for Inactive)
REMARK    1  A    between atoms: N4_10  and  C5_11 
REMARK    2  A    between atoms: C6_13  and  C7_14 
REMARK    3  A    between atoms: C7_14  and  O2_15 
REMARK    4  A    between atoms: O2_15  and  P1_16 
REMARK    5  A    between atoms: P1_16  and  O5_19 
REMARK    6  A    between atoms: O5_19  and  P2_20 
REMARK    7  A    between atoms: P2_20  and  N5_23 
REMARK    8  A    between atoms: N5_23  and  P3_25 
REMARK    9  A    between atoms: C8_29  and  O11_30 
REMARK   10  A    between atoms: C9_32  and  O12_33 
ROOT
HETATM    1  C5  UNL     1      64.087   3.751  47.881  1.00  0.00     0.262 C 
HETATM    2  O1  UNL     1      63.317   3.992  46.776  1.00  0.00    -0.353 OA
HETATM    3  C6  UNL     1      62.528   2.845  46.697  1.00  0.00     0.180 C 
HETATM    4  C8  UNL     1      61.964   2.742  48.083  1.00  0.00     0.182 C 
HETATM    5  C9  UNL     1      63.052   3.339  48.934  1.00  0.00     0.198 C 
ENDROOT
BRANCH   3   6
HETATM    6  C7  UNL     1      61.513   2.903  45.617  1.00  0.00     0.216 C 
BRANCH   6   7
HETATM    7  O2  UNL     1      61.491   4.252  45.211  1.00  0.00    -0.287 OA
BRANCH   7   8
HETATM    8  P1  UNL     1      60.167   4.702  44.592  1.00  0.00     0.417 P 
HETATM    9  O3  UNL     1      59.880   5.620  45.977  1.00  0.00    -0.624 OA
HETATM   10  O4  UNL     1      60.916   5.482  43.349  1.00  0.00    -0.624 OA
BRANCH   8  11
HETATM   11  O5  UNL     1      59.588   3.197  44.483  1.00  0.00    -0.186 OA
BRANCH  11  12
HETATM   12  P2  UNL     1      58.380   2.766  43.677  1.00  0.00     0.379 P 
HETATM   13  O6  UNL     1      57.925   1.714  44.847  1.00  0.00    -0.629 OA
HETATM   14  O7  UNL     1      59.265   2.248  42.407  1.00  0.00    -0.629 OA
BRANCH  12  15
HETATM   15  N5  UNL     1      57.749   4.379  43.659  1.00  0.00    -0.218 N 
ATOM     16  H5  UNL     1      58.006   5.037  44.395  1.00  0.00     0.179 HD
BRANCH  15  17
HETATM   17  P3  UNL     1      56.734   4.848  42.454  1.00  0.00     0.381 P 
HETATM   18  O8  UNL     1      55.114   4.547  42.530  1.00  0.00    -0.622 OA
HETATM   19  O9  UNL     1      56.491   6.319  42.840  1.00  0.00    -0.622 OA
HETATM   20  O10 UNL     1      57.360   5.464  40.974  1.00  0.00    -0.622 OA
ENDBRANCH  15  17
ENDBRANCH  12  15
ENDBRANCH  11  12
ENDBRANCH   8  11
ENDBRANCH   7   8
ENDBRANCH   6   7
ENDBRANCH   3   6
BRANCH   4  21
HETATM   21  O11 UNL     1      61.682   1.425  48.414  1.00  0.00    -0.390 OA
ATOM     22  H11 UNL     1      62.472   0.950  48.640  1.00  0.00     0.210 HD
ENDBRANCH   4  21
BRANCH   1  23
HETATM   23  N4  UNL     1      64.796   4.889  48.380  1.00  0.00    -0.297 N 
HETATM   24  C2  UNL     1      66.041   5.007  48.881  1.00  0.00     0.146 A 
HETATM   25  N2  UNL     1      66.975   4.082  49.056  1.00  0.00    -0.314 N 
HETATM   26  C3  UNL     1      66.265   6.323  49.229  1.00  0.00     0.146 A 
HETATM   27  C1  UNL     1      68.166   4.470  49.591  1.00  0.00     0.196 A 
ATOM     28  H2  UNL     1      66.806   3.110  48.798  1.00  0.00     0.170 HD
HETATM   29  N1  UNL     1      69.173   3.522  49.789  1.00  0.00    -0.063 NA
HETATM   30  N6  UNL     1      68.402   5.757  49.937  1.00  0.00    -0.295 N 
HETATM   31  C10 UNL     1      67.466   6.704  49.766  1.00  0.00     0.278 A 
ATOM     32  H6  UNL     1      69.305   6.012  50.334  1.00  0.00     0.171 HD
HETATM   33  O13 UNL     1      67.639   7.917  50.073  1.00  0.00    -0.265 OA
HETATM   34  N3  UNL     1      65.158   6.989  48.935  1.00  0.00    -0.345 N 
HETATM   35  C4  UNL     1      64.265   6.130  48.422  1.00  0.00     0.188 A 
ATOM     36  H3  UNL     1      65.010   7.989  49.077  1.00  0.00     0.167 HD
ENDBRANCH   1  23
BRANCH   5  37
HETATM   37  O12 UNL     1      63.604   2.429  49.804  1.00  0.00    -0.388 OA
ATOM     38  H12 UNL     1      64.537   2.583  49.887  1.00  0.00     0.210 HD
ENDBRANCH   5  37
TORSDOF 10
ENDMDL
