MODEL 16
REMARK VINA RESULT: -7.725306321      5.219      6.428
REMARK  10 active torsions:
REMARK  status: ('A' for Active; 'I' for Inactive)
REMARK    1  A    between atoms: N4_10  and  C5_11 
REMARK    2  A    between atoms: C6_13  and  C7_14 
REMARK    3  A    between atoms: C7_14  and  O2_15 
REMARK    4  A    between atoms: O2_15  and  P1_16 
REMARK    5  A    between atoms: P1_16  and  O5_19 
REMARK    6  A    between atoms: O5_19  and  P2_20 
REMARK    7  A    between atoms: P2_20  and  N5_23 
REMARK    8  A    between atoms: N5_23  and  P3_25 
REMARK    9  A    between atoms: C8_29  and  O11_30 
REMARK   10  A    between atoms: C9_32  and  O12_33 
ROOT
HETATM    1  C5  UNL     1      59.368   3.217  49.153  1.00  0.00     0.262 C 
HETATM    2  O1  UNL     1      59.107   4.349  48.430  1.00  0.00    -0.353 OA
HETATM    3  C6  UNL     1      59.641   4.042  47.179  1.00  0.00     0.180 C 
HETATM    4  C8  UNL     1      59.016   2.713  46.875  1.00  0.00     0.182 C 
HETATM    5  C9  UNL     1      58.847   2.102  48.240  1.00  0.00     0.198 C 
ENDROOT
BRANCH   3   6
HETATM    6  C7  UNL     1      59.391   5.091  46.160  1.00  0.00     0.216 C 
BRANCH   6   7
HETATM    7  O2  UNL     1      60.226   4.753  45.077  1.00  0.00    -0.287 OA
BRANCH   7   8
HETATM    8  P1  UNL     1      59.588   4.955  43.702  1.00  0.00     0.417 P 
HETATM    9  O3  UNL     1      58.367   5.848  44.447  1.00  0.00    -0.624 OA
HETATM   10  O4  UNL     1      60.874   5.817  43.138  1.00  0.00    -0.624 OA
BRANCH   8  11
HETATM   11  O5  UNL     1      59.393   3.372  43.446  1.00  0.00    -0.186 OA
BRANCH  11  12
HETATM   12  P2  UNL     1      58.308   2.735  42.600  1.00  0.00     0.379 P 
HETATM   13  O6  UNL     1      57.429   2.368  43.932  1.00  0.00    -0.629 OA
HETATM   14  O7  UNL     1      59.309   1.622  41.947  1.00  0.00    -0.629 OA
BRANCH  12  15
HETATM   15  N5  UNL     1      58.028   4.216  41.747  1.00  0.00    -0.218 N 
ATOM     16  H5  UNL     1      58.806   4.843  41.542  1.00  0.00     0.179 HD
BRANCH  15  17
HETATM   17  P3  UNL     1      56.506   4.611  41.270  1.00  0.00     0.381 P 
HETATM   18  O8  UNL     1      55.215   4.428  42.281  1.00  0.00    -0.622 OA
HETATM   19  O9  UNL     1      56.508   6.129  41.529  1.00  0.00    -0.622 OA
HETATM   20  O10 UNL     1      56.179   5.011  39.628  1.00  0.00    -0.622 OA
ENDBRANCH  15  17
ENDBRANCH  12  15
ENDBRANCH  11  12
ENDBRANCH   8  11
ENDBRANCH   7   8
ENDBRANCH   6   7
ENDBRANCH   3   6
BRANCH   4  21
HETATM   21  O11 UNL     1      59.825   1.955  46.042  1.00  0.00    -0.390 OA
ATOM     22  H11 UNL     1      59.654   1.027  46.146  1.00  0.00     0.210 HD
ENDBRANCH   4  21
BRANCH   1  23
HETATM   23  N4  UNL     1      58.675   3.127  50.402  1.00  0.00    -0.297 N 
HETATM   24  C2  UNL     1      58.656   3.953  51.465  1.00  0.00     0.146 A 
HETATM   25  N2  UNL     1      59.288   5.103  51.657  1.00  0.00    -0.314 N 
HETATM   26  C3  UNL     1      57.827   3.424  52.433  1.00  0.00     0.146 A 
HETATM   27  C1  UNL     1      59.095   5.749  52.840  1.00  0.00     0.196 A 
ATOM     28  H2  UNL     1      59.900   5.492  50.939  1.00  0.00     0.170 HD
HETATM   29  N1  UNL     1      59.745   6.963  53.076  1.00  0.00    -0.063 NA
HETATM   30  N6  UNL     1      58.284   5.244  53.799  1.00  0.00    -0.295 N 
HETATM   31  C10 UNL     1      57.639   4.081  53.620  1.00  0.00     0.278 A 
ATOM     32  H6  UNL     1      58.162   5.755  54.673  1.00  0.00     0.171 HD
HETATM   33  O13 UNL     1      56.872   3.569  54.484  1.00  0.00    -0.265 OA
HETATM   34  N3  UNL     1      57.352   2.286  51.948  1.00  0.00    -0.345 N 
HETATM   35  C4  UNL     1      57.859   2.099  50.721  1.00  0.00     0.188 A 
ATOM     36  H3  UNL     1      56.708   1.658  52.428  1.00  0.00     0.167 HD
ENDBRANCH   1  23
BRANCH   5  37
HETATM   37  O12 UNL     1      59.601   0.965  48.409  1.00  0.00    -0.388 OA
ATOM     38  H12 UNL     1      59.054   0.255  48.722  1.00  0.00     0.210 HD
ENDBRANCH   5  37
TORSDOF 10
ENDMDL
