MODEL 15
REMARK VINA RESULT: -7.796018045      6.878      9.843
REMARK  10 active torsions:
REMARK  status: ('A' for Active; 'I' for Inactive)
REMARK    1  A    between atoms: N4_10  and  C5_11 
REMARK    2  A    between atoms: C6_13  and  C7_14 
REMARK    3  A    between atoms: C7_14  and  O2_15 
REMARK    4  A    between atoms: O2_15  and  P1_16 
REMARK    5  A    between atoms: P1_16  and  O5_19 
REMARK    6  A    between atoms: O5_19  and  P2_20 
REMARK    7  A    between atoms: P2_20  and  N5_23 
REMARK    8  A    between atoms: N5_23  and  P3_25 
REMARK    9  A    between atoms: C8_29  and  O11_30 
REMARK   10  A    between atoms: C9_32  and  O12_33 
ROOT
HETATM    1  C5  UNL     1      55.152   2.633  43.294  1.00  0.00     0.262 C 
HETATM    2  O1  UNL     1      55.921   2.780  44.416  1.00  0.00    -0.353 OA
HETATM    3  C6  UNL     1      55.313   1.907  45.319  1.00  0.00     0.180 C 
HETATM    4  C8  UNL     1      55.238   0.629  44.538  1.00  0.00     0.182 C 
HETATM    5  C9  UNL     1      55.091   1.111  43.120  1.00  0.00     0.198 C 
ENDROOT
BRANCH   3   6
HETATM    6  C7  UNL     1      56.034   1.802  46.611  1.00  0.00     0.216 C 
BRANCH   6   7
HETATM    7  O2  UNL     1      56.995   2.832  46.576  1.00  0.00    -0.287 OA
BRANCH   7   8
HETATM    8  P1  UNL     1      58.364   2.435  47.129  1.00  0.00     0.417 P 
HETATM    9  O3  UNL     1      57.589   1.829  48.498  1.00  0.00    -0.624 OA
HETATM   10  O4  UNL     1      58.636   1.356  45.914  1.00  0.00    -0.624 OA
BRANCH   8  11
HETATM   11  O5  UNL     1      58.923   3.951  47.118  1.00  0.00    -0.186 OA
BRANCH  11  12
HETATM   12  P2  UNL     1      60.087   4.464  46.296  1.00  0.00     0.379 P 
HETATM   13  O6  UNL     1      61.069   3.290  46.879  1.00  0.00    -0.629 OA
HETATM   14  O7  UNL     1      60.076   5.943  46.988  1.00  0.00    -0.629 OA
BRANCH  12  15
HETATM   15  N5  UNL     1      59.218   4.222  44.816  1.00  0.00    -0.218 N 
ATOM     16  H5  UNL     1      58.667   3.375  44.681  1.00  0.00     0.179 HD
BRANCH  15  17
HETATM   17  P3  UNL     1      59.285   5.360  43.632  1.00  0.00     0.381 P 
HETATM   18  O8  UNL     1      60.725   5.855  42.999  1.00  0.00    -0.622 OA
HETATM   19  O9  UNL     1      59.022   4.493  42.386  1.00  0.00    -0.622 OA
HETATM   20  O10 UNL     1      57.873   6.232  43.177  1.00  0.00    -0.622 OA
ENDBRANCH  15  17
ENDBRANCH  12  15
ENDBRANCH  11  12
ENDBRANCH   8  11
ENDBRANCH   7   8
ENDBRANCH   6   7
ENDBRANCH   3   6
BRANCH   4  21
HETATM   21  O11 UNL     1      54.172  -0.153  44.955  1.00  0.00    -0.390 OA
ATOM     22  H11 UNL     1      54.042  -0.086  45.893  1.00  0.00     0.210 HD
ENDBRANCH   4  21
BRANCH   1  23
HETATM   23  N4  UNL     1      55.713   3.192  42.103  1.00  0.00    -0.297 N 
HETATM   24  C2  UNL     1      55.575   4.411  41.546  1.00  0.00     0.146 A 
HETATM   25  N2  UNL     1      54.864   5.453  41.955  1.00  0.00    -0.314 N 
HETATM   26  C3  UNL     1      56.324   4.467  40.389  1.00  0.00     0.146 A 
HETATM   27  C1  UNL     1      54.895   6.585  41.197  1.00  0.00     0.196 A 
ATOM     28  H2  UNL     1      54.311   5.408  42.811  1.00  0.00     0.170 HD
HETATM   29  N1  UNL     1      54.158   7.702  41.598  1.00  0.00    -0.063 NA
HETATM   30  N6  UNL     1      55.626   6.656  40.060  1.00  0.00    -0.295 N 
HETATM   31  C10 UNL     1      56.350   5.609  39.634  1.00  0.00     0.278 A 
ATOM     32  H6  UNL     1      55.627   7.519  39.518  1.00  0.00     0.171 HD
HETATM   33  O13 UNL     1      57.047   5.627  38.581  1.00  0.00    -0.265 OA
HETATM   34  N3  UNL     1      56.910   3.286  40.257  1.00  0.00    -0.345 N 
HETATM   35  C4  UNL     1      56.546   2.509  41.288  1.00  0.00     0.188 A 
ATOM     36  H3  UNL     1      57.533   3.013  39.496  1.00  0.00     0.167 HD
ENDBRANCH   1  23
BRANCH   5  37
HETATM   37  O12 UNL     1      53.888   0.750  42.560  1.00  0.00    -0.388 OA
ATOM     38  H12 UNL     1      53.667  -0.139  42.810  1.00  0.00     0.210 HD
ENDBRANCH   5  37
TORSDOF 10
ENDMDL
