MODEL 9
REMARK VINA RESULT: -8.068016324      1.345      2.236
REMARK  10 active torsions:
REMARK  status: ('A' for Active; 'I' for Inactive)
REMARK    1  A    between atoms: N4_10  and  C5_11 
REMARK    2  A    between atoms: C6_13  and  C7_14 
REMARK    3  A    between atoms: C7_14  and  O2_15 
REMARK    4  A    between atoms: O2_15  and  P1_16 
REMARK    5  A    between atoms: P1_16  and  O5_19 
REMARK    6  A    between atoms: O5_19  and  P2_20 
REMARK    7  A    between atoms: P2_20  and  N5_23 
REMARK    8  A    between atoms: N5_23  and  P3_25 
REMARK    9  A    between atoms: C8_29  and  O11_30 
REMARK   10  A    between atoms: C9_32  and  O12_33 
ROOT
HETATM    1  C5  UNL     1      64.038   3.830  47.922  1.00  0.00     0.262 C 
HETATM    2  O1  UNL     1      63.274   4.104  46.821  1.00  0.00    -0.353 OA
HETATM    3  C6  UNL     1      62.442   2.988  46.742  1.00  0.00     0.180 C 
HETATM    4  C8  UNL     1      61.879   2.901  48.129  1.00  0.00     0.182 C 
HETATM    5  C9  UNL     1      62.993   3.454  48.978  1.00  0.00     0.198 C 
ENDROOT
BRANCH   3   6
HETATM    6  C7  UNL     1      61.425   3.088  45.666  1.00  0.00     0.216 C 
BRANCH   6   7
HETATM    7  O2  UNL     1      60.289   3.643  46.289  1.00  0.00    -0.287 OA
BRANCH   7   8
HETATM    8  P1  UNL     1      59.741   4.893  45.601  1.00  0.00     0.417 P 
HETATM    9  O3  UNL     1      60.336   5.810  46.884  1.00  0.00    -0.624 OA
HETATM   10  O4  UNL     1      60.746   4.724  44.305  1.00  0.00    -0.624 OA
BRANCH   8  11
HETATM   11  O5  UNL     1      58.216   4.362  45.623  1.00  0.00    -0.186 OA
BRANCH  11  12
HETATM   12  P2  UNL     1      57.334   4.139  44.410  1.00  0.00     0.379 P 
HETATM   13  O6  UNL     1      57.714   5.615  43.812  1.00  0.00    -0.629 OA
HETATM   14  O7  UNL     1      55.975   3.936  45.291  1.00  0.00    -0.629 OA
BRANCH  12  15
HETATM   15  N5  UNL     1      58.246   2.743  43.938  1.00  0.00    -0.218 N 
ATOM     16  H5  UNL     1      58.713   2.175  44.644  1.00  0.00     0.179 HD
BRANCH  15  17
HETATM   17  P3  UNL     1      58.357   2.338  42.349  1.00  0.00     0.381 P 
HETATM   18  O8  UNL     1      59.521   1.301  41.808  1.00  0.00    -0.622 OA
HETATM   19  O9  UNL     1      57.303   1.218  42.264  1.00  0.00    -0.622 OA
HETATM   20  O10 UNL     1      57.410   3.157  41.168  1.00  0.00    -0.622 OA
ENDBRANCH  15  17
ENDBRANCH  12  15
ENDBRANCH  11  12
ENDBRANCH   8  11
ENDBRANCH   7   8
ENDBRANCH   6   7
ENDBRANCH   3   6
BRANCH   4  21
HETATM   21  O11 UNL     1      61.549   1.596  48.457  1.00  0.00    -0.390 OA
ATOM     22  H11 UNL     1      61.234   1.534  49.351  1.00  0.00     0.210 HD
ENDBRANCH   4  21
BRANCH   1  23
HETATM   23  N4  UNL     1      64.792   4.939  48.422  1.00  0.00    -0.297 N 
HETATM   24  C2  UNL     1      66.043   5.009  48.915  1.00  0.00     0.146 A 
HETATM   25  N2  UNL     1      66.944   4.049  49.079  1.00  0.00    -0.314 N 
HETATM   26  C3  UNL     1      66.318   6.314  49.268  1.00  0.00     0.146 A 
HETATM   27  C1  UNL     1      68.152   4.390  49.608  1.00  0.00     0.196 A 
ATOM     28  H2  UNL     1      66.738   3.085  48.817  1.00  0.00     0.170 HD
HETATM   29  N1  UNL     1      69.125   3.405  49.795  1.00  0.00    -0.063 NA
HETATM   30  N6  UNL     1      68.437   5.666  49.959  1.00  0.00    -0.295 N 
HETATM   31  C10 UNL     1      67.536   6.647  49.799  1.00  0.00     0.278 A 
ATOM     32  H6  UNL     1      69.352   5.885  50.351  1.00  0.00     0.171 HD
HETATM   33  O13 UNL     1      67.755   7.852  50.111  1.00  0.00    -0.265 OA
HETATM   34  N3  UNL     1      65.234   7.021  48.985  1.00  0.00    -0.345 N 
HETATM   35  C4  UNL     1      64.307   6.199  48.474  1.00  0.00     0.188 A 
ATOM     36  H3  UNL     1      65.124   8.025  49.133  1.00  0.00     0.167 HD
ENDBRANCH   1  23
BRANCH   5  37
HETATM   37  O12 UNL     1      63.513   2.521  49.842  1.00  0.00    -0.388 OA
ATOM     38  H12 UNL     1      64.007   2.953  50.528  1.00  0.00     0.210 HD
ENDBRANCH   5  37
TORSDOF 10
ENDMDL
