MODEL 2
REMARK VINA RESULT: -8.727103079      1.062      1.557
REMARK  10 active torsions:
REMARK  status: ('A' for Active; 'I' for Inactive)
REMARK    1  A    between atoms: N4_10  and  C5_11 
REMARK    2  A    between atoms: C6_13  and  C7_14 
REMARK    3  A    between atoms: C7_14  and  O2_15 
REMARK    4  A    between atoms: O2_15  and  P1_16 
REMARK    5  A    between atoms: P1_16  and  O5_19 
REMARK    6  A    between atoms: O5_19  and  P2_20 
REMARK    7  A    between atoms: P2_20  and  N5_23 
REMARK    8  A    between atoms: N5_23  and  P3_25 
REMARK    9  A    between atoms: C8_29  and  O11_30 
REMARK   10  A    between atoms: C9_32  and  O12_33 
ROOT
HETATM    1  C5  UNL     1      64.136   3.929  47.780  1.00  0.00     0.262 C 
HETATM    2  O1  UNL     1      63.304   4.272  46.749  1.00  0.00    -0.353 OA
HETATM    3  C6  UNL     1      62.509   3.135  46.608  1.00  0.00     0.180 C 
HETATM    4  C8  UNL     1      62.026   2.899  48.007  1.00  0.00     0.182 C 
HETATM    5  C9  UNL     1      63.163   3.415  48.847  1.00  0.00     0.198 C 
ENDROOT
BRANCH   3   6
HETATM    6  C7  UNL     1      61.432   3.294  45.599  1.00  0.00     0.216 C 
BRANCH   6   7
HETATM    7  O2  UNL     1      60.254   3.478  46.349  1.00  0.00    -0.287 OA
BRANCH   7   8
HETATM    8  P1  UNL     1      59.396   4.658  45.896  1.00  0.00     0.417 P 
HETATM    9  O3  UNL     1      58.039   3.838  46.467  1.00  0.00    -0.624 OA
HETATM   10  O4  UNL     1      60.114   5.696  46.955  1.00  0.00    -0.624 OA
BRANCH   8  11
HETATM   11  O5  UNL     1      59.837   4.517  44.348  1.00  0.00    -0.186 OA
BRANCH  11  12
HETATM   12  P2  UNL     1      59.325   5.359  43.197  1.00  0.00     0.379 P 
HETATM   13  O6  UNL     1      60.842   5.853  42.830  1.00  0.00    -0.629 OA
HETATM   14  O7  UNL     1      58.369   6.283  44.145  1.00  0.00    -0.629 OA
BRANCH  12  15
HETATM   15  N5  UNL     1      58.643   3.972  42.414  1.00  0.00    -0.218 N 
ATOM     16  H5  UNL     1      59.183   3.110  42.342  1.00  0.00     0.179 HD
BRANCH  15  17
HETATM   17  P3  UNL     1      57.125   4.048  41.789  1.00  0.00     0.381 P 
HETATM   18  O8  UNL     1      55.850   4.573  42.695  1.00  0.00    -0.622 OA
HETATM   19  O9  UNL     1      57.182   5.405  41.062  1.00  0.00    -0.622 OA
HETATM   20  O10 UNL     1      56.778   3.370  40.246  1.00  0.00    -0.622 OA
ENDBRANCH  15  17
ENDBRANCH  12  15
ENDBRANCH  11  12
ENDBRANCH   8  11
ENDBRANCH   7   8
ENDBRANCH   6   7
ENDBRANCH   3   6
BRANCH   4  21
HETATM   21  O11 UNL     1      61.760   1.556  48.227  1.00  0.00    -0.390 OA
ATOM     22  H11 UNL     1      60.836   1.364  48.114  1.00  0.00     0.210 HD
ENDBRANCH   4  21
BRANCH   1  23
HETATM   23  N4  UNL     1      64.877   5.016  48.343  1.00  0.00    -0.297 N 
HETATM   24  C2  UNL     1      66.115   5.065  48.871  1.00  0.00     0.146 A 
HETATM   25  N2  UNL     1      67.012   4.099  49.019  1.00  0.00    -0.314 N 
HETATM   26  C3  UNL     1      66.380   6.354  49.283  1.00  0.00     0.146 A 
HETATM   27  C1  UNL     1      68.206   4.417  49.592  1.00  0.00     0.196 A 
ATOM     28  H2  UNL     1      66.813   3.146  48.713  1.00  0.00     0.170 HD
HETATM   29  N1  UNL     1      69.174   3.424  49.764  1.00  0.00    -0.063 NA
HETATM   30  N6  UNL     1      68.481   5.678  50.001  1.00  0.00    -0.295 N 
HETATM   31  C10 UNL     1      67.584   6.665  49.858  1.00  0.00     0.278 A 
ATOM     32  H6  UNL     1      69.385   5.881  50.426  1.00  0.00     0.171 HD
HETATM   33  O13 UNL     1      67.794   7.856  50.224  1.00  0.00    -0.265 OA
HETATM   34  N3  UNL     1      65.304   7.073  49.002  1.00  0.00    -0.345 N 
HETATM   35  C4  UNL     1      64.390   6.272  48.433  1.00  0.00     0.188 A 
ATOM     36  H3  UNL     1      65.189   8.070  49.187  1.00  0.00     0.167 HD
ENDBRANCH   1  23
BRANCH   5  37
HETATM   37  O12 UNL     1      63.762   2.427  49.592  1.00  0.00    -0.388 OA
ATOM     38  H12 UNL     1      63.268   1.619  49.518  1.00  0.00     0.210 HD
ENDBRANCH   5  37
TORSDOF 10
ENDMDL
