MODEL 17
REMARK VINA RESULT: -7.690233379      4.878      6.103
REMARK  10 active torsions:
REMARK  status: ('A' for Active; 'I' for Inactive)
REMARK    1  A    between atoms: N4_10  and  C5_11 
REMARK    2  A    between atoms: C6_13  and  C7_14 
REMARK    3  A    between atoms: C7_14  and  O2_15 
REMARK    4  A    between atoms: O2_15  and  P1_16 
REMARK    5  A    between atoms: P1_16  and  O5_19 
REMARK    6  A    between atoms: O5_19  and  P2_20 
REMARK    7  A    between atoms: P2_20  and  N5_23 
REMARK    8  A    between atoms: N5_23  and  P3_25 
REMARK    9  A    between atoms: C8_29  and  O11_30 
REMARK   10  A    between atoms: C9_32  and  O12_33 
ROOT
HETATM    1  C5  UNL     1      59.139   3.513  49.645  1.00  0.00     0.262 C 
HETATM    2  O1  UNL     1      58.366   3.021  48.629  1.00  0.00    -0.353 OA
HETATM    3  C6  UNL     1      59.270   2.943  47.569  1.00  0.00     0.180 C 
HETATM    4  C8  UNL     1      60.414   2.183  48.170  1.00  0.00     0.182 C 
HETATM    5  C9  UNL     1      60.364   2.592  49.618  1.00  0.00     0.198 C 
ENDROOT
BRANCH   3   6
HETATM    6  C7  UNL     1      58.692   2.330  46.348  1.00  0.00     0.216 C 
BRANCH   6   7
HETATM    7  O2  UNL     1      59.720   2.393  45.387  1.00  0.00    -0.287 OA
BRANCH   7   8
HETATM    8  P1  UNL     1      59.236   2.665  43.963  1.00  0.00     0.417 P 
HETATM    9  O3  UNL     1      59.935   1.206  43.490  1.00  0.00    -0.624 OA
HETATM   10  O4  UNL     1      57.648   2.599  44.400  1.00  0.00    -0.624 OA
BRANCH   8  11
HETATM   11  O5  UNL     1      60.069   4.043  43.833  1.00  0.00    -0.186 OA
BRANCH  11  12
HETATM   12  P2  UNL     1      59.494   5.401  43.486  1.00  0.00     0.379 P 
HETATM   13  O6  UNL     1      60.874   5.835  42.718  1.00  0.00    -0.629 OA
HETATM   14  O7  UNL     1      59.253   5.828  45.043  1.00  0.00    -0.629 OA
BRANCH  12  15
HETATM   15  N5  UNL     1      58.190   4.682  42.600  1.00  0.00    -0.218 N 
ATOM     16  H5  UNL     1      58.221   3.692  42.359  1.00  0.00     0.179 HD
BRANCH  15  17
HETATM   17  P3  UNL     1      56.902   5.599  42.150  1.00  0.00     0.381 P 
HETATM   18  O8  UNL     1      56.166   5.384  40.689  1.00  0.00    -0.622 OA
HETATM   19  O9  UNL     1      55.755   4.848  42.851  1.00  0.00    -0.622 OA
HETATM   20  O10 UNL     1      56.426   6.961  43.088  1.00  0.00    -0.622 OA
ENDBRANCH  15  17
ENDBRANCH  12  15
ENDBRANCH  11  12
ENDBRANCH   8  11
ENDBRANCH   7   8
ENDBRANCH   6   7
ENDBRANCH   3   6
BRANCH   4  21
HETATM   21  O11 UNL     1      61.613   2.513  47.558  1.00  0.00    -0.390 OA
ATOM     22  H11 UNL     1      61.643   2.194  46.664  1.00  0.00     0.210 HD
ENDBRANCH   4  21
BRANCH   1  23
HETATM   23  N4  UNL     1      58.549   3.425  50.946  1.00  0.00    -0.297 N 
HETATM   24  C2  UNL     1      58.545   4.292  51.976  1.00  0.00     0.146 A 
HETATM   25  N2  UNL     1      59.099   5.493  52.076  1.00  0.00    -0.314 N 
HETATM   26  C3  UNL     1      57.833   3.745  53.024  1.00  0.00     0.146 A 
HETATM   27  C1  UNL     1      58.945   6.173  53.246  1.00  0.00     0.196 A 
ATOM     28  H2  UNL     1      59.624   5.894  51.300  1.00  0.00     0.170 HD
HETATM   29  N1  UNL     1      59.515   7.441  53.386  1.00  0.00    -0.063 NA
HETATM   30  N6  UNL     1      58.249   5.650  54.283  1.00  0.00    -0.295 N 
HETATM   31  C10 UNL     1      57.683   4.437  54.197  1.00  0.00     0.278 A 
ATOM     32  H6  UNL     1      58.153   6.188  55.144  1.00  0.00     0.171 HD
HETATM   33  O13 UNL     1      57.024   3.907  55.136  1.00  0.00    -0.265 OA
HETATM   34  N3  UNL     1      57.412   2.556  52.619  1.00  0.00    -0.345 N 
HETATM   35  C4  UNL     1      57.840   2.354  51.365  1.00  0.00     0.188 A 
ATOM     36  H3  UNL     1      56.856   1.902  53.171  1.00  0.00     0.167 HD
ENDBRANCH   1  23
BRANCH   5  37
HETATM   37  O12 UNL     1      61.483   3.288  50.011  1.00  0.00    -0.388 OA
ATOM     38  H12 UNL     1      62.264   2.785  49.812  1.00  0.00     0.210 HD
ENDBRANCH   5  37
TORSDOF 10
ENDMDL
