MODEL 1
REMARK VINA RESULT: -8.775332899      0.000      0.000
REMARK  8 active torsions:
REMARK  status: ('A' for Active; 'I' for Inactive)
REMARK    1  A    between atoms: N4_10  and  C5_11 
REMARK    2  A    between atoms: C6_13  and  C7_14 
REMARK    3  A    between atoms: C7_14  and  O2_15 
REMARK    4  A    between atoms: O2_15  and  P1_16 
REMARK    5  A    between atoms: P1_16  and  O5_19 
REMARK    6  A    between atoms: O5_19  and  P2_20 
REMARK    7  A    between atoms: C8_24  and  O9_25 
REMARK    8  A    between atoms: C9_27  and  O10_28 
ROOT
HETATM    1  C5  UNL     1     -33.116  -0.784  48.522  1.00  0.00     0.262 C 
HETATM    2  O1  UNL     1     -34.014  -0.338  47.554  1.00  0.00    -0.353 OA
HETATM    3  C6  UNL     1     -34.951  -1.310  47.357  1.00  0.00     0.180 C 
HETATM    4  C8  UNL     1     -35.134  -2.070  48.643  1.00  0.00     0.182 C 
HETATM    5  C9  UNL     1     -33.961  -1.578  49.467  1.00  0.00     0.198 C 
ENDROOT
BRANCH   1   6
HETATM    6  N4  UNL     1     -32.570   0.421  49.141  1.00  0.00    -0.297 N 
HETATM    7  C2  UNL     1     -31.356   0.487  49.743  1.00  0.00     0.146 A 
HETATM    8  N2  UNL     1     -30.394  -0.436  49.933  1.00  0.00    -0.314 N 
HETATM    9  C3  UNL     1     -31.227   1.792  50.189  1.00  0.00     0.146 A 
HETATM   10  C1  UNL     1     -29.287  -0.069  50.573  1.00  0.00     0.196 A 
ATOM     11  H2  UNL     1     -30.510  -1.392  49.595  1.00  0.00     0.170 HD
HETATM   12  N1  UNL     1     -28.261  -1.027  50.783  1.00  0.00    -0.063 NA
HETATM   13  N5  UNL     1     -29.115   1.190  51.026  1.00  0.00    -0.295 N 
HETATM   14  C10 UNL     1     -30.060   2.134  50.850  1.00  0.00     0.278 A 
ATOM     15  H5  UNL     1     -28.252   1.432  51.511  1.00  0.00     0.171 HD
HETATM   16  O11 UNL     1     -29.896   3.326  51.280  1.00  0.00    -0.265 OA
HETATM   17  N3  UNL     1     -32.338   2.502  49.864  1.00  0.00    -0.345 N 
HETATM   18  C4  UNL     1     -33.152   1.644  49.222  1.00  0.00     0.188 A 
ATOM     19  H3  UNL     1     -32.520   3.485  50.066  1.00  0.00     0.167 HD
ENDBRANCH   1   6
BRANCH   5  20
HETATM   20  O10 UNL     1     -33.300  -2.738  49.925  1.00  0.00    -0.388 OA
ATOM     21  H10 UNL     1     -33.494  -3.496  49.387  1.00  0.00     0.210 HD
ENDBRANCH   5  20
BRANCH   3  22
HETATM   22  C7  UNL     1     -36.291  -0.768  46.945  1.00  0.00     0.216 C 
BRANCH  22  23
HETATM   23  O2  UNL     1     -36.183  -0.323  45.629  1.00  0.00    -0.287 OA
BRANCH  23  24
HETATM   24  P1  UNL     1     -37.278   0.581  45.020  1.00  0.00     0.418 P 
HETATM   25  O3  UNL     1     -37.397   1.379  46.460  1.00  0.00    -0.624 OA
HETATM   26  O4  UNL     1     -36.106   1.107  43.931  1.00  0.00    -0.624 OA
BRANCH  24  27
HETATM   27  O5  UNL     1     -38.216   1.615  44.374  1.00  0.00    -0.173 OA
BRANCH  27  28
HETATM   28  P2  UNL     1     -38.699   1.827  42.930  1.00  0.00     0.431 P 
HETATM   29  O6  UNL     1     -39.121   2.322  41.523  1.00  0.00    -0.616 OA
HETATM   30  O7  UNL     1     -39.667   3.028  43.568  1.00  0.00    -0.616 OA
HETATM   31  O8  UNL     1     -39.363   0.346  42.793  1.00  0.00    -0.616 OA
ENDBRANCH  27  28
ENDBRANCH  24  27
ENDBRANCH  23  24
ENDBRANCH  22  23
ENDBRANCH   3  22
BRANCH   4  32
HETATM   32  O9  UNL     1     -35.024  -3.430  48.335  1.00  0.00    -0.390 OA
ATOM     33  H9  UNL     1     -34.567  -3.843  49.059  1.00  0.00     0.210 HD
ENDBRANCH   4  32
TORSDOF 8
ENDMDL
