MODEL 6
REMARK VINA RESULT: -7.397841705      6.809     10.055
REMARK  8 active torsions:
REMARK  status: ('A' for Active; 'I' for Inactive)
REMARK    1  A    between atoms: N4_10  and  C5_11 
REMARK    2  A    between atoms: C6_13  and  C7_14 
REMARK    3  A    between atoms: C7_14  and  O2_15 
REMARK    4  A    between atoms: O2_15  and  P1_16 
REMARK    5  A    between atoms: P1_16  and  O5_19 
REMARK    6  A    between atoms: O5_19  and  P2_20 
REMARK    7  A    between atoms: C8_24  and  O9_25 
REMARK    8  A    between atoms: C9_27  and  O10_28 
ROOT
HETATM    1  C5  UNL     1     -39.478   1.014  41.095  1.00  0.00     0.262 C 
HETATM    2  O1  UNL     1     -38.168   0.960  41.567  1.00  0.00    -0.353 OA
HETATM    3  C6  UNL     1     -38.054   1.822  42.618  1.00  0.00     0.180 C 
HETATM    4  C8  UNL     1     -39.385   1.912  43.314  1.00  0.00     0.182 C 
HETATM    5  C9  UNL     1     -40.303   1.221  42.325  1.00  0.00     0.198 C 
ENDROOT
BRANCH   1   6
HETATM    6  N4  UNL     1     -39.727  -0.281  40.467  1.00  0.00    -0.297 N 
HETATM    7  C2  UNL     1     -39.272  -1.464  40.952  1.00  0.00     0.146 A 
HETATM    8  N2  UNL     1     -38.534  -1.769  42.036  1.00  0.00    -0.314 N 
HETATM    9  C3  UNL     1     -39.725  -2.431  40.069  1.00  0.00     0.146 A 
HETATM   10  C1  UNL     1     -38.237  -3.046  42.257  1.00  0.00     0.196 A 
ATOM     11  H2  UNL     1     -38.211  -1.039  42.672  1.00  0.00     0.170 HD
HETATM   12  N1  UNL     1     -37.461  -3.388  43.394  1.00  0.00    -0.063 NA
HETATM   13  N5  UNL     1     -38.655  -4.024  41.427  1.00  0.00    -0.295 N 
HETATM   14  C10 UNL     1     -39.395  -3.749  40.335  1.00  0.00     0.278 A 
ATOM     15  H5  UNL     1     -38.407  -4.992  41.631  1.00  0.00     0.171 HD
HETATM   16  O11 UNL     1     -39.789  -4.676  39.549  1.00  0.00    -0.265 OA
HETATM   17  N3  UNL     1     -40.439  -1.848  39.073  1.00  0.00    -0.345 N 
HETATM   18  C4  UNL     1     -40.430  -0.528  39.333  1.00  0.00     0.188 A 
ATOM     19  H3  UNL     1     -40.891  -2.315  38.287  1.00  0.00     0.167 HD
ENDBRANCH   1   6
BRANCH   5  20
HETATM   20  O10 UNL     1     -41.372   2.115  42.104  1.00  0.00    -0.388 OA
ATOM     21  H10 UNL     1     -41.082   2.931  41.713  1.00  0.00     0.210 HD
ENDBRANCH   5  20
BRANCH   3  22
HETATM   22  C7  UNL     1     -37.030   1.393  43.631  1.00  0.00     0.216 C 
BRANCH  22  23
HETATM   23  O2  UNL     1     -37.637   1.414  44.885  1.00  0.00    -0.287 OA
BRANCH  23  24
HETATM   24  P1  UNL     1     -37.420   0.249  45.876  1.00  0.00     0.418 P 
HETATM   25  O3  UNL     1     -36.018  -0.133  45.093  1.00  0.00    -0.624 OA
HETATM   26  O4  UNL     1     -37.344   1.418  47.086  1.00  0.00    -0.624 OA
BRANCH  24  27
HETATM   27  O5  UNL     1     -37.084  -0.779  46.969  1.00  0.00    -0.173 OA
BRANCH  27  28
HETATM   28  P2  UNL     1     -37.937  -1.810  47.728  1.00  0.00     0.431 P 
HETATM   29  O6  UNL     1     -38.898  -2.919  48.227  1.00  0.00    -0.616 OA
HETATM   30  O7  UNL     1     -39.229  -1.164  46.889  1.00  0.00    -0.616 OA
HETATM   31  O8  UNL     1     -37.631  -1.179  49.199  1.00  0.00    -0.616 OA
ENDBRANCH  27  28
ENDBRANCH  24  27
ENDBRANCH  23  24
ENDBRANCH  22  23
ENDBRANCH   3  22
BRANCH   4  32
HETATM   32  O9  UNL     1     -39.688   3.270  43.448  1.00  0.00    -0.390 OA
ATOM     33  H9  UNL     1     -40.485   3.329  43.963  1.00  0.00     0.210 HD
ENDBRANCH   4  32
TORSDOF 8
ENDMDL
