MODEL 3
REMARK VINA RESULT: -7.689914725      6.320      9.459
REMARK  8 active torsions:
REMARK  status: ('A' for Active; 'I' for Inactive)
REMARK    1  A    between atoms: N4_10  and  C5_11 
REMARK    2  A    between atoms: C6_13  and  C7_14 
REMARK    3  A    between atoms: C7_14  and  O2_15 
REMARK    4  A    between atoms: O2_15  and  P1_16 
REMARK    5  A    between atoms: P1_16  and  O5_19 
REMARK    6  A    between atoms: O5_19  and  P2_20 
REMARK    7  A    between atoms: C8_24  and  O9_25 
REMARK    8  A    between atoms: C9_27  and  O10_28 
ROOT
HETATM    1  C5  UNL     1     -41.178   0.081  43.598  1.00  0.00     0.262 C 
HETATM    2  O1  UNL     1     -40.026   0.085  44.382  1.00  0.00    -0.353 OA
HETATM    3  C6  UNL     1     -40.098  -0.961  45.256  1.00  0.00     0.180 C 
HETATM    4  C8  UNL     1     -40.893  -2.068  44.617  1.00  0.00     0.182 C 
HETATM    5  C9  UNL     1     -41.490  -1.370  43.412  1.00  0.00     0.198 C 
ENDROOT
BRANCH   1   6
HETATM    6  N4  UNL     1     -40.806   0.736  42.346  1.00  0.00    -0.297 N 
HETATM    7  C2  UNL     1     -39.571   1.232  42.082  1.00  0.00     0.146 A 
HETATM    8  N2  UNL     1     -38.439   1.267  42.812  1.00  0.00    -0.314 N 
HETATM    9  C3  UNL     1     -39.643   1.761  40.803  1.00  0.00     0.146 A 
HETATM   10  C1  UNL     1     -37.361   1.832  42.275  1.00  0.00     0.196 A 
ATOM     11  H2  UNL     1     -38.410   0.871  43.751  1.00  0.00     0.170 HD
HETATM   12  N1  UNL     1     -36.160   1.878  43.027  1.00  0.00    -0.063 NA
HETATM   13  N5  UNL     1     -37.382   2.360  41.034  1.00  0.00    -0.295 N 
HETATM   14  C10 UNL     1     -38.499   2.339  40.281  1.00  0.00     0.278 A 
ATOM     15  H5  UNL     1     -36.534   2.784  40.658  1.00  0.00     0.171 HD
HETATM   16  O11 UNL     1     -38.517   2.842  39.106  1.00  0.00    -0.265 OA
HETATM   17  N3  UNL     1     -40.894   1.589  40.304  1.00  0.00    -0.345 N 
HETATM   18  C4  UNL     1     -41.594   0.959  41.265  1.00  0.00     0.188 A 
ATOM     19  H3  UNL     1     -41.234   1.880  39.387  1.00  0.00     0.167 HD
ENDBRANCH   1   6
BRANCH   5  20
HETATM   20  O10 UNL     1     -42.877  -1.626  43.468  1.00  0.00    -0.388 OA
ATOM     21  H10 UNL     1     -43.194  -2.053  42.681  1.00  0.00     0.210 HD
ENDBRANCH   5  20
BRANCH   3  22
HETATM   22  C7  UNL     1     -38.753  -1.514  45.633  1.00  0.00     0.216 C 
BRANCH  22  23
HETATM   23  O2  UNL     1     -37.848  -0.455  45.656  1.00  0.00    -0.287 OA
BRANCH  23  24
HETATM   24  P1  UNL     1     -36.761  -0.382  46.752  1.00  0.00     0.418 P 
HETATM   25  O3  UNL     1     -35.600  -0.439  45.580  1.00  0.00    -0.624 OA
HETATM   26  O4  UNL     1     -37.395   1.127  47.148  1.00  0.00    -0.624 OA
BRANCH  24  27
HETATM   27  O5  UNL     1     -35.676  -0.105  47.806  1.00  0.00    -0.173 OA
BRANCH  27  28
HETATM   28  P2  UNL     1     -34.208  -0.546  47.932  1.00  0.00     0.431 P 
HETATM   29  O6  UNL     1     -32.811  -1.216  47.890  1.00  0.00    -0.616 OA
HETATM   30  O7  UNL     1     -34.829  -2.027  48.389  1.00  0.00    -0.616 OA
HETATM   31  O8  UNL     1     -33.856   0.502  49.129  1.00  0.00    -0.616 OA
ENDBRANCH  27  28
ENDBRANCH  24  27
ENDBRANCH  23  24
ENDBRANCH  22  23
ENDBRANCH   3  22
BRANCH   4  32
HETATM   32  O9  UNL     1     -41.873  -2.454  45.537  1.00  0.00    -0.390 OA
ATOM     33  H9  UNL     1     -41.909  -3.403  45.524  1.00  0.00     0.210 HD
ENDBRANCH   4  32
TORSDOF 8
ENDMDL
