MODEL 7
REMARK VINA RESULT: -7.395613283      3.193      4.826
REMARK  8 active torsions:
REMARK  status: ('A' for Active; 'I' for Inactive)
REMARK    1  A    between atoms: N4_10  and  C5_11 
REMARK    2  A    between atoms: C6_13  and  C7_14 
REMARK    3  A    between atoms: C7_14  and  O2_15 
REMARK    4  A    between atoms: O2_15  and  P1_16 
REMARK    5  A    between atoms: P1_16  and  O5_19 
REMARK    6  A    between atoms: O5_19  and  P2_20 
REMARK    7  A    between atoms: C8_24  and  O9_25 
REMARK    8  A    between atoms: C9_27  and  O10_28 
ROOT
HETATM    1  C5  UNL     1     -34.147  -1.223  49.573  1.00  0.00     0.262 C 
HETATM    2  O1  UNL     1     -35.384  -0.897  49.017  1.00  0.00    -0.353 OA
HETATM    3  C6  UNL     1     -35.197  -0.602  47.698  1.00  0.00     0.180 C 
HETATM    4  C8  UNL     1     -34.029  -1.401  47.186  1.00  0.00     0.182 C 
HETATM    5  C9  UNL     1     -33.427  -1.933  48.472  1.00  0.00     0.198 C 
ENDROOT
BRANCH   1   6
HETATM    6  N4  UNL     1     -34.441  -2.099  50.704  1.00  0.00    -0.297 N 
HETATM    7  C2  UNL     1     -35.399  -1.852  51.632  1.00  0.00     0.146 A 
HETATM    8  N2  UNL     1     -36.272  -0.837  51.777  1.00  0.00    -0.314 N 
HETATM    9  C3  UNL     1     -35.348  -2.916  52.518  1.00  0.00     0.146 A 
HETATM   10  C1  UNL     1     -37.110  -0.869  52.809  1.00  0.00     0.196 A 
ATOM     11  H2  UNL     1     -36.291  -0.064  51.112  1.00  0.00     0.170 HD
HETATM   12  N1  UNL     1     -38.038   0.190  52.979  1.00  0.00    -0.063 NA
HETATM   13  N5  UNL     1     -37.099  -1.884  53.698  1.00  0.00    -0.295 N 
HETATM   14  C10 UNL     1     -36.237  -2.913  53.579  1.00  0.00     0.278 A 
ATOM     15  H5  UNL     1     -37.758  -1.872  54.477  1.00  0.00     0.171 HD
HETATM   16  O11 UNL     1     -36.228  -3.873  54.423  1.00  0.00    -0.265 OA
HETATM   17  N3  UNL     1     -34.382  -3.789  52.135  1.00  0.00    -0.345 N 
HETATM   18  C4  UNL     1     -33.835  -3.271  51.020  1.00  0.00     0.188 A 
ATOM     19  H3  UNL     1     -34.122  -4.660  52.598  1.00  0.00     0.167 HD
ENDBRANCH   1   6
BRANCH   5  20
HETATM   20  O10 UNL     1     -32.059  -1.592  48.425  1.00  0.00    -0.388 OA
ATOM     21  H10 UNL     1     -31.668  -1.794  47.583  1.00  0.00     0.210 HD
ENDBRANCH   5  20
BRANCH   3  22
HETATM   22  C7  UNL     1     -36.390  -0.926  46.843  1.00  0.00     0.216 C 
BRANCH  22  23
HETATM   23  O2  UNL     1     -36.203  -0.314  45.605  1.00  0.00    -0.287 OA
BRANCH  23  24
HETATM   24  P1  UNL     1     -37.315   0.571  44.998  1.00  0.00     0.418 P 
HETATM   25  O3  UNL     1     -37.460   1.353  46.445  1.00  0.00    -0.624 OA
HETATM   26  O4  UNL     1     -36.147   1.133  43.922  1.00  0.00    -0.624 OA
BRANCH  24  27
HETATM   27  O5  UNL     1     -38.270   1.591  44.357  1.00  0.00    -0.173 OA
BRANCH  27  28
HETATM   28  P2  UNL     1     -38.785   1.778  42.920  1.00  0.00     0.431 P 
HETATM   29  O6  UNL     1     -39.229   2.248  41.511  1.00  0.00    -0.616 OA
HETATM   30  O7  UNL     1     -39.702   3.024  43.550  1.00  0.00    -0.616 OA
HETATM   31  O8  UNL     1     -39.494   0.314  42.840  1.00  0.00    -0.616 OA
ENDBRANCH  27  28
ENDBRANCH  24  27
ENDBRANCH  23  24
ENDBRANCH  22  23
ENDBRANCH   3  22
BRANCH   4  32
HETATM   32  O9  UNL     1     -33.172  -0.507  46.539  1.00  0.00    -0.390 OA
ATOM     33  H9  UNL     1     -32.948  -0.893  45.699  1.00  0.00     0.210 HD
ENDBRANCH   4  32
TORSDOF 8
ENDMDL
