MODEL 11
REMARK VINA RESULT: -5.293484221      1.823      4.311
REMARK  0 active torsions:
REMARK  status: ('A' for Active; 'I' for Inactive)
ROOT
HETATM    1  C1  UNL     1      86.783 -52.887 -25.948  1.00  0.00     0.025 C 
HETATM    2  C2  UNL     1      85.392 -53.445 -25.872  1.00  0.00     0.117 A 
HETATM    3  C3  UNL     1      85.321 -54.898 -25.952  1.00  0.00     0.272 A 
HETATM    4  O1  UNL     1      85.809 -55.616 -26.904  1.00  0.00    -0.264 OA
HETATM    5  O2  UNL     1      84.650 -55.333 -24.843  1.00  0.00    -0.280 OA
HETATM    6  C4  UNL     1      84.289 -54.194 -24.051  1.00  0.00     0.088 A 
HETATM    7  C5  UNL     1      84.697 -53.107 -24.612  1.00  0.00    -0.011 A 
HETATM    8  C6  UNL     1      84.451 -51.769 -23.994  1.00  0.00     0.034 A 
HETATM    9  C7  UNL     1      83.802 -51.774 -22.863  1.00  0.00     0.135 A 
HETATM   10  O3  UNL     1      83.365 -52.935 -22.263  1.00  0.00    -0.357 OA
HETATM   11  C8  UNL     1      83.549 -54.204 -22.760  1.00  0.00     0.240 A 
ENDROOT
TORSDOF 0
ENDMDL
