MODEL 7
REMARK VINA RESULT: -5.840615748      2.624      4.076
REMARK  0 active torsions:
REMARK  status: ('A' for Active; 'I' for Inactive)
ROOT
HETATM    1  C1  UNL     1      85.696 -55.238 -26.478  1.00  0.00     0.025 C 
HETATM    2  C2  UNL     1      84.432 -55.045 -25.691  1.00  0.00     0.117 A 
HETATM    3  C3  UNL     1      84.213 -56.039 -24.649  1.00  0.00     0.272 A 
HETATM    4  O1  UNL     1      84.182 -57.314 -24.831  1.00  0.00    -0.264 OA
HETATM    5  O2  UNL     1      84.052 -55.363 -23.471  1.00  0.00    -0.280 OA
HETATM    6  C4  UNL     1      84.162 -53.958 -23.732  1.00  0.00     0.088 A 
HETATM    7  C5  UNL     1      84.378 -53.747 -24.986  1.00  0.00    -0.011 A 
HETATM    8  C6  UNL     1      84.534 -52.364 -25.529  1.00  0.00     0.034 A 
HETATM    9  C7  UNL     1      84.438 -51.396 -24.661  1.00  0.00     0.135 A 
HETATM   10  O3  UNL     1      84.207 -51.620 -23.322  1.00  0.00    -0.357 OA
HETATM   11  C8  UNL     1      84.053 -52.855 -22.738  1.00  0.00     0.240 A 
ENDROOT
TORSDOF 0
ENDMDL
