MODEL 10
REMARK VINA RESULT: -5.582055821      1.068      3.837
REMARK  0 active torsions:
REMARK  status: ('A' for Active; 'I' for Inactive)
ROOT
HETATM    1  C1  UNL     1      87.524 -52.792 -26.409  1.00  0.00     0.025 C 
HETATM    2  C2  UNL     1      86.217 -53.479 -26.684  1.00  0.00     0.117 A 
HETATM    3  C3  UNL     1      86.346 -54.849 -27.162  1.00  0.00     0.272 A 
HETATM    4  O1  UNL     1      87.024 -55.216 -28.193  1.00  0.00    -0.264 OA
HETATM    5  O2  UNL     1      85.621 -55.643 -26.317  1.00  0.00    -0.280 OA
HETATM    6  C4  UNL     1      85.029 -54.815 -25.307  1.00  0.00     0.088 A 
HETATM    7  C5  UNL     1      85.351 -53.580 -25.490  1.00  0.00    -0.011 A 
HETATM    8  C6  UNL     1      84.866 -52.503 -24.575  1.00  0.00     0.034 A 
HETATM    9  C7  UNL     1      84.104 -52.891 -23.590  1.00  0.00     0.135 A 
HETATM   10  O3  UNL     1      83.760 -54.211 -23.394  1.00  0.00    -0.357 OA
HETATM   11  C8  UNL     1      84.161 -55.263 -24.184  1.00  0.00     0.240 A 
ENDROOT
TORSDOF 0
ENDMDL
