MODEL 18
REMARK VINA RESULT: -4.781250915      1.960      2.688
REMARK  0 active torsions:
REMARK  status: ('A' for Active; 'I' for Inactive)
ROOT
HETATM    1  C1  UNL     1      84.928 -54.254 -23.474  1.00  0.00     0.025 C 
HETATM    2  C2  UNL     1      84.527 -53.503 -24.711  1.00  0.00     0.117 A 
HETATM    3  C3  UNL     1      84.522 -52.054 -24.560  1.00  0.00     0.272 A 
HETATM    4  O1  UNL     1      83.864 -51.401 -23.666  1.00  0.00    -0.264 OA
HETATM    5  O2  UNL     1      85.335 -51.542 -25.533  1.00  0.00    -0.280 OA
HETATM    6  C4  UNL     1      85.863 -52.629 -26.305  1.00  0.00     0.088 A 
HETATM    7  C5  UNL     1      85.421 -53.755 -25.860  1.00  0.00    -0.011 A 
HETATM    8  C6  UNL     1      85.817 -55.052 -26.488  1.00  0.00     0.034 A 
HETATM    9  C7  UNL     1      86.630 -54.969 -27.504  1.00  0.00     0.135 A 
HETATM   10  O3  UNL     1      87.103 -53.766 -27.979  1.00  0.00    -0.357 OA
HETATM   11  C8  UNL     1      86.792 -52.530 -27.464  1.00  0.00     0.240 A 
ENDROOT
TORSDOF 0
ENDMDL
