MODEL 5
REMARK VINA RESULT: -6.025975057      1.414      2.354
REMARK  0 active torsions:
REMARK  status: ('A' for Active; 'I' for Inactive)
ROOT
HETATM    1  C1  UNL     1      84.635 -56.269 -24.631  1.00  0.00     0.025 C 
HETATM    2  C2  UNL     1      84.547 -54.930 -25.304  1.00  0.00     0.117 A 
HETATM    3  C3  UNL     1      84.480 -53.799 -24.387  1.00  0.00     0.272 A 
HETATM    4  O1  UNL     1      83.606 -53.649 -23.453  1.00  0.00    -0.264 OA
HETATM    5  O2  UNL     1      85.505 -52.953 -24.711  1.00  0.00    -0.280 OA
HETATM    6  C4  UNL     1      86.229 -53.514 -25.814  1.00  0.00     0.088 A 
HETATM    7  C5  UNL     1      85.707 -54.637 -26.171  1.00  0.00    -0.011 A 
HETATM    8  C6  UNL     1      86.271 -55.435 -27.303  1.00  0.00     0.034 A 
HETATM    9  C7  UNL     1      87.314 -54.925 -27.896  1.00  0.00     0.135 A 
HETATM   10  O3  UNL     1      87.872 -53.724 -27.514  1.00  0.00    -0.357 OA
HETATM   11  C8  UNL     1      87.419 -52.928 -26.488  1.00  0.00     0.240 A 
ENDROOT
TORSDOF 0
ENDMDL
