MODEL 4
REMARK VINA RESULT: -6.261575848      1.241      2.246
REMARK  0 active torsions:
REMARK  status: ('A' for Active; 'I' for Inactive)
ROOT
HETATM    1  C1  UNL     1      84.970 -56.114 -25.484  1.00  0.00     0.025 C 
HETATM    2  C2  UNL     1      85.081 -54.829 -26.252  1.00  0.00     0.117 A 
HETATM    3  C3  UNL     1      84.968 -53.628 -25.435  1.00  0.00     0.272 A 
HETATM    4  O1  UNL     1      83.984 -53.349 -24.653  1.00  0.00    -0.264 OA
HETATM    5  O2  UNL     1      86.089 -52.878 -25.661  1.00  0.00    -0.280 OA
HETATM    6  C4  UNL     1      86.919 -53.569 -26.604  1.00  0.00     0.088 A 
HETATM    7  C5  UNL     1      86.371 -54.681 -26.957  1.00  0.00    -0.011 A 
HETATM    8  C6  UNL     1      87.029 -55.600 -27.935  1.00  0.00     0.034 A 
HETATM    9  C7  UNL     1      88.181 -55.206 -28.402  1.00  0.00     0.135 A 
HETATM   10  O3  UNL     1      88.768 -54.017 -28.024  1.00  0.00    -0.357 OA
HETATM   11  C8  UNL     1      88.234 -53.116 -27.133  1.00  0.00     0.240 A 
ENDROOT
TORSDOF 0
ENDMDL
