MODEL 4
REMARK VINA RESULT: -10.777114603      1.647      8.030
REMARK  9 active torsions:
REMARK  status: ('A' for Active; 'I' for Inactive)
REMARK    1  A    between atoms: C1_2  and  C2_6 
REMARK    2  A    between atoms: C5_9  and  O1_10 
REMARK    3  A    between atoms: O1_10  and  C6_11 
REMARK    4  A    between atoms: C9_14  and  N3_15 
REMARK    5  A    between atoms: N3_15  and  S1_17 
REMARK    6  A    between atoms: S1_17  and  C10_20 
REMARK    7  A    between atoms: C20_30  and  O4_31 
REMARK    8  A    between atoms: O4_31  and  C21_32 
REMARK    9  A    between atoms: C24_35  and  C25_36 
ROOT
HETATM    1  C6  UNL     1      16.845  65.006  22.060  1.00  0.00     0.150 A 
HETATM    2  C7  UNL     1      15.559  64.879  22.521  1.00  0.00     0.059 A 
HETATM    3  C8  UNL     1      15.339  64.263  23.728  1.00  0.00     0.039 A 
HETATM    4  C9  UNL     1      16.411  63.768  24.486  1.00  0.00     0.094 A 
HETATM    5  C20 UNL     1      17.676  63.908  24.006  1.00  0.00     0.177 A 
HETATM    6  N6  UNL     1      17.856  64.532  22.792  1.00  0.00    -0.315 N 
ATOM      7  H6  UNL     1      18.806  64.637  22.434  1.00  0.00     0.170 HD
ENDROOT
BRANCH   4   8
HETATM    8  N3  UNL     1      16.181  63.126  25.726  1.00  0.00    -0.276 N 
ATOM      9  H3  UNL     1      16.256  62.110  25.763  1.00  0.00     0.179 HD
BRANCH   8  10
HETATM   10  S1  UNL     1      15.782  63.965  27.182  1.00  0.00     0.263 S 
HETATM   11  O2  UNL     1      15.376  65.362  26.840  1.00  0.00    -0.200 OA
HETATM   12  O3  UNL     1      17.013  63.938  28.061  1.00  0.00    -0.200 OA
BRANCH  10  13
HETATM   13  C10 UNL     1      14.487  63.145  28.040  1.00  0.00     0.080 A 
HETATM   14  C11 UNL     1      14.544  63.005  29.409  1.00  0.00     0.026 A 
HETATM   15  C12 UNL     1      13.557  62.371  30.134  1.00  0.00     0.014 A 
HETATM   16  C13 UNL     1      12.469  61.853  29.483  1.00  0.00    -0.026 A 
HETATM   17  C14 UNL     1      11.476  61.218  30.189  1.00  0.00     0.012 A 
HETATM   18  C18 UNL     1      12.374  61.974  28.112  1.00  0.00    -0.025 A 
HETATM   19  C15 UNL     1      10.364  60.683  29.575  1.00  0.00     0.001 A 
HETATM   20  C16 UNL     1      10.262  60.798  28.205  1.00  0.00     0.001 A 
HETATM   21  C17 UNL     1      11.268  61.442  27.491  1.00  0.00     0.012 A 
HETATM   22  C19 UNL     1      13.388  62.621  27.394  1.00  0.00     0.037 A 
ENDBRANCH  10  13
ENDBRANCH   8  10
ENDBRANCH   4   8
BRANCH   5  23
HETATM   23  O4  UNL     1      18.786  63.453  24.690  1.00  0.00    -0.291 OA
BRANCH  23  24
HETATM   24  C21 UNL     1      18.935  62.059  24.814  1.00  0.00     0.077 A 
HETATM   25  C22 UNL     1      19.382  61.429  25.932  1.00  0.00     0.038 A 
HETATM   26  C23 UNL     1      19.498  60.044  25.956  1.00  0.00     0.017 A 
HETATM   27  C24 UNL     1      19.184  59.230  24.897  1.00  0.00     0.005 A 
HETATM   28  C26 UNL     1      18.725  59.910  23.761  1.00  0.00     0.017 A 
HETATM   29  C27 UNL     1      18.600  61.266  23.706  1.00  0.00     0.038 A 
BRANCH  27  30
HETATM   30  C25 UNL     1      19.294  57.783  24.891  1.00  0.00     0.120 C 
HETATM   31  N4  UNL     1      18.433  57.023  24.067  1.00  0.00    -0.082 NA
HETATM   32  N5  UNL     1      20.149  57.182  25.612  1.00  0.00    -0.387 N 
ATOM     33  H52 UNL     1      20.770  57.731  26.207  1.00  0.00     0.157 HD
ATOM     34  H51 UNL     1      20.226  56.165  25.607  1.00  0.00     0.157 HD
ENDBRANCH  27  30
ENDBRANCH  23  24
ENDBRANCH   5  23
BRANCH   1  35
HETATM   35  O1  UNL     1      17.160  65.615  20.850  1.00  0.00    -0.294 OA
BRANCH  35  36
HETATM   36  C5  UNL     1      16.200  66.195  20.035  1.00  0.00     0.077 A 
HETATM   37  C4  UNL     1      15.835  67.514  20.131  1.00  0.00     0.038 A 
HETATM   38  C3  UNL     1      14.879  68.032  19.296  1.00  0.00     0.017 A 
HETATM   39  C2  UNL     1      14.229  67.264  18.316  1.00  0.00     0.005 A 
HETATM   40  C29 UNL     1      14.627  65.949  18.256  1.00  0.00     0.017 A 
HETATM   41  C28 UNL     1      15.590  65.411  19.091  1.00  0.00     0.038 A 
BRANCH  39  42
HETATM   42  C1  UNL     1      13.223  67.867  17.459  1.00  0.00     0.120 C 
HETATM   43  N1  UNL     1      12.023  68.334  18.047  1.00  0.00    -0.082 NA
HETATM   44  N2  UNL     1      13.405  67.977  16.209  1.00  0.00    -0.387 N 
ATOM     45  H22 UNL     1      12.699  68.401  15.607  1.00  0.00     0.157 HD
ATOM     46  H21 UNL     1      14.270  67.641  15.785  1.00  0.00     0.157 HD
ENDBRANCH  39  42
ENDBRANCH  35  36
ENDBRANCH   1  35
TORSDOF 9
ENDMDL
