MODEL 6
REMARK VINA RESULT: -10.587539190      1.730      2.070
REMARK  9 active torsions:
REMARK  status: ('A' for Active; 'I' for Inactive)
REMARK    1  A    between atoms: C1_2  and  C2_6 
REMARK    2  A    between atoms: C5_9  and  O1_10 
REMARK    3  A    between atoms: O1_10  and  C6_11 
REMARK    4  A    between atoms: C9_14  and  N3_15 
REMARK    5  A    between atoms: N3_15  and  S1_17 
REMARK    6  A    between atoms: S1_17  and  C10_20 
REMARK    7  A    between atoms: C20_30  and  O4_31 
REMARK    8  A    between atoms: O4_31  and  C21_32 
REMARK    9  A    between atoms: C24_35  and  C25_36 
ROOT
HETATM    1  C6  UNL     1      16.464  62.799  23.336  1.00  0.00     0.150 A 
HETATM    2  C7  UNL     1      15.617  62.291  24.289  1.00  0.00     0.059 A 
HETATM    3  C8  UNL     1      14.536  63.036  24.690  1.00  0.00     0.039 A 
HETATM    4  C9  UNL     1      14.295  64.303  24.136  1.00  0.00     0.094 A 
HETATM    5  C20 UNL     1      15.149  64.783  23.194  1.00  0.00     0.177 A 
HETATM    6  N6  UNL     1      16.221  64.005  22.817  1.00  0.00    -0.315 N 
ATOM      7  H6  UNL     1      16.861  64.367  22.109  1.00  0.00     0.170 HD
ENDROOT
BRANCH   4   8
HETATM    8  N3  UNL     1      13.184  65.073  24.557  1.00  0.00    -0.276 N 
ATOM      9  H3  UNL     1      12.439  65.249  23.884  1.00  0.00     0.179 HD
BRANCH   8  10
HETATM   10  S1  UNL     1      13.019  65.733  26.144  1.00  0.00     0.263 S 
HETATM   11  O2  UNL     1      11.961  66.787  26.123  1.00  0.00    -0.200 OA
HETATM   12  O3  UNL     1      14.368  66.300  26.530  1.00  0.00    -0.200 OA
BRANCH  10  13
HETATM   13  C10 UNL     1      12.609  64.478  27.303  1.00  0.00     0.080 A 
HETATM   14  C11 UNL     1      13.220  64.449  28.537  1.00  0.00     0.026 A 
HETATM   15  C12 UNL     1      12.937  63.488  29.485  1.00  0.00     0.014 A 
HETATM   16  C13 UNL     1      12.014  62.515  29.205  1.00  0.00    -0.026 A 
HETATM   17  C14 UNL     1      11.720  61.550  30.138  1.00  0.00     0.012 A 
HETATM   18  C18 UNL     1      11.380  62.511  27.980  1.00  0.00    -0.025 A 
HETATM   19  C15 UNL     1      10.799  60.554  29.899  1.00  0.00     0.001 A 
HETATM   20  C16 UNL     1      10.160  60.540  28.676  1.00  0.00     0.001 A 
HETATM   21  C17 UNL     1      10.460  61.519  27.733  1.00  0.00     0.012 A 
HETATM   22  C19 UNL     1      11.683  63.495  27.031  1.00  0.00     0.037 A 
ENDBRANCH  10  13
ENDBRANCH   8  10
ENDBRANCH   4   8
BRANCH   5  23
HETATM   23  O4  UNL     1      14.982  66.017  22.596  1.00  0.00    -0.291 OA
BRANCH  23  24
HETATM   24  C21 UNL     1      15.816  66.315  21.502  1.00  0.00     0.077 A 
HETATM   25  C22 UNL     1      15.640  65.828  20.245  1.00  0.00     0.038 A 
HETATM   26  C23 UNL     1      16.521  66.178  19.229  1.00  0.00     0.017 A 
HETATM   27  C24 UNL     1      17.599  67.010  19.402  1.00  0.00     0.005 A 
HETATM   28  C26 UNL     1      17.752  67.495  20.708  1.00  0.00     0.017 A 
HETATM   29  C27 UNL     1      16.905  67.170  21.725  1.00  0.00     0.038 A 
BRANCH  27  30
HETATM   30  C25 UNL     1      18.536  67.394  18.363  1.00  0.00     0.120 C 
HETATM   31  N4  UNL     1      18.454  68.685  17.793  1.00  0.00    -0.082 NA
HETATM   32  N5  UNL     1      19.432  66.593  17.952  1.00  0.00    -0.387 N 
ATOM     33  H52 UNL     1      19.491  65.661  18.363  1.00  0.00     0.157 HD
ATOM     34  H51 UNL     1      20.091  66.863  17.221  1.00  0.00     0.157 HD
ENDBRANCH  27  30
ENDBRANCH  23  24
ENDBRANCH   5  23
BRANCH   1  35
HETATM   35  O1  UNL     1      17.581  62.114  22.872  1.00  0.00    -0.294 OA
BRANCH  35  36
HETATM   36  C5  UNL     1      18.161  61.070  23.576  1.00  0.00     0.077 A 
HETATM   37  C4  UNL     1      18.113  59.765  23.153  1.00  0.00     0.038 A 
HETATM   38  C3  UNL     1      18.707  58.775  23.892  1.00  0.00     0.017 A 
HETATM   39  C2  UNL     1      19.383  59.026  25.097  1.00  0.00     0.005 A 
HETATM   40  C29 UNL     1      19.406  60.347  25.481  1.00  0.00     0.017 A 
HETATM   41  C28 UNL     1      18.813  61.358  24.747  1.00  0.00     0.038 A 
BRANCH  39  42
HETATM   42  C1  UNL     1      19.993  57.935  25.837  1.00  0.00     0.120 C 
HETATM   43  N1  UNL     1      19.632  56.606  25.508  1.00  0.00    -0.082 NA
HETATM   44  N2  UNL     1      20.832  58.157  26.762  1.00  0.00    -0.387 N 
ATOM     45  H22 UNL     1      21.261  57.392  27.282  1.00  0.00     0.157 HD
ATOM     46  H21 UNL     1      21.093  59.115  26.999  1.00  0.00     0.157 HD
ENDBRANCH  39  42
ENDBRANCH  35  36
ENDBRANCH   1  35
TORSDOF 9
ENDMDL
