MODEL 1
REMARK VINA RESULT: -11.067186902      0.000      0.000
REMARK  9 active torsions:
REMARK  status: ('A' for Active; 'I' for Inactive)
REMARK    1  A    between atoms: C1_2  and  C2_6 
REMARK    2  A    between atoms: C5_9  and  O1_10 
REMARK    3  A    between atoms: O1_10  and  C6_11 
REMARK    4  A    between atoms: C9_14  and  N3_15 
REMARK    5  A    between atoms: N3_15  and  S1_17 
REMARK    6  A    between atoms: S1_17  and  C10_20 
REMARK    7  A    between atoms: C20_30  and  O4_31 
REMARK    8  A    between atoms: O4_31  and  C21_32 
REMARK    9  A    between atoms: C24_35  and  C25_36 
ROOT
HETATM    1  C6  UNL     1      16.714  62.936  23.114  1.00  0.00     0.150 A 
HETATM    2  C7  UNL     1      15.685  62.373  23.827  1.00  0.00     0.059 A 
HETATM    3  C8  UNL     1      14.605  63.149  24.169  1.00  0.00     0.039 A 
HETATM    4  C9  UNL     1      14.549  64.501  23.797  1.00  0.00     0.094 A 
HETATM    5  C20 UNL     1      15.581  65.033  23.090  1.00  0.00     0.177 A 
HETATM    6  N6  UNL     1      16.646  64.222  22.766  1.00  0.00    -0.315 N 
ATOM      7  H6  UNL     1      17.420  64.624  22.235  1.00  0.00     0.170 HD
ENDROOT
BRANCH   4   8
HETATM    8  N3  UNL     1      13.438  65.302  24.157  1.00  0.00    -0.276 N 
ATOM      9  H3  UNL     1      12.748  65.517  23.438  1.00  0.00     0.179 HD
BRANCH   8  10
HETATM   10  S1  UNL     1      13.185  65.935  25.743  1.00  0.00     0.263 S 
HETATM   11  O2  UNL     1      12.059  66.916  25.699  1.00  0.00    -0.200 OA
HETATM   12  O3  UNL     1      14.482  66.588  26.171  1.00  0.00    -0.200 OA
BRANCH  10  13
HETATM   13  C10 UNL     1      12.828  64.645  26.881  1.00  0.00     0.080 A 
HETATM   14  C11 UNL     1      13.702  64.367  27.908  1.00  0.00     0.026 A 
HETATM   15  C12 UNL     1      13.473  63.367  28.830  1.00  0.00     0.014 A 
HETATM   16  C13 UNL     1      12.336  62.609  28.735  1.00  0.00    -0.026 A 
HETATM   17  C14 UNL     1      12.092  61.609  29.644  1.00  0.00     0.012 A 
HETATM   18  C18 UNL     1      11.435  62.858  27.720  1.00  0.00    -0.025 A 
HETATM   19  C15 UNL     1      10.961  60.824  29.587  1.00  0.00     0.001 A 
HETATM   20  C16 UNL     1      10.055  61.064  28.575  1.00  0.00     0.001 A 
HETATM   21  C17 UNL     1      10.304  62.077  27.655  1.00  0.00     0.012 A 
HETATM   22  C19 UNL     1      11.687  63.878  26.794  1.00  0.00     0.037 A 
ENDBRANCH  10  13
ENDBRANCH   8  10
ENDBRANCH   4   8
BRANCH   5  23
HETATM   23  O4  UNL     1      15.603  66.352  22.681  1.00  0.00    -0.291 OA
BRANCH  23  24
HETATM   24  C21 UNL     1      14.995  66.648  21.447  1.00  0.00     0.077 A 
HETATM   25  C22 UNL     1      15.309  66.045  20.269  1.00  0.00     0.038 A 
HETATM   26  C23 UNL     1      14.655  66.410  19.099  1.00  0.00     0.017 A 
HETATM   27  C24 UNL     1      13.676  67.370  19.036  1.00  0.00     0.005 A 
HETATM   28  C26 UNL     1      13.375  67.972  20.265  1.00  0.00     0.017 A 
HETATM   29  C27 UNL     1      14.000  67.637  21.429  1.00  0.00     0.038 A 
BRANCH  27  30
HETATM   30  C25 UNL     1      12.975  67.773  17.831  1.00  0.00     0.120 C 
HETATM   31  N4  UNL     1      13.714  68.213  16.709  1.00  0.00    -0.082 NA
HETATM   32  N5  UNL     1      11.707  67.739  17.761  1.00  0.00    -0.387 N 
ATOM     33  H52 UNL     1      11.174  67.421  18.570  1.00  0.00     0.157 HD
ATOM     34  H51 UNL     1      11.215  68.022  16.914  1.00  0.00     0.157 HD
ENDBRANCH  27  30
ENDBRANCH  23  24
ENDBRANCH   5  23
BRANCH   1  35
HETATM   35  O1  UNL     1      17.844  62.225  22.727  1.00  0.00    -0.294 OA
BRANCH  35  36
HETATM   36  C5  UNL     1      18.352  61.169  23.468  1.00  0.00     0.077 A 
HETATM   37  C4  UNL     1      18.318  59.867  23.035  1.00  0.00     0.038 A 
HETATM   38  C3  UNL     1      18.838  58.864  23.812  1.00  0.00     0.017 A 
HETATM   39  C2  UNL     1      19.420  59.100  25.068  1.00  0.00     0.005 A 
HETATM   40  C29 UNL     1      19.431  60.418  25.461  1.00  0.00     0.017 A 
HETATM   41  C28 UNL     1      18.912  61.442  24.688  1.00  0.00     0.038 A 
BRANCH  39  42
HETATM   42  C1  UNL     1      19.954  57.996  25.848  1.00  0.00     0.120 C 
HETATM   43  N1  UNL     1      19.553  56.678  25.522  1.00  0.00    -0.082 NA
HETATM   44  N2  UNL     1      20.762  58.198  26.805  1.00  0.00    -0.387 N 
ATOM     45  H22 UNL     1      21.137  57.424  27.352  1.00  0.00     0.157 HD
ATOM     46  H21 UNL     1      21.051  59.148  27.039  1.00  0.00     0.157 HD
ENDBRANCH  39  42
ENDBRANCH  35  36
ENDBRANCH   1  35
TORSDOF 9
ENDMDL
