MODEL 14
REMARK VINA RESULT: -10.228239946      2.763      9.134
REMARK  9 active torsions:
REMARK  status: ('A' for Active; 'I' for Inactive)
REMARK    1  A    between atoms: C1_2  and  C2_6 
REMARK    2  A    between atoms: C5_9  and  O1_10 
REMARK    3  A    between atoms: O1_10  and  C6_11 
REMARK    4  A    between atoms: C9_14  and  N3_15 
REMARK    5  A    between atoms: N3_15  and  S1_17 
REMARK    6  A    between atoms: S1_17  and  C10_20 
REMARK    7  A    between atoms: C20_30  and  O4_31 
REMARK    8  A    between atoms: O4_31  and  C21_32 
REMARK    9  A    between atoms: C24_35  and  C25_36 
ROOT
HETATM    1  C6  UNL     1      15.018  63.165  24.532  1.00  0.00     0.150 A 
HETATM    2  C7  UNL     1      14.808  64.455  24.113  1.00  0.00     0.059 A 
HETATM    3  C8  UNL     1      15.624  64.983  23.143  1.00  0.00     0.039 A 
HETATM    4  C9  UNL     1      16.658  64.219  22.583  1.00  0.00     0.094 A 
HETATM    5  C20 UNL     1      16.844  62.943  23.016  1.00  0.00     0.177 A 
HETATM    6  N6  UNL     1      16.005  62.449  23.990  1.00  0.00    -0.315 N 
ATOM      7  H6  UNL     1      16.145  61.491  24.313  1.00  0.00     0.170 HD
ENDROOT
BRANCH   4   8
HETATM    8  N3  UNL     1      17.503  64.768  21.588  1.00  0.00    -0.276 N 
ATOM      9  H3  UNL     1      18.439  65.066  21.863  1.00  0.00     0.179 HD
BRANCH   8  10
HETATM   10  S1  UNL     1      17.039  64.964  19.936  1.00  0.00     0.263 S 
HETATM   11  O2  UNL     1      16.340  63.725  19.480  1.00  0.00    -0.200 OA
HETATM   12  O3  UNL     1      18.306  65.216  19.148  1.00  0.00    -0.200 OA
BRANCH  10  13
HETATM   13  C10 UNL     1      15.994  66.362  19.743  1.00  0.00     0.080 A 
HETATM   14  C11 UNL     1      16.221  67.503  20.481  1.00  0.00     0.026 A 
HETATM   15  C12 UNL     1      15.433  68.630  20.370  1.00  0.00     0.014 A 
HETATM   16  C13 UNL     1      14.378  68.632  19.497  1.00  0.00    -0.026 A 
HETATM   17  C14 UNL     1      13.583  69.746  19.374  1.00  0.00     0.012 A 
HETATM   18  C18 UNL     1      14.118  67.509  18.739  1.00  0.00    -0.025 A 
HETATM   19  C15 UNL     1      12.512  69.793  18.508  1.00  0.00     0.001 A 
HETATM   20  C16 UNL     1      12.244  68.674  17.747  1.00  0.00     0.001 A 
HETATM   21  C17 UNL     1      13.051  67.547  17.873  1.00  0.00     0.012 A 
HETATM   22  C19 UNL     1      14.930  66.375  18.867  1.00  0.00     0.037 A 
ENDBRANCH  10  13
ENDBRANCH   8  10
ENDBRANCH   4   8
BRANCH   5  23
HETATM   23  O4  UNL     1      17.835  62.123  22.515  1.00  0.00    -0.291 OA
BRANCH  23  24
HETATM   24  C21 UNL     1      18.372  61.162  23.391  1.00  0.00     0.077 A 
HETATM   25  C22 UNL     1      18.984  61.451  24.571  1.00  0.00     0.038 A 
HETATM   26  C23 UNL     1      19.487  60.430  25.368  1.00  0.00     0.017 A 
HETATM   27  C24 UNL     1      19.413  59.098  25.045  1.00  0.00     0.005 A 
HETATM   28  C26 UNL     1      18.777  58.833  23.824  1.00  0.00     0.017 A 
HETATM   29  C27 UNL     1      18.273  59.812  23.021  1.00  0.00     0.038 A 
BRANCH  27  30
HETATM   30  C25 UNL     1      19.928  58.010  25.855  1.00  0.00     0.120 C 
HETATM   31  N4  UNL     1      19.535  56.682  25.568  1.00  0.00    -0.082 NA
HETATM   32  N5  UNL     1      20.727  58.223  26.818  1.00  0.00    -0.387 N 
ATOM     33  H52 UNL     1      21.010  59.181  27.025  1.00  0.00     0.157 HD
ATOM     34  H51 UNL     1      21.089  57.458  27.387  1.00  0.00     0.157 HD
ENDBRANCH  27  30
ENDBRANCH  23  24
ENDBRANCH   5  23
BRANCH   1  35
HETATM   35  O1  UNL     1      14.241  62.551  25.509  1.00  0.00    -0.294 OA
BRANCH  35  36
HETATM   36  C5  UNL     1      14.422  62.788  26.863  1.00  0.00     0.077 A 
HETATM   37  C4  UNL     1      15.533  63.412  27.372  1.00  0.00     0.038 A 
HETATM   38  C3  UNL     1      15.655  63.619  28.722  1.00  0.00     0.017 A 
HETATM   39  C2  UNL     1      14.676  63.216  29.644  1.00  0.00     0.005 A 
HETATM   40  C29 UNL     1      13.581  62.595  29.090  1.00  0.00     0.017 A 
HETATM   41  C28 UNL     1      13.442  62.379  27.730  1.00  0.00     0.038 A 
BRANCH  39  42
HETATM   42  C1  UNL     1      14.860  63.463  31.064  1.00  0.00     0.120 C 
HETATM   43  N1  UNL     1      13.974  64.353  31.718  1.00  0.00    -0.082 NA
HETATM   44  N2  UNL     1      15.792  62.899  31.714  1.00  0.00    -0.387 N 
ATOM     45  H22 UNL     1      15.921  63.073  32.711  1.00  0.00     0.157 HD
ATOM     46  H21 UNL     1      16.430  62.258  31.243  1.00  0.00     0.157 HD
ENDBRANCH  39  42
ENDBRANCH  35  36
ENDBRANCH   1  35
TORSDOF 9
ENDMDL
