MODEL 4
REMARK VINA RESULT: -10.119505099      3.291      8.815
REMARK  9 active torsions:
REMARK  status: ('A' for Active; 'I' for Inactive)
REMARK    1  A    between atoms: C1_2  and  C2_6 
REMARK    2  A    between atoms: C5_9  and  O1_10 
REMARK    3  A    between atoms: O1_10  and  C6_11 
REMARK    4  A    between atoms: C9_14  and  N3_15 
REMARK    5  A    between atoms: N3_15  and  S1_17 
REMARK    6  A    between atoms: S1_17  and  C10_20 
REMARK    7  A    between atoms: C16_27  and  O4_28 
REMARK    8  A    between atoms: O4_28  and  C17_29 
REMARK    9  A    between atoms: C20_32  and  C21_33 
ROOT
HETATM    1  C6  UNL     1      16.878  63.096  23.516  1.00  0.00     0.150 A 
HETATM    2  C7  UNL     1      15.958  62.454  24.316  1.00  0.00     0.059 A 
HETATM    3  C8  UNL     1      14.895  63.162  24.829  1.00  0.00     0.039 A 
HETATM    4  C9  UNL     1      14.761  64.525  24.530  1.00  0.00     0.094 A 
HETATM    5  C16 UNL     1      15.687  65.142  23.736  1.00  0.00     0.177 A 
HETATM    6  N6  UNL     1      16.725  64.386  23.253  1.00  0.00    -0.315 N 
ATOM      7  H6  UNL     1      17.418  64.842  22.659  1.00  0.00     0.170 HD
ENDROOT
BRANCH   1   8
HETATM    8  O1  UNL     1      17.957  62.397  22.990  1.00  0.00    -0.294 OA
BRANCH   8   9
HETATM    9  C5  UNL     1      18.470  61.338  23.754  1.00  0.00     0.077 A 
HETATM   10  C4  UNL     1      18.356  60.033  23.330  1.00  0.00     0.038 A 
HETATM   11  C3  UNL     1      18.860  58.993  24.079  1.00  0.00     0.017 A 
HETATM   12  C2  UNL     1      19.508  59.195  25.298  1.00  0.00     0.005 A 
HETATM   13  C25 UNL     1      19.617  60.503  25.711  1.00  0.00     0.017 A 
HETATM   14  C24 UNL     1      19.106  61.563  24.953  1.00  0.00     0.038 A 
BRANCH  12  15
HETATM   15  C1  UNL     1      20.027  58.065  26.056  1.00  0.00     0.120 C 
HETATM   16  N1  UNL     1      19.758  56.748  25.556  1.00  0.00    -0.082 NA
HETATM   17  N2  UNL     1      20.701  58.168  27.128  1.00  0.00    -0.387 N 
ATOM     18  H22 UNL     1      21.065  57.376  27.660  1.00  0.00     0.157 HD
ATOM     19  H21 UNL     1      20.892  59.105  27.484  1.00  0.00     0.157 HD
ENDBRANCH  12  15
ENDBRANCH   8   9
ENDBRANCH   1   8
BRANCH   5  20
HETATM   20  O4  UNL     1      15.641  66.480  23.398  1.00  0.00    -0.291 OA
BRANCH  20  21
HETATM   21  C17 UNL     1      15.154  66.835  22.151  1.00  0.00     0.077 A 
HETATM   22  C18 UNL     1      16.047  67.307  21.191  1.00  0.00     0.038 A 
HETATM   23  C19 UNL     1      15.603  67.660  19.963  1.00  0.00     0.017 A 
HETATM   24  C20 UNL     1      14.253  67.555  19.654  1.00  0.00     0.005 A 
HETATM   25  C22 UNL     1      13.375  67.092  20.592  1.00  0.00     0.017 A 
HETATM   26  C23 UNL     1      13.837  66.731  21.849  1.00  0.00     0.038 A 
BRANCH  24  27
HETATM   27  C21 UNL     1      13.854  67.954  18.312  1.00  0.00     0.120 C 
HETATM   28  N4  UNL     1      14.649  68.901  17.560  1.00  0.00    -0.082 NA
HETATM   29  N5  UNL     1      12.795  67.466  17.793  1.00  0.00    -0.387 N 
ATOM     30  H52 UNL     1      12.235  66.798  18.323  1.00  0.00     0.157 HD
ATOM     31  H51 UNL     1      12.516  67.746  16.853  1.00  0.00     0.157 HD
ENDBRANCH  24  27
ENDBRANCH  20  21
ENDBRANCH   5  20
BRANCH   4  32
HETATM   32  N3  UNL     1      13.631  65.199  25.046  1.00  0.00    -0.276 N 
ATOM     33  H3  UNL     1      13.016  65.659  24.375  1.00  0.00     0.179 HD
BRANCH  32  34
HETATM   34  S1  UNL     1      13.209  65.307  26.698  1.00  0.00     0.263 S 
HETATM   35  O2  UNL     1      14.443  65.290  27.579  1.00  0.00    -0.200 OA
HETATM   36  O3  UNL     1      12.466  66.613  26.940  1.00  0.00    -0.200 OA
BRANCH  34  37
HETATM   37  C10 UNL     1      12.169  64.018  27.250  1.00  0.00     0.080 A 
HETATM   38  C11 UNL     1      10.863  64.334  27.636  1.00  0.00     0.028 A 
HETATM   39  C12 UNL     1       9.990  63.386  28.096  1.00  0.00     0.044 A 
HETATM   40  C13 UNL     1      10.417  62.077  28.178  1.00  0.00     0.116 A 
HETATM   41  F1  UNL     1       9.577  61.116  28.630  1.00  0.00    -0.206 F 
HETATM   42  C14 UNL     1      11.682  61.720  27.814  1.00  0.00     0.044 A 
HETATM   43  C15 UNL     1      12.546  62.701  27.351  1.00  0.00     0.028 A 
ENDBRANCH  34  37
ENDBRANCH  32  34
ENDBRANCH   4  32
TORSDOF 9
ENDMDL
