MODEL 5
REMARK VINA RESULT: -10.077088742      3.078      7.874
REMARK  9 active torsions:
REMARK  status: ('A' for Active; 'I' for Inactive)
REMARK    1  A    between atoms: C1_2  and  C2_6 
REMARK    2  A    between atoms: C5_9  and  O1_10 
REMARK    3  A    between atoms: O1_10  and  C6_11 
REMARK    4  A    between atoms: C9_14  and  N3_15 
REMARK    5  A    between atoms: N3_15  and  S1_17 
REMARK    6  A    between atoms: S1_17  and  C10_20 
REMARK    7  A    between atoms: C16_27  and  O4_28 
REMARK    8  A    between atoms: O4_28  and  C17_29 
REMARK    9  A    between atoms: C20_32  and  C21_33 
ROOT
HETATM    1  C6  UNL     1      16.510  64.329  22.050  1.00  0.00     0.150 A 
HETATM    2  C7  UNL     1      15.419  64.878  22.689  1.00  0.00     0.059 A 
HETATM    3  C8  UNL     1      15.395  64.929  24.065  1.00  0.00     0.039 A 
HETATM    4  C9  UNL     1      16.479  64.422  24.796  1.00  0.00     0.094 A 
HETATM    5  C16 UNL     1      17.548  63.880  24.141  1.00  0.00     0.177 A 
HETATM    6  N6  UNL     1      17.517  63.857  22.769  1.00  0.00    -0.315 N 
ATOM      7  H6  UNL     1      18.314  63.454  22.276  1.00  0.00     0.170 HD
ENDROOT
BRANCH   1   8
HETATM    8  O1  UNL     1      16.551  64.271  20.663  1.00  0.00    -0.294 OA
BRANCH   8   9
HETATM    9  C5  UNL     1      16.223  65.440  19.960  1.00  0.00     0.077 A 
HETATM   10  C4  UNL     1      15.163  65.469  19.081  1.00  0.00     0.038 A 
HETATM   11  C3  UNL     1      14.841  66.617  18.391  1.00  0.00     0.017 A 
HETATM   12  C2  UNL     1      15.557  67.804  18.539  1.00  0.00     0.005 A 
HETATM   13  C25 UNL     1      16.613  67.764  19.421  1.00  0.00     0.017 A 
HETATM   14  C24 UNL     1      16.945  66.600  20.123  1.00  0.00     0.038 A 
BRANCH  12  15
HETATM   15  C1  UNL     1      15.179  68.995  17.790  1.00  0.00     0.120 C 
HETATM   16  N1  UNL     1      13.798  69.146  17.433  1.00  0.00    -0.082 NA
HETATM   17  N2  UNL     1      15.988  69.908  17.434  1.00  0.00    -0.387 N 
ATOM     18  H22 UNL     1      15.723  70.742  16.909  1.00  0.00     0.157 HD
ATOM     19  H21 UNL     1      16.970  69.800  17.688  1.00  0.00     0.157 HD
ENDBRANCH  12  15
ENDBRANCH   8   9
ENDBRANCH   1   8
BRANCH   5  20
HETATM   20  O4  UNL     1      18.653  63.349  24.778  1.00  0.00    -0.291 OA
BRANCH  20  21
HETATM   21  C17 UNL     1      18.819  61.974  24.786  1.00  0.00     0.077 A 
HETATM   22  C18 UNL     1      19.553  61.392  25.818  1.00  0.00     0.038 A 
HETATM   23  C19 UNL     1      19.731  60.052  25.854  1.00  0.00     0.017 A 
HETATM   24  C20 UNL     1      19.185  59.249  24.861  1.00  0.00     0.005 A 
HETATM   25  C22 UNL     1      18.465  59.816  23.848  1.00  0.00     0.017 A 
HETATM   26  C23 UNL     1      18.285  61.191  23.817  1.00  0.00     0.038 A 
BRANCH  24  27
HETATM   27  C21 UNL     1      19.422  57.817  24.971  1.00  0.00     0.120 C 
HETATM   28  N4  UNL     1      18.654  56.882  24.178  1.00  0.00    -0.082 NA
HETATM   29  N5  UNL     1      20.312  57.381  25.775  1.00  0.00    -0.387 N 
ATOM     30  H52 UNL     1      20.854  58.041  26.334  1.00  0.00     0.157 HD
ATOM     31  H51 UNL     1      20.479  56.378  25.852  1.00  0.00     0.157 HD
ENDBRANCH  24  27
ENDBRANCH  20  21
ENDBRANCH   5  20
BRANCH   4  32
HETATM   32  N3  UNL     1      16.425  64.533  26.204  1.00  0.00    -0.276 N 
ATOM     33  H3  UNL     1      16.809  65.382  26.620  1.00  0.00     0.179 HD
BRANCH  32  34
HETATM   34  S1  UNL     1      15.772  63.367  27.267  1.00  0.00     0.263 S 
HETATM   35  O2  UNL     1      16.167  61.964  26.849  1.00  0.00    -0.200 OA
HETATM   36  O3  UNL     1      16.305  63.615  28.671  1.00  0.00    -0.200 OA
BRANCH  34  37
HETATM   37  C10 UNL     1      14.029  63.398  27.370  1.00  0.00     0.080 A 
HETATM   38  C11 UNL     1      13.367  64.600  27.102  1.00  0.00     0.028 A 
HETATM   39  C12 UNL     1      12.005  64.714  27.177  1.00  0.00     0.044 A 
HETATM   40  C13 UNL     1      11.267  63.603  27.528  1.00  0.00     0.116 A 
HETATM   41  F1  UNL     1       9.918  63.683  27.611  1.00  0.00    -0.206 F 
HETATM   42  C14 UNL     1      11.868  62.408  27.799  1.00  0.00     0.044 A 
HETATM   43  C15 UNL     1      13.249  62.322  27.716  1.00  0.00     0.028 A 
ENDBRANCH  34  37
ENDBRANCH  32  34
ENDBRANCH   4  32
TORSDOF 9
ENDMDL
