MODEL 8
REMARK VINA RESULT: -9.825833756      3.162      8.042
REMARK  9 active torsions:
REMARK  status: ('A' for Active; 'I' for Inactive)
REMARK    1  A    between atoms: C1_2  and  C2_6 
REMARK    2  A    between atoms: C5_9  and  O1_10 
REMARK    3  A    between atoms: O1_10  and  C6_11 
REMARK    4  A    between atoms: C9_14  and  N3_15 
REMARK    5  A    between atoms: N3_15  and  S1_17 
REMARK    6  A    between atoms: S1_17  and  C10_20 
REMARK    7  A    between atoms: C16_27  and  O4_28 
REMARK    8  A    between atoms: O4_28  and  C17_29 
REMARK    9  A    between atoms: C20_32  and  C21_33 
ROOT
HETATM    1  C6  UNL     1      16.125  64.739  22.092  1.00  0.00     0.150 A 
HETATM    2  C7  UNL     1      14.991  65.081  22.797  1.00  0.00     0.059 A 
HETATM    3  C8  UNL     1      15.020  65.069  24.174  1.00  0.00     0.039 A 
HETATM    4  C9  UNL     1      16.200  64.710  24.839  1.00  0.00     0.094 A 
HETATM    5  C16 UNL     1      17.312  64.371  24.120  1.00  0.00     0.177 A 
HETATM    6  N6  UNL     1      17.225  64.401  22.751  1.00  0.00    -0.315 N 
ATOM      7  H6  UNL     1      18.052  64.150  22.209  1.00  0.00     0.170 HD
ENDROOT
BRANCH   1   8
HETATM    8  O1  UNL     1      16.114  64.746  20.703  1.00  0.00    -0.294 OA
BRANCH   8   9
HETATM    9  C5  UNL     1      16.068  65.996  20.067  1.00  0.00     0.077 A 
HETATM   10  C4  UNL     1      14.937  66.416  19.405  1.00  0.00     0.038 A 
HETATM   11  C3  UNL     1      14.892  67.643  18.781  1.00  0.00     0.017 A 
HETATM   12  C2  UNL     1      15.974  68.523  18.781  1.00  0.00     0.005 A 
HETATM   13  C25 UNL     1      17.098  68.092  19.447  1.00  0.00     0.017 A 
HETATM   14  C24 UNL     1      17.149  66.846  20.082  1.00  0.00     0.038 A 
BRANCH  12  15
HETATM   15  C1  UNL     1      15.880  69.812  18.109  1.00  0.00     0.120 C 
HETATM   16  N1  UNL     1      14.887  70.736  18.575  1.00  0.00    -0.082 NA
HETATM   17  N2  UNL     1      16.618  70.172  17.139  1.00  0.00    -0.387 N 
ATOM     18  H22 UNL     1      16.553  71.075  16.668  1.00  0.00     0.157 HD
ATOM     19  H21 UNL     1      17.325  69.515  16.808  1.00  0.00     0.157 HD
ENDBRANCH  12  15
ENDBRANCH   8   9
ENDBRANCH   1   8
BRANCH   5  20
HETATM   20  O4  UNL     1      18.512  63.995  24.689  1.00  0.00    -0.291 OA
BRANCH  20  21
HETATM   21  C17 UNL     1      18.776  62.646  24.855  1.00  0.00     0.077 A 
HETATM   22  C18 UNL     1      18.298  61.746  23.904  1.00  0.00     0.038 A 
HETATM   23  C19 UNL     1      18.540  60.422  24.038  1.00  0.00     0.017 A 
HETATM   24  C20 UNL     1      19.266  59.953  25.125  1.00  0.00     0.005 A 
HETATM   25  C22 UNL     1      19.737  60.832  26.059  1.00  0.00     0.017 A 
HETATM   26  C23 UNL     1      19.485  62.188  25.915  1.00  0.00     0.038 A 
BRANCH  24  27
HETATM   27  C21 UNL     1      19.485  58.516  25.196  1.00  0.00     0.120 C 
HETATM   28  N4  UNL     1      18.959  57.640  24.171  1.00  0.00    -0.082 NA
HETATM   29  N5  UNL     1      20.144  58.021  26.171  1.00  0.00    -0.387 N 
ATOM     30  H52 UNL     1      20.515  58.639  26.894  1.00  0.00     0.157 HD
ATOM     31  H51 UNL     1      20.297  57.014  26.221  1.00  0.00     0.157 HD
ENDBRANCH  24  27
ENDBRANCH  20  21
ENDBRANCH   5  20
BRANCH   4  32
HETATM   32  N3  UNL     1      16.192  64.752  26.252  1.00  0.00    -0.276 N 
ATOM     33  H3  UNL     1      16.573  65.588  26.696  1.00  0.00     0.179 HD
BRANCH  32  34
HETATM   34  S1  UNL     1      15.597  63.523  27.277  1.00  0.00     0.263 S 
HETATM   35  O2  UNL     1      16.025  62.152  26.792  1.00  0.00    -0.200 OA
HETATM   36  O3  UNL     1      16.151  63.729  28.680  1.00  0.00    -0.200 OA
BRANCH  34  37
HETATM   37  C10 UNL     1      13.856  63.495  27.416  1.00  0.00     0.080 A 
HETATM   38  C11 UNL     1      13.230  62.282  27.715  1.00  0.00     0.028 A 
HETATM   39  C12 UNL     1      11.871  62.171  27.825  1.00  0.00     0.044 A 
HETATM   40  C13 UNL     1      11.098  63.297  27.634  1.00  0.00     0.116 A 
HETATM   41  F1  UNL     1       9.750  63.220  27.735  1.00  0.00    -0.206 F 
HETATM   42  C14 UNL     1      11.662  64.504  27.340  1.00  0.00     0.044 A 
HETATM   43  C15 UNL     1      13.042  64.586  27.234  1.00  0.00     0.028 A 
ENDBRANCH  34  37
ENDBRANCH  32  34
ENDBRANCH   4  32
TORSDOF 9
ENDMDL
