MODEL 7
REMARK VINA RESULT: -9.869947653      1.637      1.915
REMARK  9 active torsions:
REMARK  status: ('A' for Active; 'I' for Inactive)
REMARK    1  A    between atoms: C1_2  and  C2_6 
REMARK    2  A    between atoms: C5_9  and  O1_10 
REMARK    3  A    between atoms: O1_10  and  C6_11 
REMARK    4  A    between atoms: C9_14  and  N3_15 
REMARK    5  A    between atoms: N3_15  and  S1_17 
REMARK    6  A    between atoms: S1_17  and  C10_20 
REMARK    7  A    between atoms: C16_27  and  O4_28 
REMARK    8  A    between atoms: O4_28  and  C17_29 
REMARK    9  A    between atoms: C20_32  and  C21_33 
ROOT
HETATM    1  C6  UNL     1      16.534  64.052  26.677  1.00  0.00     0.150 A 
HETATM    2  C7  UNL     1      16.475  65.403  26.410  1.00  0.00     0.059 A 
HETATM    3  C8  UNL     1      16.921  65.874  25.195  1.00  0.00     0.039 A 
HETATM    4  C9  UNL     1      17.428  64.974  24.247  1.00  0.00     0.094 A 
HETATM    5  C16 UNL     1      17.480  63.639  24.535  1.00  0.00     0.177 A 
HETATM    6  N6  UNL     1      17.022  63.228  25.761  1.00  0.00    -0.315 N 
ATOM      7  H6  UNL     1      17.058  62.232  25.980  1.00  0.00     0.170 HD
ENDROOT
BRANCH   1   8
HETATM    8  O1  UNL     1      16.089  63.560  27.897  1.00  0.00    -0.294 OA
BRANCH   8   9
HETATM    9  C5  UNL     1      14.750  63.145  27.972  1.00  0.00     0.077 A 
HETATM   10  C4  UNL     1      14.275  62.469  29.073  1.00  0.00     0.038 A 
HETATM   11  C3  UNL     1      12.962  62.061  29.147  1.00  0.00     0.017 A 
HETATM   12  C2  UNL     1      12.044  62.305  28.125  1.00  0.00     0.005 A 
HETATM   13  C25 UNL     1      12.530  62.982  27.031  1.00  0.00     0.017 A 
HETATM   14  C24 UNL     1      13.864  63.398  26.951  1.00  0.00     0.038 A 
BRANCH  12  15
HETATM   15  C1  UNL     1      10.664  61.857  28.248  1.00  0.00     0.120 C 
HETATM   16  N1  UNL     1      10.435  60.459  28.471  1.00  0.00    -0.082 NA
HETATM   17  N2  UNL     1       9.651  62.621  28.171  1.00  0.00    -0.387 N 
ATOM     18  H22 UNL     1       8.684  62.307  28.257  1.00  0.00     0.157 HD
ATOM     19  H21 UNL     1       9.814  63.615  28.013  1.00  0.00     0.157 HD
ENDBRANCH  12  15
ENDBRANCH   8   9
ENDBRANCH   1   8
BRANCH   5  20
HETATM   20  O4  UNL     1      17.973  62.684  23.668  1.00  0.00    -0.291 OA
BRANCH  20  21
HETATM   21  C17 UNL     1      18.459  61.498  24.192  1.00  0.00     0.077 A 
HETATM   22  C18 UNL     1      19.225  61.542  25.355  1.00  0.00     0.038 A 
HETATM   23  C19 UNL     1      19.713  60.400  25.892  1.00  0.00     0.017 A 
HETATM   24  C20 UNL     1      19.453  59.178  25.285  1.00  0.00     0.005 A 
HETATM   25  C22 UNL     1      18.702  59.131  24.145  1.00  0.00     0.017 A 
HETATM   26  C23 UNL     1      18.204  60.306  23.600  1.00  0.00     0.038 A 
BRANCH  24  27
HETATM   27  C21 UNL     1      20.013  57.996  25.924  1.00  0.00     0.120 C 
HETATM   28  N4  UNL     1      19.787  56.681  25.365  1.00  0.00    -0.082 NA
HETATM   29  N5  UNL     1      20.708  58.119  26.987  1.00  0.00    -0.387 N 
ATOM     30  H52 UNL     1      20.868  59.046  27.382  1.00  0.00     0.157 HD
ATOM     31  H51 UNL     1      21.101  57.291  27.435  1.00  0.00     0.157 HD
ENDBRANCH  24  27
ENDBRANCH  20  21
ENDBRANCH   5  20
BRANCH   4  32
HETATM   32  N3  UNL     1      17.835  65.501  23.000  1.00  0.00    -0.276 N 
ATOM     33  H3  UNL     1      18.601  66.175  23.006  1.00  0.00     0.179 HD
BRANCH  32  34
HETATM   34  S1  UNL     1      17.154  65.102  21.485  1.00  0.00     0.263 S 
HETATM   35  O2  UNL     1      17.982  64.050  20.774  1.00  0.00    -0.200 OA
HETATM   36  O3  UNL     1      15.753  64.546  21.697  1.00  0.00    -0.200 OA
BRANCH  34  37
HETATM   37  C10 UNL     1      17.006  66.459  20.396  1.00  0.00     0.080 A 
HETATM   38  C11 UNL     1      15.790  66.650  19.732  1.00  0.00     0.028 A 
HETATM   39  C12 UNL     1      15.596  67.678  18.849  1.00  0.00     0.044 A 
HETATM   40  C13 UNL     1      16.637  68.551  18.612  1.00  0.00     0.116 A 
HETATM   41  F1  UNL     1      16.477  69.578  17.744  1.00  0.00    -0.206 F 
HETATM   42  C14 UNL     1      17.842  68.405  19.235  1.00  0.00     0.044 A 
HETATM   43  C15 UNL     1      18.010  67.355  20.124  1.00  0.00     0.028 A 
ENDBRANCH  34  37
ENDBRANCH  32  34
ENDBRANCH   4  32
TORSDOF 9
ENDMDL
