MODEL 1
REMARK VINA RESULT: -10.569813220      0.000      0.000
REMARK  9 active torsions:
REMARK  status: ('A' for Active; 'I' for Inactive)
REMARK    1  A    between atoms: C1_2  and  C2_6 
REMARK    2  A    between atoms: C5_9  and  O1_10 
REMARK    3  A    between atoms: O1_10  and  C6_11 
REMARK    4  A    between atoms: C9_14  and  N3_15 
REMARK    5  A    between atoms: N3_15  and  S1_17 
REMARK    6  A    between atoms: S1_17  and  C10_20 
REMARK    7  A    between atoms: C16_27  and  O4_28 
REMARK    8  A    between atoms: O4_28  and  C17_29 
REMARK    9  A    between atoms: C20_32  and  C21_33 
ROOT
HETATM    1  C6  UNL     1      15.192  64.222  26.152  1.00  0.00     0.150 A 
HETATM    2  C7  UNL     1      14.304  64.419  25.116  1.00  0.00     0.059 A 
HETATM    3  C8  UNL     1      14.733  64.259  23.817  1.00  0.00     0.039 A 
HETATM    4  C9  UNL     1      16.064  63.899  23.566  1.00  0.00     0.094 A 
HETATM    5  C16 UNL     1      16.927  63.712  24.609  1.00  0.00     0.177 A 
HETATM    6  N6  UNL     1      16.444  63.884  25.881  1.00  0.00    -0.315 N 
ATOM      7  H6  UNL     1      17.085  63.744  26.663  1.00  0.00     0.170 HD
ENDROOT
BRANCH   1   8
HETATM    8  O1  UNL     1      14.776  64.378  27.468  1.00  0.00    -0.294 OA
BRANCH   8   9
HETATM    9  C5  UNL     1      13.790  63.497  27.939  1.00  0.00     0.077 A 
HETATM   10  C4  UNL     1      13.848  62.980  29.214  1.00  0.00     0.038 A 
HETATM   11  C3  UNL     1      12.880  62.116  29.677  1.00  0.00     0.017 A 
HETATM   12  C2  UNL     1      11.797  61.718  28.893  1.00  0.00     0.005 A 
HETATM   13  C25 UNL     1      11.750  62.241  27.622  1.00  0.00     0.017 A 
HETATM   14  C24 UNL     1      12.731  63.119  27.147  1.00  0.00     0.038 A 
BRANCH  12  15
HETATM   15  C1  UNL     1      10.796  60.803  29.425  1.00  0.00     0.120 C 
HETATM   16  N1  UNL     1      10.640  60.741  30.850  1.00  0.00    -0.082 NA
HETATM   17  N2  UNL     1      10.052  60.059  28.713  1.00  0.00    -0.387 N 
ATOM     18  H22 UNL     1       9.350  59.418  29.085  1.00  0.00     0.157 HD
ATOM     19  H21 UNL     1      10.163  60.103  27.700  1.00  0.00     0.157 HD
ENDBRANCH  12  15
ENDBRANCH   8   9
ENDBRANCH   1   8
BRANCH   5  20
HETATM   20  O4  UNL     1      18.256  63.367  24.456  1.00  0.00    -0.291 OA
BRANCH  20  21
HETATM   21  C17 UNL     1      18.647  62.075  24.761  1.00  0.00     0.077 A 
HETATM   22  C18 UNL     1      19.359  61.849  25.938  1.00  0.00     0.038 A 
HETATM   23  C19 UNL     1      19.753  60.597  26.265  1.00  0.00     0.017 A 
HETATM   24  C20 UNL     1      19.451  59.530  25.428  1.00  0.00     0.005 A 
HETATM   25  C22 UNL     1      18.753  59.748  24.274  1.00  0.00     0.017 A 
HETATM   26  C23 UNL     1      18.351  61.034  23.945  1.00  0.00     0.038 A 
BRANCH  24  27
HETATM   27  C21 UNL     1      19.910  58.215  25.850  1.00  0.00     0.120 C 
HETATM   28  N4  UNL     1      19.543  57.033  25.101  1.00  0.00    -0.082 NA
HETATM   29  N5  UNL     1      20.643  58.102  26.889  1.00  0.00    -0.387 N 
ATOM     30  H52 UNL     1      20.903  58.936  27.416  1.00  0.00     0.157 HD
ATOM     31  H51 UNL     1      20.965  57.181  27.184  1.00  0.00     0.157 HD
ENDBRANCH  24  27
ENDBRANCH  20  21
ENDBRANCH   5  20
BRANCH   4  32
HETATM   32  N3  UNL     1      16.445  63.709  22.218  1.00  0.00    -0.276 N 
ATOM     33  H3  UNL     1      16.389  62.760  21.847  1.00  0.00     0.179 HD
BRANCH  32  34
HETATM   34  S1  UNL     1      16.992  64.932  21.160  1.00  0.00     0.263 S 
HETATM   35  O2  UNL     1      17.763  66.000  21.910  1.00  0.00    -0.200 OA
HETATM   36  O3  UNL     1      17.917  64.317  20.119  1.00  0.00    -0.200 OA
BRANCH  34  37
HETATM   37  C10 UNL     1      15.713  65.741  20.289  1.00  0.00     0.080 A 
HETATM   38  C11 UNL     1      15.642  65.578  18.903  1.00  0.00     0.028 A 
HETATM   39  C12 UNL     1      14.682  66.190  18.145  1.00  0.00     0.044 A 
HETATM   40  C13 UNL     1      13.754  66.993  18.775  1.00  0.00     0.116 A 
HETATM   41  F1  UNL     1      12.791  67.613  18.053  1.00  0.00    -0.206 F 
HETATM   42  C14 UNL     1      13.781  67.183  20.126  1.00  0.00     0.044 A 
HETATM   43  C15 UNL     1      14.766  66.551  20.869  1.00  0.00     0.028 A 
ENDBRANCH  34  37
ENDBRANCH  32  34
ENDBRANCH   4  32
TORSDOF 9
ENDMDL
