MODEL 6
REMARK VINA RESULT: -10.053581952      1.487      1.831
REMARK  9 active torsions:
REMARK  status: ('A' for Active; 'I' for Inactive)
REMARK    1  A    between atoms: C1_2  and  C2_6 
REMARK    2  A    between atoms: C5_9  and  O1_10 
REMARK    3  A    between atoms: O1_10  and  C6_11 
REMARK    4  A    between atoms: C9_14  and  N3_15 
REMARK    5  A    between atoms: N3_15  and  S1_17 
REMARK    6  A    between atoms: S1_17  and  C10_20 
REMARK    7  A    between atoms: C16_27  and  O4_28 
REMARK    8  A    between atoms: O4_28  and  C17_29 
REMARK    9  A    between atoms: C20_32  and  C21_33 
ROOT
HETATM    1  C6  UNL     1      15.458  63.299  25.597  1.00  0.00     0.150 A 
HETATM    2  C7  UNL     1      14.642  64.042  24.771  1.00  0.00     0.059 A 
HETATM    3  C8  UNL     1      15.016  64.254  23.463  1.00  0.00     0.039 A 
HETATM    4  C9  UNL     1      16.218  63.712  22.989  1.00  0.00     0.094 A 
HETATM    5  C16 UNL     1      17.013  62.982  23.827  1.00  0.00     0.177 A 
HETATM    6  N6  UNL     1      16.590  62.803  25.120  1.00  0.00    -0.315 N 
ATOM      7  H6  UNL     1      17.180  62.257  25.748  1.00  0.00     0.170 HD
ENDROOT
BRANCH   1   8
HETATM    8  O1  UNL     1      15.097  63.075  26.919  1.00  0.00    -0.294 OA
BRANCH   8   9
HETATM    9  C5  UNL     1      13.795  63.436  27.300  1.00  0.00     0.077 A 
HETATM   10  C4  UNL     1      13.510  64.706  27.749  1.00  0.00     0.038 A 
HETATM   11  C3  UNL     1      12.233  65.060  28.123  1.00  0.00     0.017 A 
HETATM   12  C2  UNL     1      11.163  64.166  28.069  1.00  0.00     0.005 A 
HETATM   13  C25 UNL     1      11.459  62.901  27.618  1.00  0.00     0.017 A 
HETATM   14  C24 UNL     1      12.756  62.536  27.238  1.00  0.00     0.038 A 
BRANCH  12  15
HETATM   15  C1  UNL     1       9.828  64.586  28.472  1.00  0.00     0.120 C 
HETATM   16  N1  UNL     1       9.594  64.811  29.869  1.00  0.00    -0.082 NA
HETATM   17  N2  UNL     1       8.858  64.766  27.671  1.00  0.00    -0.387 N 
ATOM     18  H22 UNL     1       7.923  65.059  27.953  1.00  0.00     0.157 HD
ATOM     19  H21 UNL     1       9.025  64.605  26.677  1.00  0.00     0.157 HD
ENDBRANCH  12  15
ENDBRANCH   8   9
ENDBRANCH   1   8
BRANCH   5  20
HETATM   20  O4  UNL     1      18.217  62.420  23.450  1.00  0.00    -0.291 OA
BRANCH  20  21
HETATM   21  C17 UNL     1      18.660  61.289  24.115  1.00  0.00     0.077 A 
HETATM   22  C18 UNL     1      18.433  60.040  23.539  1.00  0.00     0.038 A 
HETATM   23  C19 UNL     1      18.855  58.916  24.163  1.00  0.00     0.017 A 
HETATM   24  C20 UNL     1      19.516  59.002  25.381  1.00  0.00     0.005 A 
HETATM   25  C22 UNL     1      19.740  60.224  25.948  1.00  0.00     0.017 A 
HETATM   26  C23 UNL     1      19.306  61.373  25.303  1.00  0.00     0.038 A 
BRANCH  24  27
HETATM   27  C21 UNL     1      19.938  57.748  25.988  1.00  0.00     0.120 C 
HETATM   28  N4  UNL     1      19.623  56.484  25.359  1.00  0.00    -0.082 NA
HETATM   29  N5  UNL     1      20.591  57.762  27.085  1.00  0.00    -0.387 N 
ATOM     30  H52 UNL     1      20.813  58.653  27.529  1.00  0.00     0.157 HD
ATOM     31  H51 UNL     1      20.887  56.884  27.510  1.00  0.00     0.157 HD
ENDBRANCH  24  27
ENDBRANCH  20  21
ENDBRANCH   5  20
BRANCH   4  32
HETATM   32  N3  UNL     1      16.538  63.923  21.628  1.00  0.00    -0.276 N 
ATOM     33  H3  UNL     1      16.542  63.106  21.018  1.00  0.00     0.179 HD
BRANCH  32  34
HETATM   34  S1  UNL     1      16.917  65.431  20.921  1.00  0.00     0.263 S 
HETATM   35  O2  UNL     1      17.371  66.428  21.969  1.00  0.00    -0.200 OA
HETATM   36  O3  UNL     1      18.048  65.244  19.919  1.00  0.00    -0.200 OA
BRANCH  34  37
HETATM   37  C10 UNL     1      15.588  66.165  20.059  1.00  0.00     0.080 A 
HETATM   38  C11 UNL     1      15.551  66.048  18.666  1.00  0.00     0.028 A 
HETATM   39  C12 UNL     1      14.554  66.608  17.914  1.00  0.00     0.044 A 
HETATM   40  C13 UNL     1      13.555  67.307  18.557  1.00  0.00     0.116 A 
HETATM   41  F1  UNL     1      12.554  67.873  17.841  1.00  0.00    -0.206 F 
HETATM   42  C14 UNL     1      13.547  67.448  19.914  1.00  0.00     0.044 A 
HETATM   43  C15 UNL     1      14.570  66.871  20.650  1.00  0.00     0.028 A 
ENDBRANCH  34  37
ENDBRANCH  32  34
ENDBRANCH   4  32
TORSDOF 9
ENDMDL
