MODEL 3
REMARK VINA RESULT: -10.120568557      1.431      1.766
REMARK  9 active torsions:
REMARK  status: ('A' for Active; 'I' for Inactive)
REMARK    1  A    between atoms: C1_2  and  C2_6 
REMARK    2  A    between atoms: C5_9  and  O1_10 
REMARK    3  A    between atoms: O1_10  and  C6_11 
REMARK    4  A    between atoms: C9_14  and  N3_15 
REMARK    5  A    between atoms: N3_15  and  S1_17 
REMARK    6  A    between atoms: S1_17  and  C10_20 
REMARK    7  A    between atoms: C16_27  and  O4_28 
REMARK    8  A    between atoms: O4_28  and  C17_29 
REMARK    9  A    between atoms: C20_32  and  C21_33 
ROOT
HETATM    1  C6  UNL     1      15.261  64.299  25.864  1.00  0.00     0.150 A 
HETATM    2  C7  UNL     1      14.401  64.456  24.798  1.00  0.00     0.059 A 
HETATM    3  C8  UNL     1      14.860  64.231  23.519  1.00  0.00     0.039 A 
HETATM    4  C9  UNL     1      16.193  63.848  23.319  1.00  0.00     0.094 A 
HETATM    5  C16 UNL     1      17.028  63.702  24.390  1.00  0.00     0.177 A 
HETATM    6  N6  UNL     1      16.517  63.938  25.641  1.00  0.00    -0.315 N 
ATOM      7  H6  UNL     1      17.136  63.829  26.444  1.00  0.00     0.170 HD
ENDROOT
BRANCH   1   8
HETATM    8  O1  UNL     1      14.816  64.521  27.161  1.00  0.00    -0.294 OA
BRANCH   8   9
HETATM    9  C5  UNL     1      13.854  63.635  27.670  1.00  0.00     0.077 A 
HETATM   10  C4  UNL     1      14.071  62.945  28.843  1.00  0.00     0.038 A 
HETATM   11  C3  UNL     1      13.128  62.076  29.343  1.00  0.00     0.017 A 
HETATM   12  C2  UNL     1      11.912  61.842  28.702  1.00  0.00     0.005 A 
HETATM   13  C25 UNL     1      11.706  62.537  27.532  1.00  0.00     0.017 A 
HETATM   14  C24 UNL     1      12.661  63.421  27.019  1.00  0.00     0.038 A 
BRANCH  12  15
HETATM   15  C1  UNL     1      10.943  60.915  29.269  1.00  0.00     0.120 C 
HETATM   16  N1  UNL     1      10.921  60.763  30.695  1.00  0.00    -0.082 NA
HETATM   17  N2  UNL     1      10.116  60.232  28.586  1.00  0.00    -0.387 N 
ATOM     18  H22 UNL     1       9.438  59.581  28.983  1.00  0.00     0.157 HD
ATOM     19  H21 UNL     1      10.132  60.339  27.572  1.00  0.00     0.157 HD
ENDBRANCH  12  15
ENDBRANCH   8   9
ENDBRANCH   1   8
BRANCH   5  20
HETATM   20  O4  UNL     1      18.357  63.338  24.286  1.00  0.00    -0.291 OA
BRANCH  20  21
HETATM   21  C17 UNL     1      18.722  62.049  24.636  1.00  0.00     0.077 A 
HETATM   22  C18 UNL     1      19.402  61.846  25.836  1.00  0.00     0.038 A 
HETATM   23  C19 UNL     1      19.771  60.598  26.206  1.00  0.00     0.017 A 
HETATM   24  C20 UNL     1      19.475  59.513  25.390  1.00  0.00     0.005 A 
HETATM   25  C22 UNL     1      18.809  59.708  24.214  1.00  0.00     0.017 A 
HETATM   26  C23 UNL     1      18.433  60.991  23.841  1.00  0.00     0.038 A 
BRANCH  24  27
HETATM   27  C21 UNL     1      19.906  58.204  25.859  1.00  0.00     0.120 C 
HETATM   28  N4  UNL     1      19.578  57.011  25.109  1.00  0.00    -0.082 NA
HETATM   29  N5  UNL     1      20.577  58.106  26.940  1.00  0.00    -0.387 N 
ATOM     30  H52 UNL     1      20.809  58.948  27.468  1.00  0.00     0.157 HD
ATOM     31  H51 UNL     1      20.879  57.189  27.268  1.00  0.00     0.157 HD
ENDBRANCH  24  27
ENDBRANCH  20  21
ENDBRANCH   5  20
BRANCH   4  32
HETATM   32  N3  UNL     1      16.605  63.590  21.991  1.00  0.00    -0.276 N 
ATOM     33  H3  UNL     1      16.762  62.616  21.732  1.00  0.00     0.179 HD
BRANCH  32  34
HETATM   34  S1  UNL     1      16.861  64.772  20.785  1.00  0.00     0.263 S 
HETATM   35  O2  UNL     1      18.289  64.733  20.277  1.00  0.00    -0.200 OA
HETATM   36  O3  UNL     1      15.929  64.501  19.613  1.00  0.00    -0.200 OA
BRANCH  34  37
HETATM   37  C10 UNL     1      16.552  66.406  21.317  1.00  0.00     0.080 A 
HETATM   38  C11 UNL     1      15.330  66.996  20.981  1.00  0.00     0.028 A 
HETATM   39  C12 UNL     1      15.016  68.278  21.343  1.00  0.00     0.044 A 
HETATM   40  C13 UNL     1      15.939  69.006  22.065  1.00  0.00     0.116 A 
HETATM   41  F1  UNL     1      15.658  70.277  22.439  1.00  0.00    -0.206 F 
HETATM   42  C14 UNL     1      17.145  68.474  22.416  1.00  0.00     0.044 A 
HETATM   43  C15 UNL     1      17.436  67.173  22.035  1.00  0.00     0.028 A 
ENDBRANCH  34  37
ENDBRANCH  32  34
ENDBRANCH   4  32
TORSDOF 9
ENDMDL
