MODEL 2
REMARK VINA RESULT: -10.310141071      1.065      1.396
REMARK  9 active torsions:
REMARK  status: ('A' for Active; 'I' for Inactive)
REMARK    1  A    between atoms: C1_2  and  C2_6 
REMARK    2  A    between atoms: C5_9  and  O1_10 
REMARK    3  A    between atoms: O1_10  and  C6_11 
REMARK    4  A    between atoms: C9_14  and  N3_15 
REMARK    5  A    between atoms: N3_15  and  S1_17 
REMARK    6  A    between atoms: S1_17  and  C10_20 
REMARK    7  A    between atoms: C16_27  and  O4_28 
REMARK    8  A    between atoms: O4_28  and  C17_29 
REMARK    9  A    between atoms: C20_32  and  C21_33 
ROOT
HETATM    1  C6  UNL     1      14.791  65.088  25.623  1.00  0.00     0.150 A 
HETATM    2  C7  UNL     1      13.972  65.254  24.527  1.00  0.00     0.059 A 
HETATM    3  C8  UNL     1      14.493  65.095  23.262  1.00  0.00     0.039 A 
HETATM    4  C9  UNL     1      15.847  64.767  23.107  1.00  0.00     0.094 A 
HETATM    5  C16 UNL     1      16.640  64.610  24.208  1.00  0.00     0.177 A 
HETATM    6  N6  UNL     1      16.067  64.780  25.442  1.00  0.00    -0.315 N 
ATOM      7  H6  UNL     1      16.655  64.663  26.267  1.00  0.00     0.170 HD
ENDROOT
BRANCH   1   8
HETATM    8  O1  UNL     1      14.282  65.243  26.906  1.00  0.00    -0.294 OA
BRANCH   8   9
HETATM    9  C5  UNL     1      13.484  64.205  27.411  1.00  0.00     0.077 A 
HETATM   10  C4  UNL     1      12.117  64.210  27.241  1.00  0.00     0.038 A 
HETATM   11  C3  UNL     1      11.334  63.191  27.736  1.00  0.00     0.017 A 
HETATM   12  C2  UNL     1      11.869  62.107  28.431  1.00  0.00     0.005 A 
HETATM   13  C25 UNL     1      13.235  62.113  28.595  1.00  0.00     0.017 A 
HETATM   14  C24 UNL     1      14.035  63.146  28.093  1.00  0.00     0.038 A 
BRANCH  12  15
HETATM   15  C1  UNL     1      11.002  61.052  28.936  1.00  0.00     0.120 C 
HETATM   16  N1  UNL     1      10.959  60.845  30.355  1.00  0.00    -0.082 NA
HETATM   17  N2  UNL     1      10.281  60.302  28.204  1.00  0.00    -0.387 N 
ATOM     18  H22 UNL     1       9.673  59.562  28.558  1.00  0.00     0.157 HD
ATOM     19  H21 UNL     1      10.311  60.449  27.195  1.00  0.00     0.157 HD
ENDBRANCH  12  15
ENDBRANCH   8   9
ENDBRANCH   1   8
BRANCH   5  20
HETATM   20  O4  UNL     1      17.984  64.298  24.150  1.00  0.00    -0.291 OA
BRANCH  20  21
HETATM   21  C17 UNL     1      18.378  62.999  24.420  1.00  0.00     0.077 A 
HETATM   22  C18 UNL     1      19.188  62.759  25.529  1.00  0.00     0.038 A 
HETATM   23  C19 UNL     1      19.587  61.500  25.821  1.00  0.00     0.017 A 
HETATM   24  C20 UNL     1      19.193  60.440  25.016  1.00  0.00     0.005 A 
HETATM   25  C22 UNL     1      18.399  60.670  23.928  1.00  0.00     0.017 A 
HETATM   26  C23 UNL     1      17.992  61.964  23.635  1.00  0.00     0.038 A 
BRANCH  24  27
HETATM   27  C21 UNL     1      19.664  59.116  25.397  1.00  0.00     0.120 C 
HETATM   28  N4  UNL     1      19.360  57.963  24.576  1.00  0.00    -0.082 NA
HETATM   29  N5  UNL     1      20.350  58.970  26.463  1.00  0.00    -0.387 N 
ATOM     30  H52 UNL     1      20.564  59.782  27.041  1.00  0.00     0.157 HD
ATOM     31  H51 UNL     1      20.680  58.042  26.730  1.00  0.00     0.157 HD
ENDBRANCH  24  27
ENDBRANCH  20  21
ENDBRANCH   5  20
BRANCH   4  32
HETATM   32  N3  UNL     1      16.324  64.575  21.790  1.00  0.00    -0.276 N 
ATOM     33  H3  UNL     1      16.216  63.646  21.385  1.00  0.00     0.179 HD
BRANCH  32  34
HETATM   34  S1  UNL     1      17.069  65.769  20.821  1.00  0.00     0.263 S 
HETATM   35  O2  UNL     1      17.628  66.892  21.672  1.00  0.00    -0.200 OA
HETATM   36  O3  UNL     1      18.217  65.140  20.044  1.00  0.00    -0.200 OA
BRANCH  34  37
HETATM   37  C10 UNL     1      16.000  66.499  19.649  1.00  0.00     0.080 A 
HETATM   38  C11 UNL     1      16.116  67.871  19.404  1.00  0.00     0.028 A 
HETATM   39  C12 UNL     1      15.306  68.523  18.515  1.00  0.00     0.044 A 
HETATM   40  C13 UNL     1      14.347  67.798  17.839  1.00  0.00     0.116 A 
HETATM   41  F1  UNL     1      13.530  68.414  16.952  1.00  0.00    -0.206 F 
HETATM   42  C14 UNL     1      14.195  66.458  18.044  1.00  0.00     0.044 A 
HETATM   43  C15 UNL     1      15.029  65.823  18.952  1.00  0.00     0.028 A 
ENDBRANCH  34  37
ENDBRANCH  32  34
ENDBRANCH   4  32
TORSDOF 9
ENDMDL
