MODEL 1
REMARK VINA RESULT: -9.989858726      0.000      0.000
REMARK  9 active torsions:
REMARK  status: ('A' for Active; 'I' for Inactive)
REMARK    1  A    between atoms: C1_2  and  C2_6 
REMARK    2  A    between atoms: C5_9  and  O1_10 
REMARK    3  A    between atoms: O1_10  and  C6_11 
REMARK    4  A    between atoms: C8_13  and  C9_14 
REMARK       I    between atoms: C9_14  and  N3_16 
REMARK    5  A    between atoms: N3_16  and  C10_18 
REMARK    6  A    between atoms: C13_21  and  N4_22 
REMARK    7  A    between atoms: C17_29  and  O3_30 
REMARK    8  A    between atoms: O3_30  and  C18_31 
REMARK    9  A    between atoms: C21_34  and  C22_35 
ROOT
HETATM    1  C6  UNL     1      15.623  64.254  25.771  1.00  0.00     0.151 A 
HETATM    2  C7  UNL     1      14.790  64.918  24.898  1.00  0.00     0.073 A 
HETATM    3  C8  UNL     1      15.055  64.902  23.549  1.00  0.00     0.040 A 
HETATM    4  C16 UNL     1      16.178  64.197  23.138  1.00  0.00     0.073 A 
HETATM    5  C17 UNL     1      17.013  63.533  24.009  1.00  0.00     0.151 A 
HETATM    6  N7  UNL     1      16.699  63.584  25.331  1.00  0.00    -0.317 N 
ATOM      7  H7  UNL     1      17.295  63.101  26.005  1.00  0.00     0.170 HD
ENDROOT
BRANCH   3   8
HETATM    8  C9  UNL     1      14.238  65.571  22.559  1.00  0.00     0.252 C 
HETATM    9  O2  UNL     1      13.013  65.723  22.735  1.00  0.00    -0.268 OA
HETATM   10  N3  UNL     1      14.776  66.083  21.351  1.00  0.00    -0.352 N 
ATOM     11  H3  UNL     1      15.774  65.982  21.168  1.00  0.00     0.163 HD
BRANCH  10  12
HETATM   12  C10 UNL     1      13.945  66.744  20.375  1.00  0.00     0.084 C 
HETATM   13  C11 UNL     1      14.103  68.238  20.382  1.00  0.00     0.027 C 
HETATM   14  C12 UNL     1      13.684  68.780  19.035  1.00  0.00     0.035 C 
HETATM   15  C13 UNL     1      14.592  68.337  17.921  1.00  0.00     0.183 C 
HETATM   16  C14 UNL     1      15.239  67.031  18.265  1.00  0.00     0.035 C 
HETATM   17  C15 UNL     1      14.276  66.142  19.022  1.00  0.00     0.027 C 
BRANCH  15  18
HETATM   18  N4  UNL     1      13.813  68.278  16.700  1.00  0.00    -0.075 N 
ATOM     19  H43 UNL     1      12.913  68.751  16.784  1.00  0.00     0.274 HD
ATOM     20  H42 UNL     1      14.203  68.856  15.956  1.00  0.00     0.274 HD
ATOM     21  H41 UNL     1      13.719  67.298  16.430  1.00  0.00     0.274 HD
ENDBRANCH  15  18
ENDBRANCH  10  12
ENDBRANCH   3   8
BRANCH   1  22
HETATM   22  O1  UNL     1      15.326  64.291  27.121  1.00  0.00    -0.294 OA
BRANCH  22  23
HETATM   23  C5  UNL     1      14.184  63.594  27.542  1.00  0.00     0.077 A 
HETATM   24  C4  UNL     1      14.288  62.531  28.425  1.00  0.00     0.038 A 
HETATM   25  C3  UNL     1      13.162  61.855  28.830  1.00  0.00     0.017 A 
HETATM   26  C2  UNL     1      11.892  62.181  28.398  1.00  0.00     0.005 A 
HETATM   27  C26 UNL     1      11.785  63.233  27.522  1.00  0.00     0.017 A 
HETATM   28  C25 UNL     1      12.922  63.928  27.103  1.00  0.00     0.038 A 
BRANCH  26  29
HETATM   29  C1  UNL     1      10.739  61.426  28.862  1.00  0.00     0.120 C 
HETATM   30  N1  UNL     1      10.889  60.677  30.092  1.00  0.00    -0.082 NA
HETATM   31  N2  UNL     1       9.610  61.377  28.267  1.00  0.00    -0.387 N 
ATOM     32  H22 UNL     1       8.802  60.849  28.593  1.00  0.00     0.157 HD
ATOM     33  H21 UNL     1       9.504  61.906  27.400  1.00  0.00     0.157 HD
ENDBRANCH  26  29
ENDBRANCH  22  23
ENDBRANCH   1  22
BRANCH   5  34
HETATM   34  O3  UNL     1      18.136  62.835  23.549  1.00  0.00    -0.294 OA
BRANCH  34  35
HETATM   35  C18 UNL     1      18.609  61.702  24.170  1.00  0.00     0.077 A 
HETATM   36  C19 UNL     1      18.343  60.452  23.675  1.00  0.00     0.038 A 
HETATM   37  C20 UNL     1      18.834  59.350  24.327  1.00  0.00     0.017 A 
HETATM   38  C21 UNL     1      19.600  59.456  25.483  1.00  0.00     0.005 A 
HETATM   39  C23 UNL     1      19.858  60.715  25.965  1.00  0.00     0.017 A 
HETATM   40  C24 UNL     1      19.361  61.811  25.305  1.00  0.00     0.038 A 
BRANCH  38  41
HETATM   41  C22 UNL     1      20.077  58.231  26.112  1.00  0.00     0.120 C 
HETATM   42  N5  UNL     1      19.618  56.965  25.618  1.00  0.00    -0.082 NA
HETATM   43  N6  UNL     1      20.887  58.233  27.087  1.00  0.00    -0.387 N 
ATOM     44  H62 UNL     1      21.214  59.134  27.438  1.00  0.00     0.157 HD
ATOM     45  H61 UNL     1      21.220  57.376  27.527  1.00  0.00     0.157 HD
ENDBRANCH  38  41
ENDBRANCH  34  35
ENDBRANCH   5  34
TORSDOF 9
ENDMDL
