MODEL 16
REMARK VINA RESULT: -9.565720628      1.412      9.079
REMARK  9 active torsions:
REMARK  status: ('A' for Active; 'I' for Inactive)
REMARK    1  A    between atoms: C1_2  and  C2_6 
REMARK    2  A    between atoms: C5_9  and  O1_10 
REMARK    3  A    between atoms: O1_10  and  C6_11 
REMARK    4  A    between atoms: C8_13  and  C9_14 
REMARK       I    between atoms: C9_14  and  N3_16 
REMARK    5  A    between atoms: N3_16  and  C10_18 
REMARK    6  A    between atoms: C13_21  and  N4_22 
REMARK    7  A    between atoms: C17_29  and  O3_30 
REMARK    8  A    between atoms: O3_30  and  C18_31 
REMARK    9  A    between atoms: C21_34  and  C22_35 
ROOT
HETATM    1  C6  UNL     1      17.222  63.328  23.289  1.00  0.00     0.151 A 
HETATM    2  C7  UNL     1      16.596  63.103  24.495  1.00  0.00     0.073 A 
HETATM    3  C8  UNL     1      15.915  64.122  25.116  1.00  0.00     0.040 A 
HETATM    4  C16 UNL     1      15.900  65.352  24.472  1.00  0.00     0.073 A 
HETATM    5  C17 UNL     1      16.526  65.580  23.266  1.00  0.00     0.151 A 
HETATM    6  N7  UNL     1      17.183  64.533  22.699  1.00  0.00    -0.317 N 
ATOM      7  H7  UNL     1      17.656  64.666  21.805  1.00  0.00     0.170 HD
ENDROOT
BRANCH   3   8
HETATM    8  C9  UNL     1      15.229  63.979  26.382  1.00  0.00     0.252 C 
HETATM    9  O2  UNL     1      15.862  63.966  27.457  1.00  0.00    -0.268 OA
HETATM   10  N3  UNL     1      13.820  63.848  26.473  1.00  0.00    -0.352 N 
ATOM     11  H3  UNL     1      13.263  63.855  25.618  1.00  0.00     0.163 HD
BRANCH  10  12
HETATM   12  C10 UNL     1      13.155  63.704  27.744  1.00  0.00     0.084 C 
HETATM   13  C11 UNL     1      11.839  64.427  27.805  1.00  0.00     0.027 C 
HETATM   14  C12 UNL     1      10.981  63.789  28.875  1.00  0.00     0.035 C 
HETATM   15  C13 UNL     1      10.589  62.376  28.540  1.00  0.00     0.183 C 
HETATM   16  C14 UNL     1      11.608  61.753  27.637  1.00  0.00     0.035 C 
HETATM   17  C15 UNL     1      13.001  62.217  28.004  1.00  0.00     0.027 C 
BRANCH  15  18
HETATM   18  N4  UNL     1      10.416  61.650  29.783  1.00  0.00    -0.075 N 
ATOM     19  H43 UNL     1      10.699  62.193  30.598  1.00  0.00     0.274 HD
ATOM     20  H42 UNL     1       9.435  61.528  30.034  1.00  0.00     0.274 HD
ATOM     21  H41 UNL     1      10.916  60.765  29.705  1.00  0.00     0.274 HD
ENDBRANCH  15  18
ENDBRANCH  10  12
ENDBRANCH   3   8
BRANCH   1  22
HETATM   22  O1  UNL     1      17.898  62.280  22.692  1.00  0.00    -0.294 OA
BRANCH  22  23
HETATM   23  C5  UNL     1      18.436  61.302  23.542  1.00  0.00     0.077 A 
HETATM   24  C4  UNL     1      18.239  59.954  23.284  1.00  0.00     0.038 A 
HETATM   25  C3  UNL     1      18.770  59.005  24.124  1.00  0.00     0.017 A 
HETATM   26  C2  UNL     1      19.511  59.321  25.245  1.00  0.00     0.005 A 
HETATM   27  C26 UNL     1      19.707  60.655  25.504  1.00  0.00     0.017 A 
HETATM   28  C25 UNL     1      19.173  61.630  24.657  1.00  0.00     0.038 A 
BRANCH  26  29
HETATM   29  C1  UNL     1      20.046  58.269  26.096  1.00  0.00     0.120 C 
HETATM   30  N1  UNL     1      19.600  56.917  25.837  1.00  0.00    -0.082 NA
HETATM   31  N2  UNL     1      20.874  58.453  27.050  1.00  0.00    -0.387 N 
ATOM     32  H22 UNL     1      21.249  57.716  27.646  1.00  0.00     0.157 HD
ATOM     33  H21 UNL     1      21.189  59.407  27.233  1.00  0.00     0.157 HD
ENDBRANCH  26  29
ENDBRANCH  22  23
ENDBRANCH   1  22
BRANCH   5  34
HETATM   34  O3  UNL     1      16.484  66.838  22.653  1.00  0.00    -0.294 OA
BRANCH  34  35
HETATM   35  C18 UNL     1      15.719  67.092  21.537  1.00  0.00     0.077 A 
HETATM   36  C19 UNL     1      16.270  67.112  20.283  1.00  0.00     0.038 A 
HETATM   37  C20 UNL     1      15.471  67.370  19.199  1.00  0.00     0.017 A 
HETATM   38  C21 UNL     1      14.108  67.614  19.327  1.00  0.00     0.005 A 
HETATM   39  C23 UNL     1      13.571  67.590  20.590  1.00  0.00     0.017 A 
HETATM   40  C24 UNL     1      14.380  67.331  21.668  1.00  0.00     0.038 A 
BRANCH  38  41
HETATM   41  C22 UNL     1      13.336  67.884  18.121  1.00  0.00     0.120 C 
HETATM   42  N5  UNL     1      14.006  68.392  16.959  1.00  0.00    -0.082 NA
HETATM   43  N6  UNL     1      12.086  67.688  18.052  1.00  0.00    -0.387 N 
ATOM     44  H62 UNL     1      11.609  67.326  18.878  1.00  0.00     0.157 HD
ATOM     45  H61 UNL     1      11.546  67.877  17.208  1.00  0.00     0.157 HD
ENDBRANCH  38  41
ENDBRANCH  34  35
ENDBRANCH   5  34
TORSDOF 9
ENDMDL
