MODEL 3
REMARK VINA RESULT: -9.935992535      0.231      6.268
REMARK  9 active torsions:
REMARK  status: ('A' for Active; 'I' for Inactive)
REMARK    1  A    between atoms: C1_2  and  C2_6 
REMARK    2  A    between atoms: C5_9  and  O1_10 
REMARK    3  A    between atoms: O1_10  and  C6_11 
REMARK    4  A    between atoms: C8_13  and  C9_14 
REMARK       I    between atoms: C9_14  and  N3_16 
REMARK    5  A    between atoms: N3_16  and  C10_18 
REMARK    6  A    between atoms: C13_21  and  N4_22 
REMARK    7  A    between atoms: C17_29  and  O3_30 
REMARK    8  A    between atoms: O3_30  and  C18_31 
REMARK    9  A    between atoms: C21_34  and  C22_35 
ROOT
HETATM    1  C6  UNL     1      17.304  63.597  23.963  1.00  0.00     0.151 A 
HETATM    2  C7  UNL     1      16.514  64.249  23.042  1.00  0.00     0.073 A 
HETATM    3  C8  UNL     1      15.354  64.864  23.445  1.00  0.00     0.040 A 
HETATM    4  C16 UNL     1      15.039  64.789  24.795  1.00  0.00     0.073 A 
HETATM    5  C17 UNL     1      15.827  64.137  25.718  1.00  0.00     0.151 A 
HETATM    6  N7  UNL     1      16.963  63.548  25.260  1.00  0.00    -0.317 N 
ATOM      7  H7  UNL     1      17.571  63.057  25.917  1.00  0.00     0.170 HD
ENDROOT
BRANCH   3   8
HETATM    8  C9  UNL     1      14.463  65.571  22.550  1.00  0.00     0.252 C 
HETATM    9  O2  UNL     1      13.258  65.723  22.833  1.00  0.00    -0.268 OA
HETATM   10  N3  UNL     1      14.902  66.123  21.320  1.00  0.00    -0.352 N 
ATOM     11  H3  UNL     1      15.881  66.024  21.051  1.00  0.00     0.163 HD
BRANCH  10  12
HETATM   12  C10 UNL     1      13.998  66.822  20.440  1.00  0.00     0.084 C 
HETATM   13  C11 UNL     1      14.225  68.308  20.422  1.00  0.00     0.027 C 
HETATM   14  C12 UNL     1      13.682  68.869  19.127  1.00  0.00     0.035 C 
HETATM   15  C13 UNL     1      14.438  68.383  17.921  1.00  0.00     0.183 C 
HETATM   16  C14 UNL     1      15.058  67.049  18.197  1.00  0.00     0.035 C 
HETATM   17  C15 UNL     1      14.146  66.205  19.062  1.00  0.00     0.027 C 
BRANCH  15  18
HETATM   18  N4  UNL     1      13.524  68.360  16.796  1.00  0.00    -0.075 N 
ATOM     19  H43 UNL     1      13.031  69.244  16.671  1.00  0.00     0.274 HD
ATOM     20  H42 UNL     1      14.006  68.345  15.897  1.00  0.00     0.274 HD
ATOM     21  H41 UNL     1      12.891  67.570  16.917  1.00  0.00     0.274 HD
ENDBRANCH  15  18
ENDBRANCH  10  12
ENDBRANCH   3   8
BRANCH   1  22
HETATM   22  O1  UNL     1      18.465  62.988  23.522  1.00  0.00    -0.294 OA
BRANCH  22  23
HETATM   23  C5  UNL     1      18.834  61.789  24.149  1.00  0.00     0.077 A 
HETATM   24  C4  UNL     1      19.531  61.801  25.346  1.00  0.00     0.038 A 
HETATM   25  C3  UNL     1      19.887  60.620  25.951  1.00  0.00     0.017 A 
HETATM   26  C2  UNL     1      19.585  59.380  25.421  1.00  0.00     0.005 A 
HETATM   27  C26 UNL     1      18.894  59.366  24.234  1.00  0.00     0.017 A 
HETATM   28  C25 UNL     1      18.526  60.560  23.610  1.00  0.00     0.038 A 
BRANCH  26  29
HETATM   29  C1  UNL     1      19.991  58.165  26.109  1.00  0.00     0.120 C 
HETATM   30  N1  UNL     1      19.495  56.910  25.584  1.00  0.00    -0.082 NA
HETATM   31  N2  UNL     1      20.748  58.126  27.136  1.00  0.00    -0.387 N 
ATOM     32  H22 UNL     1      21.033  57.274  27.617  1.00  0.00     0.157 HD
ATOM     33  H21 UNL     1      21.098  59.010  27.506  1.00  0.00     0.157 HD
ENDBRANCH  26  29
ENDBRANCH  22  23
ENDBRANCH   1  22
BRANCH   5  34
HETATM   34  O3  UNL     1      15.469  64.086  27.071  1.00  0.00    -0.294 OA
BRANCH  34  35
HETATM   35  C18 UNL     1      14.334  63.445  27.512  1.00  0.00     0.077 A 
HETATM   36  C19 UNL     1      13.121  63.644  26.909  1.00  0.00     0.038 A 
HETATM   37  C20 UNL     1      12.016  62.983  27.382  1.00  0.00     0.017 A 
HETATM   38  C21 UNL     1      12.083  62.111  28.463  1.00  0.00     0.005 A 
HETATM   39  C23 UNL     1      13.306  61.922  29.056  1.00  0.00     0.017 A 
HETATM   40  C24 UNL     1      14.405  62.588  28.575  1.00  0.00     0.038 A 
BRANCH  38  41
HETATM   41  C22 UNL     1      10.857  61.456  28.902  1.00  0.00     0.120 C 
HETATM   42  N5  UNL     1      10.872  60.673  30.104  1.00  0.00    -0.082 NA
HETATM   43  N6  UNL     1       9.766  61.548  28.262  1.00  0.00    -0.387 N 
ATOM     44  H62 UNL     1       9.756  62.105  27.408  1.00  0.00     0.157 HD
ATOM     45  H61 UNL     1       8.909  61.089  28.569  1.00  0.00     0.157 HD
ENDBRANCH  38  41
ENDBRANCH  34  35
ENDBRANCH   5  34
TORSDOF 9
ENDMDL
