MODEL 15
REMARK VINA RESULT: -9.566593627      1.467      7.544
REMARK  9 active torsions:
REMARK  status: ('A' for Active; 'I' for Inactive)
REMARK    1  A    between atoms: C1_2  and  C2_6 
REMARK    2  A    between atoms: C5_9  and  O1_10 
REMARK    3  A    between atoms: O1_10  and  C6_11 
REMARK    4  A    between atoms: C8_13  and  C9_14 
REMARK       I    between atoms: C9_14  and  N3_16 
REMARK    5  A    between atoms: N3_16  and  C10_18 
REMARK    6  A    between atoms: C13_21  and  N4_22 
REMARK    7  A    between atoms: C17_29  and  O3_30 
REMARK    8  A    between atoms: O3_30  and  C18_31 
REMARK    9  A    between atoms: C21_34  and  C22_35 
ROOT
HETATM    1  C6  UNL     1      16.884  65.490  23.129  1.00  0.00     0.151 A 
HETATM    2  C7  UNL     1      16.152  65.501  24.296  1.00  0.00     0.073 A 
HETATM    3  C8  UNL     1      15.951  64.334  24.993  1.00  0.00     0.040 A 
HETATM    4  C16 UNL     1      16.515  63.181  24.463  1.00  0.00     0.073 A 
HETATM    5  C17 UNL     1      17.247  63.167  23.296  1.00  0.00     0.151 A 
HETATM    6  N7  UNL     1      17.413  64.353  22.652  1.00  0.00    -0.317 N 
ATOM      7  H7  UNL     1      17.951  64.379  21.785  1.00  0.00     0.170 HD
ENDROOT
BRANCH   3   8
HETATM    8  C9  UNL     1      15.196  64.250  26.224  1.00  0.00     0.252 C 
HETATM    9  O2  UNL     1      15.753  64.405  27.330  1.00  0.00    -0.268 OA
HETATM   10  N3  UNL     1      13.802  63.990  26.245  1.00  0.00    -0.352 N 
ATOM     11  H3  UNL     1      13.307  63.859  25.363  1.00  0.00     0.163 HD
BRANCH  10  12
HETATM   12  C10 UNL     1      13.068  63.907  27.483  1.00  0.00     0.084 C 
HETATM   13  C11 UNL     1      11.666  64.439  27.373  1.00  0.00     0.027 C 
HETATM   14  C12 UNL     1      10.822  63.819  28.464  1.00  0.00     0.035 C 
HETATM   15  C13 UNL     1      10.649  62.335  28.293  1.00  0.00     0.183 C 
HETATM   16  C14 UNL     1      11.807  61.759  27.540  1.00  0.00     0.035 C 
HETATM   17  C15 UNL     1      13.094  62.456  27.925  1.00  0.00     0.027 C 
BRANCH  15  18
HETATM   18  N4  UNL     1      10.480  61.747  29.607  1.00  0.00    -0.075 N 
ATOM     19  H43 UNL     1      11.104  62.153  30.304  1.00  0.00     0.274 HD
ATOM     20  H42 UNL     1       9.597  62.008  30.045  1.00  0.00     0.274 HD
ATOM     21  H41 UNL     1      10.592  60.737  29.520  1.00  0.00     0.274 HD
ENDBRANCH  15  18
ENDBRANCH  10  12
ENDBRANCH   3   8
BRANCH   1  22
HETATM   22  O1  UNL     1      17.066  66.683  22.454  1.00  0.00    -0.294 OA
BRANCH  22  23
HETATM   23  C5  UNL     1      16.162  66.976  21.423  1.00  0.00     0.077 A 
HETATM   24  C4  UNL     1      15.579  68.230  21.328  1.00  0.00     0.038 A 
HETATM   25  C3  UNL     1      14.694  68.505  20.314  1.00  0.00     0.017 A 
HETATM   26  C2  UNL     1      14.337  67.581  19.352  1.00  0.00     0.005 A 
HETATM   27  C26 UNL     1      14.914  66.337  19.444  1.00  0.00     0.017 A 
HETATM   28  C25 UNL     1      15.815  66.045  20.470  1.00  0.00     0.038 A 
BRANCH  26  29
HETATM   29  C1  UNL     1      13.394  67.933  18.303  1.00  0.00     0.120 C 
HETATM   30  N1  UNL     1      13.932  68.544  17.106  1.00  0.00    -0.082 NA
HETATM   31  N2  UNL     1      12.133  67.745  18.363  1.00  0.00    -0.387 N 
ATOM     32  H22 UNL     1      11.471  67.991  17.627  1.00  0.00     0.157 HD
ATOM     33  H21 UNL     1      11.753  67.314  19.206  1.00  0.00     0.157 HD
ENDBRANCH  26  29
ENDBRANCH  22  23
ENDBRANCH   1  22
BRANCH   5  34
HETATM   34  O3  UNL     1      17.797  61.979  22.799  1.00  0.00    -0.294 OA
BRANCH  34  35
HETATM   35  C18 UNL     1      18.362  61.027  23.616  1.00  0.00     0.077 A 
HETATM   36  C19 UNL     1      18.226  59.689  23.355  1.00  0.00     0.038 A 
HETATM   37  C20 UNL     1      18.806  58.775  24.197  1.00  0.00     0.017 A 
HETATM   38  C21 UNL     1      19.535  59.160  25.317  1.00  0.00     0.005 A 
HETATM   39  C23 UNL     1      19.662  60.504  25.565  1.00  0.00     0.017 A 
HETATM   40  C24 UNL     1      19.077  61.411  24.716  1.00  0.00     0.038 A 
BRANCH  38  41
HETATM   41  C22 UNL     1      20.112  58.120  26.159  1.00  0.00     0.120 C 
HETATM   42  N5  UNL     1      19.768  56.749  25.915  1.00  0.00    -0.082 NA
HETATM   43  N6  UNL     1      20.912  58.375  27.108  1.00  0.00    -0.387 N 
ATOM     44  H62 UNL     1      21.157  59.350  27.282  1.00  0.00     0.157 HD
ATOM     45  H61 UNL     1      21.316  57.647  27.697  1.00  0.00     0.157 HD
ENDBRANCH  38  41
ENDBRANCH  34  35
ENDBRANCH   5  34
TORSDOF 9
ENDMDL
