MODEL 2
REMARK VINA RESULT: -9.936542911      0.751      6.252
REMARK  9 active torsions:
REMARK  status: ('A' for Active; 'I' for Inactive)
REMARK    1  A    between atoms: C1_2  and  C2_6 
REMARK    2  A    between atoms: C5_9  and  O1_10 
REMARK    3  A    between atoms: O1_10  and  C6_11 
REMARK    4  A    between atoms: C8_13  and  C9_14 
REMARK       I    between atoms: C9_14  and  N3_16 
REMARK    5  A    between atoms: N3_16  and  C10_18 
REMARK    6  A    between atoms: C13_21  and  N4_22 
REMARK    7  A    between atoms: C17_29  and  O3_30 
REMARK    8  A    between atoms: O3_30  and  C18_31 
REMARK    9  A    between atoms: C21_34  and  C22_35 
ROOT
HETATM    1  C6  UNL     1      17.050  64.491  24.629  1.00  0.00     0.151 A 
HETATM    2  C7  UNL     1      16.308  64.918  23.550  1.00  0.00     0.073 A 
HETATM    3  C8  UNL     1      15.015  65.348  23.732  1.00  0.00     0.040 A 
HETATM    4  C16 UNL     1      14.522  65.325  25.029  1.00  0.00     0.073 A 
HETATM    5  C17 UNL     1      15.262  64.897  26.110  1.00  0.00     0.151 A 
HETATM    6  N7  UNL     1      16.535  64.485  25.868  1.00  0.00    -0.317 N 
ATOM      7  H7  UNL     1      17.111  64.163  26.646  1.00  0.00     0.170 HD
ENDROOT
BRANCH   3   8
HETATM    8  C9  UNL     1      14.162  65.812  22.660  1.00  0.00     0.252 C 
HETATM    9  O2  UNL     1      12.920  65.757  22.759  1.00  0.00    -0.268 OA
HETATM   10  N3  UNL     1      14.680  66.349  21.453  1.00  0.00    -0.352 N 
ATOM     11  H3  UNL     1      15.691  66.414  21.331  1.00  0.00     0.163 HD
BRANCH  10  12
HETATM   12  C10 UNL     1      13.813  66.804  20.395  1.00  0.00     0.084 C 
HETATM   13  C11 UNL     1      13.692  68.301  20.336  1.00  0.00     0.027 C 
HETATM   14  C12 UNL     1      13.276  68.703  18.939  1.00  0.00     0.035 C 
HETATM   15  C13 UNL     1      14.327  68.395  17.909  1.00  0.00     0.183 C 
HETATM   16  C14 UNL     1      15.178  67.248  18.359  1.00  0.00     0.035 C 
HETATM   17  C15 UNL     1      14.344  66.224  19.098  1.00  0.00     0.027 C 
BRANCH  15  18
HETATM   18  N4  UNL     1      13.661  68.144  16.646  1.00  0.00    -0.075 N 
ATOM     19  H43 UNL     1      13.953  67.268  16.214  1.00  0.00     0.274 HD
ATOM     20  H42 UNL     1      12.673  67.918  16.760  1.00  0.00     0.274 HD
ATOM     21  H41 UNL     1      13.812  68.952  16.041  1.00  0.00     0.274 HD
ENDBRANCH  15  18
ENDBRANCH  10  12
ENDBRANCH   3   8
BRANCH   1  22
HETATM   22  O1  UNL     1      18.347  64.066  24.410  1.00  0.00    -0.294 OA
BRANCH  22  23
HETATM   23  C5  UNL     1      18.602  62.694  24.560  1.00  0.00     0.077 A 
HETATM   24  C4  UNL     1      18.051  61.772  23.685  1.00  0.00     0.038 A 
HETATM   25  C3  UNL     1      18.308  60.431  23.843  1.00  0.00     0.017 A 
HETATM   26  C2  UNL     1      19.108  59.930  24.851  1.00  0.00     0.005 A 
HETATM   27  C26 UNL     1      19.655  60.843  25.720  1.00  0.00     0.017 A 
HETATM   28  C25 UNL     1      19.401  62.208  25.570  1.00  0.00     0.038 A 
BRANCH  26  29
HETATM   29  C1  UNL     1      19.341  58.499  24.966  1.00  0.00     0.120 C 
HETATM   30  N1  UNL     1      18.603  57.634  24.070  1.00  0.00    -0.082 NA
HETATM   31  N2  UNL     1      20.145  57.955  25.795  1.00  0.00    -0.387 N 
ATOM     32  H22 UNL     1      20.309  56.952  25.875  1.00  0.00     0.157 HD
ATOM     33  H21 UNL     1      20.665  58.565  26.426  1.00  0.00     0.157 HD
ENDBRANCH  26  29
ENDBRANCH  22  23
ENDBRANCH   1  22
BRANCH   5  34
HETATM   34  O3  UNL     1      14.722  64.891  27.402  1.00  0.00    -0.294 OA
BRANCH  34  35
HETATM   35  C18 UNL     1      13.811  63.947  27.818  1.00  0.00     0.077 A 
HETATM   36  C19 UNL     1      14.089  63.093  28.852  1.00  0.00     0.038 A 
HETATM   37  C20 UNL     1      13.150  62.167  29.232  1.00  0.00     0.017 A 
HETATM   38  C21 UNL     1      11.916  62.064  28.601  1.00  0.00     0.005 A 
HETATM   39  C23 UNL     1      11.653  62.927  27.568  1.00  0.00     0.017 A 
HETATM   40  C24 UNL     1      12.599  63.849  27.195  1.00  0.00     0.038 A 
BRANCH  38  41
HETATM   41  C22 UNL     1      10.981  61.048  29.069  1.00  0.00     0.120 C 
HETATM   42  N5  UNL     1      10.951  60.713  30.464  1.00  0.00    -0.082 NA
HETATM   43  N6  UNL     1      10.187  60.440  28.291  1.00  0.00    -0.387 N 
ATOM     44  H62 UNL     1      10.209  60.678  27.300  1.00  0.00     0.157 HD
ATOM     45  H61 UNL     1       9.534  59.728  28.619  1.00  0.00     0.157 HD
ENDBRANCH  38  41
ENDBRANCH  34  35
ENDBRANCH   5  34
TORSDOF 9
ENDMDL
