MODEL 10
REMARK VINA RESULT: -8.144653728      3.415     10.193
REMARK  4 active torsions:
REMARK  status: ('A' for Active; 'I' for Inactive)
REMARK    1  A    between atoms: C4_7  and  C5_8 
REMARK    2  A    between atoms: C5_8  and  N3_9 
REMARK    3  A    between atoms: N4_17  and  C13_18 
REMARK    4  A    between atoms: C16_21  and  C17_22 
ROOT
HETATM    1  N3  UNL     1      43.036  19.959  -5.411  1.00  0.00     0.095 N 
HETATM    2  C6  UNL     1      42.325  20.909  -6.211  1.00  0.00     0.274 C 
HETATM    3  C7  UNL     1      43.342  21.768  -6.931  1.00  0.00     0.049 C 
HETATM    4  C8  UNL     1      44.250  22.365  -5.860  1.00  0.00     0.046 C 
HETATM    5  C9  UNL     1      43.695  22.125  -4.471  1.00  0.00     0.049 C 
HETATM    6  C10 UNL     1      43.655  20.614  -4.285  1.00  0.00     0.274 C 
HETATM    7  C11 UNL     1      45.633  21.819  -5.931  1.00  0.00     0.039 C 
HETATM    8  C12 UNL     1      46.421  22.807  -6.719  1.00  0.00     0.133 C 
HETATM    9  N4  UNL     1      45.530  23.933  -7.006  1.00  0.00    -0.317 N 
HETATM   10  C25 UNL     1      44.404  23.789  -6.169  1.00  0.00     0.233 C 
HETATM   11  O1  UNL     1      43.703  24.773  -5.795  1.00  0.00    -0.272 OA
ENDROOT
BRANCH   9  12
HETATM   12  C13 UNL     1      45.852  24.915  -7.965  1.00  0.00     0.037 A 
HETATM   13  C14 UNL     1      46.855  25.838  -7.769  1.00  0.00     0.030 A 
HETATM   14  C15 UNL     1      47.156  26.800  -8.734  1.00  0.00     0.014 A 
HETATM   15  C16 UNL     1      46.446  26.850  -9.920  1.00  0.00    -0.026 A 
HETATM   16  C23 UNL     1      45.436  25.923 -10.121  1.00  0.00     0.014 A 
HETATM   17  C24 UNL     1      45.157  24.980  -9.154  1.00  0.00     0.030 A 
BRANCH  15  18
HETATM   18  C17 UNL     1      46.788  27.860 -10.894  1.00  0.00    -0.026 A 
HETATM   19  C18 UNL     1      47.210  27.519 -12.162  1.00  0.00     0.012 A 
HETATM   20  C19 UNL     1      47.540  28.488 -13.103  1.00  0.00     0.001 A 
HETATM   21  C20 UNL     1      47.447  29.824 -12.770  1.00  0.00     0.000 A 
HETATM   22  C21 UNL     1      47.026  30.182 -11.503  1.00  0.00     0.001 A 
HETATM   23  C22 UNL     1      46.702  29.199 -10.579  1.00  0.00     0.012 A 
ENDBRANCH  15  18
ENDBRANCH   9  12
BRANCH   1  24
HETATM   24  C5  UNL     1      42.302  18.789  -5.062  1.00  0.00     0.348 C 
BRANCH  24  25
HETATM   25  C4  UNL     1      40.848  19.044  -4.884  1.00  0.00     0.111 A 
HETATM   26  N1  UNL     1      39.888  18.618  -5.723  1.00  0.00    -0.348 N 
HETATM   27  C1  UNL     1      40.086  17.833  -6.952  1.00  0.00     0.157 C 
HETATM   28  C2  UNL     1      38.702  19.031  -5.245  1.00  0.00     0.108 A 
HETATM   29  C3  UNL     1      38.926  19.731  -4.082  1.00  0.00     0.106 A 
HETATM   30  N2  UNL     1      40.255  19.710  -3.906  1.00  0.00    -0.353 N 
ATOM     31  H2  UNL     1      40.743  20.148  -3.124  1.00  0.00     0.166 HD
ENDBRANCH  24  25
ENDBRANCH   1  24
TORSDOF 4
ENDMDL
