MODEL 1
REMARK VINA RESULT: -8.828127996      0.000      0.000
REMARK  4 active torsions:
REMARK  status: ('A' for Active; 'I' for Inactive)
REMARK    1  A    between atoms: C4_7  and  C5_8 
REMARK    2  A    between atoms: C5_8  and  N3_9 
REMARK    3  A    between atoms: N4_17  and  C13_18 
REMARK    4  A    between atoms: C16_21  and  C17_22 
ROOT
HETATM    1  N3  UNL     1      47.287  25.308  -5.959  1.00  0.00     0.095 N 
HETATM    2  C6  UNL     1      46.443  24.915  -7.045  1.00  0.00     0.274 C 
HETATM    3  C7  UNL     1      45.285  24.124  -6.475  1.00  0.00     0.049 C 
HETATM    4  C8  UNL     1      45.890  22.978  -5.670  1.00  0.00     0.046 C 
HETATM    5  C9  UNL     1      47.379  22.858  -5.915  1.00  0.00     0.049 C 
HETATM    6  C10 UNL     1      47.995  24.166  -5.435  1.00  0.00     0.274 C 
HETATM    7  C11 UNL     1      45.649  23.134  -4.209  1.00  0.00     0.039 C 
HETATM    8  C12 UNL     1      44.446  22.310  -3.904  1.00  0.00     0.133 C 
HETATM    9  N4  UNL     1      44.070  21.627  -5.144  1.00  0.00    -0.317 N 
HETATM   10  C25 UNL     1      45.158  21.762  -6.032  1.00  0.00     0.233 C 
HETATM   11  O1  UNL     1      45.389  20.929  -6.955  1.00  0.00    -0.272 OA
ENDROOT
BRANCH   9  12
HETATM   12  C13 UNL     1      42.822  20.991  -5.297  1.00  0.00     0.037 A 
HETATM   13  C14 UNL     1      41.863  21.448  -6.175  1.00  0.00     0.030 A 
HETATM   14  C15 UNL     1      40.634  20.800  -6.308  1.00  0.00     0.014 A 
HETATM   15  C16 UNL     1      40.347  19.677  -5.555  1.00  0.00    -0.026 A 
HETATM   16  C23 UNL     1      41.308  19.215  -4.670  1.00  0.00     0.014 A 
HETATM   17  C24 UNL     1      42.517  19.869  -4.555  1.00  0.00     0.030 A 
BRANCH  15  18
HETATM   18  C17 UNL     1      39.064  19.036  -5.723  1.00  0.00    -0.026 A 
HETATM   19  C18 UNL     1      38.127  19.031  -4.711  1.00  0.00     0.012 A 
HETATM   20  C19 UNL     1      36.891  18.415  -4.868  1.00  0.00     0.001 A 
HETATM   21  C20 UNL     1      36.584  17.792  -6.060  1.00  0.00     0.000 A 
HETATM   22  C21 UNL     1      37.512  17.788  -7.084  1.00  0.00     0.001 A 
HETATM   23  C22 UNL     1      38.740  18.409  -6.907  1.00  0.00     0.012 A 
ENDBRANCH  15  18
ENDBRANCH   9  12
BRANCH   1  24
HETATM   24  C5  UNL     1      48.122  26.433  -6.216  1.00  0.00     0.348 C 
BRANCH  24  25
HETATM   25  C4  UNL     1      48.171  27.395  -5.082  1.00  0.00     0.111 A 
HETATM   26  N1  UNL     1      48.836  28.563  -5.100  1.00  0.00    -0.348 N 
HETATM   27  C1  UNL     1      49.624  29.105  -6.218  1.00  0.00     0.157 C 
HETATM   28  C2  UNL     1      48.656  29.163  -3.910  1.00  0.00     0.108 A 
HETATM   29  C3  UNL     1      47.862  28.350  -3.134  1.00  0.00     0.106 A 
HETATM   30  N2  UNL     1      47.594  27.282  -3.898  1.00  0.00    -0.353 N 
ATOM     31  H2  UNL     1      47.021  26.490  -3.605  1.00  0.00     0.166 HD
ENDBRANCH  24  25
ENDBRANCH   1  24
TORSDOF 4
ENDMDL
