MODEL 3
REMARK VINA RESULT: -8.667289337      2.132      2.931
REMARK  4 active torsions:
REMARK  status: ('A' for Active; 'I' for Inactive)
REMARK    1  A    between atoms: C4_7  and  C5_8 
REMARK    2  A    between atoms: C5_8  and  N3_9 
REMARK    3  A    between atoms: N4_17  and  C13_18 
REMARK    4  A    between atoms: C16_21  and  C17_22 
ROOT
HETATM    1  N3  UNL     1      47.674  24.434  -7.088  1.00  0.00     0.095 N 
HETATM    2  C6  UNL     1      47.131  23.394  -7.907  1.00  0.00     0.274 C 
HETATM    3  C7  UNL     1      45.770  23.027  -7.353  1.00  0.00     0.049 C 
HETATM    4  C8  UNL     1      45.977  22.662  -5.886  1.00  0.00     0.046 C 
HETATM    5  C9  UNL     1      47.448  22.536  -5.551  1.00  0.00     0.049 C 
HETATM    6  C10 UNL     1      48.060  23.909  -5.801  1.00  0.00     0.274 C 
HETATM    7  C11 UNL     1      45.354  23.657  -4.970  1.00  0.00     0.039 C 
HETATM    8  C12 UNL     1      44.022  23.098  -4.608  1.00  0.00     0.133 C 
HETATM    9  N4  UNL     1      43.931  21.774  -5.225  1.00  0.00    -0.317 N 
HETATM   10  C25 UNL     1      45.233  21.424  -5.640  1.00  0.00     0.233 C 
HETATM   11  O1  UNL     1      45.611  20.223  -5.751  1.00  0.00    -0.272 OA
ENDROOT
BRANCH   9  12
HETATM   12  C13 UNL     1      42.708  21.080  -5.327  1.00  0.00     0.037 A 
HETATM   13  C14 UNL     1      42.372  20.048  -4.479  1.00  0.00     0.030 A 
HETATM   14  C15 UNL     1      41.154  19.376  -4.600  1.00  0.00     0.014 A 
HETATM   15  C16 UNL     1      40.250  19.734  -5.583  1.00  0.00    -0.026 A 
HETATM   16  C23 UNL     1      40.585  20.771  -6.439  1.00  0.00     0.014 A 
HETATM   17  C24 UNL     1      41.793  21.422  -6.301  1.00  0.00     0.030 A 
BRANCH  15  18
HETATM   18  C17 UNL     1      39.001  19.014  -5.675  1.00  0.00    -0.026 A 
HETATM   19  C18 UNL     1      38.740  18.164  -6.730  1.00  0.00     0.012 A 
HETATM   20  C19 UNL     1      37.540  17.470  -6.823  1.00  0.00     0.001 A 
HETATM   21  C20 UNL     1      36.581  17.627  -5.843  1.00  0.00     0.000 A 
HETATM   22  C21 UNL     1      36.828  18.475  -4.779  1.00  0.00     0.001 A 
HETATM   23  C22 UNL     1      38.033  19.159  -4.706  1.00  0.00     0.012 A 
ENDBRANCH  15  18
ENDBRANCH   9  12
BRANCH   1  24
HETATM   24  C5  UNL     1      48.680  25.230  -7.707  1.00  0.00     0.348 C 
BRANCH  24  25
HETATM   25  C4  UNL     1      48.134  26.195  -8.698  1.00  0.00     0.111 A 
HETATM   26  N1  UNL     1      48.309  26.107 -10.028  1.00  0.00    -0.348 N 
HETATM   27  C1  UNL     1      49.057  25.062 -10.744  1.00  0.00     0.157 C 
HETATM   28  C2  UNL     1      47.676  27.145 -10.602  1.00  0.00     0.108 A 
HETATM   29  C3  UNL     1      47.094  27.896  -9.608  1.00  0.00     0.106 A 
HETATM   30  N2  UNL     1      47.404  27.273  -8.463  1.00  0.00    -0.353 N 
ATOM     31  H2  UNL     1      47.116  27.587  -7.536  1.00  0.00     0.166 HD
ENDBRANCH  24  25
ENDBRANCH   1  24
TORSDOF 4
ENDMDL
