MODEL 13
REMARK VINA RESULT: -8.066861340      3.379     10.181
REMARK  4 active torsions:
REMARK  status: ('A' for Active; 'I' for Inactive)
REMARK    1  A    between atoms: C4_7  and  C5_8 
REMARK    2  A    between atoms: C5_8  and  N3_9 
REMARK    3  A    between atoms: N4_17  and  C13_18 
REMARK    4  A    between atoms: C16_21  and  C17_22 
ROOT
HETATM    1  N3  UNL     1      42.979  19.990  -5.412  1.00  0.00     0.095 N 
HETATM    2  C6  UNL     1      42.294  20.938  -6.236  1.00  0.00     0.274 C 
HETATM    3  C7  UNL     1      43.335  21.785  -6.938  1.00  0.00     0.049 C 
HETATM    4  C8  UNL     1      44.219  22.385  -5.849  1.00  0.00     0.046 C 
HETATM    5  C9  UNL     1      43.628  22.160  -4.473  1.00  0.00     0.049 C 
HETATM    6  C10 UNL     1      43.573  20.651  -4.276  1.00  0.00     0.274 C 
HETATM    7  C11 UNL     1      45.600  21.829  -5.882  1.00  0.00     0.039 C 
HETATM    8  C12 UNL     1      46.414  22.806  -6.657  1.00  0.00     0.133 C 
HETATM    9  N4  UNL     1      45.538  23.936  -6.975  1.00  0.00    -0.317 N 
HETATM   10  C25 UNL     1      44.390  23.805  -6.165  1.00  0.00     0.233 C 
HETATM   11  O1  UNL     1      43.687  24.797  -5.818  1.00  0.00    -0.272 OA
ENDROOT
BRANCH   9  12
HETATM   12  C13 UNL     1      45.891  24.907  -7.934  1.00  0.00     0.037 A 
HETATM   13  C14 UNL     1      45.295  24.969  -9.175  1.00  0.00     0.030 A 
HETATM   14  C15 UNL     1      45.661  25.941 -10.107  1.00  0.00     0.014 A 
HETATM   15  C16 UNL     1      46.639  26.871  -9.805  1.00  0.00    -0.026 A 
HETATM   16  C23 UNL     1      47.241  26.811  -8.558  1.00  0.00     0.014 A 
HETATM   17  C24 UNL     1      46.863  25.843  -7.652  1.00  0.00     0.030 A 
BRANCH  15  18
HETATM   18  C17 UNL     1      46.989  27.860 -10.798  1.00  0.00    -0.026 A 
HETATM   19  C18 UNL     1      46.758  29.203 -10.583  1.00  0.00     0.012 A 
HETATM   20  C19 UNL     1      47.092  30.159 -11.534  1.00  0.00     0.001 A 
HETATM   21  C20 UNL     1      47.669  29.766 -12.725  1.00  0.00     0.000 A 
HETATM   22  C21 UNL     1      47.908  28.424 -12.955  1.00  0.00     0.001 A 
HETATM   23  C22 UNL     1      47.566  27.486 -11.992  1.00  0.00     0.012 A 
ENDBRANCH  15  18
ENDBRANCH   9  12
BRANCH   1  24
HETATM   24  C5  UNL     1      42.229  18.828  -5.072  1.00  0.00     0.348 C 
BRANCH  24  25
HETATM   25  C4  UNL     1      40.773  19.095  -4.924  1.00  0.00     0.111 A 
HETATM   26  N1  UNL     1      39.830  18.692  -5.793  1.00  0.00    -0.348 N 
HETATM   27  C1  UNL     1      40.049  17.925  -7.029  1.00  0.00     0.157 C 
HETATM   28  C2  UNL     1      38.636  19.111  -5.336  1.00  0.00     0.108 A 
HETATM   29  C3  UNL     1      38.840  19.790  -4.158  1.00  0.00     0.106 A 
HETATM   30  N2  UNL     1      40.164  19.752  -3.951  1.00  0.00    -0.353 N 
ATOM     31  H2  UNL     1      40.637  20.172  -3.151  1.00  0.00     0.166 HD
ENDBRANCH  24  25
ENDBRANCH   1  24
TORSDOF 4
ENDMDL
