MODEL 2
REMARK VINA RESULT: -8.703341153      1.662      2.233
REMARK  4 active torsions:
REMARK  status: ('A' for Active; 'I' for Inactive)
REMARK    1  A    between atoms: C4_7  and  C5_8 
REMARK    2  A    between atoms: C5_8  and  N3_9 
REMARK    3  A    between atoms: N4_17  and  C13_18 
REMARK    4  A    between atoms: C16_21  and  C17_22 
ROOT
HETATM    1  N3  UNL     1      47.490  25.079  -7.016  1.00  0.00     0.095 N 
HETATM    2  C6  UNL     1      47.060  23.953  -7.787  1.00  0.00     0.274 C 
HETATM    3  C7  UNL     1      45.711  23.513  -7.259  1.00  0.00     0.049 C 
HETATM    4  C8  UNL     1      45.886  23.254  -5.766  1.00  0.00     0.046 C 
HETATM    5  C9  UNL     1      47.348  23.265  -5.373  1.00  0.00     0.049 C 
HETATM    6  C10 UNL     1      47.862  24.664  -5.686  1.00  0.00     0.274 C 
HETATM    7  C11 UNL     1      45.153  24.250  -4.937  1.00  0.00     0.039 C 
HETATM    8  C12 UNL     1      43.854  23.610  -4.587  1.00  0.00     0.133 C 
HETATM    9  N4  UNL     1      43.889  22.249  -5.123  1.00  0.00    -0.317 N 
HETATM   10  C25 UNL     1      45.230  21.978  -5.469  1.00  0.00     0.233 C 
HETATM   11  O1  UNL     1      45.703  20.806  -5.493  1.00  0.00    -0.272 OA
ENDROOT
BRANCH   9  12
HETATM   12  C13 UNL     1      42.728  21.456  -5.224  1.00  0.00     0.037 A 
HETATM   13  C14 UNL     1      41.693  21.768  -6.079  1.00  0.00     0.030 A 
HETATM   14  C15 UNL     1      40.553  20.967  -6.161  1.00  0.00     0.014 A 
HETATM   15  C16 UNL     1      40.435  19.833  -5.380  1.00  0.00    -0.026 A 
HETATM   16  C23 UNL     1      41.473  19.515  -4.519  1.00  0.00     0.014 A 
HETATM   17  C24 UNL     1      42.591  20.320  -4.454  1.00  0.00     0.030 A 
BRANCH  15  18
HETATM   18  C17 UNL     1      39.239  19.030  -5.496  1.00  0.00    -0.026 A 
HETATM   19  C18 UNL     1      38.089  19.354  -4.806  1.00  0.00     0.012 A 
HETATM   20  C19 UNL     1      36.937  18.585  -4.914  1.00  0.00     0.001 A 
HETATM   21  C20 UNL     1      36.932  17.470  -5.726  1.00  0.00     0.000 A 
HETATM   22  C21 UNL     1      38.077  17.132  -6.424  1.00  0.00     0.001 A 
HETATM   23  C22 UNL     1      39.217  17.913  -6.302  1.00  0.00     0.012 A 
ENDBRANCH  15  18
ENDBRANCH   9  12
BRANCH   1  24
HETATM   24  C5  UNL     1      48.456  25.914  -7.648  1.00  0.00     0.348 C 
BRANCH  24  25
HETATM   25  C4  UNL     1      47.846  27.017  -8.438  1.00  0.00     0.111 A 
HETATM   26  N1  UNL     1      48.096  28.324  -8.245  1.00  0.00    -0.348 N 
HETATM   27  C1  UNL     1      49.001  28.902  -7.239  1.00  0.00     0.157 C 
HETATM   28  C2  UNL     1      47.374  29.023  -9.138  1.00  0.00     0.108 A 
HETATM   29  C3  UNL     1      46.658  28.133  -9.904  1.00  0.00     0.106 A 
HETATM   30  N2  UNL     1      46.982  26.920  -9.435  1.00  0.00    -0.353 N 
ATOM     31  H2  UNL     1      46.613  26.040  -9.798  1.00  0.00     0.166 HD
ENDBRANCH  24  25
ENDBRANCH   1  24
TORSDOF 4
ENDMDL
