MODEL 18
REMARK VINA RESULT: -7.867485716      3.340     10.364
REMARK  4 active torsions:
REMARK  status: ('A' for Active; 'I' for Inactive)
REMARK    1  A    between atoms: C4_7  and  C5_8 
REMARK    2  A    between atoms: C5_8  and  N3_9 
REMARK    3  A    between atoms: N4_17  and  C13_18 
REMARK    4  A    between atoms: C16_21  and  C17_22 
ROOT
HETATM    1  N3  UNL     1      43.099  20.818  -5.334  1.00  0.00     0.095 N 
HETATM    2  C6  UNL     1      43.082  22.198  -4.957  1.00  0.00     0.274 C 
HETATM    3  C7  UNL     1      43.640  23.004  -6.110  1.00  0.00     0.049 C 
HETATM    4  C8  UNL     1      45.018  22.430  -6.422  1.00  0.00     0.046 C 
HETATM    5  C9  UNL     1      45.465  21.459  -5.350  1.00  0.00     0.049 C 
HETATM    6  C10 UNL     1      44.453  20.321  -5.357  1.00  0.00     0.274 C 
HETATM    7  C11 UNL     1      45.052  21.744  -7.743  1.00  0.00     0.039 C 
HETATM    8  C12 UNL     1      45.585  22.745  -8.708  1.00  0.00     0.133 C 
HETATM    9  N4  UNL     1      45.936  23.939  -7.936  1.00  0.00    -0.317 N 
HETATM   10  C25 UNL     1      45.934  23.563  -6.576  1.00  0.00     0.233 C 
HETATM   11  O1  UNL     1      46.633  24.156  -5.705  1.00  0.00    -0.272 OA
ENDROOT
BRANCH   9  12
HETATM   12  C13 UNL     1      46.204  25.177  -8.555  1.00  0.00     0.037 A 
HETATM   13  C14 UNL     1      47.174  26.038  -8.093  1.00  0.00     0.030 A 
HETATM   14  C15 UNL     1      47.421  27.259  -8.723  1.00  0.00     0.014 A 
HETATM   15  C16 UNL     1      46.690  27.635  -9.834  1.00  0.00    -0.026 A 
HETATM   16  C23 UNL     1      45.712  26.771 -10.302  1.00  0.00     0.014 A 
HETATM   17  C24 UNL     1      45.486  25.570  -9.664  1.00  0.00     0.030 A 
BRANCH  15  18
HETATM   18  C17 UNL     1      46.976  28.906 -10.458  1.00  0.00    -0.026 A 
HETATM   19  C18 UNL     1      47.072  30.064  -9.714  1.00  0.00     0.012 A 
HETATM   20  C19 UNL     1      47.347  31.289 -10.309  1.00  0.00     0.001 A 
HETATM   21  C20 UNL     1      47.530  31.360 -11.676  1.00  0.00     0.000 A 
HETATM   22  C21 UNL     1      47.436  30.209 -12.435  1.00  0.00     0.001 A 
HETATM   23  C22 UNL     1      47.161  28.995 -11.820  1.00  0.00     0.012 A 
ENDBRANCH  15  18
ENDBRANCH   9  12
BRANCH   1  24
HETATM   24  C5  UNL     1      42.193  19.982  -4.620  1.00  0.00     0.348 C 
BRANCH  24  25
HETATM   25  C4  UNL     1      41.348  19.142  -5.510  1.00  0.00     0.111 A 
HETATM   26  N1  UNL     1      40.294  19.594  -6.211  1.00  0.00    -0.348 N 
HETATM   27  C1  UNL     1      39.785  20.974  -6.235  1.00  0.00     0.157 C 
HETATM   28  C2  UNL     1      39.777  18.560  -6.899  1.00  0.00     0.108 A 
HETATM   29  C3  UNL     1      40.524  17.440  -6.619  1.00  0.00     0.106 A 
HETATM   30  N2  UNL     1      41.472  17.850  -5.765  1.00  0.00    -0.353 N 
ATOM     31  H2  UNL     1      42.192  17.247  -5.365  1.00  0.00     0.166 HD
ENDBRANCH  24  25
ENDBRANCH   1  24
TORSDOF 4
ENDMDL
