MODEL 14
REMARK VINA RESULT: -8.021491256      3.612     10.189
REMARK  4 active torsions:
REMARK  status: ('A' for Active; 'I' for Inactive)
REMARK    1  A    between atoms: C4_7  and  C5_8 
REMARK    2  A    between atoms: C5_8  and  N3_9 
REMARK    3  A    between atoms: N4_17  and  C13_18 
REMARK    4  A    between atoms: C16_21  and  C17_22 
ROOT
HETATM    1  N3  UNL     1      43.037  20.735  -4.856  1.00  0.00     0.095 N 
HETATM    2  C6  UNL     1      42.338  21.811  -5.489  1.00  0.00     0.274 C 
HETATM    3  C7  UNL     1      43.289  22.481  -6.457  1.00  0.00     0.049 C 
HETATM    4  C8  UNL     1      44.522  22.886  -5.653  1.00  0.00     0.046 C 
HETATM    5  C9  UNL     1      44.285  22.730  -4.166  1.00  0.00     0.049 C 
HETATM    6  C10 UNL     1      44.018  21.249  -3.931  1.00  0.00     0.274 C 
HETATM    7  C11 UNL     1      45.724  22.097  -6.039  1.00  0.00     0.039 C 
HETATM    8  C12 UNL     1      46.463  22.937  -7.022  1.00  0.00     0.133 C 
HETATM    9  N4  UNL     1      45.749  24.212  -7.119  1.00  0.00    -0.317 N 
HETATM   10  C25 UNL     1      44.851  24.262  -6.031  1.00  0.00     0.233 C 
HETATM   11  O1  UNL     1      44.452  25.352  -5.530  1.00  0.00    -0.272 OA
ENDROOT
BRANCH   9  12
HETATM   12  C13 UNL     1      46.002  25.132  -8.156  1.00  0.00     0.037 A 
HETATM   13  C14 UNL     1      45.276  25.143  -9.326  1.00  0.00     0.030 A 
HETATM   14  C15 UNL     1      45.545  26.066 -10.339  1.00  0.00     0.014 A 
HETATM   15  C16 UNL     1      46.556  26.997 -10.189  1.00  0.00    -0.026 A 
HETATM   16  C23 UNL     1      47.289  26.988  -9.013  1.00  0.00     0.014 A 
HETATM   17  C24 UNL     1      47.005  26.069  -8.025  1.00  0.00     0.030 A 
BRANCH  15  18
HETATM   18  C17 UNL     1      46.803  27.934 -11.260  1.00  0.00    -0.026 A 
HETATM   19  C18 UNL     1      46.781  29.296 -11.039  1.00  0.00     0.012 A 
HETATM   20  C19 UNL     1      47.017  30.202 -12.066  1.00  0.00     0.001 A 
HETATM   21  C20 UNL     1      47.281  29.739 -13.339  1.00  0.00     0.000 A 
HETATM   22  C21 UNL     1      47.308  28.378 -13.576  1.00  0.00     0.001 A 
HETATM   23  C22 UNL     1      47.069  27.490 -12.537  1.00  0.00     0.012 A 
ENDBRANCH  15  18
ENDBRANCH   9  12
BRANCH   1  24
HETATM   24  C5  UNL     1      42.210  19.714  -4.307  1.00  0.00     0.348 C 
BRANCH  24  25
HETATM   25  C4  UNL     1      41.840  18.667  -5.296  1.00  0.00     0.111 A 
HETATM   26  N1  UNL     1      40.630  18.552  -5.872  1.00  0.00    -0.348 N 
HETATM   27  C1  UNL     1      39.465  19.421  -5.640  1.00  0.00     0.157 C 
HETATM   28  C2  UNL     1      40.664  17.499  -6.707  1.00  0.00     0.108 A 
HETATM   29  C3  UNL     1      41.921  16.945  -6.650  1.00  0.00     0.106 A 
HETATM   30  N2  UNL     1      42.601  17.696  -5.773  1.00  0.00    -0.353 N 
ATOM     31  H2  UNL     1      43.574  17.540  -5.509  1.00  0.00     0.166 HD
ENDBRANCH  24  25
ENDBRANCH   1  24
TORSDOF 4
ENDMDL
