MODEL 11
REMARK VINA RESULT: -8.082759675      3.642     10.236
REMARK  4 active torsions:
REMARK  status: ('A' for Active; 'I' for Inactive)
REMARK    1  A    between atoms: C4_7  and  C5_8 
REMARK    2  A    between atoms: C5_8  and  N3_9 
REMARK    3  A    between atoms: N4_17  and  C13_18 
REMARK    4  A    between atoms: C16_21  and  C17_22 
ROOT
HETATM    1  N3  UNL     1      43.091  20.807  -4.906  1.00  0.00     0.095 N 
HETATM    2  C6  UNL     1      42.394  21.888  -5.532  1.00  0.00     0.274 C 
HETATM    3  C7  UNL     1      43.344  22.559  -6.500  1.00  0.00     0.049 C 
HETATM    4  C8  UNL     1      44.580  22.957  -5.698  1.00  0.00     0.046 C 
HETATM    5  C9  UNL     1      44.347  22.795  -4.211  1.00  0.00     0.049 C 
HETATM    6  C10 UNL     1      44.076  21.314  -3.982  1.00  0.00     0.274 C 
HETATM    7  C11 UNL     1      45.779  22.166  -6.091  1.00  0.00     0.039 C 
HETATM    8  C12 UNL     1      46.518  23.008  -7.073  1.00  0.00     0.133 C 
HETATM    9  N4  UNL     1      45.807  24.285  -7.162  1.00  0.00    -0.317 N 
HETATM   10  C25 UNL     1      44.912  24.334  -6.072  1.00  0.00     0.233 C 
HETATM   11  O1  UNL     1      44.518  25.422  -5.565  1.00  0.00    -0.272 OA
ENDROOT
BRANCH   9  12
HETATM   12  C13 UNL     1      46.059  25.209  -8.196  1.00  0.00     0.037 A 
HETATM   13  C14 UNL     1      47.039  26.173  -8.101  1.00  0.00     0.030 A 
HETATM   14  C15 UNL     1      47.270  27.078  -9.139  1.00  0.00     0.014 A 
HETATM   15  C16 UNL     1      46.514  27.027 -10.295  1.00  0.00    -0.026 A 
HETATM   16  C23 UNL     1      45.527  26.059 -10.394  1.00  0.00     0.014 A 
HETATM   17  C24 UNL     1      45.316  25.175  -9.357  1.00  0.00     0.030 A 
BRANCH  15  18
HETATM   18  C17 UNL     1      46.784  27.980 -11.346  1.00  0.00    -0.026 A 
HETATM   19  C18 UNL     1      47.000  27.572 -12.646  1.00  0.00     0.012 A 
HETATM   20  C19 UNL     1      47.261  28.485 -13.661  1.00  0.00     0.001 A 
HETATM   21  C20 UNL     1      47.307  29.833 -13.372  1.00  0.00     0.000 A 
HETATM   22  C21 UNL     1      47.093  30.259 -12.074  1.00  0.00     0.001 A 
HETATM   23  C22 UNL     1      46.834  29.331 -11.076  1.00  0.00     0.012 A 
ENDBRANCH  15  18
ENDBRANCH   9  12
BRANCH   1  24
HETATM   24  C5  UNL     1      42.263  19.785  -4.358  1.00  0.00     0.348 C 
BRANCH  24  25
HETATM   25  C4  UNL     1      41.905  18.732  -5.345  1.00  0.00     0.111 A 
HETATM   26  N1  UNL     1      40.708  18.622  -5.945  1.00  0.00    -0.348 N 
HETATM   27  C1  UNL     1      39.546  19.502  -5.747  1.00  0.00     0.157 C 
HETATM   28  C2  UNL     1      40.750  17.560  -6.769  1.00  0.00     0.108 A 
HETATM   29  C3  UNL     1      42.001  16.996  -6.680  1.00  0.00     0.106 A 
HETATM   30  N2  UNL     1      42.669  17.750  -5.796  1.00  0.00    -0.353 N 
ATOM     31  H2  UNL     1      43.635  17.589  -5.510  1.00  0.00     0.166 HD
ENDBRANCH  24  25
ENDBRANCH   1  24
TORSDOF 4
ENDMDL
