MODEL 1
REMARK VINA RESULT: -6.593847956      0.000      0.000
REMARK  6 active torsions:
REMARK  status: ('A' for Active; 'I' for Inactive)
REMARK    1  A    between atoms: C2_2  and  C4_4 
REMARK    2  A    between atoms: C4_4  and  C5_5 
REMARK    3  A    between atoms: C5_5  and  O1_6 
REMARK    4  A    between atoms: O1_6  and  P1_7 
REMARK    5  A    between atoms: P1_7  and  O4_10 
REMARK    6  A    between atoms: O4_10  and  P2_11 
ROOT
HETATM    1  P1  UNL     1      56.455  43.918  36.924  1.00  0.00     0.418 P 
HETATM    2  O2  UNL     1      57.121  45.140  36.315  1.00  0.00    -0.624 OA
HETATM    3  O3  UNL     1      55.328  43.305  35.803  1.00  0.00    -0.624 OA
ENDROOT
BRANCH   1   4
HETATM    4  O1  UNL     1      57.635  42.746  37.146  1.00  0.00    -0.289 OA
BRANCH   4   5
HETATM    5  C5  UNL     1      57.269  41.618  36.427  1.00  0.00     0.185 C 
BRANCH   5   6
HETATM    6  C4  UNL     1      58.306  41.364  35.376  1.00  0.00     0.059 C 
BRANCH   6   7
HETATM    7  C2  UNL     1      59.011  40.090  35.570  1.00  0.00    -0.091 C 
HETATM    8  C1  UNL     1      58.691  39.278  36.557  1.00  0.00     0.014 C 
HETATM    9  C3  UNL     1      60.118  39.752  34.612  1.00  0.00     0.042 C 
ENDBRANCH   6   7
ENDBRANCH   5   6
ENDBRANCH   4   5
ENDBRANCH   1   4
BRANCH   1  10
HETATM   10  O4  UNL     1      55.750  44.256  38.404  1.00  0.00    -0.173 OA
BRANCH  10  11
HETATM   11  P2  UNL     1      56.636  45.337  39.327  1.00  0.00     0.431 P 
HETATM   12  O5  UNL     1      56.152  45.307  40.779  1.00  0.00    -0.616 OA
HETATM   13  O6  UNL     1      56.457  46.919  38.785  1.00  0.00    -0.616 OA
HETATM   14  O7  UNL     1      58.266  44.887  39.322  1.00  0.00    -0.616 OA
ENDBRANCH  10  11
ENDBRANCH   1  10
TORSDOF 6
ENDMDL
