MODEL 1
REMARK VINA RESULT: -6.061537318      0.000      0.000
REMARK  12 active torsions:
REMARK  status: ('A' for Active; 'I' for Inactive)
REMARK    1  A    between atoms: O1_2  and  C2_3 
REMARK    2  A    between atoms: C3_5  and  C4_6 
REMARK    3  A    between atoms: C4_6  and  O3_7 
REMARK    4  A    between atoms: C5_9  and  O4_10 
REMARK    5  A    between atoms: C6_12  and  O5_13 
REMARK    6  A    between atoms: O5_13  and  C7_14 
REMARK    7  A    between atoms: C8_16  and  C9_17 
REMARK    8  A    between atoms: C9_17  and  O7_18 
REMARK    9  A    between atoms: C10_20  and  O8_21 
REMARK   10  A    between atoms: C11_23  and  O9_24 
REMARK   11  A    between atoms: C12_26  and  N1_27 
REMARK       I    between atoms: N1_27  and  C13_29 
REMARK   12  A    between atoms: C15_32  and  O11_33 
ROOT
HETATM    1  C7  UNL     1     -10.951  26.897   4.631  1.00  0.00     0.286 C 
HETATM    2  O6  UNL     1     -11.583  26.881   3.435  1.00  0.00    -0.349 OA
HETATM    3  C8  UNL     1     -12.640  27.643   3.140  1.00  0.00     0.179 C 
HETATM    4  C10 UNL     1     -13.544  27.943   4.325  1.00  0.00     0.180 C 
HETATM    5  C11 UNL     1     -13.350  26.869   5.385  1.00  0.00     0.177 C 
HETATM    6  C12 UNL     1     -11.881  27.004   5.785  1.00  0.00     0.170 C 
ENDROOT
BRANCH   1   7
HETATM    7  O5  UNL     1     -10.045  27.937   4.712  1.00  0.00    -0.348 OA
BRANCH   7   8
HETATM    8  C6  UNL     1      -8.732  27.667   4.737  1.00  0.00     0.189 C 
HETATM    9  C5  UNL     1      -8.122  27.564   6.120  1.00  0.00     0.181 C 
HETATM   10  C3  UNL     1      -6.619  27.514   5.950  1.00  0.00     0.179 C 
HETATM   11  O2  UNL     1      -6.237  26.410   5.168  1.00  0.00    -0.349 OA
HETATM   12  C2  UNL     1      -6.724  26.624   3.904  1.00  0.00     0.290 C 
HETATM   13  C15 UNL     1      -8.252  26.468   3.957  1.00  0.00     0.205 C 
BRANCH   9  14
HETATM   14  O4  UNL     1      -8.516  26.451   6.813  1.00  0.00    -0.390 OA
ATOM     15  H4  UNL     1      -8.973  26.732   7.597  1.00  0.00     0.210 HD
ENDBRANCH   9  14
BRANCH  10  16
HETATM   16  C4  UNL     1      -5.965  27.359   7.330  1.00  0.00     0.198 C 
BRANCH  16  17
HETATM   17  O3  UNL     1      -5.833  26.036   7.689  1.00  0.00    -0.398 OA
ATOM     18  H3  UNL     1      -5.412  25.940   8.536  1.00  0.00     0.209 HD
ENDBRANCH  16  17
ENDBRANCH  10  16
BRANCH  12  19
HETATM   19  O1  UNL     1      -6.167  25.826   2.934  1.00  0.00    -0.363 OA
HETATM   20  C1  UNL     1      -5.092  26.500   2.315  1.00  0.00     0.204 C 
ENDBRANCH  12  19
BRANCH  13  21
HETATM   21  O11 UNL     1      -8.676  26.461   2.639  1.00  0.00    -0.388 OA
ATOM     22  H11 UNL     1      -9.179  27.259   2.525  1.00  0.00     0.210 HD
ENDBRANCH  13  21
ENDBRANCH   7   8
ENDBRANCH   1   7
BRANCH   6  23
HETATM   23  N1  UNL     1     -11.596  26.047   6.851  1.00  0.00    -0.349 N 
HETATM   24  C13 UNL     1     -11.135  26.436   8.112  1.00  0.00     0.214 C 
HETATM   25  C14 UNL     1     -10.850  25.443   9.177  1.00  0.00     0.117 C 
HETATM   26  O10 UNL     1     -10.956  27.653   8.362  1.00  0.00    -0.274 OA
ATOM     27  H1  UNL     1     -11.738  25.053   6.668  1.00  0.00     0.163 HD
ENDBRANCH   6  23
BRANCH   3  28
HETATM   28  C9  UNL     1     -12.235  28.965   2.546  1.00  0.00     0.198 C 
BRANCH  28  29
HETATM   29  O7  UNL     1     -13.306  29.840   2.613  1.00  0.00    -0.398 OA
ATOM     30  H7  UNL     1     -13.572  29.938   3.520  1.00  0.00     0.209 HD
ENDBRANCH  28  29
ENDBRANCH   3  28
BRANCH   5  31
HETATM   31  O9  UNL     1     -14.115  27.237   6.490  1.00  0.00    -0.391 OA
ATOM     32  H9  UNL     1     -13.928  26.613   7.181  1.00  0.00     0.210 HD
ENDBRANCH   5  31
BRANCH   4  33
HETATM   33  O8  UNL     1     -14.858  27.976   3.947  1.00  0.00    -0.390 OA
ATOM     34  H8  UNL     1     -15.307  28.718   4.334  1.00  0.00     0.210 HD
ENDBRANCH   4  33
TORSDOF 12
ENDMDL
