MODEL 7
REMARK VINA RESULT: -5.823584494      1.724      3.653
REMARK  12 active torsions:
REMARK  status: ('A' for Active; 'I' for Inactive)
REMARK    1  A    between atoms: O1_2  and  C2_3 
REMARK    2  A    between atoms: C3_5  and  C4_6 
REMARK    3  A    between atoms: C4_6  and  O3_7 
REMARK    4  A    between atoms: C5_9  and  O4_10 
REMARK    5  A    between atoms: C6_12  and  O5_13 
REMARK    6  A    between atoms: O5_13  and  C7_14 
REMARK    7  A    between atoms: C8_16  and  C9_17 
REMARK    8  A    between atoms: C9_17  and  O7_18 
REMARK    9  A    between atoms: C10_20  and  O8_21 
REMARK   10  A    between atoms: C11_23  and  O9_24 
REMARK   11  A    between atoms: C12_26  and  N1_27 
REMARK       I    between atoms: N1_27  and  C13_29 
REMARK   12  A    between atoms: C15_32  and  O11_33 
ROOT
HETATM    1  C7  UNL     1     -10.973  28.223   5.009  1.00  0.00     0.286 C 
HETATM    2  O6  UNL     1     -11.563  28.327   6.222  1.00  0.00    -0.349 OA
HETATM    3  C8  UNL     1     -12.577  27.558   6.626  1.00  0.00     0.179 C 
HETATM    4  C10 UNL     1     -13.509  27.114   5.510  1.00  0.00     0.180 C 
HETATM    5  C11 UNL     1     -13.396  28.091   4.348  1.00  0.00     0.177 C 
HETATM    6  C12 UNL     1     -11.938  27.973   3.907  1.00  0.00     0.170 C 
ENDROOT
BRANCH   1   7
HETATM    7  O5  UNL     1     -10.029  27.214   4.990  1.00  0.00    -0.348 OA
BRANCH   7   8
HETATM    8  C6  UNL     1      -8.797  27.474   4.527  1.00  0.00     0.189 C 
HETATM    9  C5  UNL     1      -7.792  27.898   5.578  1.00  0.00     0.181 C 
HETATM   10  C3  UNL     1      -6.557  28.389   4.852  1.00  0.00     0.179 C 
HETATM   11  O2  UNL     1      -6.015  27.377   4.041  1.00  0.00    -0.349 OA
HETATM   12  C2  UNL     1      -6.926  27.124   3.048  1.00  0.00     0.290 C 
HETATM   13  C15 UNL     1      -8.131  26.414   3.686  1.00  0.00     0.205 C 
BRANCH   9  14
HETATM   14  O4  UNL     1      -7.422  26.887   6.425  1.00  0.00    -0.390 OA
ATOM     15  H4  UNL     1      -8.163  26.303   6.536  1.00  0.00     0.210 HD
ENDBRANCH   9  14
BRANCH  10  16
HETATM   16  C4  UNL     1      -5.494  28.782   5.886  1.00  0.00     0.198 C 
BRANCH  16  17
HETATM   17  O3  UNL     1      -6.052  29.385   6.991  1.00  0.00    -0.398 OA
ATOM     18  H3  UNL     1      -5.389  29.707   7.591  1.00  0.00     0.209 HD
ENDBRANCH  16  17
ENDBRANCH  10  16
BRANCH  12  19
HETATM   19  O1  UNL     1      -6.427  26.416   1.981  1.00  0.00    -0.363 OA
HETATM   20  C1  UNL     1      -5.023  26.314   2.085  1.00  0.00     0.204 C 
ENDBRANCH  12  19
BRANCH  13  21
HETATM   21  O11 UNL     1      -8.912  25.975   2.630  1.00  0.00    -0.388 OA
ATOM     22  H11 UNL     1      -8.835  25.028   2.628  1.00  0.00     0.210 HD
ENDBRANCH  13  21
ENDBRANCH   7   8
ENDBRANCH   1   7
BRANCH   6  23
HETATM   23  N1  UNL     1     -11.728  28.836   2.746  1.00  0.00    -0.349 N 
HETATM   24  C13 UNL     1     -11.266  28.353   1.519  1.00  0.00     0.214 C 
HETATM   25  C14 UNL     1     -11.059  29.251   0.356  1.00  0.00     0.117 C 
HETATM   26  O10 UNL     1     -11.016  27.130   1.385  1.00  0.00    -0.274 OA
ATOM     27  H1  UNL     1     -11.929  29.833   2.835  1.00  0.00     0.163 HD
ENDBRANCH   6  23
BRANCH   3  28
HETATM   28  C9  UNL     1     -12.099  26.313   7.324  1.00  0.00     0.198 C 
BRANCH  28  29
HETATM   29  O7  UNL     1     -13.171  25.458   7.514  1.00  0.00    -0.398 OA
ATOM     30  H7  UNL     1     -13.661  25.388   6.704  1.00  0.00     0.209 HD
ENDBRANCH  28  29
ENDBRANCH   3  28
BRANCH   5  31
HETATM   31  O9  UNL     1     -14.183  27.591   3.312  1.00  0.00    -0.391 OA
ATOM     32  H9  UNL     1     -14.504  28.337   2.819  1.00  0.00     0.210 HD
ENDBRANCH   5  31
BRANCH   4  33
HETATM   33  O8  UNL     1     -14.807  27.068   5.939  1.00  0.00    -0.390 OA
ATOM     34  H8  UNL     1     -15.386  27.506   5.328  1.00  0.00     0.210 HD
ENDBRANCH   4  33
TORSDOF 12
ENDMDL
