MODEL 4
REMARK VINA RESULT: -5.893585148      3.306      5.719
REMARK  12 active torsions:
REMARK  status: ('A' for Active; 'I' for Inactive)
REMARK    1  A    between atoms: O1_2  and  C2_3 
REMARK    2  A    between atoms: C3_5  and  C4_6 
REMARK    3  A    between atoms: C4_6  and  O3_7 
REMARK    4  A    between atoms: C5_9  and  O4_10 
REMARK    5  A    between atoms: C6_12  and  O5_13 
REMARK    6  A    between atoms: O5_13  and  C7_14 
REMARK    7  A    between atoms: C8_16  and  C9_17 
REMARK    8  A    between atoms: C9_17  and  O7_18 
REMARK    9  A    between atoms: C10_20  and  O8_21 
REMARK   10  A    between atoms: C11_23  and  O9_24 
REMARK   11  A    between atoms: C12_26  and  N1_27 
REMARK       I    between atoms: N1_27  and  C13_29 
REMARK   12  A    between atoms: C15_32  and  O11_33 
ROOT
HETATM    1  C7  UNL     1     -13.082  31.126   2.981  1.00  0.00     0.286 C 
HETATM    2  O6  UNL     1     -13.725  31.957   2.128  1.00  0.00    -0.349 OA
HETATM    3  C8  UNL     1     -13.105  32.751   1.251  1.00  0.00     0.179 C 
HETATM    4  C10 UNL     1     -11.746  33.253   1.713  1.00  0.00     0.180 C 
HETATM    5  C11 UNL     1     -11.687  33.203   3.233  1.00  0.00     0.177 C 
HETATM    6  C12 UNL     1     -11.850  31.720   3.562  1.00  0.00     0.170 C 
ENDROOT
BRANCH   1   7
HETATM    7  O5  UNL     1     -12.736  29.938   2.365  1.00  0.00    -0.348 OA
BRANCH   7   8
HETATM    8  C6  UNL     1     -12.353  28.895   3.116  1.00  0.00     0.189 C 
HETATM    9  C5  UNL     1     -13.404  28.373   4.075  1.00  0.00     0.181 C 
HETATM   10  C3  UNL     1     -12.724  27.387   5.001  1.00  0.00     0.179 C 
HETATM   11  O2  UNL     1     -12.157  26.325   4.276  1.00  0.00    -0.349 OA
HETATM   12  C2  UNL     1     -11.142  26.849   3.518  1.00  0.00     0.290 C 
HETATM   13  C15 UNL     1     -11.778  27.696   2.404  1.00  0.00     0.205 C 
BRANCH   9  14
HETATM   14  O4  UNL     1     -14.446  27.736   3.456  1.00  0.00    -0.390 OA
ATOM     15  H4  UNL     1     -15.135  28.371   3.299  1.00  0.00     0.210 HD
ENDBRANCH   9  14
BRANCH  10  16
HETATM   16  C4  UNL     1     -13.769  26.799   5.958  1.00  0.00     0.198 C 
BRANCH  16  17
HETATM   17  O3  UNL     1     -14.500  25.795   5.363  1.00  0.00    -0.398 OA
ATOM     18  H3  UNL     1     -15.425  26.008   5.321  1.00  0.00     0.209 HD
ENDBRANCH  16  17
ENDBRANCH  10  16
BRANCH  12  19
HETATM   19  O1  UNL     1     -10.268  25.918   3.010  1.00  0.00    -0.363 OA
HETATM   20  C1  UNL     1      -9.410  25.456   4.032  1.00  0.00     0.204 C 
ENDBRANCH  12  19
BRANCH  13  21
HETATM   21  O11 UNL     1     -10.746  28.012   1.536  1.00  0.00    -0.388 OA
ATOM     22  H11 UNL     1     -10.685  28.960   1.542  1.00  0.00     0.210 HD
ENDBRANCH  13  21
ENDBRANCH   7   8
ENDBRANCH   1   7
BRANCH   6  23
HETATM   23  N1  UNL     1     -11.751  31.547   5.010  1.00  0.00    -0.349 N 
HETATM   24  C13 UNL     1     -10.708  30.841   5.616  1.00  0.00     0.214 C 
HETATM   25  C14 UNL     1     -10.632  30.678   7.089  1.00  0.00     0.117 C 
HETATM   26  O10 UNL     1      -9.808  30.327   4.908  1.00  0.00    -0.274 OA
ATOM     27  H1  UNL     1     -12.472  31.960   5.602  1.00  0.00     0.163 HD
ENDBRANCH   6  23
BRANCH   3  28
HETATM   28  C9  UNL     1     -12.897  32.072  -0.077  1.00  0.00     0.198 C 
BRANCH  28  29
HETATM   29  O7  UNL     1     -14.129  31.751  -0.620  1.00  0.00    -0.398 OA
ATOM     30  H7  UNL     1     -14.150  32.025  -1.530  1.00  0.00     0.209 HD
ENDBRANCH  28  29
ENDBRANCH   3  28
BRANCH   5  31
HETATM   31  O9  UNL     1     -10.396  33.570   3.607  1.00  0.00    -0.391 OA
ATOM     32  H9  UNL     1     -10.417  33.762   4.537  1.00  0.00     0.210 HD
ENDBRANCH   5  31
BRANCH   4  33
HETATM   33  O8  UNL     1     -11.524  34.534   1.291  1.00  0.00    -0.390 OA
ATOM     34  H8  UNL     1     -10.962  34.550   0.525  1.00  0.00     0.210 HD
ENDBRANCH   4  33
TORSDOF 12
ENDMDL
