MODEL 1
REMARK VINA RESULT: -10.537230275      0.000      0.000
REMARK  4 active torsions:
REMARK  status: ('A' for Active; 'I' for Inactive)
REMARK       I    between atoms: C1_2  and  N1_3 
REMARK    1  A    between atoms: C1_2  and  C8_12 
REMARK    2  A    between atoms: N1_3  and  C2_5 
REMARK    3  A    between atoms: C10_17  and  O2_18 
REMARK    4  A    between atoms: C12_21  and  C13_22 
ROOT
HETATM    1  C8  UNL     1     -67.952  46.011  -1.075  1.00  0.00     0.095 A 
HETATM    2  C9  UNL     1     -67.882  45.548  -2.374  1.00  0.00     0.128 A 
HETATM    3  N2  UNL     1     -66.959  46.310  -2.994  1.00  0.00    -0.300 N 
ATOM      4  H2  UNL     1     -66.677  46.216  -3.970  1.00  0.00     0.186 HD
HETATM    5  N3  UNL     1     -66.465  47.215  -2.129  1.00  0.00    -0.217 N 
HETATM    6  C10 UNL     1     -65.529  48.160  -2.308  1.00  0.00     0.165 A 
HETATM    7  C11 UNL     1     -65.201  48.957  -1.227  1.00  0.00     0.083 A 
HETATM    8  C12 UNL     1     -65.807  48.798  -0.002  1.00  0.00     0.019 A 
HETATM    9  N5  UNL     1     -66.733  47.837   0.106  1.00  0.00    -0.343 N 
ATOM     10  H5  UNL     1     -67.198  47.700   1.003  1.00  0.00     0.167 HD
HETATM   11  C18 UNL     1     -67.069  47.048  -0.927  1.00  0.00     0.147 A 
ENDROOT
BRANCH   1  12
HETATM   12  C1  UNL     1     -68.813  45.510   0.004  1.00  0.00     0.261 C 
HETATM   13  O1  UNL     1     -70.047  45.289  -0.222  1.00  0.00    -0.267 OA
HETATM   14  N1  UNL     1     -68.313  45.265   1.308  1.00  0.00    -0.323 N 
ATOM     15  H1  UNL     1     -67.321  45.451   1.459  1.00  0.00     0.169 HD
BRANCH  14  16
HETATM   16  C2  UNL     1     -69.044  44.790   2.420  1.00  0.00     0.035 A 
HETATM   17  C3  UNL     1     -69.166  45.653   3.507  1.00  0.00     0.032 A 
HETATM   18  C4  UNL     1     -69.866  45.331   4.650  1.00  0.00     0.044 A 
HETATM   19  C5  UNL     1     -70.484  44.089   4.730  1.00  0.00     0.116 A 
HETATM   20  F1  UNL     1     -71.192  43.713   5.827  1.00  0.00    -0.206 F 
HETATM   21  C6  UNL     1     -70.390  43.205   3.682  1.00  0.00     0.044 A 
HETATM   22  C7  UNL     1     -69.663  43.581   2.534  1.00  0.00     0.032 A 
ENDBRANCH  14  16
ENDBRANCH   1  12
BRANCH   6  23
HETATM   23  O2  UNL     1     -64.881  48.371  -3.513  1.00  0.00    -0.345 OA
ATOM     24  H2  UNL     1     -63.980  48.669  -3.577  1.00  0.00     0.219 HD
ENDBRANCH   6  23
BRANCH   8  25
HETATM   25  C13 UNL     1     -65.499  49.659   1.193  1.00  0.00     0.039 C 
HETATM   26  C14 UNL     1     -66.204  49.246   2.425  1.00  0.00     0.038 C 
HETATM   27  C15 UNL     1     -65.331  48.332   3.259  1.00  0.00     0.233 C 
HETATM   28  N4  UNL     1     -64.218  49.183   3.701  1.00  0.00    -0.075 N 
HETATM   29  C16 UNL     1     -63.361  49.323   2.528  1.00  0.00     0.233 C 
ATOM     30  H42 UNL     1     -64.513  50.071   4.106  1.00  0.00     0.277 HD
ATOM     31  H41 UNL     1     -63.733  48.832   4.527  1.00  0.00     0.277 HD
HETATM   32  C17 UNL     1     -64.016  49.893   1.329  1.00  0.00     0.038 C 
ENDBRANCH   8  25
TORSDOF 4
ENDMDL
