MODEL 8
REMARK VINA RESULT: -9.404931390      1.222      1.647
REMARK  4 active torsions:
REMARK  status: ('A' for Active; 'I' for Inactive)
REMARK       I    between atoms: C1_2  and  N1_3 
REMARK    1  A    between atoms: C1_2  and  C8_12 
REMARK    2  A    between atoms: N1_3  and  C2_5 
REMARK    3  A    between atoms: C10_17  and  O2_18 
REMARK    4  A    between atoms: C12_21  and  C13_22 
ROOT
HETATM    1  C8  UNL     1     -68.311  45.696  -0.172  1.00  0.00     0.095 A 
HETATM    2  C9  UNL     1     -68.238  45.345  -1.506  1.00  0.00     0.128 A 
HETATM    3  N2  UNL     1     -67.415  46.244  -2.085  1.00  0.00    -0.300 N 
ATOM      4  H2  UNL     1     -67.157  46.255  -3.072  1.00  0.00     0.186 HD
HETATM    5  N3  UNL     1     -66.985  47.124  -1.161  1.00  0.00    -0.217 N 
HETATM    6  C10 UNL     1     -66.154  48.169  -1.285  1.00  0.00     0.165 A 
HETATM    7  C11 UNL     1     -65.871  48.909  -0.151  1.00  0.00     0.083 A 
HETATM    8  C12 UNL     1     -66.419  48.593   1.070  1.00  0.00     0.019 A 
HETATM    9  N5  UNL     1     -67.241  47.538   1.123  1.00  0.00    -0.343 N 
ATOM     10  H5  UNL     1     -67.660  47.284   2.017  1.00  0.00     0.167 HD
HETATM   11  C18 UNL     1     -67.530  46.802   0.038  1.00  0.00     0.147 A 
ENDROOT
BRANCH   1  12
HETATM   12  C1  UNL     1     -69.083  45.027   0.883  1.00  0.00     0.261 C 
HETATM   13  O1  UNL     1     -70.220  44.523   0.612  1.00  0.00    -0.267 OA
HETATM   14  N1  UNL     1     -68.601  44.927   2.213  1.00  0.00    -0.323 N 
ATOM     15  H1  UNL     1     -67.687  45.341   2.400  1.00  0.00     0.169 HD
BRANCH  14  16
HETATM   16  C2  UNL     1     -69.254  44.315   3.306  1.00  0.00     0.035 A 
HETATM   17  C3  UNL     1     -68.929  42.986   3.567  1.00  0.00     0.032 A 
HETATM   18  C4  UNL     1     -69.473  42.268   4.611  1.00  0.00     0.044 A 
HETATM   19  C5  UNL     1     -70.391  42.892   5.448  1.00  0.00     0.116 A 
HETATM   20  F1  UNL     1     -70.960  42.240   6.496  1.00  0.00    -0.206 F 
HETATM   21  C6  UNL     1     -70.742  44.201   5.227  1.00  0.00     0.044 A 
HETATM   22  C7  UNL     1     -70.158  44.894   4.147  1.00  0.00     0.032 A 
ENDBRANCH  14  16
ENDBRANCH   1  12
BRANCH   6  23
HETATM   23  O2  UNL     1     -65.569  48.539  -2.485  1.00  0.00    -0.345 OA
ATOM     24  H2  UNL     1     -64.744  48.183  -2.796  1.00  0.00     0.219 HD
ENDBRANCH   6  23
BRANCH   8  25
HETATM   25  C13 UNL     1     -66.159  49.385   2.324  1.00  0.00     0.039 C 
HETATM   26  C14 UNL     1     -67.304  49.420   3.257  1.00  0.00     0.038 C 
HETATM   27  C15 UNL     1     -67.176  48.329   4.301  1.00  0.00     0.233 C 
HETATM   28  N4  UNL     1     -66.000  48.712   5.095  1.00  0.00    -0.075 N 
HETATM   29  C16 UNL     1     -64.853  48.375   4.259  1.00  0.00     0.233 C 
ATOM     30  H42 UNL     1     -66.012  49.683   5.408  1.00  0.00     0.277 HD
ATOM     31  H41 UNL     1     -65.974  48.290   6.023  1.00  0.00     0.277 HD
HETATM   32  C17 UNL     1     -64.825  49.026   2.929  1.00  0.00     0.038 C 
ENDBRANCH   8  25
TORSDOF 4
ENDMDL
