MODEL 3
REMARK VINA RESULT: -10.180841683      0.532      1.056
REMARK  4 active torsions:
REMARK  status: ('A' for Active; 'I' for Inactive)
REMARK       I    between atoms: C1_2  and  N1_3 
REMARK    1  A    between atoms: C1_2  and  C8_12 
REMARK    2  A    between atoms: N1_3  and  C2_5 
REMARK    3  A    between atoms: C10_17  and  O2_18 
REMARK    4  A    between atoms: C12_21  and  C13_22 
ROOT
HETATM    1  C8  UNL     1     -67.726  46.418  -1.289  1.00  0.00     0.095 A 
HETATM    2  C9  UNL     1     -67.641  46.086  -2.627  1.00  0.00     0.128 A 
HETATM    3  N2  UNL     1     -66.692  46.888  -3.152  1.00  0.00    -0.300 N 
ATOM      4  H2  UNL     1     -66.394  46.885  -4.128  1.00  0.00     0.186 HD
HETATM    5  N3  UNL     1     -66.197  47.692  -2.192  1.00  0.00    -0.217 N 
HETATM    6  C10 UNL     1     -65.241  48.630  -2.260  1.00  0.00     0.165 A 
HETATM    7  C11 UNL     1     -64.918  49.309  -1.099  1.00  0.00     0.083 A 
HETATM    8  C12 UNL     1     -65.550  49.040   0.093  1.00  0.00     0.019 A 
HETATM    9  N5  UNL     1     -66.495  48.092   0.089  1.00  0.00    -0.343 N 
ATOM     10  H5  UNL     1     -66.979  47.875   0.960  1.00  0.00     0.167 HD
HETATM   11  C18 UNL     1     -66.826  47.417  -1.023  1.00  0.00     0.147 A 
ENDROOT
BRANCH   1  12
HETATM   12  C1  UNL     1     -68.616  45.830  -0.280  1.00  0.00     0.261 C 
HETATM   13  O1  UNL     1     -69.785  45.451  -0.612  1.00  0.00    -0.267 OA
HETATM   14  N1  UNL     1     -68.214  45.671   1.071  1.00  0.00    -0.323 N 
ATOM     15  H1  UNL     1     -67.272  45.984   1.307  1.00  0.00     0.169 HD
BRANCH  14  16
HETATM   16  C2  UNL     1     -68.983  45.125   2.123  1.00  0.00     0.035 A 
HETATM   17  C3  UNL     1     -69.620  43.912   1.872  1.00  0.00     0.032 A 
HETATM   18  C4  UNL     1     -70.386  43.254   2.810  1.00  0.00     0.044 A 
HETATM   19  C5  UNL     1     -70.535  43.821   4.071  1.00  0.00     0.116 A 
HETATM   20  F1  UNL     1     -71.274  43.221   5.041  1.00  0.00    -0.206 F 
HETATM   21  C6  UNL     1     -69.925  45.017   4.363  1.00  0.00     0.044 A 
HETATM   22  C7  UNL     1     -69.151  45.651   3.370  1.00  0.00     0.032 A 
ENDBRANCH  14  16
ENDBRANCH   1  12
BRANCH   6  23
HETATM   23  O2  UNL     1     -64.566  48.948  -3.427  1.00  0.00    -0.345 OA
ATOM     24  H2  UNL     1     -63.931  49.652  -3.489  1.00  0.00     0.219 HD
ENDBRANCH   6  23
BRANCH   8  25
HETATM   25  C13 UNL     1     -65.248  49.771   1.373  1.00  0.00     0.039 C 
HETATM   26  C14 UNL     1     -66.150  49.419   2.489  1.00  0.00     0.038 C 
HETATM   27  C15 UNL     1     -65.542  48.326   3.344  1.00  0.00     0.233 C 
HETATM   28  N4  UNL     1     -64.365  48.950   3.963  1.00  0.00    -0.075 N 
HETATM   29  C16 UNL     1     -63.365  49.005   2.902  1.00  0.00     0.233 C 
ATOM     30  H42 UNL     1     -64.556  49.853   4.397  1.00  0.00     0.277 HD
ATOM     31  H41 UNL     1     -64.044  48.478   4.809  1.00  0.00     0.277 HD
HETATM   32  C17 UNL     1     -63.773  49.741   1.684  1.00  0.00     0.038 C 
ENDBRANCH   8  25
TORSDOF 4
ENDMDL
