MODEL 6
REMARK VINA RESULT: -9.888036857      3.715      7.072
REMARK  4 active torsions:
REMARK  status: ('A' for Active; 'I' for Inactive)
REMARK       I    between atoms: C1_2  and  N1_3 
REMARK    1  A    between atoms: C1_2  and  C8_12 
REMARK    2  A    between atoms: N1_3  and  C2_5 
REMARK    3  A    between atoms: C10_17  and  O2_18 
REMARK    4  A    between atoms: C12_21  and  C13_22 
ROOT
HETATM    1  C8  UNL     1     -67.838  45.975  -1.372  1.00  0.00     0.095 A 
HETATM    2  C9  UNL     1     -68.637  45.109  -2.093  1.00  0.00     0.128 A 
HETATM    3  N2  UNL     1     -69.408  44.470  -1.188  1.00  0.00    -0.300 N 
ATOM      4  H2  UNL     1     -70.108  43.761  -1.408  1.00  0.00     0.186 HD
HETATM    5  N3  UNL     1     -69.112  44.911   0.049  1.00  0.00    -0.217 N 
HETATM    6  C10 UNL     1     -69.632  44.564   1.236  1.00  0.00     0.165 A 
HETATM    7  C11 UNL     1     -69.141  45.194   2.365  1.00  0.00     0.083 A 
HETATM    8  C12 UNL     1     -68.152  46.146   2.287  1.00  0.00     0.019 A 
HETATM    9  N5  UNL     1     -67.677  46.443   1.071  1.00  0.00    -0.343 N 
ATOM     10  H5  UNL     1     -66.942  47.146   0.987  1.00  0.00     0.167 HD
HETATM   11  C18 UNL     1     -68.137  45.848  -0.041  1.00  0.00     0.147 A 
ENDROOT
BRANCH   1  12
HETATM   12  C1  UNL     1     -66.823  46.896  -1.899  1.00  0.00     0.261 C 
HETATM   13  O1  UNL     1     -66.349  47.810  -1.150  1.00  0.00    -0.267 OA
HETATM   14  N1  UNL     1     -66.350  46.805  -3.232  1.00  0.00    -0.323 N 
ATOM     15  H1  UNL     1     -66.749  46.063  -3.809  1.00  0.00     0.169 HD
BRANCH  14  16
HETATM   16  C2  UNL     1     -65.385  47.634  -3.846  1.00  0.00     0.035 A 
HETATM   17  C3  UNL     1     -64.508  47.022  -4.739  1.00  0.00     0.032 A 
HETATM   18  C4  UNL     1     -63.529  47.709  -5.425  1.00  0.00     0.044 A 
HETATM   19  C5  UNL     1     -63.404  49.079  -5.222  1.00  0.00     0.116 A 
HETATM   20  F1  UNL     1     -62.462  49.813  -5.870  1.00  0.00    -0.206 F 
HETATM   21  C6  UNL     1     -64.246  49.724  -4.350  1.00  0.00     0.044 A 
HETATM   22  C7  UNL     1     -65.232  48.978  -3.673  1.00  0.00     0.032 A 
ENDBRANCH  14  16
ENDBRANCH   1  12
BRANCH   6  23
HETATM   23  O2  UNL     1     -70.630  43.615   1.383  1.00  0.00    -0.345 OA
ATOM     24  H2  UNL     1     -71.556  43.825   1.373  1.00  0.00     0.219 HD
ENDBRANCH   6  23
BRANCH   8  25
HETATM   25  C13 UNL     1     -67.571  46.838   3.491  1.00  0.00     0.039 C 
HETATM   26  C14 UNL     1     -66.973  45.916   4.480  1.00  0.00     0.038 C 
HETATM   27  C15 UNL     1     -65.484  45.772   4.243  1.00  0.00     0.233 C 
HETATM   28  N4  UNL     1     -64.929  47.098   4.545  1.00  0.00    -0.075 N 
HETATM   29  C16 UNL     1     -65.273  47.923   3.393  1.00  0.00     0.233 C 
ATOM     30  H42 UNL     1     -65.242  47.482   5.437  1.00  0.00     0.277 HD
ATOM     31  H41 UNL     1     -63.933  47.088   4.764  1.00  0.00     0.277 HD
HETATM   32  C17 UNL     1     -66.719  48.014   3.087  1.00  0.00     0.038 C 
ENDBRANCH   8  25
TORSDOF 4
ENDMDL
