MODEL 2
REMARK VINA RESULT: -10.429794812      3.561      6.549
REMARK  4 active torsions:
REMARK  status: ('A' for Active; 'I' for Inactive)
REMARK       I    between atoms: C1_2  and  N1_3 
REMARK    1  A    between atoms: C1_2  and  C8_12 
REMARK    2  A    between atoms: N1_3  and  C2_5 
REMARK    3  A    between atoms: C10_17  and  O2_18 
REMARK    4  A    between atoms: C12_21  and  C13_22 
ROOT
HETATM    1  C8  UNL     1     -68.096  46.177  -0.718  1.00  0.00     0.095 A 
HETATM    2  C9  UNL     1     -69.040  45.173  -0.618  1.00  0.00     0.128 A 
HETATM    3  N2  UNL     1     -69.378  45.106   0.686  1.00  0.00    -0.300 N 
ATOM      4  H2  UNL     1     -70.058  44.458   1.085  1.00  0.00     0.186 HD
HETATM    5  N3  UNL     1     -68.681  46.024   1.382  1.00  0.00    -0.217 N 
HETATM    6  C10 UNL     1     -68.704  46.315   2.691  1.00  0.00     0.165 A 
HETATM    7  C11 UNL     1     -67.879  47.329   3.142  1.00  0.00     0.083 A 
HETATM    8  C12 UNL     1     -67.057  48.025   2.286  1.00  0.00     0.019 A 
HETATM    9  N5  UNL     1     -67.084  47.682   0.992  1.00  0.00    -0.343 N 
ATOM     10  H5  UNL     1     -66.483  48.182   0.338  1.00  0.00     0.167 HD
HETATM   11  C18 UNL     1     -67.876  46.702   0.528  1.00  0.00     0.147 A 
ENDROOT
BRANCH   1  12
HETATM   12  C1  UNL     1     -67.413  46.638  -1.933  1.00  0.00     0.261 C 
HETATM   13  O1  UNL     1     -67.906  46.372  -3.076  1.00  0.00    -0.267 OA
HETATM   14  N1  UNL     1     -66.203  47.376  -1.876  1.00  0.00    -0.323 N 
ATOM     15  H1  UNL     1     -65.832  47.574  -0.946  1.00  0.00     0.169 HD
BRANCH  14  16
HETATM   16  C2  UNL     1     -65.458  47.865  -2.972  1.00  0.00     0.035 A 
HETATM   17  C3  UNL     1     -65.153  49.224  -2.968  1.00  0.00     0.032 A 
HETATM   18  C4  UNL     1     -64.418  49.835  -3.961  1.00  0.00     0.044 A 
HETATM   19  C5  UNL     1     -63.955  49.065  -5.022  1.00  0.00     0.116 A 
HETATM   20  F1  UNL     1     -63.222  49.607  -6.030  1.00  0.00    -0.206 F 
HETATM   21  C6  UNL     1     -64.233  47.721  -5.069  1.00  0.00     0.044 A 
HETATM   22  C7  UNL     1     -64.988  47.142  -4.029  1.00  0.00     0.032 A 
ENDBRANCH  14  16
ENDBRANCH   1  12
BRANCH   6  23
HETATM   23  O2  UNL     1     -69.508  45.654   3.605  1.00  0.00    -0.345 OA
ATOM     24  H2  UNL     1     -69.202  45.360   4.455  1.00  0.00     0.219 HD
ENDBRANCH   6  23
BRANCH   8  25
HETATM   25  C13 UNL     1     -66.126  49.118   2.737  1.00  0.00     0.039 C 
HETATM   26  C14 UNL     1     -65.361  48.785   3.957  1.00  0.00     0.038 C 
HETATM   27  C15 UNL     1     -64.004  48.216   3.598  1.00  0.00     0.233 C 
HETATM   28  N4  UNL     1     -63.287  49.333   2.968  1.00  0.00    -0.075 N 
HETATM   29  C16 UNL     1     -63.860  49.443   1.630  1.00  0.00     0.233 C 
ATOM     30  H42 UNL     1     -63.322  50.200   3.504  1.00  0.00     0.277 HD
ATOM     31  H41 UNL     1     -62.273  49.230   2.976  1.00  0.00     0.277 HD
HETATM   32  C17 UNL     1     -65.323  49.662   1.583  1.00  0.00     0.038 C 
ENDBRANCH   8  25
TORSDOF 4
ENDMDL
