MODEL 4
REMARK VINA RESULT: -10.038116376      2.473      4.877
REMARK  4 active torsions:
REMARK  status: ('A' for Active; 'I' for Inactive)
REMARK       I    between atoms: C1_2  and  N1_3 
REMARK    1  A    between atoms: C1_2  and  C8_12 
REMARK    2  A    between atoms: N1_3  and  C2_5 
REMARK    3  A    between atoms: C10_17  and  O2_18 
REMARK    4  A    between atoms: C12_21  and  C13_22 
ROOT
HETATM    1  C8  UNL     1     -65.274  47.419   4.771  1.00  0.00     0.095 A 
HETATM    2  C9  UNL     1     -64.172  47.553   5.594  1.00  0.00     0.128 A 
HETATM    3  N2  UNL     1     -63.289  48.313   4.915  1.00  0.00    -0.300 N 
ATOM      4  H2  UNL     1     -62.369  48.593   5.257  1.00  0.00     0.186 HD
HETATM    5  N3  UNL     1     -63.805  48.646   3.717  1.00  0.00    -0.217 N 
HETATM    6  C10 UNL     1     -63.285  49.391   2.730  1.00  0.00     0.165 A 
HETATM    7  C11 UNL     1     -64.051  49.584   1.594  1.00  0.00     0.083 A 
HETATM    8  C12 UNL     1     -65.306  49.034   1.468  1.00  0.00     0.019 A 
HETATM    9  N5  UNL     1     -65.762  48.301   2.491  1.00  0.00    -0.343 N 
ATOM     10  H5  UNL     1     -66.689  47.882   2.421  1.00  0.00     0.167 HD
HETATM   11  C18 UNL     1     -65.041  48.100   3.605  1.00  0.00     0.147 A 
ENDROOT
BRANCH   1  12
HETATM   12  C1  UNL     1     -66.511  46.679   5.052  1.00  0.00     0.261 C 
HETATM   13  O1  UNL     1     -67.281  47.066   5.989  1.00  0.00    -0.267 OA
HETATM   14  N1  UNL     1     -66.879  45.528   4.310  1.00  0.00    -0.323 N 
ATOM     15  H1  UNL     1     -66.242  45.241   3.566  1.00  0.00     0.169 HD
BRANCH  14  16
HETATM   16  C2  UNL     1     -68.036  44.738   4.493  1.00  0.00     0.035 A 
HETATM   17  C3  UNL     1     -69.156  45.079   3.739  1.00  0.00     0.032 A 
HETATM   18  C4  UNL     1     -70.346  44.387   3.801  1.00  0.00     0.044 A 
HETATM   19  C5  UNL     1     -70.442  43.293   4.653  1.00  0.00     0.116 A 
HETATM   20  F1  UNL     1     -71.586  42.566   4.756  1.00  0.00    -0.206 F 
HETATM   21  C6  UNL     1     -69.363  42.919   5.416  1.00  0.00     0.044 A 
HETATM   22  C7  UNL     1     -68.167  43.659   5.318  1.00  0.00     0.032 A 
ENDBRANCH  14  16
ENDBRANCH   1  12
BRANCH   6  23
HETATM   23  O2  UNL     1     -62.030  49.973   2.795  1.00  0.00    -0.345 OA
ATOM     24  H2  UNL     1     -61.264  49.611   2.365  1.00  0.00     0.219 HD
ENDBRANCH   6  23
BRANCH   8  25
HETATM   25  C13 UNL     1     -66.162  49.197   0.241  1.00  0.00     0.039 C 
HETATM   26  C14 UNL     1     -65.430  49.717  -0.933  1.00  0.00     0.038 C 
HETATM   27  C15 UNL     1     -64.950  48.578  -1.810  1.00  0.00     0.233 C 
HETATM   28  N4  UNL     1     -66.180  47.973  -2.339  1.00  0.00    -0.075 N 
HETATM   29  C16 UNL     1     -66.730  47.202  -1.229  1.00  0.00     0.233 C 
ATOM     30  H42 UNL     1     -66.834  48.647  -2.737  1.00  0.00     0.277 HD
ATOM     31  H41 UNL     1     -66.039  47.429  -3.190  1.00  0.00     0.277 HD
HETATM   32  C17 UNL     1     -67.011  47.975   0.002  1.00  0.00     0.038 C 
ENDBRANCH   8  25
TORSDOF 4
ENDMDL
