MODEL 18
REMARK VINA RESULT: -6.130539673     11.497     12.627
REMARK  5 active torsions:
REMARK  status: ('A' for Active; 'I' for Inactive)
REMARK    1  A    between atoms: P1_2  and  C1_5 
REMARK    2  A    between atoms: C1_5  and  O4_6 
REMARK    3  A    between atoms: C1_5  and  C2_8 
REMARK    4  A    between atoms: C1_5  and  P2_16 
REMARK    5  A    between atoms: C2_8  and  N1_9 
ROOT
HETATM    1  C1  UNL     1      45.541  74.238  90.906  1.00  0.00     0.301 C 
ENDROOT
BRANCH   1   2
HETATM    2  P1  UNL     1      45.501  76.005  90.612  1.00  0.00     0.311 P 
HETATM    3  O1  UNL     1      46.593  76.627  91.484  1.00  0.00    -0.637 OA
HETATM    4  O2  UNL     1      44.029  76.697  91.039  1.00  0.00    -0.637 OA
HETATM    5  O3  UNL     1      45.902  76.360  88.998  1.00  0.00    -0.637 OA
ENDBRANCH   1   2
BRANCH   1   6
HETATM    6  O4  UNL     1      46.673  73.725  90.252  1.00  0.00    -0.364 OA
ATOM      7  H4  UNL     1      46.387  72.995  89.715  1.00  0.00     0.212 HD
ENDBRANCH   1   6
BRANCH   1   8
HETATM    8  C2  UNL     1      44.354  73.515  90.331  1.00  0.00     0.196 C 
BRANCH   8   9
HETATM    9  N1  UNL     1      44.610  72.825  89.120  1.00  0.00    -0.359 N 
HETATM   10  C3  UNL     1      44.490  71.488  89.048  1.00  0.00     0.090 A 
HETATM   11  C4  UNL     1      44.737  70.794  87.866  1.00  0.00     0.020 A 
HETATM   12  C5  UNL     1      45.111  71.474  86.739  1.00  0.00     0.045 A 
HETATM   13  C6  UNL     1      45.233  72.839  86.813  1.00  0.00     0.131 A 
HETATM   14  F1  UNL     1      45.601  73.534  85.717  1.00  0.00    -0.205 F 
HETATM   15  C7  UNL     1      44.976  73.497  88.020  1.00  0.00     0.132 A 
ENDBRANCH   8   9
ENDBRANCH   1   8
BRANCH   1  16
HETATM   16  P2  UNL     1      45.767  73.958  92.668  1.00  0.00     0.311 P 
HETATM   17  O5  UNL     1      44.844  74.766  93.516  1.00  0.00    -0.637 OA
HETATM   18  O6  UNL     1      47.356  74.409  93.060  1.00  0.00    -0.637 OA
HETATM   19  O7  UNL     1      45.562  72.310  92.992  1.00  0.00    -0.637 OA
ENDBRANCH   1  16
TORSDOF 5
ENDMDL
