MODEL 14
REMARK VINA RESULT: -6.243218106      2.010      3.034
REMARK  5 active torsions:
REMARK  status: ('A' for Active; 'I' for Inactive)
REMARK    1  A    between atoms: P1_2  and  C1_5 
REMARK    2  A    between atoms: C1_5  and  O4_6 
REMARK    3  A    between atoms: C1_5  and  C2_8 
REMARK    4  A    between atoms: C1_5  and  P2_16 
REMARK    5  A    between atoms: C2_8  and  N1_9 
ROOT
HETATM    1  C1  UNL     1      38.414  67.933  85.353  1.00  0.00     0.301 C 
ENDROOT
BRANCH   1   2
HETATM    2  P1  UNL     1      38.662  66.691  84.085  1.00  0.00     0.311 P 
HETATM    3  O1  UNL     1      37.354  65.907  83.966  1.00  0.00    -0.637 OA
HETATM    4  O2  UNL     1      39.891  65.610  84.472  1.00  0.00    -0.637 OA
HETATM    5  O3  UNL     1      38.937  67.417  82.571  1.00  0.00    -0.637 OA
ENDBRANCH   1   2
BRANCH   1   6
HETATM    6  O4  UNL     1      37.797  67.304  86.446  1.00  0.00    -0.364 OA
ATOM      7  H4  UNL     1      36.990  66.911  86.132  1.00  0.00     0.212 HD
ENDBRANCH   1   6
BRANCH   1   8
HETATM    8  C2  UNL     1      37.493  69.041  84.924  1.00  0.00     0.196 C 
BRANCH   8   9
HETATM    9  N1  UNL     1      36.189  68.975  85.476  1.00  0.00    -0.359 N 
HETATM   10  C3  UNL     1      35.219  68.266  84.873  1.00  0.00     0.090 A 
HETATM   11  C4  UNL     1      33.933  68.189  85.401  1.00  0.00     0.020 A 
HETATM   12  C5  UNL     1      33.630  68.847  86.562  1.00  0.00     0.045 A 
HETATM   13  C6  UNL     1      34.620  69.571  87.177  1.00  0.00     0.131 A 
HETATM   14  F1  UNL     1      34.349  70.230  88.323  1.00  0.00    -0.205 F 
HETATM   15  C7  UNL     1      35.899  69.622  86.613  1.00  0.00     0.132 A 
ENDBRANCH   8   9
ENDBRANCH   1   8
BRANCH   1  16
HETATM   16  P2  UNL     1      40.024  68.512  85.906  1.00  0.00     0.311 P 
HETATM   17  O5  UNL     1      40.987  68.733  84.790  1.00  0.00    -0.637 OA
HETATM   18  O6  UNL     1      40.677  67.320  86.923  1.00  0.00    -0.637 OA
HETATM   19  O7  UNL     1      39.818  69.941  86.789  1.00  0.00    -0.637 OA
ENDBRANCH   1  16
TORSDOF 5
ENDMDL
