MODEL 16
REMARK VINA RESULT: -6.199049633      2.036      2.970
REMARK  5 active torsions:
REMARK  status: ('A' for Active; 'I' for Inactive)
REMARK    1  A    between atoms: P1_2  and  C1_5 
REMARK    2  A    between atoms: C1_5  and  O4_6 
REMARK    3  A    between atoms: C1_5  and  C2_8 
REMARK    4  A    between atoms: C1_5  and  P2_16 
REMARK    5  A    between atoms: C2_8  and  N1_9 
ROOT
HETATM    1  C1  UNL     1      39.539  67.195  85.528  1.00  0.00     0.301 C 
ENDROOT
BRANCH   1   2
HETATM    2  P1  UNL     1      40.330  65.600  85.322  1.00  0.00     0.311 P 
HETATM    3  O1  UNL     1      39.311  64.681  84.644  1.00  0.00    -0.637 OA
HETATM    4  O2  UNL     1      40.772  64.905  86.788  1.00  0.00    -0.637 OA
HETATM    5  O3  UNL     1      41.662  65.715  84.270  1.00  0.00    -0.637 OA
ENDBRANCH   1   2
BRANCH   1   6
HETATM    6  O4  UNL     1      38.742  67.126  86.682  1.00  0.00    -0.364 OA
ATOM      7  H4  UNL     1      38.711  67.997  87.061  1.00  0.00     0.212 HD
ENDBRANCH   1   6
BRANCH   1   8
HETATM    8  C2  UNL     1      38.616  67.549  84.394  1.00  0.00     0.196 C 
BRANCH   8   9
HETATM    9  N1  UNL     1      37.322  67.967  84.792  1.00  0.00    -0.359 N 
HETATM   10  C3  UNL     1      36.341  67.073  85.002  1.00  0.00     0.090 A 
HETATM   11  C4  UNL     1      35.064  67.467  85.393  1.00  0.00     0.020 A 
HETATM   12  C5  UNL     1      34.782  68.793  85.573  1.00  0.00     0.045 A 
HETATM   13  C6  UNL     1      35.784  69.706  85.358  1.00  0.00     0.131 A 
HETATM   14  F1  UNL     1      35.534  71.021  85.528  1.00  0.00    -0.205 F 
HETATM   15  C7  UNL     1      37.053  69.269  84.966  1.00  0.00     0.132 A 
ENDBRANCH   8   9
ENDBRANCH   1   8
BRANCH   1  16
HETATM   16  P2  UNL     1      40.813  68.428  85.828  1.00  0.00     0.311 P 
HETATM   17  O5  UNL     1      41.966  67.905  86.614  1.00  0.00    -0.637 OA
HETATM   18  O6  UNL     1      40.108  69.688  86.722  1.00  0.00    -0.637 OA
HETATM   19  O7  UNL     1      41.348  69.036  84.342  1.00  0.00    -0.637 OA
ENDBRANCH   1  16
TORSDOF 5
ENDMDL
