MODEL 20
REMARK VINA RESULT: -6.091574014     10.159     11.721
REMARK  5 active torsions:
REMARK  status: ('A' for Active; 'I' for Inactive)
REMARK    1  A    between atoms: P1_2  and  C1_5 
REMARK    2  A    between atoms: C1_5  and  O4_6 
REMARK    3  A    between atoms: C1_5  and  C2_8 
REMARK    4  A    between atoms: C1_5  and  P2_16 
REMARK    5  A    between atoms: C2_8  and  N1_9 
ROOT
HETATM    1  C1  UNL     1      44.874  73.595  91.111  1.00  0.00     0.301 C 
ENDROOT
BRANCH   1   2
HETATM    2  P1  UNL     1      45.611  74.081  92.671  1.00  0.00     0.311 P 
HETATM    3  O1  UNL     1      45.728  72.816  93.523  1.00  0.00    -0.637 OA
HETATM    4  O2  UNL     1      44.670  75.195  93.509  1.00  0.00    -0.637 OA
HETATM    5  O3  UNL     1      47.192  74.663  92.439  1.00  0.00    -0.637 OA
ENDBRANCH   1   2
BRANCH   1   6
HETATM    6  O4  UNL     1      43.692  72.895  91.402  1.00  0.00    -0.364 OA
ATOM      7  H4  UNL     1      43.405  72.472  90.601  1.00  0.00     0.212 HD
ENDBRANCH   1   6
BRANCH   1   8
HETATM    8  C2  UNL     1      45.739  72.656  90.316  1.00  0.00     0.196 C 
BRANCH   8   9
HETATM    9  N1  UNL     1      45.085  72.028  89.226  1.00  0.00    -0.359 N 
HETATM   10  C3  UNL     1      45.489  72.242  87.962  1.00  0.00     0.090 A 
HETATM   11  C4  UNL     1      44.859  71.633  86.880  1.00  0.00     0.020 A 
HETATM   12  C5  UNL     1      43.801  70.792  87.089  1.00  0.00     0.045 A 
HETATM   13  C6  UNL     1      43.389  70.573  88.380  1.00  0.00     0.131 A 
HETATM   14  F1  UNL     1      42.348  69.748  88.615  1.00  0.00    -0.205 F 
HETATM   15  C7  UNL     1      44.049  71.205  89.439  1.00  0.00     0.132 A 
ENDBRANCH   8   9
ENDBRANCH   1   8
BRANCH   1  16
HETATM   16  P2  UNL     1      44.411  75.081  90.211  1.00  0.00     0.311 P 
HETATM   17  O5  UNL     1      43.925  76.178  91.096  1.00  0.00    -0.637 OA
HETATM   18  O6  UNL     1      43.147  74.669  89.156  1.00  0.00    -0.637 OA
HETATM   19  O7  UNL     1      45.740  75.609  89.305  1.00  0.00    -0.637 OA
ENDBRANCH   1  16
TORSDOF 5
ENDMDL
