MODEL 19
REMARK VINA RESULT: -6.125703583     10.312     11.895
REMARK  5 active torsions:
REMARK  status: ('A' for Active; 'I' for Inactive)
REMARK    1  A    between atoms: P1_2  and  C1_5 
REMARK    2  A    between atoms: C1_5  and  O4_6 
REMARK    3  A    between atoms: C1_5  and  C2_8 
REMARK    4  A    between atoms: C1_5  and  P2_16 
REMARK    5  A    between atoms: C2_8  and  N1_9 
ROOT
HETATM    1  C1  UNL     1      44.850  73.576  91.099  1.00  0.00     0.301 C 
ENDROOT
BRANCH   1   2
HETATM    2  P1  UNL     1      45.604  74.070  92.649  1.00  0.00     0.311 P 
HETATM    3  O1  UNL     1      45.687  72.817  93.523  1.00  0.00    -0.637 OA
HETATM    4  O2  UNL     1      44.697  75.225  93.468  1.00  0.00    -0.637 OA
HETATM    5  O3  UNL     1      47.200  74.602  92.403  1.00  0.00    -0.637 OA
ENDBRANCH   1   2
BRANCH   1   6
HETATM    6  O4  UNL     1      43.657  72.901  91.406  1.00  0.00    -0.364 OA
ATOM      7  H4  UNL     1      43.066  73.017  90.670  1.00  0.00     0.212 HD
ENDBRANCH   1   6
BRANCH   1   8
HETATM    8  C2  UNL     1      45.693  72.613  90.311  1.00  0.00     0.196 C 
BRANCH   8   9
HETATM    9  N1  UNL     1      45.030  72.000  89.219  1.00  0.00    -0.359 N 
HETATM   10  C3  UNL     1      43.947  71.228  89.414  1.00  0.00     0.090 A 
HETATM   11  C4  UNL     1      43.282  70.619  88.352  1.00  0.00     0.020 A 
HETATM   12  C5  UNL     1      43.730  70.799  87.072  1.00  0.00     0.045 A 
HETATM   13  C6  UNL     1      44.835  71.587  86.873  1.00  0.00     0.131 A 
HETATM   14  F1  UNL     1      45.297  71.782  85.621  1.00  0.00    -0.205 F 
HETATM   15  C7  UNL     1      45.474  72.181  87.967  1.00  0.00     0.132 A 
ENDBRANCH   8   9
ENDBRANCH   1   8
BRANCH   1  16
HETATM   16  P2  UNL     1      44.408  75.059  90.183  1.00  0.00     0.311 P 
HETATM   17  O5  UNL     1      43.946  76.175  91.056  1.00  0.00    -0.637 OA
HETATM   18  O6  UNL     1      43.130  74.656  89.140  1.00  0.00    -0.637 OA
HETATM   19  O7  UNL     1      45.740  75.552  89.263  1.00  0.00    -0.637 OA
ENDBRANCH   1  16
TORSDOF 5
ENDMDL
