MODEL 4
REMARK VINA RESULT: -10.390888435      0.532      1.028
REMARK  5 active torsions:
REMARK  status: ('A' for Active; 'I' for Inactive)
REMARK    1  A    between atoms: C5_6  and  C6_7 
REMARK    2  A    between atoms: C6_7  and  C7_8 
REMARK    3  A    between atoms: C9_10  and  O1_11 
REMARK    4  A    between atoms: C11_17  and  C12_18 
REMARK       I    between atoms: C12_18  and  N4_20 
REMARK    5  A    between atoms: N4_20  and  C13_22 
ROOT
HETATM    1  N1  UNL     1     -15.889 -33.575   8.235  1.00  0.00    -0.191 NA
HETATM    2  C1  UNL     1     -16.063 -33.355   7.117  1.00  0.00     0.099 C 
HETATM    3  C2  UNL     1     -16.264 -33.064   5.731  1.00  0.00     0.044 A 
HETATM    4  C3  UNL     1     -15.396 -33.458   4.734  1.00  0.00     0.023 A 
HETATM    5  C4  UNL     1     -15.641 -33.147   3.404  1.00  0.00     0.009 A 
HETATM    6  C5  UNL     1     -16.761 -32.437   3.057  1.00  0.00    -0.052 A 
HETATM    7  C20 UNL     1     -17.632 -32.042   4.056  1.00  0.00     0.009 A 
HETATM    8  C21 UNL     1     -17.387 -32.351   5.383  1.00  0.00     0.023 A 
ENDROOT
BRANCH   6   9
HETATM    9  C6  UNL     1     -17.089 -32.070   1.671  1.00  0.00     0.095 C 
BRANCH   9  10
HETATM   10  C7  UNL     1     -17.502 -33.211   0.835  1.00  0.00     0.019 A 
HETATM   11  C8  UNL     1     -16.927 -33.405  -0.400  1.00  0.00     0.083 A 
HETATM   12  C9  UNL     1     -17.368 -34.493  -1.116  1.00  0.00     0.165 A 
HETATM   13  N2  UNL     1     -18.312 -35.332  -0.650  1.00  0.00    -0.217 N 
HETATM   14  N3  UNL     1     -18.879 -36.429  -1.166  1.00  0.00    -0.300 N 
HETATM   15  C19 UNL     1     -18.850 -35.093   0.583  1.00  0.00     0.147 A 
HETATM   16  C10 UNL     1     -19.781 -36.927  -0.313  1.00  0.00     0.128 A 
ATOM     17  H3  UNL     1     -18.656 -36.827  -2.078  1.00  0.00     0.186 HD
HETATM   18  C11 UNL     1     -19.764 -36.083   0.795  1.00  0.00     0.095 A 
HETATM   19  N5  UNL     1     -18.435 -34.038   1.301  1.00  0.00    -0.343 N 
ATOM     20  H5  UNL     1     -18.842 -33.867   2.221  1.00  0.00     0.167 HD
BRANCH  12  21
HETATM   21  O1  UNL     1     -16.843 -34.775  -2.383  1.00  0.00    -0.345 OA
ATOM     22  H1  UNL     1     -17.384 -35.176  -3.053  1.00  0.00     0.219 HD
ENDBRANCH  12  21
BRANCH  18  23
HETATM   23  C12 UNL     1     -20.620 -36.275   1.984  1.00  0.00     0.261 C 
HETATM   24  O2  UNL     1     -21.035 -35.277   2.623  1.00  0.00    -0.267 OA
HETATM   25  N4  UNL     1     -20.986 -37.562   2.426  1.00  0.00    -0.323 N 
ATOM     26  H4  UNL     1     -20.636 -38.351   1.883  1.00  0.00     0.169 HD
BRANCH  25  27
HETATM   27  C13 UNL     1     -21.786 -37.868   3.540  1.00  0.00     0.035 A 
HETATM   28  C14 UNL     1     -22.881 -38.734   3.321  1.00  0.00     0.032 A 
HETATM   29  C15 UNL     1     -23.670 -39.065   4.382  1.00  0.00     0.044 A 
HETATM   30  C16 UNL     1     -23.425 -38.585   5.632  1.00  0.00     0.116 A 
HETATM   31  F1  UNL     1     -24.224 -38.925   6.687  1.00  0.00    -0.206 F 
HETATM   32  C17 UNL     1     -22.371 -37.752   5.849  1.00  0.00     0.044 A 
HETATM   33  C18 UNL     1     -21.554 -37.398   4.791  1.00  0.00     0.032 A 
ENDBRANCH  25  27
ENDBRANCH  18  23
ENDBRANCH   9  10
ENDBRANCH   6   9
TORSDOF 5
ENDMDL
