MODEL 7
REMARK VINA RESULT: -9.759467643      1.689      2.002
REMARK  5 active torsions:
REMARK  status: ('A' for Active; 'I' for Inactive)
REMARK    1  A    between atoms: C5_6  and  C6_7 
REMARK    2  A    between atoms: C6_7  and  C7_8 
REMARK    3  A    between atoms: C9_10  and  O1_11 
REMARK    4  A    between atoms: C11_17  and  C12_18 
REMARK       I    between atoms: C12_18  and  N4_20 
REMARK    5  A    between atoms: N4_20  and  C13_22 
ROOT
HETATM    1  N1  UNL     1     -15.708 -34.311   8.456  1.00  0.00    -0.191 NA
HETATM    2  C1  UNL     1     -15.861 -33.919   7.383  1.00  0.00     0.099 C 
HETATM    3  C2  UNL     1     -16.067 -33.449   6.048  1.00  0.00     0.044 A 
HETATM    4  C3  UNL     1     -17.119 -32.637   5.677  1.00  0.00     0.023 A 
HETATM    5  C4  UNL     1     -17.271 -32.211   4.366  1.00  0.00     0.009 A 
HETATM    6  C5  UNL     1     -16.368 -32.595   3.408  1.00  0.00    -0.052 A 
HETATM    7  C20 UNL     1     -15.313 -33.409   3.779  1.00  0.00     0.009 A 
HETATM    8  C21 UNL     1     -15.162 -33.834   5.088  1.00  0.00     0.023 A 
ENDROOT
BRANCH   6   9
HETATM    9  C6  UNL     1     -16.461 -32.185   1.999  1.00  0.00     0.095 C 
BRANCH   9  10
HETATM   10  C7  UNL     1     -17.072 -33.201   1.123  1.00  0.00     0.019 A 
HETATM   11  C8  UNL     1     -16.718 -33.270  -0.206  1.00  0.00     0.083 A 
HETATM   12  C9  UNL     1     -17.334 -34.245  -0.953  1.00  0.00     0.165 A 
HETATM   13  N2  UNL     1     -18.237 -35.095  -0.430  1.00  0.00    -0.217 N 
HETATM   14  N3  UNL     1     -18.945 -36.099  -0.962  1.00  0.00    -0.300 N 
HETATM   15  C19 UNL     1     -18.552 -34.983   0.894  1.00  0.00     0.147 A 
HETATM   16  C10 UNL     1     -19.724 -36.659  -0.030  1.00  0.00     0.128 A 
ATOM     17  H3  UNL     1     -18.897 -36.395  -1.937  1.00  0.00     0.186 HD
HETATM   18  C11 UNL     1     -19.477 -35.954   1.146  1.00  0.00     0.095 A 
HETATM   19  N5  UNL     1     -17.964 -34.039   1.645  1.00  0.00    -0.343 N 
ATOM     20  H5  UNL     1     -18.204 -33.963   2.633  1.00  0.00     0.167 HD
BRANCH  12  21
HETATM   21  O1  UNL     1     -17.040 -34.395  -2.314  1.00  0.00    -0.345 OA
ATOM     22  H1  UNL     1     -17.391 -35.126  -2.808  1.00  0.00     0.219 HD
ENDBRANCH  12  21
BRANCH  18  23
HETATM   23  C12 UNL     1     -20.137 -36.253   2.434  1.00  0.00     0.261 C 
HETATM   24  O2  UNL     1     -21.388 -36.184   2.525  1.00  0.00    -0.267 OA
HETATM   25  N4  UNL     1     -19.395 -36.615   3.575  1.00  0.00    -0.323 N 
ATOM     26  H4  UNL     1     -18.382 -36.666   3.467  1.00  0.00     0.169 HD
BRANCH  25  27
HETATM   27  C13 UNL     1     -19.909 -36.915   4.848  1.00  0.00     0.035 A 
HETATM   28  C14 UNL     1     -20.042 -35.837   5.752  1.00  0.00     0.032 A 
HETATM   29  C15 UNL     1     -20.552 -36.087   6.991  1.00  0.00     0.044 A 
HETATM   30  C16 UNL     1     -20.931 -37.339   7.368  1.00  0.00     0.116 A 
HETATM   31  F1  UNL     1     -21.441 -37.576   8.614  1.00  0.00    -0.206 F 
HETATM   32  C17 UNL     1     -20.807 -38.380   6.501  1.00  0.00     0.044 A 
HETATM   33  C18 UNL     1     -20.292 -38.156   5.237  1.00  0.00     0.032 A 
ENDBRANCH  25  27
ENDBRANCH  18  23
ENDBRANCH   9  10
ENDBRANCH   6   9
TORSDOF 5
ENDMDL
