MODEL 6
REMARK VINA RESULT: -10.071159483      2.359      5.456
REMARK  5 active torsions:
REMARK  status: ('A' for Active; 'I' for Inactive)
REMARK    1  A    between atoms: C5_6  and  C6_7 
REMARK    2  A    between atoms: C6_7  and  C7_8 
REMARK    3  A    between atoms: C9_10  and  O1_11 
REMARK    4  A    between atoms: C11_17  and  C12_18 
REMARK       I    between atoms: C12_18  and  N4_20 
REMARK    5  A    between atoms: N4_20  and  C13_22 
ROOT
HETATM    1  N1  UNL     1     -22.796 -39.650   1.179  1.00  0.00    -0.191 NA
HETATM    2  C1  UNL     1     -22.082 -38.805   0.858  1.00  0.00     0.099 C 
HETATM    3  C2  UNL     1     -21.177 -37.767   0.470  1.00  0.00     0.044 A 
HETATM    4  C3  UNL     1     -20.305 -37.871  -0.595  1.00  0.00     0.023 A 
HETATM    5  C4  UNL     1     -19.448 -36.832  -0.926  1.00  0.00     0.009 A 
HETATM    6  C5  UNL     1     -19.454 -35.673  -0.193  1.00  0.00    -0.052 A 
HETATM    7  C20 UNL     1     -20.327 -35.568   0.875  1.00  0.00     0.009 A 
HETATM    8  C21 UNL     1     -21.182 -36.606   1.205  1.00  0.00     0.023 A 
ENDROOT
BRANCH   6   9
HETATM    9  C6  UNL     1     -18.576 -34.529  -0.481  1.00  0.00     0.095 C 
BRANCH   9  10
HETATM   10  C7  UNL     1     -18.060 -33.856   0.725  1.00  0.00     0.019 A 
HETATM   11  C8  UNL     1     -17.231 -32.764   0.604  1.00  0.00     0.083 A 
HETATM   12  C9  UNL     1     -16.794 -32.195   1.777  1.00  0.00     0.165 A 
HETATM   13  N2  UNL     1     -17.147 -32.669   2.986  1.00  0.00    -0.217 N 
HETATM   14  N3  UNL     1     -16.846 -32.279   4.231  1.00  0.00    -0.300 N 
HETATM   15  C19 UNL     1     -17.972 -33.756   3.049  1.00  0.00     0.147 A 
HETATM   16  C10 UNL     1     -17.446 -33.076   5.122  1.00  0.00     0.128 A 
ATOM     17  H3  UNL     1     -16.246 -31.489   4.466  1.00  0.00     0.186 HD
HETATM   18  C11 UNL     1     -18.159 -34.011   4.376  1.00  0.00     0.095 A 
HETATM   19  N5  UNL     1     -18.413 -34.328   1.918  1.00  0.00    -0.343 N 
ATOM     20  H5  UNL     1     -19.029 -35.139   1.974  1.00  0.00     0.167 HD
BRANCH  12  21
HETATM   21  O1  UNL     1     -15.947 -31.080   1.758  1.00  0.00    -0.345 OA
ATOM     22  H1  UNL     1     -15.069 -31.133   2.114  1.00  0.00     0.219 HD
ENDBRANCH  12  21
BRANCH  18  23
HETATM   23  C12 UNL     1     -18.974 -35.088   4.977  1.00  0.00     0.261 C 
HETATM   24  O2  UNL     1     -19.825 -34.809   5.857  1.00  0.00    -0.267 OA
HETATM   25  N4  UNL     1     -18.820 -36.433   4.586  1.00  0.00    -0.323 N 
ATOM     26  H4  UNL     1     -18.123 -36.625   3.867  1.00  0.00     0.169 HD
BRANCH  25  27
HETATM   27  C13 UNL     1     -19.530 -37.537   5.088  1.00  0.00     0.035 A 
HETATM   28  C14 UNL     1     -20.509 -38.104   4.242  1.00  0.00     0.032 A 
HETATM   29  C15 UNL     1     -21.207 -39.186   4.689  1.00  0.00     0.044 A 
HETATM   30  C16 UNL     1     -20.979 -39.724   5.918  1.00  0.00     0.116 A 
HETATM   31  F1  UNL     1     -21.687 -40.809   6.355  1.00  0.00    -0.206 F 
HETATM   32  C17 UNL     1     -20.036 -39.183   6.737  1.00  0.00     0.044 A 
HETATM   33  C18 UNL     1     -19.314 -38.084   6.310  1.00  0.00     0.032 A 
ENDBRANCH  25  27
ENDBRANCH  18  23
ENDBRANCH   9  10
ENDBRANCH   6   9
TORSDOF 5
ENDMDL
