MODEL 5
REMARK VINA RESULT: -10.248759035      2.561      3.974
REMARK  5 active torsions:
REMARK  status: ('A' for Active; 'I' for Inactive)
REMARK    1  A    between atoms: C5_6  and  C6_7 
REMARK    2  A    between atoms: C6_7  and  C7_8 
REMARK    3  A    between atoms: C9_10  and  O1_11 
REMARK    4  A    between atoms: C11_17  and  C12_18 
REMARK       I    between atoms: C12_18  and  N4_20 
REMARK    5  A    between atoms: N4_20  and  C13_22 
ROOT
HETATM    1  N1  UNL     1     -20.152 -39.831   6.576  1.00  0.00    -0.191 NA
HETATM    2  C1  UNL     1     -19.742 -38.786   6.316  1.00  0.00     0.099 C 
HETATM    3  C2  UNL     1     -19.226 -37.486   6.015  1.00  0.00     0.044 A 
HETATM    4  C3  UNL     1     -17.888 -37.224   5.806  1.00  0.00     0.023 A 
HETATM    5  C4  UNL     1     -17.443 -35.943   5.518  1.00  0.00     0.009 A 
HETATM    6  C5  UNL     1     -18.335 -34.905   5.436  1.00  0.00    -0.052 A 
HETATM    7  C20 UNL     1     -19.677 -35.167   5.645  1.00  0.00     0.009 A 
HETATM    8  C21 UNL     1     -20.121 -36.446   5.933  1.00  0.00     0.023 A 
ENDROOT
BRANCH   6   9
HETATM    9  C6  UNL     1     -17.941 -33.521   5.136  1.00  0.00     0.095 C 
BRANCH   9  10
HETATM   10  C7  UNL     1     -17.561 -33.302   3.728  1.00  0.00     0.019 A 
HETATM   11  C8  UNL     1     -16.694 -32.286   3.397  1.00  0.00     0.083 A 
HETATM   12  C9  UNL     1     -16.392 -32.150   2.063  1.00  0.00     0.165 A 
HETATM   13  N2  UNL     1     -16.907 -32.959   1.118  1.00  0.00    -0.217 N 
HETATM   14  N3  UNL     1     -16.753 -33.006  -0.211  1.00  0.00    -0.300 N 
HETATM   15  C19 UNL     1     -17.763 -33.952   1.501  1.00  0.00     0.147 A 
HETATM   16  C10 UNL     1     -17.482 -34.003  -0.724  1.00  0.00     0.128 A 
ATOM     17  H3  UNL     1     -16.164 -32.374  -0.753  1.00  0.00     0.186 HD
HETATM   18  C11 UNL     1     -18.122 -34.603   0.358  1.00  0.00     0.095 A 
HETATM   19  N5  UNL     1     -18.073 -34.105   2.798  1.00  0.00    -0.343 N 
ATOM     20  H5  UNL     1     -18.712 -34.850   3.076  1.00  0.00     0.167 HD
BRANCH  12  21
HETATM   21  O1  UNL     1     -15.519 -31.145   1.627  1.00  0.00    -0.345 OA
ATOM     22  H1  UNL     1     -15.104 -31.201   0.775  1.00  0.00     0.219 HD
ENDBRANCH  12  21
BRANCH  18  23
HETATM   23  C12 UNL     1     -19.034 -35.758   0.231  1.00  0.00     0.261 C 
HETATM   24  O2  UNL     1     -19.201 -36.302  -0.888  1.00  0.00    -0.267 OA
HETATM   25  N4  UNL     1     -19.731 -36.271   1.343  1.00  0.00    -0.323 N 
ATOM     26  H4  UNL     1     -19.571 -35.810   2.238  1.00  0.00     0.169 HD
BRANCH  25  27
HETATM   27  C13 UNL     1     -20.625 -37.356   1.344  1.00  0.00     0.035 A 
HETATM   28  C14 UNL     1     -20.962 -37.904   2.602  1.00  0.00     0.032 A 
HETATM   29  C15 UNL     1     -21.838 -38.947   2.643  1.00  0.00     0.044 A 
HETATM   30  C16 UNL     1     -22.387 -39.462   1.509  1.00  0.00     0.116 A 
HETATM   31  F1  UNL     1     -23.265 -40.510   1.564  1.00  0.00    -0.206 F 
HETATM   32  C17 UNL     1     -22.067 -38.938   0.295  1.00  0.00     0.044 A 
HETATM   33  C18 UNL     1     -21.180 -37.880   0.224  1.00  0.00     0.032 A 
ENDBRANCH  25  27
ENDBRANCH  18  23
ENDBRANCH   9  10
ENDBRANCH   6   9
TORSDOF 5
ENDMDL
