MODEL 3
REMARK VINA RESULT: -8.060387907      2.782      3.975
REMARK  2 active torsions:
REMARK  status: ('A' for Active; 'I' for Inactive)
REMARK    1  A    between atoms: C1_6  and  N2_7 
REMARK    2  A    between atoms: N2_7  and  C2_9 
ROOT
HETATM    1  O1  UNL     1      19.837 -34.782  18.778  1.00  0.00    -0.205 OA
HETATM    2  S1  UNL     1      19.727 -33.721  17.727  1.00  0.00     0.240 S 
HETATM    3  O2  UNL     1      20.977 -33.757  16.865  1.00  0.00    -0.205 OA
HETATM    4  N1  UNL     1      18.393 -34.008  16.669  1.00  0.00    -0.249 N 
ATOM      5  H1  UNL     1      18.347 -34.910  16.196  1.00  0.00     0.182 HD
HETATM    6  C1  UNL     1      17.460 -33.168  16.439  1.00  0.00     0.229 C 
HETATM    7  O3  UNL     1      17.481 -31.945  17.053  1.00  0.00    -0.315 OA
HETATM    8  C8  UNL     1      18.696 -31.306  17.378  1.00  0.00     0.152 C 
HETATM    9  C9  UNL     1      18.482 -29.938  17.963  1.00  0.00     0.034 C 
HETATM   10  C10 UNL     1      19.214 -29.729  19.252  1.00  0.00     0.002 C 
HETATM   11  C11 UNL     1      18.690 -30.731  20.264  1.00  0.00     0.002 C 
HETATM   12  C12 UNL     1      18.755 -32.148  19.727  1.00  0.00     0.024 C 
HETATM   13  C13 UNL     1      19.486 -32.105  18.422  1.00  0.00     0.159 C 
ENDROOT
BRANCH   6  14
HETATM   14  N2  UNL     1      16.432 -33.580  15.531  1.00  0.00    -0.351 N 
ATOM     15  H2  UNL     1      16.657 -34.176  14.735  1.00  0.00     0.163 HD
BRANCH  14  16
HETATM   16  C2  UNL     1      15.081 -33.146  15.750  1.00  0.00     0.085 C 
HETATM   17  C3  UNL     1      14.419 -32.620  14.509  1.00  0.00     0.025 C 
HETATM   18  C4  UNL     1      14.236 -33.765  13.511  1.00  0.00     0.002 C 
HETATM   19  C5  UNL     1      13.195 -34.683  14.146  1.00  0.00     0.000 C 
HETATM   20  C6  UNL     1      13.858 -35.298  15.368  1.00  0.00     0.002 C 
HETATM   21  C7  UNL     1      14.229 -34.218  16.344  1.00  0.00     0.025 C 
ENDBRANCH  14  16
ENDBRANCH   6  14
TORSDOF 2
ENDMDL
