MODEL 4
REMARK VINA RESULT: -7.995506171      5.437      7.220
REMARK  2 active torsions:
REMARK  status: ('A' for Active; 'I' for Inactive)
REMARK    1  A    between atoms: C1_6  and  N2_7 
REMARK    2  A    between atoms: N2_7  and  C2_9 
ROOT
HETATM    1  O1  UNL     1      17.663 -35.832  12.313  1.00  0.00    -0.205 OA
HETATM    2  S1  UNL     1      16.263 -36.128  11.871  1.00  0.00     0.240 S 
HETATM    3  O2  UNL     1      16.072 -35.595  10.462  1.00  0.00    -0.205 OA
HETATM    4  N1  UNL     1      15.965 -37.827  11.797  1.00  0.00    -0.249 N 
ATOM      5  H1  UNL     1      16.591 -38.395  11.226  1.00  0.00     0.182 HD
HETATM    6  C1  UNL     1      15.016 -38.421  12.409  1.00  0.00     0.229 C 
HETATM    7  O3  UNL     1      14.153 -37.699  13.188  1.00  0.00    -0.315 OA
HETATM    8  C8  UNL     1      13.824 -36.363  12.875  1.00  0.00     0.152 C 
HETATM    9  C9  UNL     1      12.793 -35.796  13.811  1.00  0.00     0.034 C 
HETATM   10  C10 UNL     1      13.196 -34.480  14.400  1.00  0.00     0.002 C 
HETATM   11  C11 UNL     1      14.464 -34.688  15.209  1.00  0.00     0.002 C 
HETATM   12  C12 UNL     1      15.542 -35.364  14.384  1.00  0.00     0.024 C 
HETATM   13  C13 UNL     1      15.050 -35.447  12.973  1.00  0.00     0.159 C 
ENDROOT
BRANCH   6  14
HETATM   14  N2  UNL     1      14.923 -39.840  12.231  1.00  0.00    -0.351 N 
ATOM     15  H2  UNL     1      14.159 -40.240  11.685  1.00  0.00     0.163 HD
BRANCH  14  16
HETATM   16  C2  UNL     1      15.911 -40.693  12.827  1.00  0.00     0.085 C 
HETATM   17  C3  UNL     1      16.075 -40.469  14.303  1.00  0.00     0.025 C 
HETATM   18  C4  UNL     1      14.795 -40.898  15.023  1.00  0.00     0.002 C 
HETATM   19  C5  UNL     1      14.742 -42.415  14.866  1.00  0.00     0.000 C 
HETATM   20  C6  UNL     1      14.497 -42.682  13.389  1.00  0.00     0.002 C 
HETATM   21  C7  UNL     1      15.638 -42.139  12.577  1.00  0.00     0.025 C 
ENDBRANCH  14  16
ENDBRANCH   6  14
TORSDOF 2
ENDMDL
