MODEL 2
REMARK VINA RESULT: -8.099228917      3.322      6.520
REMARK  2 active torsions:
REMARK  status: ('A' for Active; 'I' for Inactive)
REMARK    1  A    between atoms: C1_6  and  N2_7 
REMARK    2  A    between atoms: N2_7  and  C2_9 
ROOT
HETATM    1  O1  UNL     1      13.805 -32.971  13.766  1.00  0.00    -0.205 OA
HETATM    2  S1  UNL     1      14.874 -34.017  13.696  1.00  0.00     0.240 S 
HETATM    3  O2  UNL     1      15.564 -33.919  12.347  1.00  0.00    -0.205 OA
HETATM    4  N1  UNL     1      16.092 -33.764  14.892  1.00  0.00    -0.249 N 
ATOM      5  H1  UNL     1      16.557 -32.857  14.912  1.00  0.00     0.182 HD
HETATM    6  C1  UNL     1      16.451 -34.636  15.753  1.00  0.00     0.229 C 
HETATM    7  O3  UNL     1      15.854 -35.867  15.762  1.00  0.00    -0.315 OA
HETATM    8  C8  UNL     1      15.381 -36.463  14.575  1.00  0.00     0.152 C 
HETATM    9  C9  UNL     1      14.845 -37.849  14.808  1.00  0.00     0.034 C 
HETATM   10  C10 UNL     1      13.473 -38.051  14.241  1.00  0.00     0.002 C 
HETATM   11  C11 UNL     1      12.527 -37.086  14.933  1.00  0.00     0.002 C 
HETATM   12  C12 UNL     1      13.035 -35.659  14.855  1.00  0.00     0.024 C 
HETATM   13  C13 UNL     1      14.234 -35.652  13.960  1.00  0.00     0.159 C 
ENDROOT
BRANCH   6  14
HETATM   14  N2  UNL     1      17.481 -34.248  16.670  1.00  0.00    -0.351 N 
ATOM     15  H2  UNL     1      17.326 -33.479  17.323  1.00  0.00     0.163 HD
BRANCH  14  16
HETATM   16  C2  UNL     1      18.733 -34.950  16.664  1.00  0.00     0.085 C 
HETATM   17  C3  UNL     1      19.913 -34.060  16.931  1.00  0.00     0.025 C 
HETATM   18  C4  UNL     1      19.837 -33.539  18.367  1.00  0.00     0.002 C 
HETATM   19  C5  UNL     1      20.071 -34.765  19.246  1.00  0.00     0.000 C 
HETATM   20  C6  UNL     1      18.855 -35.659  19.063  1.00  0.00     0.002 C 
HETATM   21  C7  UNL     1      18.750 -36.090  17.628  1.00  0.00     0.025 C 
ENDBRANCH  14  16
ENDBRANCH   6  14
TORSDOF 2
ENDMDL
