MODEL 2
REMARK VINA RESULT: -10.315207324      2.903      5.589
REMARK  6 active torsions:
REMARK  status: ('A' for Active; 'I' for Inactive)
REMARK    1  A    between atoms: N1_2  and  C3_4 
REMARK    2  A    between atoms: C6_7  and  C7_8 
REMARK    3  A    between atoms: C7_8  and  C8_9 
REMARK    4  A    between atoms: C7_8  and  C14_17 
REMARK    5  A    between atoms: C11_12  and  O1_13 
REMARK    6  A    between atoms: C17_20  and  N2_21 
ROOT
HETATM    1  C7  UNL     1       1.603   7.885  -2.376  1.00  0.00     0.084 C 
ENDROOT
BRANCH   1   2
HETATM    2  C6  UNL     1       1.712   6.953  -1.230  1.00  0.00    -0.045 A 
HETATM    3  C5  UNL     1       2.029   7.352   0.042  1.00  0.00     0.010 A 
HETATM    4  C4  UNL     1       2.119   6.456   1.086  1.00  0.00     0.030 A 
HETATM    5  C3  UNL     1       1.885   5.112   0.861  1.00  0.00     0.029 A 
HETATM    6  C23 UNL     1       1.567   4.717  -0.418  1.00  0.00     0.030 A 
HETATM    7  C22 UNL     1       1.479   5.614  -1.456  1.00  0.00     0.010 A 
BRANCH   5   8
HETATM    8  N1  UNL     1       1.961   4.144   1.889  1.00  0.00    -0.390 N 
HETATM    9  C1  UNL     1       3.185   3.987   2.624  1.00  0.00     0.149 C 
HETATM   10  C2  UNL     1       0.827   3.325   2.197  1.00  0.00     0.149 C 
ENDBRANCH   5   8
ENDBRANCH   1   2
BRANCH   1  11
HETATM   11  C8  UNL     1       1.380   9.278  -1.928  1.00  0.00    -0.045 A 
HETATM   12  C9  UNL     1       0.172   9.627  -1.367  1.00  0.00     0.011 A 
HETATM   13  C10 UNL     1      -0.055  10.914  -0.931  1.00  0.00     0.037 A 
HETATM   14  C11 UNL     1       0.952  11.863  -1.065  1.00  0.00     0.065 A 
HETATM   15  C12 UNL     1       2.153  11.500  -1.628  1.00  0.00     0.037 A 
HETATM   16  C13 UNL     1       2.369  10.229  -2.054  1.00  0.00     0.011 A 
BRANCH  14  17
HETATM   17  O1  UNL     1       0.753  13.174  -0.633  1.00  0.00    -0.361 OA
ATOM     18  H1  UNL     1       1.038  13.907  -1.166  1.00  0.00     0.217 HD
ENDBRANCH  14  17
ENDBRANCH   1  11
BRANCH   1  19
HETATM   19  C14 UNL     1       2.685   7.733  -3.379  1.00  0.00    -0.045 A 
HETATM   20  C15 UNL     1       2.500   8.263  -4.663  1.00  0.00     0.010 A 
HETATM   21  C16 UNL     1       3.438   8.174  -5.635  1.00  0.00     0.030 A 
HETATM   22  C17 UNL     1       4.642   7.547  -5.404  1.00  0.00     0.029 A 
HETATM   23  C20 UNL     1       4.829   7.029  -4.155  1.00  0.00     0.030 A 
HETATM   24  C21 UNL     1       3.884   7.108  -3.147  1.00  0.00     0.010 A 
BRANCH  22  25
HETATM   25  N2  UNL     1       5.602   7.473  -6.446  1.00  0.00    -0.390 N 
HETATM   26  C18 UNL     1       5.230   7.886  -7.792  1.00  0.00     0.149 C 
HETATM   27  C19 UNL     1       6.945   6.998  -6.211  1.00  0.00     0.149 C 
ENDBRANCH  22  25
ENDBRANCH   1  19
TORSDOF 6
ENDMDL
