MODEL 1
REMARK VINA RESULT: -10.546446627      0.000      0.000
REMARK  6 active torsions:
REMARK  status: ('A' for Active; 'I' for Inactive)
REMARK    1  A    between atoms: N1_2  and  C3_4 
REMARK    2  A    between atoms: C6_7  and  C7_8 
REMARK    3  A    between atoms: C7_8  and  C8_9 
REMARK    4  A    between atoms: C7_8  and  C14_17 
REMARK    5  A    between atoms: C11_12  and  O1_13 
REMARK    6  A    between atoms: C17_20  and  N2_21 
ROOT
HETATM    1  C7  UNL     1       2.692   7.877  -1.733  1.00  0.00     0.084 C 
ENDROOT
BRANCH   1   2
HETATM    2  C6  UNL     1       2.226   6.633  -1.079  1.00  0.00    -0.045 A 
HETATM    3  C5  UNL     1       1.711   5.565  -1.766  1.00  0.00     0.010 A 
HETATM    4  C4  UNL     1       1.289   4.420  -1.123  1.00  0.00     0.030 A 
HETATM    5  C3  UNL     1       1.383   4.329   0.253  1.00  0.00     0.029 A 
HETATM    6  C23 UNL     1       1.901   5.404   0.937  1.00  0.00     0.030 A 
HETATM    7  C22 UNL     1       2.320   6.544   0.293  1.00  0.00     0.010 A 
BRANCH   5   8
HETATM    8  N1  UNL     1       0.968   3.183   0.970  1.00  0.00    -0.390 N 
HETATM    9  C1  UNL     1       1.174   1.880   0.403  1.00  0.00     0.149 C 
HETATM   10  C2  UNL     1       0.347   3.319   2.254  1.00  0.00     0.149 C 
ENDBRANCH   5   8
ENDBRANCH   1   2
BRANCH   1  11
HETATM   11  C8  UNL     1       3.105   7.637  -3.134  1.00  0.00    -0.045 A 
HETATM   12  C9  UNL     1       4.070   6.695  -3.406  1.00  0.00     0.011 A 
HETATM   13  C10 UNL     1       4.463   6.445  -4.703  1.00  0.00     0.037 A 
HETATM   14  C11 UNL     1       3.872   7.157  -5.740  1.00  0.00     0.065 A 
HETATM   15  C12 UNL     1       2.908   8.096  -5.453  1.00  0.00     0.037 A 
HETATM   16  C13 UNL     1       2.527   8.336  -4.171  1.00  0.00     0.011 A 
BRANCH  14  17
HETATM   17  O1  UNL     1       4.247   6.927  -7.063  1.00  0.00    -0.361 OA
ATOM     18  H1  UNL     1       3.717   7.255  -7.780  1.00  0.00     0.217 HD
ENDBRANCH  14  17
ENDBRANCH   1  11
BRANCH   1  19
HETATM   19  C14 UNL     1       1.774   9.029  -1.556  1.00  0.00    -0.045 A 
HETATM   20  C15 UNL     1       2.261  10.325  -1.771  1.00  0.00     0.010 A 
HETATM   21  C16 UNL     1       1.489  11.429  -1.639  1.00  0.00     0.030 A 
HETATM   22  C17 UNL     1       0.163  11.330  -1.280  1.00  0.00     0.029 A 
HETATM   23  C20 UNL     1      -0.317  10.070  -1.069  1.00  0.00     0.030 A 
HETATM   24  C21 UNL     1       0.453   8.928  -1.199  1.00  0.00     0.010 A 
BRANCH  22  25
HETATM   25  N2  UNL     1      -0.615  12.509  -1.151  1.00  0.00    -0.390 N 
HETATM   26  C18 UNL     1       0.011  13.807  -1.358  1.00  0.00     0.149 C 
HETATM   27  C19 UNL     1      -2.020  12.460  -0.817  1.00  0.00     0.149 C 
ENDBRANCH  22  25
ENDBRANCH   1  19
TORSDOF 6
ENDMDL
