MODEL 7
REMARK VINA RESULT: -9.629492120      2.860      5.568
REMARK  6 active torsions:
REMARK  status: ('A' for Active; 'I' for Inactive)
REMARK    1  A    between atoms: N1_2  and  C3_4 
REMARK    2  A    between atoms: C6_7  and  C7_8 
REMARK    3  A    between atoms: C7_8  and  C8_9 
REMARK    4  A    between atoms: C7_8  and  C14_17 
REMARK    5  A    between atoms: C11_12  and  O1_13 
REMARK    6  A    between atoms: C17_20  and  N2_21 
ROOT
HETATM    1  C7  UNL     1       1.515   7.574  -2.340  1.00  0.00     0.084 C 
ENDROOT
BRANCH   1   2
HETATM    2  C6  UNL     1       2.604   7.510  -3.342  1.00  0.00    -0.045 A 
HETATM    3  C5  UNL     1       3.746   6.772  -3.170  1.00  0.00     0.010 A 
HETATM    4  C4  UNL     1       4.739   6.733  -4.127  1.00  0.00     0.030 A 
HETATM    5  C3  UNL     1       4.594   7.453  -5.298  1.00  0.00     0.029 A 
HETATM    6  C23 UNL     1       3.446   8.191  -5.465  1.00  0.00     0.030 A 
HETATM    7  C22 UNL     1       2.459   8.227  -4.509  1.00  0.00     0.010 A 
BRANCH   5   8
HETATM    8  N1  UNL     1       5.576   7.454  -6.316  1.00  0.00    -0.390 N 
HETATM    9  C1  UNL     1       5.226   7.894  -7.637  1.00  0.00     0.149 C 
HETATM   10  C2  UNL     1       6.912   7.020  -6.033  1.00  0.00     0.149 C 
ENDBRANCH   5   8
ENDBRANCH   1   2
BRANCH   1  11
HETATM   11  C8  UNL     1       1.780   6.686  -1.186  1.00  0.00    -0.045 A 
HETATM   12  C9  UNL     1       2.260   7.221  -0.013  1.00  0.00     0.011 A 
HETATM   13  C10 UNL     1       2.503   6.417   1.079  1.00  0.00     0.037 A 
HETATM   14  C11 UNL     1       2.259   5.051   0.984  1.00  0.00     0.065 A 
HETATM   15  C12 UNL     1       1.780   4.530  -0.196  1.00  0.00     0.037 A 
HETATM   16  C13 UNL     1       1.543   5.331  -1.267  1.00  0.00     0.011 A 
BRANCH  14  17
HETATM   17  O1  UNL     1       2.495   4.210   2.071  1.00  0.00    -0.361 OA
ATOM     18  H1  UNL     1       1.878   4.167   2.792  1.00  0.00     0.217 HD
ENDBRANCH  14  17
ENDBRANCH   1  11
BRANCH   1  19
HETATM   19  C14 UNL     1       1.121   8.955  -1.969  1.00  0.00    -0.045 A 
HETATM   20  C15 UNL     1      -0.182   9.189  -1.508  1.00  0.00     0.010 A 
HETATM   21  C16 UNL     1      -0.620  10.416  -1.142  1.00  0.00     0.030 A 
HETATM   22  C17 UNL     1       0.208  11.514  -1.207  1.00  0.00     0.029 A 
HETATM   23  C20 UNL     1       1.479  11.293  -1.654  1.00  0.00     0.030 A 
HETATM   24  C21 UNL     1       1.948  10.048  -2.033  1.00  0.00     0.010 A 
BRANCH  22  25
HETATM   25  N2  UNL     1      -0.285  12.785  -0.814  1.00  0.00    -0.390 N 
HETATM   26  C18 UNL     1      -1.723  13.010  -0.762  1.00  0.00     0.149 C 
HETATM   27  C19 UNL     1       0.601  13.870  -0.464  1.00  0.00     0.149 C 
ENDBRANCH  22  25
ENDBRANCH   1  19
TORSDOF 6
ENDMDL
