MODEL 6
REMARK VINA RESULT: -9.826773743      2.741      6.923
REMARK  6 active torsions:
REMARK  status: ('A' for Active; 'I' for Inactive)
REMARK    1  A    between atoms: N1_2  and  C3_4 
REMARK    2  A    between atoms: C6_7  and  C7_8 
REMARK    3  A    between atoms: C7_8  and  C8_9 
REMARK    4  A    between atoms: C7_8  and  C14_17 
REMARK    5  A    between atoms: C11_12  and  O1_13 
REMARK    6  A    between atoms: C17_20  and  N2_21 
ROOT
HETATM    1  C7  UNL     1       2.745   7.891  -1.595  1.00  0.00     0.084 C 
ENDROOT
BRANCH   1   2
HETATM    2  C6  UNL     1       1.817   9.037  -1.455  1.00  0.00    -0.045 A 
HETATM    3  C5  UNL     1       0.570   8.936  -0.895  1.00  0.00     0.010 A 
HETATM    4  C4  UNL     1      -0.266  10.026  -0.777  1.00  0.00     0.030 A 
HETATM    5  C3  UNL     1       0.149  11.264  -1.231  1.00  0.00     0.029 A 
HETATM    6  C23 UNL     1       1.401  11.359  -1.792  1.00  0.00     0.030 A 
HETATM    7  C22 UNL     1       2.232  10.271  -1.908  1.00  0.00     0.010 A 
BRANCH   5   8
HETATM    8  N1  UNL     1      -0.662  12.419  -1.140  1.00  0.00    -0.390 N 
HETATM    9  C1  UNL     1      -0.060  13.718  -1.250  1.00  0.00     0.149 C 
HETATM   10  C2  UNL     1      -2.075  12.296  -0.938  1.00  0.00     0.149 C 
ENDBRANCH   5   8
ENDBRANCH   1   2
BRANCH   1  11
HETATM   11  C8  UNL     1       2.151   6.640  -1.073  1.00  0.00    -0.045 A 
HETATM   12  C9  UNL     1       1.560   5.753  -1.944  1.00  0.00     0.011 A 
HETATM   13  C10 UNL     1       1.011   4.576  -1.484  1.00  0.00     0.037 A 
HETATM   14  C11 UNL     1       1.059   4.291  -0.124  1.00  0.00     0.065 A 
HETATM   15  C12 UNL     1       1.653   5.187   0.734  1.00  0.00     0.037 A 
HETATM   16  C13 UNL     1       2.193   6.345   0.272  1.00  0.00     0.011 A 
BRANCH  14  17
HETATM   17  O1  UNL     1       0.513   3.109   0.373  1.00  0.00    -0.361 OA
ATOM     18  H1  UNL     1       0.216   3.054   1.274  1.00  0.00     0.217 HD
ENDBRANCH  14  17
ENDBRANCH   1  11
BRANCH   1  19
HETATM   19  C14 UNL     1       3.343   7.765  -2.947  1.00  0.00    -0.045 A 
HETATM   20  C15 UNL     1       4.586   7.132  -3.083  1.00  0.00     0.010 A 
HETATM   21  C16 UNL     1       5.198   6.969  -4.279  1.00  0.00     0.030 A 
HETATM   22  C17 UNL     1       4.618   7.426  -5.442  1.00  0.00     0.029 A 
HETATM   23  C20 UNL     1       3.406   8.043  -5.316  1.00  0.00     0.030 A 
HETATM   24  C21 UNL     1       2.763   8.220  -4.104  1.00  0.00     0.010 A 
BRANCH  22  25
HETATM   25  N2  UNL     1       5.288   7.237  -6.678  1.00  0.00    -0.390 N 
HETATM   26  C18 UNL     1       6.734   7.065  -6.689  1.00  0.00     0.149 C 
HETATM   27  C19 UNL     1       4.575   7.211  -7.933  1.00  0.00     0.149 C 
ENDBRANCH  22  25
ENDBRANCH   1  19
TORSDOF 6
ENDMDL
