MODEL 3
REMARK VINA RESULT: -10.107412025      2.749      6.993
REMARK  6 active torsions:
REMARK  status: ('A' for Active; 'I' for Inactive)
REMARK    1  A    between atoms: N1_2  and  C3_4 
REMARK    2  A    between atoms: C6_7  and  C7_8 
REMARK    3  A    between atoms: C7_8  and  C8_9 
REMARK    4  A    between atoms: C7_8  and  C14_17 
REMARK    5  A    between atoms: C11_12  and  O1_13 
REMARK    6  A    between atoms: C17_20  and  N2_21 
ROOT
HETATM    1  C7  UNL     1       2.514   7.790  -1.396  1.00  0.00     0.084 C 
ENDROOT
BRANCH   1   2
HETATM    2  C6  UNL     1       3.171   7.680  -2.718  1.00  0.00    -0.045 A 
HETATM    3  C5  UNL     1       2.687   8.272  -3.855  1.00  0.00     0.010 A 
HETATM    4  C4  UNL     1       3.328   8.151  -5.070  1.00  0.00     0.030 A 
HETATM    5  C3  UNL     1       4.495   7.416  -5.162  1.00  0.00     0.029 A 
HETATM    6  C23 UNL     1       4.976   6.824  -4.018  1.00  0.00     0.030 A 
HETATM    7  C22 UNL     1       4.334   6.946  -2.809  1.00  0.00     0.010 A 
BRANCH   5   8
HETATM    8  N1  UNL     1       5.198   7.254  -6.378  1.00  0.00    -0.390 N 
HETATM    9  C1  UNL     1       6.617   7.035  -6.352  1.00  0.00     0.149 C 
HETATM   10  C2  UNL     1       4.501   7.307  -7.629  1.00  0.00     0.149 C 
ENDBRANCH   5   8
ENDBRANCH   1   2
BRANCH   1  11
HETATM   11  C8  UNL     1       1.476   8.845  -1.387  1.00  0.00    -0.045 A 
HETATM   12  C9  UNL     1       1.841  10.159  -1.577  1.00  0.00     0.011 A 
HETATM   13  C10 UNL     1       0.892  11.158  -1.585  1.00  0.00     0.037 A 
HETATM   14  C11 UNL     1      -0.445  10.825  -1.398  1.00  0.00     0.065 A 
HETATM   15  C12 UNL     1      -0.794   9.508  -1.209  1.00  0.00     0.037 A 
HETATM   16  C13 UNL     1       0.148   8.530  -1.203  1.00  0.00     0.011 A 
BRANCH  14  17
HETATM   17  O1  UNL     1      -1.429  11.813  -1.401  1.00  0.00    -0.361 OA
ATOM     18  H1  UNL     1      -1.413  12.510  -2.047  1.00  0.00     0.217 HD
ENDBRANCH  14  17
ENDBRANCH   1  11
BRANCH   1  19
HETATM   19  C14 UNL     1       2.067   6.490  -0.837  1.00  0.00    -0.045 A 
HETATM   20  C15 UNL     1       2.100   6.300   0.550  1.00  0.00     0.010 A 
HETATM   21  C16 UNL     1       1.704   5.149   1.142  1.00  0.00     0.030 A 
HETATM   22  C17 UNL     1       1.241   4.089   0.394  1.00  0.00     0.029 A 
HETATM   23  C20 UNL     1       1.206   4.269  -0.959  1.00  0.00     0.030 A 
HETATM   24  C21 UNL     1       1.606   5.436  -1.585  1.00  0.00     0.010 A 
BRANCH  22  25
HETATM   25  N2  UNL     1       0.834   2.898   1.048  1.00  0.00    -0.390 N 
HETATM   26  C18 UNL     1       0.186   2.982   2.349  1.00  0.00     0.149 C 
HETATM   27  C19 UNL     1       1.044   1.597   0.459  1.00  0.00     0.149 C 
ENDBRANCH  22  25
ENDBRANCH   1  19
TORSDOF 6
ENDMDL
