MODEL 5
REMARK VINA RESULT: -6.031705661      3.545      4.186
REMARK  4 active torsions:
REMARK  status: ('A' for Active; 'I' for Inactive)
REMARK    1  A    between atoms: N1_1  and  C1_5 
REMARK    2  A    between atoms: C1_5  and  C2_6 
REMARK    3  A    between atoms: C1_5  and  P1_18 
REMARK    4  A    between atoms: C5_9  and  N2_10 
ROOT
HETATM    1  C2  UNL     1      86.386  73.476  30.427  1.00  0.00    -0.014 A 
HETATM    2  C3  UNL     1      86.861  72.194  30.432  1.00  0.00     0.012 A 
HETATM    3  C4  UNL     1      88.187  71.893  30.445  1.00  0.00     0.032 A 
HETATM    4  C5  UNL     1      89.123  72.889  30.451  1.00  0.00     0.056 A 
HETATM    5  C9  UNL     1      88.677  74.191  30.446  1.00  0.00     0.032 A 
HETATM    6  C10 UNL     1      87.315  74.488  30.433  1.00  0.00     0.012 A 
ENDROOT
BRANCH   1   7
HETATM    7  C1  UNL     1      84.937  73.829  30.404  1.00  0.00     0.344 C 
BRANCH   7   8
HETATM    8  N1  UNL     1      84.919  75.141  29.714  1.00  0.00    -0.058 N 
ATOM      9  H13 UNL     1      84.943  75.087  28.696  1.00  0.00     0.275 HD
ATOM     10  H12 UNL     1      84.030  75.638  29.771  1.00  0.00     0.275 HD
ATOM     11  H11 UNL     1      85.709  75.635  30.132  1.00  0.00     0.275 HD
ENDBRANCH   7   8
BRANCH   7  12
HETATM   12  P1  UNL     1      84.155  73.630  31.850  1.00  0.00     0.295 P 
HETATM   13  O1  UNL     1      85.347  73.768  32.881  1.00  0.00    -0.638 OA
HETATM   14  O2  UNL     1      83.458  72.137  31.489  1.00  0.00    -0.638 OA
HETATM   15  O3  UNL     1      83.138  74.978  31.529  1.00  0.00    -0.638 OA
ENDBRANCH   7  12
ENDBRANCH   1   7
BRANCH   4  16
HETATM   16  N2  UNL     1      90.510  72.572  30.464  1.00  0.00    -0.268 N 
HETATM   17  C6  UNL     1      91.299  72.505  31.535  1.00  0.00     0.118 A 
HETATM   18  C7  UNL     1      92.559  72.164  31.062  1.00  0.00     0.038 A 
HETATM   19  C8  UNL     1      92.491  72.035  29.687  1.00  0.00     0.109 A 
HETATM   20  N3  UNL     1      91.216  72.293  29.358  1.00  0.00    -0.305 N 
ATOM     21  H3  UNL     1      90.839  72.280  28.410  1.00  0.00     0.186 HD
ENDBRANCH   4  16
TORSDOF 4
ENDMDL
