MODEL 4
REMARK VINA RESULT: -6.095149860      4.771      5.935
REMARK  4 active torsions:
REMARK  status: ('A' for Active; 'I' for Inactive)
REMARK    1  A    between atoms: N1_1  and  C1_5 
REMARK    2  A    between atoms: C1_5  and  C2_6 
REMARK    3  A    between atoms: C1_5  and  P1_18 
REMARK    4  A    between atoms: C5_9  and  N2_10 
ROOT
HETATM    1  C2  UNL     1      85.800  73.327  31.262  1.00  0.00    -0.014 A 
HETATM    2  C3  UNL     1      85.039  73.857  32.267  1.00  0.00     0.012 A 
HETATM    3  C4  UNL     1      83.861  73.313  32.671  1.00  0.00     0.032 A 
HETATM    4  C5  UNL     1      83.376  72.186  32.070  1.00  0.00     0.056 A 
HETATM    5  C9  UNL     1      84.117  71.628  31.054  1.00  0.00     0.032 A 
HETATM    6  C10 UNL     1      85.326  72.194  30.647  1.00  0.00     0.012 A 
ENDROOT
BRANCH   1   7
HETATM    7  C1  UNL     1      87.091  73.911  30.797  1.00  0.00     0.344 C 
BRANCH   7   8
HETATM    8  N1  UNL     1      86.688  74.746  29.640  1.00  0.00    -0.058 N 
ATOM      9  H13 UNL     1      85.880  74.397  29.125  1.00  0.00     0.275 HD
ATOM     10  H12 UNL     1      86.274  75.644  29.889  1.00  0.00     0.275 HD
ATOM     11  H11 UNL     1      87.545  74.812  29.090  1.00  0.00     0.275 HD
ENDBRANCH   7   8
BRANCH   7  12
HETATM   12  P1  UNL     1      88.331  72.821  30.653  1.00  0.00     0.295 P 
HETATM   13  O1  UNL     1      88.111  72.278  29.184  1.00  0.00    -0.638 OA
HETATM   14  O2  UNL     1      87.937  71.901  32.011  1.00  0.00    -0.638 OA
HETATM   15  O3  UNL     1      89.497  74.049  30.949  1.00  0.00    -0.638 OA
ENDBRANCH   7  12
ENDBRANCH   1   7
BRANCH   4  16
HETATM   16  N2  UNL     1      82.141  71.619  32.494  1.00  0.00    -0.268 N 
HETATM   17  C6  UNL     1      81.053  71.440  31.748  1.00  0.00     0.118 A 
HETATM   18  C7  UNL     1      80.107  70.860  32.583  1.00  0.00     0.038 A 
HETATM   19  C8  UNL     1      80.667  70.703  33.837  1.00  0.00     0.109 A 
HETATM   20  N3  UNL     1      81.918  71.181  33.741  1.00  0.00    -0.305 N 
ATOM     21  H3  UNL     1      82.596  71.207  34.503  1.00  0.00     0.186 HD
ENDBRANCH   4  16
TORSDOF 4
ENDMDL
