MODEL 13
REMARK VINA RESULT: -5.765235995      4.288      4.910
REMARK  4 active torsions:
REMARK  status: ('A' for Active; 'I' for Inactive)
REMARK    1  A    between atoms: N1_1  and  C1_5 
REMARK    2  A    between atoms: C1_5  and  C2_6 
REMARK    3  A    between atoms: C1_5  and  P1_18 
REMARK    4  A    between atoms: C5_9  and  N2_10 
ROOT
HETATM    1  C2  UNL     1      85.048  73.003  30.817  1.00  0.00    -0.014 A 
HETATM    2  C3  UNL     1      85.446  71.861  30.179  1.00  0.00     0.012 A 
HETATM    3  C4  UNL     1      84.837  70.659  30.361  1.00  0.00     0.032 A 
HETATM    4  C5  UNL     1      83.775  70.543  31.214  1.00  0.00     0.056 A 
HETATM    5  C9  UNL     1      83.351  71.674  31.872  1.00  0.00     0.032 A 
HETATM    6  C10 UNL     1      83.983  72.902  31.678  1.00  0.00     0.012 A 
ENDROOT
BRANCH   1   7
HETATM    7  C1  UNL     1      85.706  74.330  30.640  1.00  0.00     0.344 C 
BRANCH   7   8
HETATM    8  N1  UNL     1      84.886  74.978  29.588  1.00  0.00    -0.058 N 
ATOM      9  H13 UNL     1      84.065  74.445  29.302  1.00  0.00     0.275 HD
ATOM     10  H12 UNL     1      84.372  75.802  29.898  1.00  0.00     0.275 HD
ATOM     11  H11 UNL     1      85.560  75.153  28.842  1.00  0.00     0.275 HD
ENDBRANCH   7   8
BRANCH   7  12
HETATM   12  P1  UNL     1      87.356  74.270  30.500  1.00  0.00     0.295 P 
HETATM   13  O1  UNL     1      87.532  73.751  29.017  1.00  0.00    -0.638 OA
HETATM   14  O2  UNL     1      87.627  73.272  31.832  1.00  0.00    -0.638 OA
HETATM   15  O3  UNL     1      87.484  75.950  30.842  1.00  0.00    -0.638 OA
ENDBRANCH   7  12
ENDBRANCH   1   7
BRANCH   4  16
HETATM   16  N2  UNL     1      83.140  69.283  31.403  1.00  0.00    -0.268 N 
HETATM   17  C6  UNL     1      81.860  68.998  31.175  1.00  0.00     0.118 A 
HETATM   18  C7  UNL     1      81.702  67.657  31.499  1.00  0.00     0.038 A 
HETATM   19  C8  UNL     1      82.921  67.163  31.924  1.00  0.00     0.109 A 
HETATM   20  N3  UNL     1      83.779  68.192  31.850  1.00  0.00    -0.305 N 
ATOM     21  H3  UNL     1      84.768  68.151  32.097  1.00  0.00     0.186 HD
ENDBRANCH   4  16
TORSDOF 4
ENDMDL
