MODEL 1
REMARK VINA RESULT: -6.225581569      0.000      0.000
REMARK  4 active torsions:
REMARK  status: ('A' for Active; 'I' for Inactive)
REMARK    1  A    between atoms: N1_1  and  C1_5 
REMARK    2  A    between atoms: C1_5  and  C2_6 
REMARK    3  A    between atoms: C1_5  and  P1_18 
REMARK    4  A    between atoms: C5_9  and  N2_10 
ROOT
HETATM    1  C2  UNL     1      87.943  72.142  31.077  1.00  0.00    -0.014 A 
HETATM    2  C3  UNL     1      87.333  70.954  30.791  1.00  0.00     0.012 A 
HETATM    3  C4  UNL     1      87.685  69.778  31.377  1.00  0.00     0.032 A 
HETATM    4  C5  UNL     1      88.692  69.739  32.299  1.00  0.00     0.056 A 
HETATM    5  C9  UNL     1      89.328  70.919  32.609  1.00  0.00     0.032 A 
HETATM    6  C10 UNL     1      88.959  72.119  32.002  1.00  0.00     0.012 A 
ENDROOT
BRANCH   1   7
HETATM    7  C1  UNL     1      87.580  73.442  30.441  1.00  0.00     0.344 C 
BRANCH   7   8
HETATM    8  N1  UNL     1      88.785  74.277  30.663  1.00  0.00    -0.058 N 
ATOM      9  H13 UNL     1      89.629  73.752  30.893  1.00  0.00     0.275 HD
ATOM     10  H12 UNL     1      89.160  74.712  29.820  1.00  0.00     0.275 HD
ATOM     11  H11 UNL     1      88.484  74.934  31.382  1.00  0.00     0.275 HD
ENDBRANCH   7   8
BRANCH   7  12
HETATM   12  P1  UNL     1      86.078  74.012  30.844  1.00  0.00     0.295 P 
HETATM   13  O1  UNL     1      85.922  73.483  32.326  1.00  0.00    -0.638 OA
HETATM   14  O2  UNL     1      85.251  73.308  29.554  1.00  0.00    -0.638 OA
HETATM   15  O3  UNL     1      86.576  75.634  30.561  1.00  0.00    -0.638 OA
ENDBRANCH   7  12
ENDBRANCH   1   7
BRANCH   4  16
HETATM   16  N2  UNL     1      89.059  68.507  32.911  1.00  0.00    -0.268 N 
HETATM   17  C6  UNL     1      88.297  67.422  33.029  1.00  0.00     0.118 A 
HETATM   18  C7  UNL     1      89.074  66.478  33.688  1.00  0.00     0.038 A 
HETATM   19  C8  UNL     1      90.309  67.036  33.955  1.00  0.00     0.109 A 
HETATM   20  N3  UNL     1      90.262  68.284  33.461  1.00  0.00    -0.305 N 
ATOM     21  H3  UNL     1      91.024  68.960  33.499  1.00  0.00     0.186 HD
ENDBRANCH   4  16
TORSDOF 4
ENDMDL
