MODEL 2
REMARK VINA RESULT: -6.203996290      4.754      5.865
REMARK  4 active torsions:
REMARK  status: ('A' for Active; 'I' for Inactive)
REMARK    1  A    between atoms: N1_1  and  C1_5 
REMARK    2  A    between atoms: C1_5  and  C2_6 
REMARK    3  A    between atoms: C1_5  and  P1_18 
REMARK    4  A    between atoms: C5_9  and  N2_10 
ROOT
HETATM    1  C2  UNL     1      85.787  73.266  31.237  1.00  0.00    -0.014 A 
HETATM    2  C3  UNL     1      85.262  72.125  30.696  1.00  0.00     0.012 A 
HETATM    3  C4  UNL     1      84.085  71.583  31.106  1.00  0.00     0.032 A 
HETATM    4  C5  UNL     1      83.361  72.173  32.104  1.00  0.00     0.056 A 
HETATM    5  C9  UNL     1      83.863  73.322  32.670  1.00  0.00     0.032 A 
HETATM    6  C10 UNL     1      85.071  73.870  32.242  1.00  0.00     0.012 A 
ENDROOT
BRANCH   1   7
HETATM    7  C1  UNL     1      87.080  73.873  30.809  1.00  0.00     0.344 C 
BRANCH   7   8
HETATM    8  N1  UNL     1      86.690  74.727  29.661  1.00  0.00    -0.058 N 
ATOM      9  H13 UNL     1      85.936  74.350  29.088  1.00  0.00     0.275 HD
ATOM     10  H12 UNL     1      86.206  75.588  29.917  1.00  0.00     0.275 HD
ATOM     11  H11 UNL     1      87.571  74.867  29.165  1.00  0.00     0.275 HD
ENDBRANCH   7   8
BRANCH   7  12
HETATM   12  P1  UNL     1      88.335  72.801  30.669  1.00  0.00     0.295 P 
HETATM   13  O1  UNL     1      88.115  72.240  29.206  1.00  0.00    -0.638 OA
HETATM   14  O2  UNL     1      87.963  71.888  32.038  1.00  0.00    -0.638 OA
HETATM   15  O3  UNL     1      89.484  74.050  30.946  1.00  0.00    -0.638 OA
ENDBRANCH   7  12
ENDBRANCH   1   7
BRANCH   4  16
HETATM   16  N2  UNL     1      82.129  71.603  32.533  1.00  0.00    -0.268 N 
HETATM   17  C6  UNL     1      81.041  71.417  31.789  1.00  0.00     0.118 A 
HETATM   18  C7  UNL     1      80.098  70.835  32.628  1.00  0.00     0.038 A 
HETATM   19  C8  UNL     1      80.661  70.685  33.881  1.00  0.00     0.109 A 
HETATM   20  N3  UNL     1      81.910  71.168  33.782  1.00  0.00    -0.305 N 
ATOM     21  H3  UNL     1      82.589  71.200  34.542  1.00  0.00     0.186 HD
ENDBRANCH   4  16
TORSDOF 4
ENDMDL
