MODEL 3
REMARK VINA RESULT: -6.135116304      0.235      1.160
REMARK  4 active torsions:
REMARK  status: ('A' for Active; 'I' for Inactive)
REMARK    1  A    between atoms: N1_1  and  C1_5 
REMARK    2  A    between atoms: C1_5  and  C2_6 
REMARK    3  A    between atoms: C1_5  and  P1_18 
REMARK    4  A    between atoms: C5_9  and  N2_10 
ROOT
HETATM    1  C2  UNL     1      88.032  72.296  31.059  1.00  0.00    -0.014 A 
HETATM    2  C3  UNL     1      89.002  72.234  32.020  1.00  0.00     0.012 A 
HETATM    3  C4  UNL     1      89.400  71.070  32.599  1.00  0.00     0.032 A 
HETATM    4  C5  UNL     1      88.828  69.884  32.234  1.00  0.00     0.056 A 
HETATM    5  C9  UNL     1      87.848  69.912  31.269  1.00  0.00     0.032 A 
HETATM    6  C10 UNL     1      87.447  71.111  30.681  1.00  0.00     0.012 A 
ENDROOT
BRANCH   1   7
HETATM    7  C1  UNL     1      87.573  73.561  30.416  1.00  0.00     0.344 C 
BRANCH   7   8
HETATM    8  N1  UNL     1      88.724  74.476  30.608  1.00  0.00    -0.058 N 
ATOM      9  H13 UNL     1      89.590  74.015  30.886  1.00  0.00     0.275 HD
ATOM     10  H12 UNL     1      89.093  74.880  29.747  1.00  0.00     0.275 HD
ATOM     11  H11 UNL     1      88.371  75.157  31.280  1.00  0.00     0.275 HD
ENDBRANCH   7   8
BRANCH   7  12
HETATM   12  P1  UNL     1      86.044  74.036  30.840  1.00  0.00     0.295 P 
HETATM   13  O1  UNL     1      85.946  73.510  32.328  1.00  0.00    -0.638 OA
HETATM   14  O2  UNL     1      85.243  73.269  29.569  1.00  0.00    -0.638 OA
HETATM   15  O3  UNL     1      86.430  75.684  30.536  1.00  0.00    -0.638 OA
ENDBRANCH   7  12
ENDBRANCH   1   7
BRANCH   4  16
HETATM   16  N2  UNL     1      89.246  68.667  32.842  1.00  0.00    -0.268 N 
HETATM   17  C6  UNL     1      88.466  67.647  33.193  1.00  0.00     0.118 A 
HETATM   18  C7  UNL     1      89.310  66.691  33.743  1.00  0.00     0.038 A 
HETATM   19  C8  UNL     1      90.603  67.176  33.708  1.00  0.00     0.109 A 
HETATM   20  N3  UNL     1      90.523  68.393  33.147  1.00  0.00    -0.305 N 
ATOM     21  H3  UNL     1      91.313  69.015  32.979  1.00  0.00     0.186 HD
ENDBRANCH   4  16
TORSDOF 4
ENDMDL
