MODEL 19
REMARK VINA RESULT: -6.776085772      1.263      1.789
REMARK  4 active torsions:
REMARK  status: ('A' for Active; 'I' for Inactive)
REMARK    1  A    between atoms: C2_2  and  C10_12 
REMARK    2  A    between atoms: C3_3  and  C4_4 
REMARK    3  A    between atoms: C5_5  and  C6_6 
REMARK    4  A    between atoms: C8_8  and  C9_9 
ROOT
HETATM    1  C1  UNL     1      64.796  47.223  27.631  1.00  0.00     0.048 C 
HETATM    2  C2  UNL     1      63.558  47.504  28.416  1.00  0.00    -0.061 C 
HETATM    3  C3  UNL     1      62.446  47.772  27.706  1.00  0.00     0.007 C 
ENDROOT
BRANCH   2   4
HETATM    4  C10 UNL     1      63.403  47.487  29.837  1.00  0.00     0.014 C 
HETATM    5  C11 UNL     1      64.337  47.618  30.725  1.00  0.00    -0.047 C 
HETATM    6  C12 UNL     1      65.745  47.813  30.465  1.00  0.00     0.040 C 
HETATM    7  C20 UNL     1      63.974  47.518  32.190  1.00  0.00    -0.024 A 
HETATM    8  C13 UNL     1      66.547  46.661  31.122  1.00  0.00     0.009 C 
HETATM    9  C14 UNL     1      66.367  46.787  32.594  1.00  0.00     0.040 C 
HETATM   10  C15 UNL     1      64.998  47.103  33.033  1.00  0.00    -0.047 A 
HETATM   11  C16 UNL     1      64.661  46.995  34.391  1.00  0.00     0.008 A 
HETATM   12  C17 UNL     1      63.391  47.288  34.827  1.00  0.00     0.001 A 
HETATM   13  C18 UNL     1      62.403  47.699  33.947  1.00  0.00     0.001 A 
HETATM   14  C19 UNL     1      62.711  47.812  32.609  1.00  0.00     0.012 A 
ENDBRANCH   2   4
BRANCH   3  15
HETATM   15  C4  UNL     1      61.145  48.071  28.280  1.00  0.00     0.001 C 
HETATM   16  C5  UNL     1      60.302  47.075  28.535  1.00  0.00     0.007 C 
BRANCH  16  17
HETATM   17  C6  UNL     1      58.977  47.184  29.100  1.00  0.00    -0.056 C 
HETATM   18  C7  UNL     1      58.091  48.333  28.850  1.00  0.00     0.048 C 
HETATM   19  C8  UNL     1      58.525  46.204  29.881  1.00  0.00     0.091 C 
BRANCH  19  20
HETATM   20  C9  UNL     1      57.212  46.240  30.484  1.00  0.00     0.199 C 
HETATM   21  O1  UNL     1      57.110  46.916  31.575  1.00  0.00    -0.644 OA
HETATM   22  O2  UNL     1      56.077  45.622  29.998  1.00  0.00    -0.644 OA
ENDBRANCH  19  20
ENDBRANCH  16  17
ENDBRANCH   3  15
TORSDOF 4
ENDMDL
