MODEL 8
REMARK VINA RESULT: -7.942488038      3.537      6.957
REMARK  4 active torsions:
REMARK  status: ('A' for Active; 'I' for Inactive)
REMARK    1  A    between atoms: C2_2  and  C10_12 
REMARK    2  A    between atoms: C3_3  and  C4_4 
REMARK    3  A    between atoms: C5_5  and  C6_6 
REMARK    4  A    between atoms: C8_8  and  C9_9 
ROOT
HETATM    1  C1  UNL     1      62.769  49.236  26.947  1.00  0.00     0.048 C 
HETATM    2  C2  UNL     1      63.139  48.283  28.035  1.00  0.00    -0.061 C 
HETATM    3  C3  UNL     1      64.410  47.836  28.035  1.00  0.00     0.007 C 
ENDROOT
BRANCH   2   4
HETATM    4  C10 UNL     1      62.313  47.814  29.104  1.00  0.00     0.014 C 
HETATM    5  C11 UNL     1      61.201  47.157  28.999  1.00  0.00    -0.047 C 
HETATM    6  C12 UNL     1      60.556  46.755  27.771  1.00  0.00     0.040 C 
HETATM    7  C20 UNL     1      60.444  46.795  30.257  1.00  0.00    -0.024 A 
HETATM    8  C13 UNL     1      59.135  47.370  27.717  1.00  0.00     0.009 C 
HETATM    9  C14 UNL     1      58.352  46.759  28.825  1.00  0.00     0.040 C 
HETATM   10  C15 UNL     1      59.073  46.626  30.103  1.00  0.00    -0.047 A 
HETATM   11  C16 UNL     1      58.364  46.304  31.270  1.00  0.00     0.008 A 
HETATM   12  C17 UNL     1      59.014  46.171  32.474  1.00  0.00     0.001 A 
HETATM   13  C18 UNL     1      60.384  46.348  32.578  1.00  0.00     0.001 A 
HETATM   14  C19 UNL     1      61.100  46.664  31.444  1.00  0.00     0.012 A 
ENDBRANCH   2   4
BRANCH   3  15
HETATM   15  C4  UNL     1      64.965  46.908  29.005  1.00  0.00     0.001 C 
HETATM   16  C5  UNL     1      65.965  47.303  29.786  1.00  0.00     0.007 C 
BRANCH  16  17
HETATM   17  C6  UNL     1      66.636  46.522  30.799  1.00  0.00    -0.056 C 
HETATM   18  C7  UNL     1      67.977  45.946  30.609  1.00  0.00     0.048 C 
HETATM   19  C8  UNL     1      66.023  46.310  31.962  1.00  0.00     0.091 C 
BRANCH  19  20
HETATM   20  C9  UNL     1      66.628  45.538  33.025  1.00  0.00     0.199 C 
HETATM   21  O1  UNL     1      67.187  46.216  33.966  1.00  0.00    -0.644 OA
HETATM   22  O2  UNL     1      66.657  44.161  33.115  1.00  0.00    -0.644 OA
ENDBRANCH  19  20
ENDBRANCH  16  17
ENDBRANCH   3  15
TORSDOF 4
ENDMDL
