MODEL 6
REMARK VINA RESULT: -8.201528359      3.584      6.357
REMARK  4 active torsions:
REMARK  status: ('A' for Active; 'I' for Inactive)
REMARK    1  A    between atoms: C2_2  and  C10_12 
REMARK    2  A    between atoms: C3_3  and  C4_4 
REMARK    3  A    between atoms: C5_5  and  C6_6 
REMARK    4  A    between atoms: C8_8  and  C9_9 
ROOT
HETATM    1  C1  UNL     1      64.647  49.497  27.081  1.00  0.00     0.048 C 
HETATM    2  C2  UNL     1      64.652  48.402  28.096  1.00  0.00    -0.061 C 
HETATM    3  C3  UNL     1      65.859  47.951  28.486  1.00  0.00     0.007 C 
ENDROOT
BRANCH   2   4
HETATM    4  C10 UNL     1      63.524  47.799  28.735  1.00  0.00     0.014 C 
HETATM    5  C11 UNL     1      63.083  48.039  29.929  1.00  0.00    -0.047 C 
HETATM    6  C12 UNL     1      63.641  48.976  30.876  1.00  0.00     0.040 C 
HETATM    7  C20 UNL     1      61.898  47.252  30.445  1.00  0.00    -0.024 A 
HETATM    8  C13 UNL     1      64.043  48.217  32.167  1.00  0.00     0.009 C 
HETATM    9  C14 UNL     1      62.789  47.697  32.776  1.00  0.00     0.040 C 
HETATM   10  C15 UNL     1      61.823  47.119  31.826  1.00  0.00    -0.047 A 
HETATM   11  C16 UNL     1      60.735  46.378  32.308  1.00  0.00     0.008 A 
HETATM   12  C17 UNL     1      59.817  45.830  31.443  1.00  0.00     0.001 A 
HETATM   13  C18 UNL     1      59.933  45.991  30.071  1.00  0.00     0.001 A 
HETATM   14  C19 UNL     1      60.996  46.716  29.576  1.00  0.00     0.012 A 
ENDBRANCH   2   4
BRANCH   3  15
HETATM   15  C4  UNL     1      66.077  46.895  29.460  1.00  0.00     0.001 C 
HETATM   16  C5  UNL     1      66.897  47.113  30.483  1.00  0.00     0.007 C 
BRANCH  16  17
HETATM   17  C6  UNL     1      67.231  46.186  31.540  1.00  0.00    -0.056 C 
HETATM   18  C7  UNL     1      68.564  46.124  32.160  1.00  0.00     0.048 C 
HETATM   19  C8  UNL     1      66.295  45.348  31.983  1.00  0.00     0.091 C 
BRANCH  19  20
HETATM   20  C9  UNL     1      66.551  44.391  33.036  1.00  0.00     0.199 C 
HETATM   21  O1  UNL     1      66.601  43.156  32.677  1.00  0.00    -0.644 OA
HETATM   22  O2  UNL     1      66.745  44.684  34.372  1.00  0.00    -0.644 OA
ENDBRANCH  19  20
ENDBRANCH  16  17
ENDBRANCH   3  15
TORSDOF 4
ENDMDL
