MODEL 2
REMARK VINA RESULT: -10.308024793      0.943      1.333
REMARK  4 active torsions:
REMARK  status: ('A' for Active; 'I' for Inactive)
REMARK    1  A    between atoms: C2_2  and  C10_12 
REMARK    2  A    between atoms: C3_3  and  C4_4 
REMARK    3  A    between atoms: C5_5  and  C6_6 
REMARK    4  A    between atoms: C8_8  and  C9_9 
ROOT
HETATM    1  C1  UNL     1      64.591  48.034  27.265  1.00  0.00     0.048 C 
HETATM    2  C2  UNL     1      63.507  47.921  28.285  1.00  0.00    -0.061 C 
HETATM    3  C3  UNL     1      62.255  47.763  27.815  1.00  0.00     0.007 C 
ENDROOT
BRANCH   2   4
HETATM    4  C10 UNL     1      63.644  47.923  29.708  1.00  0.00     0.014 C 
HETATM    5  C11 UNL     1      64.716  47.670  30.389  1.00  0.00    -0.047 C 
HETATM    6  C12 UNL     1      66.014  47.332  29.850  1.00  0.00     0.040 C 
HETATM    7  C20 UNL     1      64.643  47.671  31.900  1.00  0.00    -0.024 A 
HETATM    8  C13 UNL     1      66.444  45.946  30.392  1.00  0.00     0.009 C 
HETATM    9  C14 UNL     1      66.622  46.088  31.863  1.00  0.00     0.040 C 
HETATM   10  C15 UNL     1      65.585  46.880  32.546  1.00  0.00    -0.047 A 
HETATM   11  C16 UNL     1      65.511  46.867  33.946  1.00  0.00     0.008 A 
HETATM   12  C17 UNL     1      64.555  47.601  34.608  1.00  0.00     0.001 A 
HETATM   13  C18 UNL     1      63.636  48.376  33.920  1.00  0.00     0.001 A 
HETATM   14  C19 UNL     1      63.691  48.404  32.543  1.00  0.00     0.012 A 
ENDBRANCH   2   4
BRANCH   3  15
HETATM   15  C4  UNL     1      61.067  47.634  28.641  1.00  0.00     0.001 C 
HETATM   16  C5  UNL     1      59.899  47.372  28.063  1.00  0.00     0.007 C 
BRANCH  16  17
HETATM   17  C6  UNL     1      58.623  47.211  28.721  1.00  0.00    -0.056 C 
HETATM   18  C7  UNL     1      57.449  48.043  28.409  1.00  0.00     0.048 C 
HETATM   19  C8  UNL     1      58.490  46.266  29.652  1.00  0.00     0.091 C 
BRANCH  19  20
HETATM   20  C9  UNL     1      57.247  46.044  30.355  1.00  0.00     0.199 C 
HETATM   21  O1  UNL     1      56.384  45.302  29.752  1.00  0.00    -0.644 OA
HETATM   22  O2  UNL     1      56.912  46.550  31.595  1.00  0.00    -0.644 OA
ENDBRANCH  19  20
ENDBRANCH  16  17
ENDBRANCH   3  15
TORSDOF 4
ENDMDL
