MODEL 5
REMARK VINA RESULT: -8.248471471      3.579      6.588
REMARK  4 active torsions:
REMARK  status: ('A' for Active; 'I' for Inactive)
REMARK    1  A    between atoms: C2_2  and  C10_12 
REMARK    2  A    between atoms: C3_3  and  C4_4 
REMARK    3  A    between atoms: C5_5  and  C6_6 
REMARK    4  A    between atoms: C8_8  and  C9_9 
ROOT
HETATM    1  C1  UNL     1      64.740  49.444  27.107  1.00  0.00     0.048 C 
HETATM    2  C2  UNL     1      64.579  48.283  28.032  1.00  0.00    -0.061 C 
HETATM    3  C3  UNL     1      65.712  47.709  28.478  1.00  0.00     0.007 C 
ENDROOT
BRANCH   2   4
HETATM    4  C10 UNL     1      63.359  47.730  28.534  1.00  0.00     0.014 C 
HETATM    5  C11 UNL     1      62.846  47.912  29.709  1.00  0.00    -0.047 C 
HETATM    6  C12 UNL     1      63.399  48.721  30.770  1.00  0.00     0.040 C 
HETATM    7  C20 UNL     1      61.565  47.191  30.068  1.00  0.00    -0.024 A 
HETATM    8  C13 UNL     1      63.636  47.832  32.017  1.00  0.00     0.009 C 
HETATM    9  C14 UNL     1      62.301  47.374  32.488  1.00  0.00     0.040 C 
HETATM   10  C15 UNL     1      61.371  46.956  31.425  1.00  0.00    -0.047 A 
HETATM   11  C16 UNL     1      60.192  46.275  31.761  1.00  0.00     0.008 A 
HETATM   12  C17 UNL     1      59.306  45.877  30.788  1.00  0.00     0.001 A 
HETATM   13  C18 UNL     1      59.543  46.134  29.447  1.00  0.00     0.001 A 
HETATM   14  C19 UNL     1      60.696  46.803  29.094  1.00  0.00     0.012 A 
ENDBRANCH   2   4
BRANCH   3  15
HETATM   15  C4  UNL     1      65.769  46.573  29.382  1.00  0.00     0.001 C 
HETATM   16  C5  UNL     1      66.517  46.651  30.478  1.00  0.00     0.007 C 
BRANCH  16  17
HETATM   17  C6  UNL     1      66.692  45.628  31.483  1.00  0.00    -0.056 C 
HETATM   18  C7  UNL     1      66.662  44.188  31.174  1.00  0.00     0.048 C 
HETATM   19  C8  UNL     1      66.894  45.992  32.748  1.00  0.00     0.091 C 
BRANCH  19  20
HETATM   20  C9  UNL     1      67.077  45.028  33.810  1.00  0.00     0.199 C 
HETATM   21  O1  UNL     1      66.435  45.262  34.901  1.00  0.00    -0.644 OA
HETATM   22  O2  UNL     1      67.867  43.897  33.754  1.00  0.00    -0.644 OA
ENDBRANCH  19  20
ENDBRANCH  16  17
ENDBRANCH   3  15
TORSDOF 4
ENDMDL
