MODEL 1
REMARK VINA RESULT: -10.893178097      0.000      0.000
REMARK  4 active torsions:
REMARK  status: ('A' for Active; 'I' for Inactive)
REMARK    1  A    between atoms: C2_2  and  C10_12 
REMARK    2  A    between atoms: C3_3  and  C4_4 
REMARK    3  A    between atoms: C5_5  and  C6_6 
REMARK    4  A    between atoms: C8_8  and  C9_9 
ROOT
HETATM    1  C1  UNL     1      64.965  48.726  27.870  1.00  0.00     0.048 C 
HETATM    2  C2  UNL     1      64.083  48.148  28.926  1.00  0.00    -0.061 C 
HETATM    3  C3  UNL     1      62.887  47.682  28.521  1.00  0.00     0.007 C 
ENDROOT
BRANCH   2   4
HETATM    4  C10 UNL     1      64.373  47.997  30.318  1.00  0.00     0.014 C 
HETATM    5  C11 UNL     1      65.394  47.396  30.841  1.00  0.00    -0.047 C 
HETATM    6  C12 UNL     1      66.467  46.748  30.123  1.00  0.00     0.040 C 
HETATM    7  C20 UNL     1      65.494  47.296  32.347  1.00  0.00    -0.024 A 
HETATM    8  C13 UNL     1      66.533  45.257  30.541  1.00  0.00     0.009 C 
HETATM    9  C14 UNL     1      66.908  45.224  31.981  1.00  0.00     0.040 C 
HETATM   10  C15 UNL     1      66.231  46.220  32.829  1.00  0.00    -0.047 A 
HETATM   11  C16 UNL     1      66.313  46.116  34.225  1.00  0.00     0.008 A 
HETATM   12  C17 UNL     1      65.694  47.035  35.038  1.00  0.00     0.001 A 
HETATM   13  C18 UNL     1      64.970  48.093  34.511  1.00  0.00     0.001 A 
HETATM   14  C19 UNL     1      64.876  48.214  33.141  1.00  0.00     0.012 A 
ENDBRANCH   2   4
BRANCH   3  15
HETATM   15  C4  UNL     1      61.889  47.084  29.391  1.00  0.00     0.001 C 
HETATM   16  C5  UNL     1      60.637  46.966  28.960  1.00  0.00     0.007 C 
BRANCH  16  17
HETATM   17  C6  UNL     1      59.521  46.402  29.683  1.00  0.00    -0.056 C 
HETATM   18  C7  UNL     1      59.685  45.522  30.852  1.00  0.00     0.048 C 
HETATM   19  C8  UNL     1      58.282  46.688  29.285  1.00  0.00     0.091 C 
BRANCH  19  20
HETATM   20  C9  UNL     1      57.114  46.162  29.956  1.00  0.00     0.199 C 
HETATM   21  O1  UNL     1      56.450  45.266  29.313  1.00  0.00    -0.644 OA
HETATM   22  O2  UNL     1      56.659  46.531  31.206  1.00  0.00    -0.644 OA
ENDBRANCH  19  20
ENDBRANCH  16  17
ENDBRANCH   3  15
TORSDOF 4
ENDMDL
