MODEL 5
REMARK VINA RESULT: -7.070565992      3.900      5.788
REMARK  4 active torsions:
REMARK  status: ('A' for Active; 'I' for Inactive)
REMARK    1  A    between atoms: C1_2  and  C2_6 
REMARK    2  A    between atoms: C5_9  and  C6_10 
REMARK    3  A    between atoms: C6_10  and  N3_11 
REMARK    4  A    between atoms: C6_10  and  P1_15 
ROOT
HETATM    1  C2  UNL     1      12.923  11.673  12.833  1.00  0.00     0.004 A 
HETATM    2  C3  UNL     1      12.079  12.485  13.549  1.00  0.00     0.015 A 
HETATM    3  C4  UNL     1      11.854  12.363  14.910  1.00  0.00     0.011 A 
HETATM    4  C5  UNL     1      12.496  11.380  15.624  1.00  0.00    -0.015 A 
HETATM    5  C7  UNL     1      13.349  10.549  14.933  1.00  0.00     0.011 A 
HETATM    6  C8  UNL     1      13.570  10.674  13.581  1.00  0.00     0.015 A 
ENDROOT
BRANCH   4   7
HETATM    7  C6  UNL     1      12.272  11.227  17.086  1.00  0.00     0.344 C 
BRANCH   7   8
HETATM    8  N3  UNL     1      10.987  11.771  17.406  1.00  0.00    -0.058 N 
ATOM      9  H33 UNL     1      10.849  12.705  17.021  1.00  0.00     0.275 HD
ATOM     10  H32 UNL     1      10.229  11.302  16.911  1.00  0.00     0.275 HD
ATOM     11  H31 UNL     1      10.868  11.744  18.419  1.00  0.00     0.275 HD
ENDBRANCH   7   8
BRANCH   7  12
HETATM   12  P1  UNL     1      13.660  11.822  17.963  1.00  0.00     0.295 P 
HETATM   13  O1  UNL     1      13.717  13.287  17.456  1.00  0.00    -0.638 OA
HETATM   14  O2  UNL     1      13.352  12.528  19.466  1.00  0.00    -0.638 OA
HETATM   15  O3  UNL     1      13.984  10.547  18.798  1.00  0.00    -0.638 OA
ENDBRANCH   7  12
ENDBRANCH   4   7
BRANCH   1  16
HETATM   16  C1  UNL     1      13.174  11.781  11.410  1.00  0.00     0.120 C 
HETATM   17  N1  UNL     1      13.458  10.604  10.675  1.00  0.00    -0.082 NA
HETATM   18  N2  UNL     1      13.147  12.894  10.810  1.00  0.00    -0.387 N 
ATOM     19  H22 UNL     1      13.323  12.970   9.809  1.00  0.00     0.157 HD
ATOM     20  H21 UNL     1      12.942  13.741  11.340  1.00  0.00     0.157 HD
ENDBRANCH   1  16
TORSDOF 4
ENDMDL
