MODEL 6
REMARK VINA RESULT: -7.062990090      3.891      5.765
REMARK  4 active torsions:
REMARK  status: ('A' for Active; 'I' for Inactive)
REMARK    1  A    between atoms: C1_2  and  C2_6 
REMARK    2  A    between atoms: C5_9  and  C6_10 
REMARK    3  A    between atoms: C6_10  and  N3_11 
REMARK    4  A    between atoms: C6_10  and  P1_15 
ROOT
HETATM    1  C2  UNL     1      12.976  11.939  13.315  1.00  0.00     0.004 A 
HETATM    2  C3  UNL     1      13.297  10.826  14.052  1.00  0.00     0.015 A 
HETATM    3  C4  UNL     1      13.307  10.790  15.436  1.00  0.00     0.011 A 
HETATM    4  C5  UNL     1      12.983  11.916  16.153  1.00  0.00    -0.015 A 
HETATM    5  C7  UNL     1      12.657  13.048  15.440  1.00  0.00     0.011 A 
HETATM    6  C8  UNL     1      12.648  13.080  14.065  1.00  0.00     0.015 A 
ENDROOT
BRANCH   4   7
HETATM    7  C6  UNL     1      12.987  11.904  17.640  1.00  0.00     0.344 C 
BRANCH   7   8
HETATM    8  N3  UNL     1      14.346  11.867  18.089  1.00  0.00    -0.058 N 
ATOM      9  H33 UNL     1      14.422  11.718  19.095  1.00  0.00     0.275 HD
ATOM     10  H32 UNL     1      14.835  11.026  17.786  1.00  0.00     0.275 HD
ATOM     11  H31 UNL     1      14.809  12.722  17.784  1.00  0.00     0.275 HD
ENDBRANCH   7   8
BRANCH   7  12
HETATM   12  P1  UNL     1      11.891  10.675  18.225  1.00  0.00     0.295 P 
HETATM   13  O1  UNL     1      12.888   9.530  18.547  1.00  0.00    -0.638 OA
HETATM   14  O2  UNL     1      11.595  10.664  19.887  1.00  0.00    -0.638 OA
HETATM   15  O3  UNL     1      10.560  11.480  18.146  1.00  0.00    -0.638 OA
ENDBRANCH   7  12
ENDBRANCH   4   7
BRANCH   1  16
HETATM   16  C1  UNL     1      12.959  12.001  11.867  1.00  0.00     0.120 C 
HETATM   17  N1  UNL     1      12.882  10.792  11.132  1.00  0.00    -0.082 NA
HETATM   18  N2  UNL     1      13.011  13.100  11.245  1.00  0.00    -0.387 N 
ATOM     19  H22 UNL     1      12.998  13.144  10.226  1.00  0.00     0.157 HD
ATOM     20  H21 UNL     1      13.065  13.971  11.775  1.00  0.00     0.157 HD
ENDBRANCH   1  16
TORSDOF 4
ENDMDL
