MODEL 1
REMARK VINA RESULT: -7.426326289      0.000      0.000
REMARK  4 active torsions:
REMARK  status: ('A' for Active; 'I' for Inactive)
REMARK    1  A    between atoms: C1_2  and  C2_6 
REMARK    2  A    between atoms: C5_9  and  C6_10 
REMARK    3  A    between atoms: C6_10  and  N3_11 
REMARK    4  A    between atoms: C6_10  and  P1_15 
ROOT
HETATM    1  C2  UNL     1      13.282  12.586  16.993  1.00  0.00     0.004 A 
HETATM    2  C3  UNL     1      12.368  11.640  16.603  1.00  0.00     0.015 A 
HETATM    3  C4  UNL     1      11.900  11.502  15.307  1.00  0.00     0.011 A 
HETATM    4  C5  UNL     1      12.354  12.345  14.322  1.00  0.00    -0.015 A 
HETATM    5  C7  UNL     1      13.272  13.305  14.684  1.00  0.00     0.011 A 
HETATM    6  C8  UNL     1      13.735  13.438  15.972  1.00  0.00     0.015 A 
ENDROOT
BRANCH   4   7
HETATM    7  C6  UNL     1      11.868  12.218  12.922  1.00  0.00     0.344 C 
BRANCH   7   8
HETATM    8  N3  UNL     1      10.693  11.399  12.924  1.00  0.00    -0.058 N 
ATOM      9  H33 UNL     1      10.741  10.646  13.611  1.00  0.00     0.275 HD
ATOM     10  H32 UNL     1       9.879  11.882  13.302  1.00  0.00     0.275 HD
ATOM     11  H31 UNL     1      10.539  11.055  11.976  1.00  0.00     0.275 HD
ENDBRANCH   7   8
BRANCH   7  12
HETATM   12  P1  UNL     1      13.190  11.762  11.875  1.00  0.00     0.295 P 
HETATM   13  O1  UNL     1      13.871  10.663  12.732  1.00  0.00    -0.638 OA
HETATM   14  O2  UNL     1      12.889  10.502  10.793  1.00  0.00    -0.638 OA
HETATM   15  O3  UNL     1      12.863  12.681  10.660  1.00  0.00    -0.638 OA
ENDBRANCH   7  12
ENDBRANCH   4   7
BRANCH   1  16
HETATM   16  C1  UNL     1      13.786  12.750  18.342  1.00  0.00     0.120 C 
HETATM   17  N1  UNL     1      15.170  12.983  18.531  1.00  0.00    -0.082 NA
HETATM   18  N2  UNL     1      13.026  12.690  19.351  1.00  0.00    -0.387 N 
ATOM     19  H22 UNL     1      13.381  12.805  20.300  1.00  0.00     0.157 HD
ATOM     20  H21 UNL     1      12.029  12.522  19.215  1.00  0.00     0.157 HD
ENDBRANCH   1  16
TORSDOF 4
ENDMDL
