MODEL 9
REMARK VINA RESULT: -6.993675870      2.021      2.400
REMARK  4 active torsions:
REMARK  status: ('A' for Active; 'I' for Inactive)
REMARK    1  A    between atoms: C1_2  and  C2_6 
REMARK    2  A    between atoms: C5_9  and  C6_10 
REMARK    3  A    between atoms: C6_10  and  N3_11 
REMARK    4  A    between atoms: C6_10  and  P1_15 
ROOT
HETATM    1  C2  UNL     1      12.450  11.051  16.457  1.00  0.00     0.004 A 
HETATM    2  C3  UNL     1      13.068  10.164  15.612  1.00  0.00     0.015 A 
HETATM    3  C4  UNL     1      13.482  10.475  14.328  1.00  0.00     0.011 A 
HETATM    4  C5  UNL     1      13.281  11.740  13.832  1.00  0.00    -0.015 A 
HETATM    5  C7  UNL     1      12.662  12.653  14.657  1.00  0.00     0.011 A 
HETATM    6  C8  UNL     1      12.253  12.340  15.931  1.00  0.00     0.015 A 
ENDROOT
BRANCH   4   7
HETATM    7  C6  UNL     1      13.716  12.101  12.456  1.00  0.00     0.344 C 
BRANCH   7   8
HETATM    8  N3  UNL     1      12.718  12.946  11.873  1.00  0.00    -0.058 N 
ATOM      9  H33 UNL     1      12.441  12.638  10.940  1.00  0.00     0.275 HD
ATOM     10  H32 UNL     1      11.810  12.851  12.327  1.00  0.00     0.275 HD
ATOM     11  H31 UNL     1      13.063  13.906  11.882  1.00  0.00     0.275 HD
ENDBRANCH   7   8
BRANCH   7  12
HETATM   12  P1  UNL     1      14.187  10.660  11.588  1.00  0.00     0.295 P 
HETATM   13  O1  UNL     1      12.918  10.411  10.732  1.00  0.00    -0.638 OA
HETATM   14  O2  UNL     1      14.946  10.897  10.099  1.00  0.00    -0.638 OA
HETATM   15  O3  UNL     1      15.640  10.514  12.133  1.00  0.00    -0.638 OA
ENDBRANCH   7  12
ENDBRANCH   4   7
BRANCH   1  16
HETATM   16  C1  UNL     1      12.007  10.748  17.803  1.00  0.00     0.120 C 
HETATM   17  N1  UNL     1      12.608   9.667  18.493  1.00  0.00    -0.082 NA
HETATM   18  N2  UNL     1      11.102  11.421  18.376  1.00  0.00    -0.387 N 
ATOM     19  H22 UNL     1      10.791  11.207  19.323  1.00  0.00     0.157 HD
ATOM     20  H21 UNL     1      10.670  12.200  17.879  1.00  0.00     0.157 HD
ENDBRANCH   1  16
TORSDOF 4
ENDMDL
