MODEL 8
REMARK VINA RESULT: -7.003875447      2.012      2.521
REMARK  4 active torsions:
REMARK  status: ('A' for Active; 'I' for Inactive)
REMARK    1  A    between atoms: C1_2  and  C2_6 
REMARK    2  A    between atoms: C5_9  and  C6_10 
REMARK    3  A    between atoms: C6_10  and  N3_11 
REMARK    4  A    between atoms: C6_10  and  P1_15 
ROOT
HETATM    1  C2  UNL     1      12.442  11.111  16.483  1.00  0.00     0.004 A 
HETATM    2  C3  UNL     1      12.205  12.336  15.912  1.00  0.00     0.015 A 
HETATM    3  C4  UNL     1      12.596  12.683  14.630  1.00  0.00     0.011 A 
HETATM    4  C5  UNL     1      13.266  11.773  13.849  1.00  0.00    -0.015 A 
HETATM    5  C7  UNL     1      13.519  10.535  14.396  1.00  0.00     0.011 A 
HETATM    6  C8  UNL     1      13.128  10.194  15.669  1.00  0.00     0.015 A 
ENDROOT
BRANCH   4   7
HETATM    7  C6  UNL     1      13.698  12.120  12.469  1.00  0.00     0.344 C 
BRANCH   7   8
HETATM    8  N3  UNL     1      12.700  12.963  11.881  1.00  0.00    -0.058 N 
ATOM      9  H33 UNL     1      12.012  13.288  12.560  1.00  0.00     0.275 HD
ATOM     10  H32 UNL     1      13.068  13.873  11.608  1.00  0.00     0.275 HD
ATOM     11  H31 UNL     1      12.275  12.462  11.101  1.00  0.00     0.275 HD
ENDBRANCH   7   8
BRANCH   7  12
HETATM   12  P1  UNL     1      14.162  10.671  11.612  1.00  0.00     0.295 P 
HETATM   13  O1  UNL     1      12.902  10.435  10.739  1.00  0.00    -0.638 OA
HETATM   14  O2  UNL     1      14.945  10.893  10.133  1.00  0.00    -0.638 OA
HETATM   15  O3  UNL     1      15.604  10.507  12.178  1.00  0.00    -0.638 OA
ENDBRANCH   7  12
ENDBRANCH   4   7
BRANCH   1  16
HETATM   16  C1  UNL     1      12.043  10.725  17.822  1.00  0.00     0.120 C 
HETATM   17  N1  UNL     1      12.691   9.627  18.439  1.00  0.00    -0.082 NA
HETATM   18  N2  UNL     1      11.134  11.340  18.451  1.00  0.00    -0.387 N 
ATOM     19  H22 UNL     1      10.854  11.068  19.393  1.00  0.00     0.157 HD
ATOM     20  H21 UNL     1      10.667  12.131  18.007  1.00  0.00     0.157 HD
ENDBRANCH   1  16
TORSDOF 4
ENDMDL
