MODEL 2
REMARK VINA RESULT: -13.270979115      0.133      1.121
REMARK  3 active torsions:
REMARK  status: ('A' for Active; 'I' for Inactive)
REMARK    1  A    between atoms: C2_2  and  C3_3 
REMARK    2  A    between atoms: C2_2  and  C10_12 
REMARK    3  A    between atoms: C6_6  and  C7_7 
ROOT
HETATM    1  C10 UNL     1      -2.307  19.035  -2.402  1.00  0.00    -0.019 A 
HETATM    2  C11 UNL     1      -2.126  18.282  -3.550  1.00  0.00     0.021 A 
HETATM    3  C12 UNL     1      -1.082  18.571  -4.440  1.00  0.00    -0.042 A 
HETATM    4  C13 UNL     1      -0.236  19.607  -4.171  1.00  0.00    -0.043 A 
HETATM    5  C14 UNL     1      -0.395  20.382  -3.020  1.00  0.00     0.016 A 
HETATM    6  C15 UNL     1      -1.440  20.066  -2.163  1.00  0.00    -0.050 A 
HETATM    7  C16 UNL     1      -1.561  20.892  -0.933  1.00  0.00     0.049 C 
HETATM    8  C17 UNL     1       0.870  19.917  -5.124  1.00  0.00    -0.020 C 
HETATM    9  C18 UNL     1       0.360  20.807  -6.233  1.00  0.00     0.020 C 
HETATM   10  C19 UNL     1       1.985  20.674  -4.437  1.00  0.00     0.020 C 
HETATM   11  C20 UNL     1       1.371  18.636  -5.701  1.00  0.00     0.015 C 
HETATM   12  C21 UNL     1       0.250  17.963  -6.467  1.00  0.00     0.015 C 
HETATM   13  C22 UNL     1      -0.956  17.728  -5.636  1.00  0.00    -0.020 C 
HETATM   14  C23 UNL     1      -2.173  17.887  -6.558  1.00  0.00     0.020 C 
HETATM   15  C24 UNL     1      -0.938  16.275  -5.168  1.00  0.00     0.020 C 
ENDROOT
BRANCH   1  16
HETATM   16  C2  UNL     1      -3.394  18.704  -1.468  1.00  0.00    -0.025 C 
HETATM   17  C1  UNL     1      -3.131  18.169  -0.289  1.00  0.00     0.025 C 
BRANCH  16  18
HETATM   18  C3  UNL     1      -4.796  18.959  -1.870  1.00  0.00    -0.026 A 
HETATM   19  C4  UNL     1      -5.117  19.710  -2.978  1.00  0.00     0.013 A 
HETATM   20  C5  UNL     1      -6.453  19.951  -3.325  1.00  0.00     0.019 A 
HETATM   21  C6  UNL     1      -7.488  19.447  -2.572  1.00  0.00     0.040 A 
HETATM   22  C8  UNL     1      -7.158  18.696  -1.464  1.00  0.00     0.019 A 
HETATM   23  C9  UNL     1      -5.843  18.460  -1.122  1.00  0.00     0.013 A 
BRANCH  21  24
HETATM   24  C7  UNL     1      -8.893  19.695  -2.929  1.00  0.00     0.209 C 
HETATM   25  O1  UNL     1      -9.828  19.203  -2.251  1.00  0.00    -0.644 OA
HETATM   26  O2  UNL     1      -9.212  20.474  -4.018  1.00  0.00    -0.644 OA
ENDBRANCH  21  24
ENDBRANCH  16  18
ENDBRANCH   1  16
TORSDOF 3
ENDMDL
