MODEL 1
REMARK VINA RESULT: -13.418541464      0.000      0.000
REMARK  3 active torsions:
REMARK  status: ('A' for Active; 'I' for Inactive)
REMARK    1  A    between atoms: C2_2  and  C3_3 
REMARK    2  A    between atoms: C2_2  and  C10_12 
REMARK    3  A    between atoms: C6_6  and  C7_7 
ROOT
HETATM    1  C10 UNL     1      -2.330  19.050  -2.450  1.00  0.00    -0.019 A 
HETATM    2  C11 UNL     1      -2.193  18.316  -3.617  1.00  0.00     0.021 A 
HETATM    3  C12 UNL     1      -1.162  18.597  -4.524  1.00  0.00    -0.042 A 
HETATM    4  C13 UNL     1      -0.284  19.607  -4.253  1.00  0.00    -0.043 A 
HETATM    5  C14 UNL     1      -0.400  20.362  -3.084  1.00  0.00     0.016 A 
HETATM    6  C15 UNL     1      -1.433  20.054  -2.210  1.00  0.00    -0.050 A 
HETATM    7  C16 UNL     1      -1.508  20.858  -0.962  1.00  0.00     0.049 C 
HETATM    8  C17 UNL     1       0.807  19.909  -5.223  1.00  0.00    -0.020 C 
HETATM    9  C18 UNL     1       0.296  20.833  -6.304  1.00  0.00     0.020 C 
HETATM   10  C19 UNL     1       1.956  20.625  -4.547  1.00  0.00     0.020 C 
HETATM   11  C20 UNL     1       1.264  18.628  -5.837  1.00  0.00     0.015 C 
HETATM   12  C21 UNL     1       0.110  17.998  -6.590  1.00  0.00     0.015 C 
HETATM   13  C22 UNL     1      -1.083  17.776  -5.738  1.00  0.00    -0.020 C 
HETATM   14  C23 UNL     1      -2.315  17.982  -6.629  1.00  0.00     0.020 C 
HETATM   15  C24 UNL     1      -1.090  16.314  -5.299  1.00  0.00     0.020 C 
ENDROOT
BRANCH   1  16
HETATM   16  C2  UNL     1      -3.406  18.727  -1.499  1.00  0.00    -0.025 C 
HETATM   17  C1  UNL     1      -3.129  18.175  -0.331  1.00  0.00     0.025 C 
BRANCH  16  18
HETATM   18  C3  UNL     1      -4.810  19.010  -1.871  1.00  0.00    -0.026 A 
HETATM   19  C4  UNL     1      -5.871  18.612  -1.090  1.00  0.00     0.013 A 
HETATM   20  C5  UNL     1      -7.191  18.878  -1.475  1.00  0.00     0.019 A 
HETATM   21  C6  UNL     1      -7.474  19.543  -2.646  1.00  0.00     0.040 A 
HETATM   22  C8  UNL     1      -6.406  19.939  -3.422  1.00  0.00     0.019 A 
HETATM   23  C9  UNL     1      -5.105  19.676  -3.043  1.00  0.00     0.013 A 
BRANCH  21  24
HETATM   24  C7  UNL     1      -8.857  19.827  -3.057  1.00  0.00     0.209 C 
HETATM   25  O1  UNL     1      -9.099  20.617  -4.001  1.00  0.00    -0.644 OA
HETATM   26  O2  UNL     1      -9.915  19.228  -2.414  1.00  0.00    -0.644 OA
ENDBRANCH  21  24
ENDBRANCH  16  18
ENDBRANCH   1  16
TORSDOF 3
ENDMDL
