MODEL 5
REMARK VINA RESULT: -7.773392078      1.114      2.503
REMARK  2 active torsions:
REMARK  status: ('A' for Active; 'I' for Inactive)
REMARK    1  A    between atoms: C5_8  and  N2_9 
REMARK    2  A    between atoms: N2_9  and  C6_11 
ROOT
HETATM    1  O1  UNL     1      14.963   0.428  -0.583  1.00  0.00    -0.266 OA
HETATM    2  C1  UNL     1      15.498   1.458  -0.061  1.00  0.00     0.273 A 
HETATM    3  N1  UNL     1      16.711   1.278   0.500  1.00  0.00    -0.332 N 
ATOM      4  H1  UNL     1      17.158   0.362   0.496  1.00  0.00     0.168 HD
HETATM    5  C2  UNL     1      17.312   2.329   1.061  1.00  0.00     0.092 A 
HETATM    6  C3  UNL     1      16.766   3.600   1.104  1.00  0.00     0.035 A 
HETATM    7  C4  UNL     1      15.528   3.779   0.531  1.00  0.00     0.041 A 
HETATM    8  C5  UNL     1      14.906   5.003   0.526  1.00  0.00     0.115 A 
HETATM    9  N3  UNL     1      13.686   5.060  -0.069  1.00  0.00    -0.338 N 
ATOM     10  H3  UNL     1      13.207   5.960  -0.084  1.00  0.00     0.168 HD
HETATM   11  C12 UNL     1      13.069   4.016  -0.636  1.00  0.00     0.182 A 
HETATM   12  N4  UNL     1      13.670   2.813  -0.635  1.00  0.00    -0.347 N 
ATOM     13  H4  UNL     1      13.214   2.006  -1.063  1.00  0.00     0.167 HD
HETATM   14  C13 UNL     1      14.881   2.690  -0.063  1.00  0.00     0.116 A 
ENDROOT
BRANCH   8  15
HETATM   15  N2  UNL     1      15.490   6.158   1.104  1.00  0.00    -0.371 N 
ATOM     16  H2  UNL     1      16.504   6.203   1.211  1.00  0.00     0.161 HD
BRANCH  15  17
HETATM   17  C6  UNL     1      14.678   7.284   1.549  1.00  0.00     0.083 C 
HETATM   18  C7  UNL     1      15.220   7.741   2.889  1.00  0.00     0.025 C 
HETATM   19  C8  UNL     1      15.301   9.246   2.898  1.00  0.00     0.002 C 
HETATM   20  C9  UNL     1      13.927   9.759   2.465  1.00  0.00     0.000 C 
HETATM   21  C10 UNL     1      13.681   9.444   1.009  1.00  0.00     0.002 C 
HETATM   22  C11 UNL     1      14.658   8.394   0.528  1.00  0.00     0.025 C 
ENDBRANCH  15  17
ENDBRANCH   8  15
TORSDOF 2
ENDMDL
