MODEL 6
REMARK VINA RESULT: -7.685949538      3.161      6.503
REMARK  2 active torsions:
REMARK  status: ('A' for Active; 'I' for Inactive)
REMARK    1  A    between atoms: C5_8  and  N2_9 
REMARK    2  A    between atoms: N2_9  and  C6_11 
ROOT
HETATM    1  O1  UNL     1      15.318  10.301   3.741  1.00  0.00    -0.266 OA
HETATM    2  C1  UNL     1      15.352   9.600   2.679  1.00  0.00     0.273 A 
HETATM    3  N1  UNL     1      15.765  10.232   1.562  1.00  0.00    -0.332 N 
ATOM      4  H1  UNL     1      16.031  11.216   1.587  1.00  0.00     0.168 HD
HETATM    5  C2  UNL     1      15.816   9.539   0.423  1.00  0.00     0.092 A 
HETATM    6  C3  UNL     1      15.470   8.203   0.315  1.00  0.00     0.035 A 
HETATM    7  C4  UNL     1      15.049   7.562   1.457  1.00  0.00     0.041 A 
HETATM    8  C5  UNL     1      14.684   6.238   1.448  1.00  0.00     0.115 A 
HETATM    9  N3  UNL     1      14.285   5.712   2.634  1.00  0.00    -0.338 N 
ATOM     10  H3  UNL     1      14.011   4.730   2.649  1.00  0.00     0.168 HD
HETATM   11  C12 UNL     1      14.227   6.392   3.786  1.00  0.00     0.182 A 
HETATM   12  N4  UNL     1      14.582   7.689   3.805  1.00  0.00    -0.347 N 
ATOM     13  H4  UNL     1      14.544   8.224   4.672  1.00  0.00     0.167 HD
HETATM   14  C13 UNL     1      14.988   8.271   2.661  1.00  0.00     0.116 A 
ENDROOT
BRANCH   8  15
HETATM   15  N2  UNL     1      14.716   5.446   0.272  1.00  0.00    -0.371 N 
ATOM     16  H2  UNL     1      15.053   5.860  -0.598  1.00  0.00     0.161 HD
BRANCH  15  17
HETATM   17  C6  UNL     1      14.280   4.055   0.275  1.00  0.00     0.083 C 
HETATM   18  C7  UNL     1      12.892   4.006  -0.329  1.00  0.00     0.025 C 
HETATM   19  C8  UNL     1      12.819   2.853  -1.297  1.00  0.00     0.002 C 
HETATM   20  C9  UNL     1      13.319   1.620  -0.545  1.00  0.00     0.000 C 
HETATM   21  C10 UNL     1      14.798   1.734  -0.269  1.00  0.00     0.002 C 
HETATM   22  C11 UNL     1      15.256   3.164  -0.452  1.00  0.00     0.025 C 
ENDBRANCH  15  17
ENDBRANCH   8  15
TORSDOF 2
ENDMDL
