MODEL 2
REMARK VINA RESULT: -8.034367199      3.063      6.647
REMARK  2 active torsions:
REMARK  status: ('A' for Active; 'I' for Inactive)
REMARK    1  A    between atoms: C5_8  and  N2_9 
REMARK    2  A    between atoms: N2_9  and  C6_11 
ROOT
HETATM    1  O1  UNL     1      12.303   9.892   3.157  1.00  0.00    -0.266 OA
HETATM    2  C1  UNL     1      13.034   9.057   2.536  1.00  0.00     0.273 A 
HETATM    3  N1  UNL     1      14.359   9.133   2.776  1.00  0.00    -0.332 N 
ATOM      4  H1  UNL     1      14.734   9.827   3.422  1.00  0.00     0.168 HD
HETATM    5  C2  UNL     1      15.168   8.277   2.147  1.00  0.00     0.092 A 
HETATM    6  C3  UNL     1      14.730   7.311   1.258  1.00  0.00     0.035 A 
HETATM    7  C4  UNL     1      13.378   7.238   1.015  1.00  0.00     0.041 A 
HETATM    8  C5  UNL     1      12.850   6.313   0.148  1.00  0.00     0.115 A 
HETATM    9  N3  UNL     1      11.502   6.333  -0.012  1.00  0.00    -0.338 N 
ATOM     10  H3  UNL     1      11.090   5.654  -0.651  1.00  0.00     0.168 HD
HETATM   11  C12 UNL     1      10.676   7.183   0.610  1.00  0.00     0.182 A 
HETATM   12  N4  UNL     1      11.183   8.094   1.461  1.00  0.00    -0.347 N 
ATOM     13  H4  UNL     1      10.570   8.750   1.944  1.00  0.00     0.167 HD
HETATM   14  C13 UNL     1      12.513   8.125   1.665  1.00  0.00     0.116 A 
ENDROOT
BRANCH   8  15
HETATM   15  N2  UNL     1      13.654   5.376  -0.550  1.00  0.00    -0.371 N 
ATOM     16  H2  UNL     1      14.194   5.689  -1.358  1.00  0.00     0.161 HD
BRANCH  15  17
HETATM   17  C6  UNL     1      13.728   3.979  -0.143  1.00  0.00     0.083 C 
HETATM   18  C7  UNL     1      12.548   3.257  -0.760  1.00  0.00     0.025 C 
HETATM   19  C8  UNL     1      13.021   1.946  -1.336  1.00  0.00     0.002 C 
HETATM   20  C9  UNL     1      13.797   1.237  -0.225  1.00  0.00     0.000 C 
HETATM   21  C10 UNL     1      15.088   1.964   0.063  1.00  0.00     0.002 C 
HETATM   22  C11 UNL     1      15.048   3.357  -0.526  1.00  0.00     0.025 C 
ENDBRANCH  15  17
ENDBRANCH   8  15
TORSDOF 2
ENDMDL
