MODEL 8
REMARK VINA RESULT: -7.603050012      1.045      2.569
REMARK  2 active torsions:
REMARK  status: ('A' for Active; 'I' for Inactive)
REMARK    1  A    between atoms: C5_8  and  N2_9 
REMARK    2  A    between atoms: N2_9  and  C6_11 
ROOT
HETATM    1  O1  UNL     1      14.343   0.394  -0.261  1.00  0.00    -0.266 OA
HETATM    2  C1  UNL     1      14.838   1.554  -0.090  1.00  0.00     0.273 A 
HETATM    3  N1  UNL     1      16.104   1.597   0.373  1.00  0.00    -0.332 N 
ATOM      4  H1  UNL     1      16.618   0.739   0.570  1.00  0.00     0.168 HD
HETATM    5  C2  UNL     1      16.667   2.791   0.569  1.00  0.00     0.092 A 
HETATM    6  C3  UNL     1      16.030   3.996   0.325  1.00  0.00     0.035 A 
HETATM    7  C4  UNL     1      14.739   3.947  -0.147  1.00  0.00     0.041 A 
HETATM    8  C5  UNL     1      14.027   5.089  -0.417  1.00  0.00     0.115 A 
HETATM    9  N3  UNL     1      12.761   4.919  -0.880  1.00  0.00    -0.338 N 
ATOM     10  H3  UNL     1      12.215   5.755  -1.087  1.00  0.00     0.168 HD
HETATM   11  C12 UNL     1      12.181   3.730  -1.082  1.00  0.00     0.182 A 
HETATM   12  N4  UNL     1      12.870   2.605  -0.820  1.00  0.00    -0.347 N 
ATOM     13  H4  UNL     1      12.444   1.690  -0.967  1.00  0.00     0.167 HD
HETATM   14  C13 UNL     1      14.131   2.706  -0.360  1.00  0.00     0.116 A 
ENDROOT
BRANCH   8  15
HETATM   15  N2  UNL     1      14.567   6.387  -0.231  1.00  0.00    -0.371 N 
ATOM     16  H2  UNL     1      15.451   6.628  -0.680  1.00  0.00     0.161 HD
BRANCH  15  17
HETATM   17  C6  UNL     1      13.890   7.387   0.586  1.00  0.00     0.083 C 
HETATM   18  C7  UNL     1      13.579   6.751   1.926  1.00  0.00     0.025 C 
HETATM   19  C8  UNL     1      13.929   7.725   3.023  1.00  0.00     0.002 C 
HETATM   20  C9  UNL     1      13.236   9.042   2.674  1.00  0.00     0.000 C 
HETATM   21  C10 UNL     1      13.872   9.666   1.455  1.00  0.00     0.002 C 
HETATM   22  C11 UNL     1      14.712   8.644   0.722  1.00  0.00     0.025 C 
ENDBRANCH  15  17
ENDBRANCH   8  15
TORSDOF 2
ENDMDL
