MODEL 4
REMARK VINA RESULT: -7.875344552      3.119      6.300
REMARK  2 active torsions:
REMARK  status: ('A' for Active; 'I' for Inactive)
REMARK    1  A    between atoms: C5_8  and  N2_9 
REMARK    2  A    between atoms: N2_9  and  C6_11 
ROOT
HETATM    1  O1  UNL     1      12.182  10.086   2.712  1.00  0.00    -0.266 OA
HETATM    2  C1  UNL     1      11.924   9.065   1.997  1.00  0.00     0.273 A 
HETATM    3  N1  UNL     1      10.620   8.744   1.870  1.00  0.00    -0.332 N 
ATOM      4  H1  UNL     1       9.898   9.299   2.328  1.00  0.00     0.168 HD
HETATM    5  C2  UNL     1      10.298   7.681   1.129  1.00  0.00     0.092 A 
HETATM    6  C3  UNL     1      11.223   6.882   0.480  1.00  0.00     0.035 A 
HETATM    7  C4  UNL     1      12.552   7.214   0.613  1.00  0.00     0.041 A 
HETATM    8  C5  UNL     1      13.542   6.480   0.006  1.00  0.00     0.115 A 
HETATM    9  N3  UNL     1      14.817   6.902   0.207  1.00  0.00    -0.338 N 
ATOM     10  H3  UNL     1      15.567   6.371  -0.236  1.00  0.00     0.168 HD
HETATM   11  C12 UNL     1      15.158   7.965   0.945  1.00  0.00     0.182 A 
HETATM   12  N4  UNL     1      14.196   8.689   1.544  1.00  0.00    -0.347 N 
ATOM     13  H4  UNL     1      14.436   9.502   2.111  1.00  0.00     0.167 HD
HETATM   14  C13 UNL     1      12.910   8.324   1.383  1.00  0.00     0.116 A 
ENDROOT
BRANCH   8  15
HETATM   15  N2  UNL     1      13.267   5.341  -0.793  1.00  0.00    -0.371 N 
ATOM     16  H2  UNL     1      12.892   5.472  -1.733  1.00  0.00     0.161 HD
BRANCH  15  17
HETATM   17  C6  UNL     1      13.507   3.989  -0.305  1.00  0.00     0.083 C 
HETATM   18  C7  UNL     1      12.381   3.110  -0.811  1.00  0.00     0.025 C 
HETATM   19  C8  UNL     1      12.962   1.819  -1.329  1.00  0.00     0.002 C 
HETATM   20  C9  UNL     1      13.860   1.270  -0.221  1.00  0.00     0.000 C 
HETATM   21  C10 UNL     1      15.080   2.142  -0.048  1.00  0.00     0.002 C 
HETATM   22  C11 UNL     1      14.865   3.481  -0.720  1.00  0.00     0.025 C 
ENDBRANCH  15  17
ENDBRANCH   8  15
TORSDOF 2
ENDMDL
