MODEL 1
REMARK VINA RESULT: -12.024327174      0.000      0.000
REMARK  5 active torsions:
REMARK  status: ('A' for Active; 'I' for Inactive)
REMARK    1  A    between atoms: C5_5  and  N1_6 
REMARK    2  A    between atoms: C6_9  and  C7_10 
REMARK    3  A    between atoms: C12_15  and  N3_16 
REMARK       I    between atoms: N3_16  and  C13_18 
REMARK       I    between atoms: C13_18  and  N4_20 
REMARK    4  A    between atoms: N4_20  and  C14_22 
REMARK    5  A    between atoms: C17_25  and  N5_26 
ROOT
HETATM    1  N3  UNL     1     -21.760 -26.555   2.671  1.00  0.00    -0.293 N 
ATOM      2  H3  UNL     1     -22.237 -25.661   2.791  1.00  0.00     0.172 HD
HETATM    3  C13 UNL     1     -22.437 -27.695   3.132  1.00  0.00     0.326 C 
HETATM    4  O1  UNL     1     -21.947 -28.817   3.036  1.00  0.00    -0.247 OA
HETATM    5  N4  UNL     1     -23.733 -27.586   3.714  1.00  0.00    -0.309 N 
ATOM      6  H4  UNL     1     -24.090 -26.638   3.830  1.00  0.00     0.170 HD
ENDROOT
BRANCH   1   7
HETATM    7  C12 UNL     1     -20.490 -26.516   2.061  1.00  0.00     0.133 A 
HETATM    8  N1  UNL     1     -19.686 -25.651   1.513  1.00  0.00    -0.240 N 
HETATM    9  N2  UNL     1     -18.443 -26.194   1.317  1.00  0.00    -0.295 N 
HETATM   10  C6  UNL     1     -18.428 -27.434   1.738  1.00  0.00     0.037 A 
ATOM     11  H2  UNL     1     -17.648 -25.706   0.904  1.00  0.00     0.187 HD
HETATM   12  C11 UNL     1     -19.688 -27.695   2.214  1.00  0.00     0.077 A 
BRANCH   8  13
HETATM   13  C5  UNL     1     -20.008 -24.348   1.067  1.00  0.00     0.058 A 
HETATM   14  C4  UNL     1     -21.135 -24.144   0.298  1.00  0.00     0.032 A 
HETATM   15  C3  UNL     1     -21.470 -22.899  -0.204  1.00  0.00     0.009 A 
HETATM   16  C2  UNL     1     -20.679 -21.784   0.049  1.00  0.00    -0.062 A 
HETATM   17  C1  UNL     1     -21.076 -20.473  -0.541  1.00  0.00     0.048 C 
HETATM   18  C26 UNL     1     -19.565 -21.979   0.808  1.00  0.00     0.009 A 
HETATM   19  C25 UNL     1     -19.240 -23.246   1.305  1.00  0.00     0.032 A 
ENDBRANCH   8  13
BRANCH  10  20
HETATM   20  C7  UNL     1     -17.323 -28.437   1.810  1.00  0.00    -0.007 C 
HETATM   21  C8  UNL     1     -17.364 -29.144   3.104  1.00  0.00     0.021 C 
HETATM   22  C9  UNL     1     -15.981 -27.758   1.617  1.00  0.00     0.021 C 
HETATM   23  C10 UNL     1     -17.532 -29.332   0.589  1.00  0.00     0.021 C 
ENDBRANCH  10  20
ENDBRANCH   1   7
BRANCH   5  24
HETATM   24  C14 UNL     1     -24.580 -28.615   4.148  1.00  0.00     0.036 A 
HETATM   25  C15 UNL     1     -25.943 -28.564   4.235  1.00  0.00     0.032 A 
HETATM   26  C16 UNL     1     -26.673 -29.633   4.784  1.00  0.00     0.032 A 
HETATM   27  C17 UNL     1     -26.075 -30.764   5.257  1.00  0.00     0.042 A 
HETATM   28  C23 UNL     1     -24.704 -30.820   5.164  1.00  0.00     0.032 A 
HETATM   29  C24 UNL     1     -23.980 -29.783   4.628  1.00  0.00     0.032 A 
BRANCH  27  30
HETATM   30  N5  UNL     1     -26.729 -31.852   5.903  1.00  0.00    -0.292 N 
HETATM   31  C18 UNL     1     -26.780 -33.152   5.572  1.00  0.00     0.191 A 
HETATM   32  N6  UNL     1     -27.529 -33.844   6.476  1.00  0.00    -0.346 N 
HETATM   33  C19 UNL     1     -27.968 -32.974   7.409  1.00  0.00     0.120 A 
ATOM     34  H6  UNL     1     -27.724 -34.845   6.452  1.00  0.00     0.167 HD
HETATM   35  C20 UNL     1     -28.764 -33.138   8.555  1.00  0.00     0.148 A 
HETATM   36  C22 UNL     1     -27.470 -31.757   7.050  1.00  0.00     0.144 A 
HETATM   37  N7  UNL     1     -29.276 -34.383   8.930  1.00  0.00    -0.080 NA
HETATM   38  N8  UNL     1     -29.003 -32.028   9.265  1.00  0.00    -0.339 N 
HETATM   39  C21 UNL     1     -28.540 -30.836   8.949  1.00  0.00     0.183 A 
ATOM     40  H8  UNL     1     -29.580 -32.110  10.103  1.00  0.00     0.167 HD
HETATM   41  N9  UNL     1     -27.784 -30.703   7.852  1.00  0.00    -0.336 N 
ATOM     42  H9  UNL     1     -27.429 -29.778   7.608  1.00  0.00     0.168 HD
ENDBRANCH  27  30
ENDBRANCH   5  24
TORSDOF 5
ENDMDL
