MODEL 4
REMARK VINA RESULT: -10.843395254      4.072     12.343
REMARK  5 active torsions:
REMARK  status: ('A' for Active; 'I' for Inactive)
REMARK    1  A    between atoms: C5_5  and  N1_6 
REMARK    2  A    between atoms: C6_9  and  C7_10 
REMARK    3  A    between atoms: C12_15  and  N3_16 
REMARK       I    between atoms: N3_16  and  C13_18 
REMARK       I    between atoms: C13_18  and  N4_20 
REMARK    4  A    between atoms: N4_20  and  C14_22 
REMARK    5  A    between atoms: C17_25  and  N5_26 
ROOT
HETATM    1  N3  UNL     1     -21.986 -25.499   2.761  1.00  0.00    -0.293 N 
ATOM      2  H3  UNL     1     -22.313 -24.985   3.579  1.00  0.00     0.172 HD
HETATM    3  C13 UNL     1     -21.509 -24.732   1.686  1.00  0.00     0.326 C 
HETATM    4  O1  UNL     1     -21.094 -25.255   0.655  1.00  0.00    -0.247 OA
HETATM    5  N4  UNL     1     -21.474 -23.309   1.767  1.00  0.00    -0.309 N 
ATOM      6  H4  UNL     1     -21.875 -22.902   2.612  1.00  0.00     0.170 HD
ENDROOT
BRANCH   1   7
HETATM    7  C12 UNL     1     -22.059 -26.905   2.828  1.00  0.00     0.133 A 
HETATM    8  N1  UNL     1     -21.270 -27.937   2.758  1.00  0.00    -0.240 N 
HETATM    9  N2  UNL     1     -21.918 -29.078   3.156  1.00  0.00    -0.295 N 
HETATM   10  C6  UNL     1     -23.152 -28.793   3.490  1.00  0.00     0.037 A 
ATOM     11  H2  UNL     1     -21.501 -30.008   3.187  1.00  0.00     0.187 HD
HETATM   12  C11 UNL     1     -23.301 -27.443   3.301  1.00  0.00     0.077 A 
BRANCH   8  13
HETATM   13  C5  UNL     1     -19.946 -27.969   2.259  1.00  0.00     0.058 A 
HETATM   14  C4  UNL     1     -19.591 -28.907   1.311  1.00  0.00     0.032 A 
HETATM   15  C3  UNL     1     -18.300 -29.013   0.826  1.00  0.00     0.009 A 
HETATM   16  C2  UNL     1     -17.291 -28.167   1.273  1.00  0.00    -0.062 A 
HETATM   17  C1  UNL     1     -15.913 -28.346   0.733  1.00  0.00     0.048 C 
HETATM   18  C26 UNL     1     -17.635 -27.239   2.209  1.00  0.00     0.009 A 
HETATM   19  C25 UNL     1     -18.946 -27.149   2.691  1.00  0.00     0.032 A 
ENDBRANCH   8  13
BRANCH  10  20
HETATM   20  C7  UNL     1     -24.245 -29.650   4.042  1.00  0.00    -0.007 C 
HETATM   21  C8  UNL     1     -23.743 -30.436   5.185  1.00  0.00     0.021 C 
HETATM   22  C9  UNL     1     -24.793 -30.565   2.964  1.00  0.00     0.021 C 
HETATM   23  C10 UNL     1     -25.367 -28.671   4.386  1.00  0.00     0.021 C 
ENDBRANCH  10  20
ENDBRANCH   1   7
BRANCH   5  24
HETATM   24  C14 UNL     1     -20.960 -22.398   0.834  1.00  0.00     0.036 A 
HETATM   25  C15 UNL     1     -19.641 -22.125   0.606  1.00  0.00     0.032 A 
HETATM   26  C16 UNL     1     -19.255 -21.113  -0.290  1.00  0.00     0.032 A 
HETATM   27  C17 UNL     1     -20.160 -20.354  -0.973  1.00  0.00     0.042 A 
HETATM   28  C23 UNL     1     -21.489 -20.632  -0.750  1.00  0.00     0.032 A 
HETATM   29  C24 UNL     1     -21.877 -21.620   0.122  1.00  0.00     0.032 A 
BRANCH  27  30
HETATM   30  N5  UNL     1     -19.860 -19.257  -1.830  1.00  0.00    -0.292 N 
HETATM   31  C18 UNL     1     -19.393 -18.032  -1.539  1.00  0.00     0.191 A 
HETATM   32  N6  UNL     1     -19.256 -17.293  -2.676  1.00  0.00    -0.346 N 
HETATM   33  C19 UNL     1     -19.642 -18.055  -3.720  1.00  0.00     0.120 A 
ATOM     34  H6  UNL     1     -18.921 -16.331  -2.728  1.00  0.00     0.167 HD
HETATM   35  C20 UNL     1     -19.703 -17.806  -5.101  1.00  0.00     0.148 A 
HETATM   36  C22 UNL     1     -20.007 -19.257  -3.191  1.00  0.00     0.144 A 
HETATM   37  N7  UNL     1     -19.327 -16.576  -5.650  1.00  0.00    -0.080 NA
HETATM   38  N8  UNL     1     -20.144 -18.818  -5.860  1.00  0.00    -0.339 N 
HETATM   39  C21 UNL     1     -20.507 -19.992  -5.384  1.00  0.00     0.183 A 
ATOM     40  H8  UNL     1     -20.203 -18.670  -6.867  1.00  0.00     0.167 HD
HETATM   41  N9  UNL     1     -20.441 -20.207  -4.064  1.00  0.00    -0.336 N 
ATOM     42  H9  UNL     1     -20.725 -21.116  -3.699  1.00  0.00     0.168 HD
ENDBRANCH  27  30
ENDBRANCH   5  24
TORSDOF 5
ENDMDL
