MODEL 3
REMARK VINA RESULT: -11.055834779      5.176     12.979
REMARK  5 active torsions:
REMARK  status: ('A' for Active; 'I' for Inactive)
REMARK    1  A    between atoms: C5_5  and  N1_6 
REMARK    2  A    between atoms: C6_9  and  C7_10 
REMARK    3  A    between atoms: C12_15  and  N3_16 
REMARK       I    between atoms: N3_16  and  C13_18 
REMARK       I    between atoms: C13_18  and  N4_20 
REMARK    4  A    between atoms: N4_20  and  C14_22 
REMARK    5  A    between atoms: C17_25  and  N5_26 
ROOT
HETATM    1  N3  UNL     1     -25.994 -24.583   5.965  1.00  0.00    -0.293 N 
ATOM      2  H3  UNL     1     -25.634 -25.534   5.890  1.00  0.00     0.172 HD
HETATM    3  C13 UNL     1     -25.393 -23.617   5.142  1.00  0.00     0.326 C 
HETATM    4  O1  UNL     1     -25.753 -22.443   5.158  1.00  0.00    -0.247 OA
HETATM    5  N4  UNL     1     -24.349 -23.978   4.241  1.00  0.00    -0.309 N 
ATOM      6  H4  UNL     1     -24.035 -24.947   4.289  1.00  0.00     0.170 HD
ENDROOT
BRANCH   1   7
HETATM    7  C12 UNL     1     -27.043 -24.375   6.883  1.00  0.00     0.133 A 
HETATM    8  N1  UNL     1     -27.905 -25.069   7.568  1.00  0.00    -0.240 N 
HETATM    9  N2  UNL     1     -28.527 -24.288   8.508  1.00  0.00    -0.295 N 
HETATM   10  C6  UNL     1     -28.070 -23.063   8.439  1.00  0.00     0.037 A 
ATOM     11  H2  UNL     1     -29.239 -24.613   9.162  1.00  0.00     0.187 HD
HETATM   12  C11 UNL     1     -27.137 -23.055   7.434  1.00  0.00     0.077 A 
BRANCH   8  13
HETATM   13  C5  UNL     1     -28.271 -26.420   7.362  1.00  0.00     0.058 A 
HETATM   14  C4  UNL     1     -28.564 -27.225   8.444  1.00  0.00     0.032 A 
HETATM   15  C3  UNL     1     -28.880 -28.564   8.303  1.00  0.00     0.009 A 
HETATM   16  C2  UNL     1     -28.921 -29.166   7.050  1.00  0.00    -0.062 A 
HETATM   17  C1  UNL     1     -29.242 -30.619   6.962  1.00  0.00     0.048 C 
HETATM   18  C26 UNL     1     -28.633 -28.377   5.978  1.00  0.00     0.009 A 
HETATM   19  C25 UNL     1     -28.312 -27.025   6.140  1.00  0.00     0.032 A 
ENDBRANCH   8  13
BRANCH  10  20
HETATM   20  C7  UNL     1     -28.365 -21.854   9.267  1.00  0.00    -0.007 C 
HETATM   21  C8  UNL     1     -28.072 -22.129  10.687  1.00  0.00     0.021 C 
HETATM   22  C9  UNL     1     -29.811 -21.435   9.092  1.00  0.00     0.021 C 
HETATM   23  C10 UNL     1     -27.518 -20.744   8.646  1.00  0.00     0.021 C 
ENDBRANCH  10  20
ENDBRANCH   1   7
BRANCH   5  24
HETATM   24  C14 UNL     1     -23.699 -23.170   3.297  1.00  0.00     0.036 A 
HETATM   25  C15 UNL     1     -24.259 -22.158   2.569  1.00  0.00     0.032 A 
HETATM   26  C16 UNL     1     -23.523 -21.487   1.577  1.00  0.00     0.032 A 
HETATM   27  C17 UNL     1     -22.228 -21.802   1.285  1.00  0.00     0.042 A 
HETATM   28  C23 UNL     1     -21.661 -22.816   2.022  1.00  0.00     0.032 A 
HETATM   29  C24 UNL     1     -22.369 -23.478   2.994  1.00  0.00     0.032 A 
BRANCH  27  30
HETATM   30  N5  UNL     1     -21.440 -21.235   0.244  1.00  0.00    -0.292 N 
HETATM   31  C18 UNL     1     -21.763 -20.940  -1.026  1.00  0.00     0.191 A 
HETATM   32  N6  UNL     1     -20.690 -20.412  -1.680  1.00  0.00    -0.346 N 
HETATM   33  C19 UNL     1     -19.656 -20.363  -0.815  1.00  0.00     0.120 A 
ATOM     34  H6  UNL     1     -20.673 -20.106  -2.653  1.00  0.00     0.167 HD
HETATM   35  C20 UNL     1     -18.331 -19.915  -0.950  1.00  0.00     0.148 A 
HETATM   36  C22 UNL     1     -20.126 -20.867   0.361  1.00  0.00     0.144 A 
HETATM   37  N7  UNL     1     -17.843 -19.395  -2.153  1.00  0.00    -0.080 NA
HETATM   38  N8  UNL     1     -17.564 -20.017   0.143  1.00  0.00    -0.339 N 
HETATM   39  C21 UNL     1     -17.983 -20.500   1.295  1.00  0.00     0.183 A 
ATOM     40  H8  UNL     1     -16.596 -19.703   0.079  1.00  0.00     0.167 HD
HETATM   41  N9  UNL     1     -19.250 -20.921   1.401  1.00  0.00    -0.336 N 
ATOM     42  H9  UNL     1     -19.570 -21.297   2.293  1.00  0.00     0.168 HD
ENDBRANCH  27  30
ENDBRANCH   5  24
TORSDOF 5
ENDMDL
