MODEL 2
REMARK VINA RESULT: -11.822159708      1.149      1.499
REMARK  5 active torsions:
REMARK  status: ('A' for Active; 'I' for Inactive)
REMARK    1  A    between atoms: C5_5  and  N1_6 
REMARK    2  A    between atoms: C6_9  and  C7_10 
REMARK    3  A    between atoms: C12_15  and  N3_16 
REMARK       I    between atoms: N3_16  and  C13_18 
REMARK       I    between atoms: C13_18  and  N4_20 
REMARK    4  A    between atoms: N4_20  and  C14_22 
REMARK    5  A    between atoms: C17_25  and  N5_26 
ROOT
HETATM    1  N3  UNL     1     -22.572 -27.055   2.046  1.00  0.00    -0.293 N 
ATOM      2  H3  UNL     1     -23.297 -26.771   1.387  1.00  0.00     0.172 HD
HETATM    3  C13 UNL     1     -22.969 -27.908   3.089  1.00  0.00     0.326 C 
HETATM    4  O1  UNL     1     -22.172 -28.305   3.934  1.00  0.00    -0.247 OA
HETATM    5  N4  UNL     1     -24.318 -28.356   3.187  1.00  0.00    -0.309 N 
ATOM      6  H4  UNL     1     -24.967 -27.967   2.503  1.00  0.00     0.170 HD
ENDROOT
BRANCH   1   7
HETATM    7  C12 UNL     1     -21.276 -26.551   1.815  1.00  0.00     0.133 A 
HETATM    8  N1  UNL     1     -20.678 -25.406   1.654  1.00  0.00    -0.240 N 
HETATM    9  N2  UNL     1     -19.316 -25.552   1.714  1.00  0.00    -0.295 N 
HETATM   10  C6  UNL     1     -19.013 -26.810   1.913  1.00  0.00     0.037 A 
ATOM     11  H2  UNL     1     -18.641 -24.794   1.617  1.00  0.00     0.187 HD
HETATM   12  C11 UNL     1     -20.204 -27.488   1.982  1.00  0.00     0.077 A 
BRANCH   8  13
HETATM   13  C5  UNL     1     -21.282 -24.161   1.359  1.00  0.00     0.058 A 
HETATM   14  C4  UNL     1     -22.301 -23.685   2.159  1.00  0.00     0.032 A 
HETATM   15  C3  UNL     1     -22.957 -22.497   1.888  1.00  0.00     0.009 A 
HETATM   16  C2  UNL     1     -22.615 -21.720   0.787  1.00  0.00    -0.062 A 
HETATM   17  C1  UNL     1     -23.375 -20.464   0.531  1.00  0.00     0.048 C 
HETATM   18  C26 UNL     1     -21.610 -22.185  -0.006  1.00  0.00     0.009 A 
HETATM   19  C25 UNL     1     -20.959 -23.390   0.282  1.00  0.00     0.032 A 
ENDBRANCH   8  13
BRANCH  10  20
HETATM   20  C7  UNL     1     -17.695 -27.485   2.114  1.00  0.00    -0.007 C 
HETATM   21  C8  UNL     1     -17.829 -28.573   3.102  1.00  0.00     0.021 C 
HETATM   22  C9  UNL     1     -16.651 -26.482   2.564  1.00  0.00     0.021 C 
HETATM   23  C10 UNL     1     -17.278 -27.942   0.716  1.00  0.00     0.021 C 
ENDBRANCH  10  20
ENDBRANCH   1   7
BRANCH   5  24
HETATM   24  C14 UNL     1     -24.867 -29.265   4.103  1.00  0.00     0.036 A 
HETATM   25  C15 UNL     1     -24.233 -30.339   4.662  1.00  0.00     0.032 A 
HETATM   26  C16 UNL     1     -24.926 -31.236   5.493  1.00  0.00     0.032 A 
HETATM   27  C17 UNL     1     -26.251 -31.093   5.784  1.00  0.00     0.042 A 
HETATM   28  C23 UNL     1     -26.889 -30.008   5.227  1.00  0.00     0.032 A 
HETATM   29  C24 UNL     1     -26.222 -29.124   4.415  1.00  0.00     0.032 A 
BRANCH  27  30
HETATM   30  N5  UNL     1     -27.047 -31.997   6.542  1.00  0.00    -0.292 N 
HETATM   31  C18 UNL     1     -27.422 -33.259   6.272  1.00  0.00     0.191 A 
HETATM   32  N6  UNL     1     -28.194 -33.752   7.282  1.00  0.00    -0.346 N 
HETATM   33  C19 UNL     1     -28.319 -32.791   8.221  1.00  0.00     0.120 A 
ATOM     34  H6  UNL     1     -28.605 -34.685   7.320  1.00  0.00     0.167 HD
HETATM   35  C20 UNL     1     -28.992 -32.756   9.453  1.00  0.00     0.148 A 
HETATM   36  C22 UNL     1     -27.611 -31.722   7.759  1.00  0.00     0.144 A 
HETATM   37  N7  UNL     1     -29.717 -33.851   9.933  1.00  0.00    -0.080 NA
HETATM   38  N8  UNL     1     -28.897 -31.610  10.140  1.00  0.00    -0.339 N 
HETATM   39  C21 UNL     1     -28.223 -30.556   9.725  1.00  0.00     0.183 A 
ATOM     40  H8  UNL     1     -29.375 -31.549  11.038  1.00  0.00     0.167 HD
HETATM   41  N9  UNL     1     -27.589 -30.612   8.547  1.00  0.00    -0.336 N 
ATOM     42  H9  UNL     1     -27.071 -29.793   8.228  1.00  0.00     0.168 HD
ENDBRANCH  27  30
ENDBRANCH   5  24
TORSDOF 5
ENDMDL
