MODEL 5
REMARK VINA RESULT: -10.832371813      5.205      7.368
REMARK  5 active torsions:
REMARK  status: ('A' for Active; 'I' for Inactive)
REMARK    1  A    between atoms: C5_5  and  N1_6 
REMARK    2  A    between atoms: C6_9  and  C7_10 
REMARK    3  A    between atoms: C12_15  and  N3_16 
REMARK       I    between atoms: N3_16  and  C13_18 
REMARK       I    between atoms: C13_18  and  N4_20 
REMARK    4  A    between atoms: N4_20  and  C14_22 
REMARK    5  A    between atoms: C17_25  and  N5_26 
ROOT
HETATM    1  N3  UNL     1     -22.967 -23.098   2.024  1.00  0.00    -0.293 N 
ATOM      2  H3  UNL     1     -23.641 -23.196   1.266  1.00  0.00     0.172 HD
HETATM    3  C13 UNL     1     -23.490 -23.029   3.325  1.00  0.00     0.326 C 
HETATM    4  O1  UNL     1     -22.762 -22.909   4.307  1.00  0.00    -0.247 OA
HETATM    5  N4  UNL     1     -24.895 -23.116   3.549  1.00  0.00    -0.309 N 
ATOM      6  H4  UNL     1     -25.476 -23.161   2.713  1.00  0.00     0.170 HD
ENDROOT
BRANCH   1   7
HETATM    7  C12 UNL     1     -21.606 -23.046   1.657  1.00  0.00     0.133 A 
HETATM    8  N1  UNL     1     -20.626 -23.859   1.393  1.00  0.00    -0.240 N 
HETATM    9  N2  UNL     1     -19.567 -23.186   0.839  1.00  0.00    -0.295 N 
HETATM   10  C6  UNL     1     -19.854 -21.912   0.740  1.00  0.00     0.037 A 
ATOM     11  H2  UNL     1     -18.688 -23.614   0.549  1.00  0.00     0.187 HD
HETATM   12  C11 UNL     1     -21.121 -21.762   1.242  1.00  0.00     0.077 A 
BRANCH   8  13
HETATM   13  C5  UNL     1     -20.554 -25.239   1.696  1.00  0.00     0.058 A 
HETATM   14  C4  UNL     1     -19.438 -25.966   1.333  1.00  0.00     0.032 A 
HETATM   15  C3  UNL     1     -19.337 -27.326   1.561  1.00  0.00     0.009 A 
HETATM   16  C2  UNL     1     -20.366 -28.031   2.176  1.00  0.00    -0.062 A 
HETATM   17  C1  UNL     1     -20.212 -29.501   2.372  1.00  0.00     0.048 C 
HETATM   18  C26 UNL     1     -21.470 -27.320   2.537  1.00  0.00     0.009 A 
HETATM   19  C25 UNL     1     -21.556 -25.944   2.295  1.00  0.00     0.032 A 
ENDBRANCH   8  13
BRANCH  10  20
HETATM   20  C7  UNL     1     -19.083 -20.772   0.160  1.00  0.00    -0.007 C 
HETATM   21  C8  UNL     1     -17.796 -21.252  -0.378  1.00  0.00     0.021 C 
HETATM   22  C9  UNL     1     -18.856 -19.700   1.208  1.00  0.00     0.021 C 
HETATM   23  C10 UNL     1     -20.020 -20.162  -0.882  1.00  0.00     0.021 C 
ENDBRANCH  10  20
ENDBRANCH   1   7
BRANCH   5  24
HETATM   24  C14 UNL     1     -25.579 -23.147   4.773  1.00  0.00     0.036 A 
HETATM   25  C15 UNL     1     -25.831 -24.253   5.535  1.00  0.00     0.032 A 
HETATM   26  C16 UNL     1     -26.619 -24.167   6.696  1.00  0.00     0.032 A 
HETATM   27  C17 UNL     1     -27.171 -22.995   7.123  1.00  0.00     0.042 A 
HETATM   28  C23 UNL     1     -26.912 -21.880   6.361  1.00  0.00     0.032 A 
HETATM   29  C24 UNL     1     -26.143 -21.951   5.226  1.00  0.00     0.032 A 
BRANCH  27  30
HETATM   30  N5  UNL     1     -28.047 -22.835   8.234  1.00  0.00    -0.292 N 
HETATM   31  C18 UNL     1     -29.096 -22.013   8.400  1.00  0.00     0.191 A 
HETATM   32  N6  UNL     1     -29.649 -22.191   9.633  1.00  0.00    -0.346 N 
HETATM   33  C19 UNL     1     -28.944 -23.145  10.275  1.00  0.00     0.120 A 
ATOM     34  H6  UNL     1     -30.456 -21.689  10.005  1.00  0.00     0.167 HD
HETATM   35  C20 UNL     1     -29.073 -23.719  11.551  1.00  0.00     0.148 A 
HETATM   36  C22 UNL     1     -27.967 -23.535   9.408  1.00  0.00     0.144 A 
HETATM   37  N7  UNL     1     -30.075 -23.325  12.443  1.00  0.00    -0.080 NA
HETATM   38  N8  UNL     1     -28.176 -24.664  11.861  1.00  0.00    -0.339 N 
HETATM   39  C21 UNL     1     -27.218 -25.065  11.051  1.00  0.00     0.183 A 
ATOM     40  H8  UNL     1     -28.239 -25.100  12.781  1.00  0.00     0.167 HD
HETATM   41  N9  UNL     1     -27.114 -24.505   9.839  1.00  0.00    -0.336 N 
ATOM     42  H9  UNL     1     -26.369 -24.816   9.215  1.00  0.00     0.168 HD
ENDBRANCH  27  30
ENDBRANCH   5  24
TORSDOF 5
ENDMDL
