MODEL 3
REMARK VINA RESULT: -10.266004823      5.580      9.349
REMARK  5 active torsions:
REMARK  status: ('A' for Active; 'I' for Inactive)
REMARK    1  A    between atoms: C5_5  and  N1_6 
REMARK    2  A    between atoms: C6_9  and  C7_10 
REMARK    3  A    between atoms: C12_15  and  N3_16 
REMARK       I    between atoms: N3_16  and  C13_18 
REMARK       I    between atoms: C13_18  and  N4_20 
REMARK    4  A    between atoms: N4_20  and  C14_22 
REMARK    5  A    between atoms: C17_25  and  C18_26 
ROOT
HETATM    1  N3  UNL     1       7.006 -13.391  20.080  1.00  0.00    -0.293 N 
ATOM      2  H3  UNL     1       8.013 -13.492  19.948  1.00  0.00     0.172 HD
HETATM    3  C13 UNL     1       6.166 -13.575  18.961  1.00  0.00     0.326 C 
HETATM    4  O1  UNL     1       4.920 -13.475  19.071  1.00  0.00    -0.247 OA
HETATM    5  N4  UNL     1       6.723 -13.883  17.665  1.00  0.00    -0.309 N 
ATOM      6  H4  UNL     1       7.732 -13.966  17.541  1.00  0.00     0.170 HD
ENDROOT
BRANCH   1   7
HETATM    7  C12 UNL     1       6.532 -13.074  21.373  1.00  0.00     0.133 A 
HETATM    8  N1  UNL     1       7.186 -13.417  22.524  1.00  0.00    -0.240 N 
HETATM    9  N2  UNL     1       6.471 -12.951  23.506  1.00  0.00    -0.295 N 
HETATM   10  C6  UNL     1       5.367 -12.311  23.094  1.00  0.00     0.037 A 
ATOM     11  H2  UNL     1       6.724 -13.062  24.488  1.00  0.00     0.187 HD
HETATM   12  C11 UNL     1       5.391 -12.382  21.705  1.00  0.00     0.077 A 
BRANCH   8  13
HETATM   13  C5  UNL     1       8.405 -14.147  22.644  1.00  0.00     0.058 A 
HETATM   14  C4  UNL     1       9.118 -14.138  23.848  1.00  0.00     0.032 A 
HETATM   15  C3  UNL     1      10.300 -14.822  23.995  1.00  0.00     0.009 A 
HETATM   16  C2  UNL     1      10.826 -15.549  22.952  1.00  0.00    -0.062 A 
HETATM   17  C1  UNL     1      12.099 -16.300  23.056  1.00  0.00     0.048 C 
HETATM   18  C26 UNL     1      10.148 -15.585  21.741  1.00  0.00     0.009 A 
HETATM   19  C25 UNL     1       8.966 -14.888  21.624  1.00  0.00     0.032 A 
ENDBRANCH   8  13
BRANCH  10  20
HETATM   20  C7  UNL     1       4.328 -11.653  23.929  1.00  0.00    -0.007 C 
HETATM   21  C8  UNL     1       3.290 -11.001  23.057  1.00  0.00     0.021 C 
HETATM   22  C9  UNL     1       5.049 -10.503  24.659  1.00  0.00     0.021 C 
HETATM   23  C10 UNL     1       3.723 -12.594  24.941  1.00  0.00     0.021 C 
ENDBRANCH  10  20
ENDBRANCH   1   7
BRANCH   5  24
HETATM   24  C14 UNL     1       5.849 -14.067  16.572  1.00  0.00     0.036 A 
HETATM   25  C15 UNL     1       5.590 -15.322  16.074  1.00  0.00     0.030 A 
HETATM   26  C16 UNL     1       4.720 -15.422  15.001  1.00  0.00     0.014 A 
HETATM   27  C17 UNL     1       4.140 -14.298  14.460  1.00  0.00    -0.025 A 
HETATM   28  C23 UNL     1       4.418 -13.040  14.982  1.00  0.00     0.014 A 
HETATM   29  C24 UNL     1       5.266 -12.915  16.030  1.00  0.00     0.030 A 
BRANCH  27  30
HETATM   30  C18 UNL     1       3.228 -14.360  13.326  1.00  0.00    -0.011 A 
HETATM   31  C19 UNL     1       3.730 -14.664  12.062  1.00  0.00     0.015 A 
HETATM   32  C20 UNL     1       2.858 -14.745  10.994  1.00  0.00     0.018 A 
HETATM   33  C21 UNL     1       1.511 -14.531  11.154  1.00  0.00     0.087 A 
HETATM   34  N5  UNL     1       1.034 -14.241  12.359  1.00  0.00    -0.374 N 
HETATM   35  C22 UNL     1       1.861 -14.153  13.433  1.00  0.00     0.099 A 
ATOM     36  H5  UNL     1       0.034 -14.082  12.480  1.00  0.00     0.164 HD
ENDBRANCH  27  30
ENDBRANCH   5  24
TORSDOF 5
ENDMDL
