MODEL 5
REMARK VINA RESULT: -9.843843413      0.897      1.590
REMARK  5 active torsions:
REMARK  status: ('A' for Active; 'I' for Inactive)
REMARK    1  A    between atoms: C5_5  and  N1_6 
REMARK    2  A    between atoms: C6_9  and  C7_10 
REMARK    3  A    between atoms: C12_15  and  N3_16 
REMARK       I    between atoms: N3_16  and  C13_18 
REMARK       I    between atoms: C13_18  and  N4_20 
REMARK    4  A    between atoms: N4_20  and  C14_22 
REMARK    5  A    between atoms: C17_25  and  C18_26 
ROOT
HETATM    1  N3  UNL     1       3.644 -11.397  16.974  1.00  0.00    -0.293 N 
ATOM      2  H3  UNL     1       4.161 -11.678  17.809  1.00  0.00     0.172 HD
HETATM    3  C13 UNL     1       2.868 -10.221  17.037  1.00  0.00     0.326 C 
HETATM    4  O1  UNL     1       2.223  -9.823  16.037  1.00  0.00    -0.247 OA
HETATM    5  N4  UNL     1       2.798  -9.449  18.256  1.00  0.00    -0.309 N 
ATOM      6  H4  UNL     1       3.305  -9.748  19.088  1.00  0.00     0.170 HD
ENDROOT
BRANCH   1   7
HETATM    7  C12 UNL     1       3.747 -12.209  15.822  1.00  0.00     0.133 A 
HETATM    8  N1  UNL     1       4.647 -13.229  15.693  1.00  0.00    -0.240 N 
HETATM    9  N2  UNL     1       4.442 -13.755  14.521  1.00  0.00    -0.295 N 
HETATM   10  C6  UNL     1       3.454 -13.153  13.842  1.00  0.00     0.037 A 
ATOM     11  H2  UNL     1       4.977 -14.544  14.156  1.00  0.00     0.187 HD
HETATM   12  C11 UNL     1       2.990 -12.142  14.677  1.00  0.00     0.077 A 
BRANCH   8  13
HETATM   13  C5  UNL     1       5.630 -13.644  16.639  1.00  0.00     0.058 A 
HETATM   14  C4  UNL     1       5.280 -14.495  17.694  1.00  0.00     0.032 A 
HETATM   15  C3  UNL     1       6.200 -14.905  18.629  1.00  0.00     0.009 A 
HETATM   16  C2  UNL     1       7.509 -14.491  18.557  1.00  0.00    -0.062 A 
HETATM   17  C1  UNL     1       8.538 -14.900  19.541  1.00  0.00     0.048 C 
HETATM   18  C26 UNL     1       7.897 -13.647  17.524  1.00  0.00     0.009 A 
HETATM   19  C25 UNL     1       6.953 -13.252  16.604  1.00  0.00     0.032 A 
ENDBRANCH   8  13
BRANCH  10  20
HETATM   20  C7  UNL     1       2.945 -13.486  12.485  1.00  0.00    -0.007 C 
HETATM   21  C8  UNL     1       1.446 -13.361  12.443  1.00  0.00     0.021 C 
HETATM   22  C9  UNL     1       3.249 -14.985  12.283  1.00  0.00     0.021 C 
HETATM   23  C10 UNL     1       3.622 -12.684  11.404  1.00  0.00     0.021 C 
ENDBRANCH  10  20
ENDBRANCH   1   7
BRANCH   5  24
HETATM   24  C14 UNL     1       2.015  -8.274  18.277  1.00  0.00     0.036 A 
HETATM   25  C15 UNL     1       1.724  -7.637  19.460  1.00  0.00     0.030 A 
HETATM   26  C16 UNL     1       0.953  -6.488  19.399  1.00  0.00     0.014 A 
HETATM   27  C17 UNL     1       0.501  -6.008  18.192  1.00  0.00    -0.025 A 
HETATM   28  C23 UNL     1       0.810  -6.671  17.010  1.00  0.00     0.014 A 
HETATM   29  C24 UNL     1       1.561  -7.797  17.042  1.00  0.00     0.030 A 
BRANCH  27  30
HETATM   30  C18 UNL     1      -0.320  -4.810  18.087  1.00  0.00    -0.011 A 
HETATM   31  C19 UNL     1      -0.715  -4.361  16.828  1.00  0.00     0.015 A 
HETATM   32  C20 UNL     1      -1.513  -3.238  16.735  1.00  0.00     0.018 A 
HETATM   33  C21 UNL     1      -1.922  -2.557  17.855  1.00  0.00     0.087 A 
HETATM   34  N5  UNL     1      -1.544  -2.986  19.055  1.00  0.00    -0.374 N 
HETATM   35  C22 UNL     1      -0.760  -4.087  19.186  1.00  0.00     0.099 A 
ATOM     36  H5  UNL     1      -1.847  -2.482  19.888  1.00  0.00     0.164 HD
ENDBRANCH  27  30
ENDBRANCH   5  24
TORSDOF 5
ENDMDL
