MODEL 1
REMARK VINA RESULT: -11.149877687      0.000      0.000
REMARK  5 active torsions:
REMARK  status: ('A' for Active; 'I' for Inactive)
REMARK    1  A    between atoms: C5_5  and  N1_6 
REMARK    2  A    between atoms: C6_9  and  C7_10 
REMARK    3  A    between atoms: C12_15  and  N3_16 
REMARK       I    between atoms: N3_16  and  C13_18 
REMARK       I    between atoms: C13_18  and  N4_20 
REMARK    4  A    between atoms: N4_20  and  C14_22 
REMARK    5  A    between atoms: C17_25  and  C18_26 
ROOT
HETATM    1  N3  UNL     1       3.651 -11.795  16.399  1.00  0.00    -0.293 N 
ATOM      2  H3  UNL     1       4.271 -11.982  17.187  1.00  0.00     0.172 HD
HETATM    3  C13 UNL     1       2.858 -10.628  16.439  1.00  0.00     0.326 C 
HETATM    4  O1  UNL     1       2.087 -10.342  15.491  1.00  0.00    -0.247 OA
HETATM    5  N4  UNL     1       2.917  -9.736  17.574  1.00  0.00    -0.309 N 
ATOM      6  H4  UNL     1       3.529  -9.942  18.363  1.00  0.00     0.170 HD
ENDROOT
BRANCH   1   7
HETATM    7  C12 UNL     1       3.633 -12.718  15.330  1.00  0.00     0.133 A 
HETATM    8  N1  UNL     1       4.522 -13.749  15.206  1.00  0.00    -0.240 N 
HETATM    9  N2  UNL     1       4.194 -14.390  14.122  1.00  0.00    -0.295 N 
HETATM   10  C6  UNL     1       3.133 -13.857  13.499  1.00  0.00     0.037 A 
ATOM     11  H2  UNL     1       4.692 -15.213  13.782  1.00  0.00     0.187 HD
HETATM   12  C11 UNL     1       2.754 -12.766  14.274  1.00  0.00     0.077 A 
BRANCH   8  13
HETATM   13  C5  UNL     1       5.606 -14.069  16.075  1.00  0.00     0.058 A 
HETATM   14  C4  UNL     1       5.714 -15.349  16.630  1.00  0.00     0.032 A 
HETATM   15  C3  UNL     1       6.740 -15.687  17.479  1.00  0.00     0.009 A 
HETATM   16  C2  UNL     1       7.707 -14.769  17.813  1.00  0.00    -0.062 A 
HETATM   17  C1  UNL     1       8.831 -15.080  18.728  1.00  0.00     0.048 C 
HETATM   18  C26 UNL     1       7.638 -13.487  17.283  1.00  0.00     0.009 A 
HETATM   19  C25 UNL     1       6.597 -13.178  16.436  1.00  0.00     0.032 A 
ENDBRANCH   8  13
BRANCH  10  20
HETATM   20  C7  UNL     1       2.480 -14.324  12.247  1.00  0.00    -0.007 C 
HETATM   21  C8  UNL     1       2.707 -15.799  12.057  1.00  0.00     0.021 C 
HETATM   22  C9  UNL     1       3.239 -13.629  11.099  1.00  0.00     0.021 C 
HETATM   23  C10 UNL     1       1.021 -13.952  12.186  1.00  0.00     0.021 C 
ENDBRANCH  10  20
ENDBRANCH   1   7
BRANCH   5  24
HETATM   24  C14 UNL     1       2.115  -8.575  17.573  1.00  0.00     0.036 A 
HETATM   25  C15 UNL     1       1.420  -8.194  16.450  1.00  0.00     0.030 A 
HETATM   26  C16 UNL     1       0.651  -7.043  16.528  1.00  0.00     0.014 A 
HETATM   27  C17 UNL     1       0.592  -6.316  17.694  1.00  0.00    -0.025 A 
HETATM   28  C23 UNL     1       1.304  -6.723  18.816  1.00  0.00     0.014 A 
HETATM   29  C24 UNL     1       2.063  -7.843  18.766  1.00  0.00     0.030 A 
BRANCH  27  30
HETATM   30  C18 UNL     1      -0.196  -5.097  17.814  1.00  0.00    -0.011 A 
HETATM   31  C19 UNL     1      -0.604  -4.669  19.076  1.00  0.00     0.015 A 
HETATM   32  C20 UNL     1      -1.330  -3.500  19.186  1.00  0.00     0.018 A 
HETATM   33  C21 UNL     1      -1.659  -2.755  18.079  1.00  0.00     0.087 A 
HETATM   34  N5  UNL     1      -1.269  -3.165  16.877  1.00  0.00    -0.374 N 
HETATM   35  C22 UNL     1      -0.552  -4.309  16.730  1.00  0.00     0.099 A 
ATOM     36  H5  UNL     1      -1.511  -2.613  16.055  1.00  0.00     0.164 HD
ENDBRANCH  27  30
ENDBRANCH   5  24
TORSDOF 5
ENDMDL
