MODEL 6
REMARK VINA RESULT: -9.766132186      5.829      9.161
REMARK  5 active torsions:
REMARK  status: ('A' for Active; 'I' for Inactive)
REMARK    1  A    between atoms: C5_5  and  N1_6 
REMARK    2  A    between atoms: C6_9  and  C7_10 
REMARK    3  A    between atoms: C12_15  and  N3_16 
REMARK       I    between atoms: N3_16  and  C13_18 
REMARK       I    between atoms: C13_18  and  N4_20 
REMARK    4  A    between atoms: N4_20  and  C14_22 
REMARK    5  A    between atoms: C17_25  and  C18_26 
ROOT
HETATM    1  N3  UNL     1       8.380 -13.984  18.632  1.00  0.00    -0.293 N 
ATOM      2  H3  UNL     1       8.876 -13.094  18.679  1.00  0.00     0.172 HD
HETATM    3  C13 UNL     1       7.337 -14.115  17.690  1.00  0.00     0.326 C 
HETATM    4  O1  UNL     1       6.702 -15.193  17.581  1.00  0.00    -0.247 OA
HETATM    5  N4  UNL     1       6.977 -13.011  16.831  1.00  0.00    -0.309 N 
ATOM      6  H4  UNL     1       7.469 -12.121  16.899  1.00  0.00     0.170 HD
ENDROOT
BRANCH   1   7
HETATM    7  C12 UNL     1       8.775 -15.016  19.513  1.00  0.00     0.133 A 
HETATM    8  N1  UNL     1       8.520 -15.003  20.856  1.00  0.00    -0.240 N 
HETATM    9  N2  UNL     1       9.012 -16.109  21.334  1.00  0.00    -0.295 N 
HETATM   10  C6  UNL     1       9.588 -16.875  20.396  1.00  0.00     0.037 A 
ATOM     11  H2  UNL     1       8.964 -16.366  22.320  1.00  0.00     0.187 HD
HETATM   12  C11 UNL     1       9.443 -16.177  19.202  1.00  0.00     0.077 A 
BRANCH   8  13
HETATM   13  C5  UNL     1       7.857 -13.986  21.602  1.00  0.00     0.058 A 
HETATM   14  C4  UNL     1       8.560 -12.857  22.038  1.00  0.00     0.032 A 
HETATM   15  C3  UNL     1       7.954 -11.863  22.768  1.00  0.00     0.009 A 
HETATM   16  C2  UNL     1       6.621 -11.944  23.096  1.00  0.00    -0.062 A 
HETATM   17  C1  UNL     1       5.921 -10.903  23.885  1.00  0.00     0.048 C 
HETATM   18  C26 UNL     1       5.887 -13.047  22.681  1.00  0.00     0.009 A 
HETATM   19  C25 UNL     1       6.522 -14.028  21.952  1.00  0.00     0.032 A 
ENDBRANCH   8  13
BRANCH  10  20
HETATM   20  C7  UNL     1      10.244 -18.197  20.575  1.00  0.00    -0.007 C 
HETATM   21  C8  UNL     1      11.688 -18.019  20.956  1.00  0.00     0.021 C 
HETATM   22  C9  UNL     1      10.254 -18.849  19.178  1.00  0.00     0.021 C 
HETATM   23  C10 UNL     1       9.497 -19.083  21.540  1.00  0.00     0.021 C 
ENDBRANCH  10  20
ENDBRANCH   1   7
BRANCH   5  24
HETATM   24  C14 UNL     1       5.933 -13.184  15.897  1.00  0.00     0.036 A 
HETATM   25  C15 UNL     1       4.657 -12.751  16.172  1.00  0.00     0.030 A 
HETATM   26  C16 UNL     1       3.686 -12.954  15.204  1.00  0.00     0.014 A 
HETATM   27  C17 UNL     1       3.999 -13.567  14.013  1.00  0.00    -0.025 A 
HETATM   28  C23 UNL     1       5.297 -13.995  13.760  1.00  0.00     0.014 A 
HETATM   29  C24 UNL     1       6.264 -13.809  14.689  1.00  0.00     0.030 A 
BRANCH  27  30
HETATM   30  C18 UNL     1       3.006 -13.807  12.975  1.00  0.00    -0.011 A 
HETATM   31  C19 UNL     1       3.423 -14.248  11.721  1.00  0.00     0.015 A 
HETATM   32  C20 UNL     1       2.476 -14.497  10.747  1.00  0.00     0.018 A 
HETATM   33  C21 UNL     1       1.136 -14.317  10.991  1.00  0.00     0.087 A 
HETATM   34  N5  UNL     1       0.741 -13.897  12.187  1.00  0.00    -0.374 N 
HETATM   35  C22 UNL     1       1.643 -13.642  13.170  1.00  0.00     0.099 A 
ATOM     36  H5  UNL     1      -0.254 -13.764  12.371  1.00  0.00     0.164 HD
ENDBRANCH  27  30
ENDBRANCH   5  24
TORSDOF 5
ENDMDL
