MODEL 4
REMARK VINA RESULT: -9.855356174      5.471      9.317
REMARK  5 active torsions:
REMARK  status: ('A' for Active; 'I' for Inactive)
REMARK    1  A    between atoms: C5_5  and  N1_6 
REMARK    2  A    between atoms: C6_9  and  C7_10 
REMARK    3  A    between atoms: C12_15  and  N3_16 
REMARK       I    between atoms: N3_16  and  C13_18 
REMARK       I    between atoms: C13_18  and  N4_20 
REMARK    4  A    between atoms: N4_20  and  C14_22 
REMARK    5  A    between atoms: C17_25  and  C18_26 
ROOT
HETATM    1  N3  UNL     1       7.434 -13.505  19.682  1.00  0.00    -0.293 N 
ATOM      2  H3  UNL     1       7.875 -12.591  19.783  1.00  0.00     0.172 HD
HETATM    3  C13 UNL     1       6.575 -13.712  18.581  1.00  0.00     0.326 C 
HETATM    4  O1  UNL     1       6.016 -14.822  18.402  1.00  0.00    -0.247 OA
HETATM    5  N4  UNL     1       6.320 -12.650  17.636  1.00  0.00    -0.309 N 
ATOM      6  H4  UNL     1       6.754 -11.735  17.756  1.00  0.00     0.170 HD
ENDROOT
BRANCH   1   7
HETATM    7  C12 UNL     1       7.717 -14.493  20.652  1.00  0.00     0.133 A 
HETATM    8  N1  UNL     1       7.191 -14.487  21.914  1.00  0.00    -0.240 N 
HETATM    9  N2  UNL     1       7.656 -15.545  22.512  1.00  0.00    -0.295 N 
HETATM   10  C6  UNL     1       8.469 -16.273  21.732  1.00  0.00     0.037 A 
ATOM     11  H2  UNL     1       7.426 -15.794  23.474  1.00  0.00     0.187 HD
HETATM   12  C11 UNL     1       8.519 -15.601  20.515  1.00  0.00     0.077 A 
BRANCH   8  13
HETATM   13  C5  UNL     1       6.314 -13.517  22.482  1.00  0.00     0.058 A 
HETATM   14  C4  UNL     1       6.832 -12.405  23.156  1.00  0.00     0.032 A 
HETATM   15  C3  UNL     1       6.015 -11.457  23.723  1.00  0.00     0.009 A 
HETATM   16  C2  UNL     1       4.646 -11.571  23.646  1.00  0.00    -0.062 A 
HETATM   17  C1  UNL     1       3.721 -10.580  24.246  1.00  0.00     0.048 C 
HETATM   18  C26 UNL     1       4.092 -12.659  22.985  1.00  0.00     0.009 A 
HETATM   19  C25 UNL     1       4.937 -13.592  22.427  1.00  0.00     0.032 A 
ENDBRANCH   8  13
BRANCH  10  20
HETATM   20  C7  UNL     1       9.171 -17.537  22.076  1.00  0.00    -0.007 C 
HETATM   21  C8  UNL     1       8.285 -18.418  22.913  1.00  0.00     0.021 C 
HETATM   22  C9  UNL     1      10.343 -17.126  22.991  1.00  0.00     0.021 C 
HETATM   23  C10 UNL     1       9.707 -18.247  20.858  1.00  0.00     0.021 C 
ENDBRANCH  10  20
ENDBRANCH   1   7
BRANCH   5  24
HETATM   24  C14 UNL     1       5.461 -12.898  16.544  1.00  0.00     0.036 A 
HETATM   25  C15 UNL     1       4.234 -12.283  16.454  1.00  0.00     0.030 A 
HETATM   26  C16 UNL     1       3.448 -12.575  15.351  1.00  0.00     0.014 A 
HETATM   27  C17 UNL     1       3.890 -13.450  14.385  1.00  0.00    -0.025 A 
HETATM   28  C23 UNL     1       5.134 -14.058  14.500  1.00  0.00     0.014 A 
HETATM   29  C24 UNL     1       5.922 -13.790  15.569  1.00  0.00     0.030 A 
BRANCH  27  30
HETATM   30  C18 UNL     1       3.090 -13.790  13.217  1.00  0.00    -0.011 A 
HETATM   31  C19 UNL     1       3.730 -14.166  12.037  1.00  0.00     0.015 A 
HETATM   32  C20 UNL     1       2.967 -14.511  10.939  1.00  0.00     0.018 A 
HETATM   33  C21 UNL     1       1.594 -14.488  10.987  1.00  0.00     0.087 A 
HETATM   34  N5  UNL     1       0.986 -14.130  12.112  1.00  0.00    -0.374 N 
HETATM   35  C22 UNL     1       1.703 -13.785  13.213  1.00  0.00     0.099 A 
ATOM     36  H5  UNL     1      -0.033 -14.113  12.151  1.00  0.00     0.164 HD
ENDBRANCH  27  30
ENDBRANCH   5  24
TORSDOF 5
ENDMDL
