MODEL 2
REMARK VINA RESULT: -10.898925996      1.324      1.711
REMARK  5 active torsions:
REMARK  status: ('A' for Active; 'I' for Inactive)
REMARK    1  A    between atoms: C5_5  and  N1_6 
REMARK    2  A    between atoms: C6_9  and  C7_10 
REMARK    3  A    between atoms: C12_15  and  N3_16 
REMARK       I    between atoms: N3_16  and  C13_18 
REMARK       I    between atoms: C13_18  and  N4_20 
REMARK    4  A    between atoms: N4_20  and  C14_22 
REMARK    5  A    between atoms: C17_25  and  C18_26 
ROOT
HETATM    1  N3  UNL     1       3.380 -10.488  17.043  1.00  0.00    -0.293 N 
ATOM      2  H3  UNL     1       4.042 -10.621  17.808  1.00  0.00     0.172 HD
HETATM    3  C13 UNL     1       2.497  -9.390  17.110  1.00  0.00     0.326 C 
HETATM    4  O1  UNL     1       1.671  -9.173  16.190  1.00  0.00    -0.247 OA
HETATM    5  N4  UNL     1       2.524  -8.492  18.241  1.00  0.00    -0.309 N 
ATOM      6  H4  UNL     1       3.179  -8.644  19.008  1.00  0.00     0.170 HD
ENDROOT
BRANCH   1   7
HETATM    7  C12 UNL     1       3.400 -11.415  15.976  1.00  0.00     0.133 A 
HETATM    8  N1  UNL     1       4.210 -12.515  15.944  1.00  0.00    -0.240 N 
HETATM    9  N2  UNL     1       3.946 -13.135  14.830  1.00  0.00    -0.295 N 
HETATM   10  C6  UNL     1       3.003 -12.521  14.100  1.00  0.00     0.037 A 
ATOM     11  H2  UNL     1       4.408 -13.997  14.543  1.00  0.00     0.187 HD
HETATM   12  C11 UNL     1       2.635 -11.397  14.833  1.00  0.00     0.077 A 
BRANCH   8  13
HETATM   13  C5  UNL     1       5.167 -12.915  16.921  1.00  0.00     0.058 A 
HETATM   14  C4  UNL     1       6.473 -13.244  16.539  1.00  0.00     0.032 A 
HETATM   15  C3  UNL     1       7.417 -13.643  17.454  1.00  0.00     0.009 A 
HETATM   16  C2  UNL     1       7.108 -13.731  18.791  1.00  0.00    -0.062 A 
HETATM   17  C1  UNL     1       8.087 -14.161  19.817  1.00  0.00     0.048 C 
HETATM   18  C26 UNL     1       5.824 -13.412  19.212  1.00  0.00     0.009 A 
HETATM   19  C25 UNL     1       4.899 -13.016  18.271  1.00  0.00     0.032 A 
ENDBRANCH   8  13
BRANCH  10  20
HETATM   20  C7  UNL     1       2.449 -12.942  12.786  1.00  0.00    -0.007 C 
HETATM   21  C8  UNL     1       3.561 -13.325  11.848  1.00  0.00     0.021 C 
HETATM   22  C9  UNL     1       1.805 -11.678  12.183  1.00  0.00     0.021 C 
HETATM   23  C10 UNL     1       1.409 -14.024  12.920  1.00  0.00     0.021 C 
ENDBRANCH  10  20
ENDBRANCH   1   7
BRANCH   5  24
HETATM   24  C14 UNL     1       1.629  -7.400  18.269  1.00  0.00     0.036 A 
HETATM   25  C15 UNL     1       1.255  -6.760  17.111  1.00  0.00     0.030 A 
HETATM   26  C16 UNL     1       0.371  -5.699  17.219  1.00  0.00     0.014 A 
HETATM   27  C17 UNL     1      -0.111  -5.308  18.447  1.00  0.00    -0.025 A 
HETATM   28  C23 UNL     1       0.283  -5.972  19.602  1.00  0.00     0.014 A 
HETATM   29  C24 UNL     1       1.147  -7.012  19.524  1.00  0.00     0.030 A 
BRANCH  27  30
HETATM   30  C18 UNL     1      -1.033  -4.192  18.603  1.00  0.00    -0.011 A 
HETATM   31  C19 UNL     1      -1.234  -3.645  19.869  1.00  0.00     0.015 A 
HETATM   32  C20 UNL     1      -2.091  -2.572  20.009  1.00  0.00     0.018 A 
HETATM   33  C21 UNL     1      -2.748  -2.036  18.928  1.00  0.00     0.087 A 
HETATM   34  N5  UNL     1      -2.555  -2.559  17.722  1.00  0.00    -0.374 N 
HETATM   35  C22 UNL     1      -1.719  -3.615  17.546  1.00  0.00     0.099 A 
ATOM     36  H5  UNL     1      -3.041  -2.162  16.918  1.00  0.00     0.164 HD
ENDBRANCH  27  30
ENDBRANCH   5  24
TORSDOF 5
ENDMDL
