MODEL 6
REMARK VINA RESULT: -9.916128250      0.970      1.153
REMARK  10 active torsions:
REMARK  status: ('A' for Active; 'I' for Inactive)
REMARK    1  A    between atoms: N4_10  and  C5_11 
REMARK    2  A    between atoms: C6_13  and  C7_14 
REMARK    3  A    between atoms: C7_14  and  O2_15 
REMARK    4  A    between atoms: O2_15  and  P1_16 
REMARK    5  A    between atoms: P1_16  and  O5_19 
REMARK    6  A    between atoms: O5_19  and  P2_20 
REMARK    7  A    between atoms: P2_20  and  O8_23 
REMARK    8  A    between atoms: O8_23  and  P3_24 
REMARK    9  A    between atoms: C8_28  and  O12_29 
REMARK   10  A    between atoms: C9_31  and  O13_32 
ROOT
HETATM    1  C5  UNL     1      -5.607   9.361  58.307  1.00  0.00     0.262 C 
HETATM    2  O1  UNL     1      -5.048   9.492  57.039  1.00  0.00    -0.353 OA
HETATM    3  C6  UNL     1      -4.804  10.881  57.005  1.00  0.00     0.180 C 
HETATM    4  C8  UNL     1      -4.017  11.084  58.273  1.00  0.00     0.182 C 
HETATM    5  C9  UNL     1      -4.568   9.977  59.183  1.00  0.00     0.198 C 
ENDROOT
BRANCH   1   6
HETATM    6  N4  UNL     1      -5.910   7.997  58.655  1.00  0.00    -0.297 N 
HETATM    7  C2  UNL     1      -7.078   7.543  59.120  1.00  0.00     0.146 A 
HETATM    8  N2  UNL     1      -8.229   8.190  59.379  1.00  0.00    -0.314 N 
HETATM    9  C3  UNL     1      -7.020   6.180  59.351  1.00  0.00     0.146 A 
HETATM   10  C1  UNL     1      -9.282   7.504  59.848  1.00  0.00     0.196 A 
ATOM     11  H2  UNL     1      -8.300   9.194  59.220  1.00  0.00     0.170 HD
HETATM   12  N1  UNL     1     -10.487   8.252  60.106  1.00  0.00    -0.063 NA
HETATM   13  N5  UNL     1      -9.232   6.164  60.076  1.00  0.00    -0.295 N 
HETATM   14  C10 UNL     1      -8.105   5.487  59.831  1.00  0.00     0.278 A 
ATOM     15  H5  UNL     1     -10.053   5.676  60.434  1.00  0.00     0.171 HD
HETATM   16  O14 UNL     1      -8.069   4.256  60.045  1.00  0.00    -0.265 OA
HETATM   17  N3  UNL     1      -5.755   5.824  59.001  1.00  0.00    -0.345 N 
HETATM   18  C4  UNL     1      -5.088   6.935  58.581  1.00  0.00     0.188 A 
ATOM     19  H3  UNL     1      -5.368   4.880  59.047  1.00  0.00     0.167 HD
ENDBRANCH   1   6
BRANCH   5  20
HETATM   20  O13 UNL     1      -5.168  10.555  60.280  1.00  0.00    -0.388 OA
ATOM     21  H13 UNL     1      -5.322  11.477  60.112  1.00  0.00     0.210 HD
ENDBRANCH   5  20
BRANCH   3  22
HETATM   22  C7  UNL     1      -4.018  11.177  55.771  1.00  0.00     0.216 C 
BRANCH  22  23
HETATM   23  O2  UNL     1      -3.816  10.051  55.042  1.00  0.00    -0.287 OA
BRANCH  23  24
HETATM   24  P1  UNL     1      -2.270   9.752  54.539  1.00  0.00     0.417 P 
HETATM   25  O3  UNL     1      -2.411  10.660  53.334  1.00  0.00    -0.624 OA
HETATM   26  O4  UNL     1      -1.056  10.781  55.169  1.00  0.00    -0.624 OA
BRANCH  24  27
HETATM   27  O5  UNL     1      -1.872   8.426  53.750  1.00  0.00    -0.180 OA
BRANCH  27  28
HETATM   28  P2  UNL     1      -0.706   8.107  52.842  1.00  0.00     0.428 P 
HETATM   29  O6  UNL     1      -1.792   7.152  52.006  1.00  0.00    -0.624 OA
HETATM   30  O7  UNL     1       0.180   7.350  54.000  1.00  0.00    -0.624 OA
BRANCH  28  31
HETATM   31  O8  UNL     1       0.284   7.784  51.678  1.00  0.00    -0.173 OA
BRANCH  31  32
HETATM   32  P3  UNL     1       0.526   9.203  50.730  1.00  0.00     0.431 P 
HETATM   33  O9  UNL     1       1.211   9.823  51.955  1.00  0.00    -0.616 OA
HETATM   34  O10 UNL     1       1.907   9.329  49.863  1.00  0.00    -0.616 OA
HETATM   35  O11 UNL     1      -0.664  10.257  50.623  1.00  0.00    -0.616 OA
ENDBRANCH  31  32
ENDBRANCH  28  31
ENDBRANCH  27  28
ENDBRANCH  24  27
ENDBRANCH  23  24
ENDBRANCH  22  23
ENDBRANCH   3  22
BRANCH   4  36
HETATM   36  O12 UNL     1      -4.320  12.346  58.778  1.00  0.00    -0.390 OA
ATOM     37  H12 UNL     1      -3.524  12.722  59.136  1.00  0.00     0.210 HD
ENDBRANCH   4  36
TORSDOF 10
ENDMDL
