MODEL 9
REMARK VINA RESULT: -9.736441653      3.148      4.480
REMARK  10 active torsions:
REMARK  status: ('A' for Active; 'I' for Inactive)
REMARK    1  A    between atoms: N4_10  and  C5_11 
REMARK    2  A    between atoms: C6_13  and  C7_14 
REMARK    3  A    between atoms: C7_14  and  O2_15 
REMARK    4  A    between atoms: O2_15  and  P1_16 
REMARK    5  A    between atoms: P1_16  and  O5_19 
REMARK    6  A    between atoms: O5_19  and  P2_20 
REMARK    7  A    between atoms: P2_20  and  O8_23 
REMARK    8  A    between atoms: O8_23  and  P3_24 
REMARK    9  A    between atoms: C8_28  and  O12_29 
REMARK   10  A    between atoms: C9_31  and  O13_32 
ROOT
HETATM    1  C5  UNL     1      -3.572  13.028  56.801  1.00  0.00     0.262 C 
HETATM    2  O1  UNL     1      -2.832  11.999  56.225  1.00  0.00    -0.353 OA
HETATM    3  C6  UNL     1      -2.915  12.353  54.861  1.00  0.00     0.180 C 
HETATM    4  C8  UNL     1      -2.449  13.785  54.888  1.00  0.00     0.182 C 
HETATM    5  C9  UNL     1      -2.887  14.248  56.284  1.00  0.00     0.198 C 
ENDROOT
BRANCH   1   6
HETATM    6  N4  UNL     1      -3.610  12.961  58.239  1.00  0.00    -0.297 N 
HETATM    7  C2  UNL     1      -3.806  11.860  58.972  1.00  0.00     0.146 A 
HETATM    8  N2  UNL     1      -4.011  10.584  58.600  1.00  0.00    -0.314 N 
HETATM    9  C3  UNL     1      -3.783  12.158  60.323  1.00  0.00     0.146 A 
HETATM   10  C1  UNL     1      -4.185   9.641  59.537  1.00  0.00     0.196 A 
ATOM     11  H2  UNL     1      -4.034  10.336  57.611  1.00  0.00     0.170 HD
HETATM   12  N1  UNL     1      -4.400   8.293  59.076  1.00  0.00    -0.063 NA
HETATM   13  N5  UNL     1      -4.162   9.926  60.867  1.00  0.00    -0.295 N 
HETATM   14  C10 UNL     1      -3.962  11.184  61.276  1.00  0.00     0.278 A 
ATOM     15  H5  UNL     1      -4.299   9.183  61.551  1.00  0.00     0.171 HD
HETATM   16  O14 UNL     1      -3.943  11.437  62.500  1.00  0.00    -0.265 OA
HETATM   17  N3  UNL     1      -3.561  13.499  60.378  1.00  0.00    -0.345 N 
HETATM   18  C4  UNL     1      -3.458  13.977  59.106  1.00  0.00     0.188 A 
ATOM     19  H3  UNL     1      -3.484  14.055  61.230  1.00  0.00     0.167 HD
ENDBRANCH   1   6
BRANCH   5  20
HETATM   20  O13 UNL     1      -3.800  15.271  56.152  1.00  0.00    -0.388 OA
ATOM     21  H13 UNL     1      -3.366  16.046  55.815  1.00  0.00     0.210 HD
ENDBRANCH   5  20
BRANCH   3  22
HETATM   22  C7  UNL     1      -2.003  11.452  54.098  1.00  0.00     0.216 C 
BRANCH  22  23
HETATM   23  O2  UNL     1      -1.490  10.486  54.902  1.00  0.00    -0.287 OA
BRANCH  23  24
HETATM   24  P1  UNL     1      -2.217   9.002  54.846  1.00  0.00     0.417 P 
HETATM   25  O3  UNL     1      -1.407   8.481  56.015  1.00  0.00    -0.624 OA
HETATM   26  O4  UNL     1      -3.651   8.824  55.763  1.00  0.00    -0.624 OA
BRANCH  24  27
HETATM   27  O5  UNL     1      -1.792   7.885  53.790  1.00  0.00    -0.180 OA
BRANCH  27  28
HETATM   28  P2  UNL     1      -0.714   7.860  52.731  1.00  0.00     0.428 P 
HETATM   29  O6  UNL     1      -1.773   6.901  51.866  1.00  0.00    -0.624 OA
HETATM   30  O7  UNL     1       0.386   7.067  53.658  1.00  0.00    -0.624 OA
BRANCH  28  31
HETATM   31  O8  UNL     1       0.161   7.844  51.437  1.00  0.00    -0.173 OA
BRANCH  31  32
HETATM   32  P3  UNL     1       0.271   9.446  50.808  1.00  0.00     0.431 P 
HETATM   33  O9  UNL     1       1.137   9.792  52.027  1.00  0.00    -0.616 OA
HETATM   34  O10 UNL     1       1.508   9.797  49.798  1.00  0.00    -0.616 OA
HETATM   35  O11 UNL     1      -0.913  10.466  51.118  1.00  0.00    -0.616 OA
ENDBRANCH  31  32
ENDBRANCH  28  31
ENDBRANCH  27  28
ENDBRANCH  24  27
ENDBRANCH  23  24
ENDBRANCH  22  23
ENDBRANCH   3  22
BRANCH   4  36
HETATM   36  O12 UNL     1      -3.125  14.484  53.892  1.00  0.00    -0.390 OA
ATOM     37  H12 UNL     1      -2.680  15.312  53.755  1.00  0.00     0.210 HD
ENDBRANCH   4  36
TORSDOF 10
ENDMDL
