MODEL 10
REMARK VINA RESULT: -9.661342903      3.278      4.584
REMARK  10 active torsions:
REMARK  status: ('A' for Active; 'I' for Inactive)
REMARK    1  A    between atoms: N4_10  and  C5_11 
REMARK    2  A    between atoms: C6_13  and  C7_14 
REMARK    3  A    between atoms: C7_14  and  O2_15 
REMARK    4  A    between atoms: O2_15  and  P1_16 
REMARK    5  A    between atoms: P1_16  and  O5_19 
REMARK    6  A    between atoms: O5_19  and  P2_20 
REMARK    7  A    between atoms: P2_20  and  O8_23 
REMARK    8  A    between atoms: O8_23  and  P3_24 
REMARK    9  A    between atoms: C8_28  and  O12_29 
REMARK   10  A    between atoms: C9_31  and  O13_32 
ROOT
HETATM    1  C5  UNL     1      -4.031  10.468  58.937  1.00  0.00     0.262 C 
HETATM    2  O1  UNL     1      -3.682  10.869  57.650  1.00  0.00    -0.353 OA
HETATM    3  C6  UNL     1      -3.719   9.630  56.974  1.00  0.00     0.180 C 
HETATM    4  C8  UNL     1      -5.093   9.128  57.334  1.00  0.00     0.182 C 
HETATM    5  C9  UNL     1      -5.323   9.756  58.715  1.00  0.00     0.198 C 
ENDROOT
BRANCH   1   6
HETATM    6  N4  UNL     1      -4.136  11.567  59.862  1.00  0.00    -0.297 N 
HETATM    7  C2  UNL     1      -4.015  11.492  61.191  1.00  0.00     0.146 A 
HETATM    8  N2  UNL     1      -3.775  10.438  61.991  1.00  0.00    -0.314 N 
HETATM    9  C3  UNL     1      -4.175  12.739  61.770  1.00  0.00     0.146 A 
HETATM   10  C1  UNL     1      -3.696  10.619  63.318  1.00  0.00     0.196 A 
ATOM     11  H2  UNL     1      -3.654   9.508  61.592  1.00  0.00     0.170 HD
HETATM   12  N1  UNL     1      -3.436   9.451  64.122  1.00  0.00    -0.063 NA
HETATM   13  N5  UNL     1      -3.851  11.841  63.894  1.00  0.00    -0.295 N 
HETATM   14  C10 UNL     1      -4.091  12.913  63.131  1.00  0.00     0.278 A 
ATOM     15  H5  UNL     1      -3.784  11.940  64.907  1.00  0.00     0.171 HD
HETATM   16  O14 UNL     1      -4.233  14.032  63.670  1.00  0.00    -0.265 OA
HETATM   17  N3  UNL     1      -4.399  13.580  60.726  1.00  0.00    -0.345 N 
HETATM   18  C4  UNL     1      -4.375  12.858  59.571  1.00  0.00     0.188 A 
ATOM     19  H3  UNL     1      -4.560  14.585  60.795  1.00  0.00     0.167 HD
ENDBRANCH   1   6
BRANCH   5  20
HETATM   20  O13 UNL     1      -5.466   8.753  59.648  1.00  0.00    -0.388 OA
ATOM     21  H13 UNL     1      -6.334   8.372  59.579  1.00  0.00     0.210 HD
ENDBRANCH   5  20
BRANCH   3  22
HETATM   22  C7  UNL     1      -3.555   9.899  55.515  1.00  0.00     0.216 C 
BRANCH  22  23
HETATM   23  O2  UNL     1      -2.243  10.016  55.188  1.00  0.00    -0.287 OA
BRANCH  23  24
HETATM   24  P1  UNL     1      -1.363   8.618  55.118  1.00  0.00     0.417 P 
HETATM   25  O3  UNL     1      -0.065   9.363  54.884  1.00  0.00    -0.624 OA
HETATM   26  O4  UNL     1      -0.754   8.029  56.605  1.00  0.00    -0.624 OA
BRANCH  24  27
HETATM   27  O5  UNL     1      -1.314   7.707  53.810  1.00  0.00    -0.180 OA
BRANCH  27  28
HETATM   28  P2  UNL     1      -0.456   7.776  52.567  1.00  0.00     0.428 P 
HETATM   29  O6  UNL     1      -1.767   7.098  51.786  1.00  0.00    -0.624 OA
HETATM   30  O7  UNL     1       0.681   6.725  53.116  1.00  0.00    -0.624 OA
BRANCH  28  31
HETATM   31  O8  UNL     1       0.163   7.917  51.141  1.00  0.00    -0.173 OA
BRANCH  31  32
HETATM   32  P3  UNL     1       0.245   9.587  50.721  1.00  0.00     0.431 P 
HETATM   33  O9  UNL     1       1.256   9.755  51.863  1.00  0.00    -0.616 OA
HETATM   34  O10 UNL     1       1.366  10.055  49.627  1.00  0.00    -0.616 OA
HETATM   35  O11 UNL     1      -0.865  10.571  51.301  1.00  0.00    -0.616 OA
ENDBRANCH  31  32
ENDBRANCH  28  31
ENDBRANCH  27  28
ENDBRANCH  24  27
ENDBRANCH  23  24
ENDBRANCH  22  23
ENDBRANCH   3  22
BRANCH   4  36
HETATM   36  O12 UNL     1      -5.042   7.738  57.418  1.00  0.00    -0.390 OA
ATOM     37  H12 UNL     1      -5.830   7.437  57.854  1.00  0.00     0.210 HD
ENDBRANCH   4  36
TORSDOF 10
ENDMDL
