MODEL 8
REMARK VINA RESULT: -9.887994260      3.776      4.686
REMARK  10 active torsions:
REMARK  status: ('A' for Active; 'I' for Inactive)
REMARK    1  A    between atoms: N4_10  and  C5_11 
REMARK    2  A    between atoms: C6_13  and  C7_14 
REMARK    3  A    between atoms: C7_14  and  O2_15 
REMARK    4  A    between atoms: O2_15  and  P1_16 
REMARK    5  A    between atoms: P1_16  and  O5_19 
REMARK    6  A    between atoms: O5_19  and  P2_20 
REMARK    7  A    between atoms: P2_20  and  O8_23 
REMARK    8  A    between atoms: O8_23  and  P3_24 
REMARK    9  A    between atoms: C8_28  and  O12_29 
REMARK   10  A    between atoms: C9_31  and  O13_32 
ROOT
HETATM    1  C5  UNL     1      -3.960  11.934  55.148  1.00  0.00     0.262 C 
HETATM    2  O1  UNL     1      -2.670  11.531  55.482  1.00  0.00    -0.353 OA
HETATM    3  C6  UNL     1      -2.137  11.282  54.200  1.00  0.00     0.180 C 
HETATM    4  C8  UNL     1      -2.434  12.576  53.489  1.00  0.00     0.182 C 
HETATM    5  C9  UNL     1      -3.712  13.053  54.192  1.00  0.00     0.198 C 
ENDROOT
BRANCH   1   6
HETATM    6  N4  UNL     1      -4.745  12.324  56.290  1.00  0.00    -0.297 N 
HETATM    7  C2  UNL     1      -4.506  11.990  57.562  1.00  0.00     0.146 A 
HETATM    8  N2  UNL     1      -3.528  11.242  58.103  1.00  0.00    -0.314 N 
HETATM    9  C3  UNL     1      -5.461  12.536  58.402  1.00  0.00     0.146 A 
HETATM   10  C1  UNL     1      -3.501  11.046  59.429  1.00  0.00     0.196 A 
ATOM     11  H2  UNL     1      -2.812  10.826  57.507  1.00  0.00     0.170 HD
HETATM   12  N1  UNL     1      -2.428  10.236  59.949  1.00  0.00    -0.063 NA
HETATM   13  N5  UNL     1      -4.435  11.580  60.261  1.00  0.00    -0.295 N 
HETATM   14  C10 UNL     1      -5.424  12.329  59.760  1.00  0.00     0.278 A 
ATOM     15  H5  UNL     1      -4.382  11.409  61.265  1.00  0.00     0.171 HD
HETATM   16  O14 UNL     1      -6.278  12.815  60.533  1.00  0.00    -0.265 OA
HETATM   17  N3  UNL     1      -6.296  13.223  57.577  1.00  0.00    -0.345 N 
HETATM   18  C4  UNL     1      -5.853  13.087  56.296  1.00  0.00     0.188 A 
ATOM     19  H3  UNL     1      -7.118  13.752  57.869  1.00  0.00     0.167 HD
ENDBRANCH   1   6
BRANCH   5  20
HETATM   20  O13 UNL     1      -4.735  13.113  53.272  1.00  0.00    -0.388 OA
ATOM     21  H13 UNL     1      -5.079  13.998  53.233  1.00  0.00     0.210 HD
ENDBRANCH   5  20
BRANCH   3  22
HETATM   22  C7  UNL     1      -0.676  11.018  54.356  1.00  0.00     0.216 C 
BRANCH  22  23
HETATM   23  O2  UNL     1      -0.457   9.988  55.212  1.00  0.00    -0.287 OA
BRANCH  23  24
HETATM   24  P1  UNL     1      -1.431   8.663  55.052  1.00  0.00     0.417 P 
HETATM   25  O3  UNL     1      -0.560   7.823  55.964  1.00  0.00    -0.624 OA
HETATM   26  O4  UNL     1      -2.722   8.530  56.167  1.00  0.00    -0.624 OA
BRANCH  24  27
HETATM   27  O5  UNL     1      -1.368   7.708  53.775  1.00  0.00    -0.180 OA
BRANCH  27  28
HETATM   28  P2  UNL     1      -0.497   7.737  52.540  1.00  0.00     0.428 P 
HETATM   29  O6  UNL     1      -1.788   7.002  51.777  1.00  0.00    -0.624 OA
HETATM   30  O7  UNL     1       0.652   6.731  53.146  1.00  0.00    -0.624 OA
BRANCH  28  31
HETATM   31  O8  UNL     1       0.135   7.825  51.115  1.00  0.00    -0.173 OA
BRANCH  31  32
HETATM   32  P3  UNL     1       0.268   9.482  50.656  1.00  0.00     0.431 P 
HETATM   33  O9  UNL     1       1.131   9.689  51.907  1.00  0.00    -0.616 OA
HETATM   34  O10 UNL     1       1.515   9.920  49.693  1.00  0.00    -0.616 OA
HETATM   35  O11 UNL     1      -0.905  10.479  51.064  1.00  0.00    -0.616 OA
ENDBRANCH  31  32
ENDBRANCH  28  31
ENDBRANCH  27  28
ENDBRANCH  24  27
ENDBRANCH  23  24
ENDBRANCH  22  23
ENDBRANCH   3  22
BRANCH   4  36
HETATM   36  O12 UNL     1      -2.675  12.292  52.147  1.00  0.00    -0.390 OA
ATOM     37  H12 UNL     1      -3.601  12.107  52.044  1.00  0.00     0.210 HD
ENDBRANCH   4  36
TORSDOF 10
ENDMDL
