MODEL 1
REMARK VINA RESULT: -11.288377243      0.000      0.000
REMARK  10 active torsions:
REMARK  status: ('A' for Active; 'I' for Inactive)
REMARK    1  A    between atoms: N4_10  and  C5_11 
REMARK    2  A    between atoms: C6_13  and  C7_14 
REMARK    3  A    between atoms: C7_14  and  O2_15 
REMARK    4  A    between atoms: O2_15  and  P1_16 
REMARK    5  A    between atoms: P1_16  and  O5_19 
REMARK    6  A    between atoms: O5_19  and  P2_20 
REMARK    7  A    between atoms: P2_20  and  O8_23 
REMARK    8  A    between atoms: O8_23  and  P3_24 
REMARK    9  A    between atoms: C8_28  and  O12_29 
REMARK   10  A    between atoms: C9_31  and  O13_32 
ROOT
HETATM    1  C5  UNL     1      -5.687   8.924  57.478  1.00  0.00     0.262 C 
HETATM    2  O1  UNL     1      -4.715   8.783  56.491  1.00  0.00    -0.353 OA
HETATM    3  C6  UNL     1      -4.629  10.111  56.021  1.00  0.00     0.180 C 
HETATM    4  C8  UNL     1      -4.397  10.873  57.300  1.00  0.00     0.182 C 
HETATM    5  C9  UNL     1      -5.121  10.004  58.337  1.00  0.00     0.198 C 
ENDROOT
BRANCH   1   6
HETATM    6  N4  UNL     1      -5.946   7.702  58.194  1.00  0.00    -0.297 N 
HETATM    7  C2  UNL     1      -7.057   7.410  58.878  1.00  0.00     0.146 A 
HETATM    8  N2  UNL     1      -8.176   8.127  59.079  1.00  0.00    -0.314 N 
HETATM    9  C3  UNL     1      -6.969   6.150  59.445  1.00  0.00     0.146 A 
HETATM   10  C1  UNL     1      -9.171   7.609  59.815  1.00  0.00     0.196 A 
ATOM     11  H2  UNL     1      -8.268   9.059  58.674  1.00  0.00     0.170 HD
HETATM   12  N1  UNL     1     -10.345   8.426  59.994  1.00  0.00    -0.063 NA
HETATM   13  N5  UNL     1      -9.092   6.372  60.374  1.00  0.00    -0.295 N 
HETATM   14  C10 UNL     1      -7.994   5.629  60.197  1.00  0.00     0.278 A 
ATOM     15  H5  UNL     1      -9.868   6.012  60.928  1.00  0.00     0.171 HD
HETATM   16  O14 UNL     1      -7.931   4.493  60.715  1.00  0.00    -0.265 OA
HETATM   17  N3  UNL     1      -5.746   5.687  59.071  1.00  0.00    -0.345 N 
HETATM   18  C4  UNL     1      -5.132   6.637  58.312  1.00  0.00     0.188 A 
ATOM     19  H3  UNL     1      -5.353   4.778  59.317  1.00  0.00     0.167 HD
ENDBRANCH   1   6
BRANCH   5  20
HETATM   20  O13 UNL     1      -6.146  10.734  58.898  1.00  0.00    -0.388 OA
ATOM     21  H13 UNL     1      -5.830  11.599  59.136  1.00  0.00     0.210 HD
ENDBRANCH   5  20
BRANCH   3  22
HETATM   22  C7  UNL     1      -3.479  10.188  55.073  1.00  0.00     0.216 C 
BRANCH  22  23
HETATM   23  O2  UNL     1      -2.309   9.925  55.709  1.00  0.00    -0.287 OA
BRANCH  23  24
HETATM   24  P1  UNL     1      -1.472   8.589  55.213  1.00  0.00     0.417 P 
HETATM   25  O3  UNL     1      -0.200   9.380  54.987  1.00  0.00    -0.624 OA
HETATM   26  O4  UNL     1      -0.689   7.686  56.438  1.00  0.00    -0.624 OA
BRANCH  24  27
HETATM   27  O5  UNL     1      -1.609   7.997  53.739  1.00  0.00    -0.180 OA
BRANCH  27  28
HETATM   28  P2  UNL     1      -0.628   7.919  52.591  1.00  0.00     0.428 P 
HETATM   29  O6  UNL     1      -1.841   7.102  51.785  1.00  0.00    -0.624 OA
HETATM   30  O7  UNL     1       0.463   6.987  53.392  1.00  0.00    -0.624 OA
BRANCH  28  31
HETATM   31  O8  UNL     1       0.133   7.880  51.228  1.00  0.00    -0.173 OA
BRANCH  31  32
HETATM   32  P3  UNL     1       0.345   9.491  50.651  1.00  0.00     0.431 P 
HETATM   33  O9  UNL     1       1.182   9.760  51.908  1.00  0.00    -0.616 OA
HETATM   34  O10 UNL     1       1.632   9.808  49.695  1.00  0.00    -0.616 OA
HETATM   35  O11 UNL     1      -0.798  10.560  50.950  1.00  0.00    -0.616 OA
ENDBRANCH  31  32
ENDBRANCH  28  31
ENDBRANCH  27  28
ENDBRANCH  24  27
ENDBRANCH  23  24
ENDBRANCH  22  23
ENDBRANCH   3  22
BRANCH   4  36
HETATM   36  O12 UNL     1      -5.002  12.122  57.181  1.00  0.00    -0.390 OA
ATOM     37  H12 UNL     1      -4.906  12.579  58.008  1.00  0.00     0.210 HD
ENDBRANCH   4  36
TORSDOF 10
ENDMDL
