MODEL 8
REMARK VINA RESULT: -9.857531054      2.191     11.350
REMARK  14 active torsions:
REMARK  status: ('A' for Active; 'I' for Inactive)
REMARK    1  A    between atoms: O1_2  and  C2_3 
REMARK    2  A    between atoms: C5_6  and  S1_7 
REMARK    3  A    between atoms: S1_7  and  N1_10 
REMARK    4  A    between atoms: N1_10  and  C6_11 
REMARK    5  A    between atoms: N1_10  and  C10_15 
REMARK    6  A    between atoms: C6_11  and  C7_12 
REMARK    7  A    between atoms: C10_15  and  C11_16 
REMARK    8  A    between atoms: C11_16  and  O4_17 
REMARK    9  A    between atoms: C11_16  and  C12_19 
REMARK   10  A    between atoms: C12_19  and  C13_20 
REMARK   11  A    between atoms: C12_19  and  N2_27 
REMARK   12  A    between atoms: C13_20  and  C14_21 
REMARK       I    between atoms: N2_27  and  C20_29 
REMARK   13  A    between atoms: C20_29  and  O6_31 
REMARK   14  A    between atoms: O6_31  and  C21_32 
ROOT
HETATM    1  C12 UNL     1      14.607  20.535  17.139  1.00  0.00     0.026 C 
ENDROOT
BRANCH   1   2
HETATM    2  C11 UNL     1      13.946  19.535  18.046  1.00  0.00     0.183 C 
BRANCH   2   3
HETATM    3  C10 UNL     1      12.900  18.675  17.409  1.00  0.00     0.178 C 
BRANCH   3   4
HETATM    4  N1  UNL     1      11.568  19.163  17.518  1.00  0.00    -0.283 N 
BRANCH   4   5
HETATM    5  S1  UNL     1      10.765  19.492  16.082  1.00  0.00     0.264 S 
HETATM    6  O2  UNL     1      11.835  19.849  15.038  1.00  0.00    -0.200 OA
HETATM    7  O3  UNL     1       9.964  20.801  16.154  1.00  0.00    -0.200 OA
BRANCH   5   8
HETATM    8  C5  UNL     1       9.828  18.225  15.394  1.00  0.00     0.080 A 
HETATM    9  C4  UNL     1       8.465  18.391  15.257  1.00  0.00     0.028 A 
HETATM   10  C3  UNL     1       7.661  17.395  14.748  1.00  0.00     0.038 A 
HETATM   11  C2  UNL     1       8.192  16.173  14.348  1.00  0.00     0.068 A 
HETATM   12  C32 UNL     1       9.552  16.010  14.485  1.00  0.00     0.038 A 
HETATM   13  C31 UNL     1      10.338  17.018  14.997  1.00  0.00     0.028 A 
BRANCH  11  14
HETATM   14  O1  UNL     1       7.392  15.145  13.828  1.00  0.00    -0.356 OA
HETATM   15  C1  UNL     1       6.423  14.524  14.639  1.00  0.00     0.210 C 
ENDBRANCH  11  14
ENDBRANCH   5   8
ENDBRANCH   4   5
BRANCH   4  16
HETATM   16  C6  UNL     1      10.745  18.641  18.526  1.00  0.00     0.080 C 
BRANCH  16  17
HETATM   17  C7  UNL     1      10.384  19.496  19.669  1.00  0.00     0.017 C 
HETATM   18  C8  UNL     1      10.667  20.947  19.594  1.00  0.00     0.015 C 
HETATM   19  C9  UNL     1      10.938  18.960  20.996  1.00  0.00     0.015 C 
ENDBRANCH  16  17
ENDBRANCH   4  16
ENDBRANCH   3   4
ENDBRANCH   2   3
BRANCH   2  20
HETATM   20  O4  UNL     1      14.989  18.617  18.407  1.00  0.00    -0.388 OA
ATOM     21  H4  UNL     1      15.276  18.248  17.580  1.00  0.00     0.210 HD
ENDBRANCH   2  20
ENDBRANCH   1   2
BRANCH   1  22
HETATM   22  C13 UNL     1      15.025  20.044  15.803  1.00  0.00     0.094 C 
BRANCH  22  23
HETATM   23  C14 UNL     1      15.441  21.049  14.810  1.00  0.00    -0.053 A 
HETATM   24  C15 UNL     1      16.765  21.380  14.682  1.00  0.00     0.007 A 
HETATM   25  C16 UNL     1      17.158  22.315  13.763  1.00  0.00     0.001 A 
HETATM   26  C17 UNL     1      16.274  22.964  12.933  1.00  0.00     0.000 A 
HETATM   27  C18 UNL     1      14.926  22.611  13.080  1.00  0.00     0.001 A 
HETATM   28  C19 UNL     1      14.528  21.683  13.989  1.00  0.00     0.007 A 
ENDBRANCH  22  23
ENDBRANCH   1  22
BRANCH   1  29
HETATM   29  N2  UNL     1      15.491  21.460  17.782  1.00  0.00    -0.307 N 
HETATM   30  C20 UNL     1      15.303  22.855  17.736  1.00  0.00     0.365 C 
HETATM   31  O5  UNL     1      14.323  23.307  17.130  1.00  0.00    -0.238 OA
ATOM     32  H2  UNL     1      16.293  21.092  18.295  1.00  0.00     0.170 HD
BRANCH  30  33
HETATM   33  O6  UNL     1      16.113  23.799  18.308  1.00  0.00    -0.298 OA
BRANCH  33  34
HETATM   34  C21 UNL     1      15.646  25.024  18.783  1.00  0.00     0.140 C 
HETATM   35  C22 UNL     1      15.044  24.942  20.164  1.00  0.00     0.033 C 
HETATM   36  C23 UNL     1      16.077  24.755  21.240  1.00  0.00     0.005 C 
HETATM   37  C24 UNL     1      17.465  25.174  20.857  1.00  0.00     0.032 C 
HETATM   38  C25 UNL     1      17.547  26.273  19.851  1.00  0.00     0.131 C 
HETATM   39  O7  UNL     1      18.847  26.371  19.389  1.00  0.00    -0.355 OA
HETATM   40  C30 UNL     1      16.652  26.141  18.679  1.00  0.00     0.053 C 
HETATM   41  C26 UNL     1      18.941  25.890  18.112  1.00  0.00     0.264 C 
HETATM   42  O8  UNL     1      19.796  26.768  17.397  1.00  0.00    -0.361 OA
HETATM   43  C29 UNL     1      17.584  26.076  17.527  1.00  0.00     0.052 C 
HETATM   44  C27 UNL     1      19.078  27.941  17.338  1.00  0.00     0.171 C 
HETATM   45  C28 UNL     1      17.733  27.441  16.831  1.00  0.00     0.036 C 
ENDBRANCH  33  34
ENDBRANCH  30  33
ENDBRANCH   1  29
TORSDOF 14
ENDMDL
