MODEL 2
REMARK VINA RESULT: -10.107179926      2.131      4.920
REMARK  14 active torsions:
REMARK  status: ('A' for Active; 'I' for Inactive)
REMARK    1  A    between atoms: O1_2  and  C2_3 
REMARK    2  A    between atoms: C5_6  and  S1_7 
REMARK    3  A    between atoms: S1_7  and  N1_10 
REMARK    4  A    between atoms: N1_10  and  C6_11 
REMARK    5  A    between atoms: N1_10  and  C10_15 
REMARK    6  A    between atoms: C6_11  and  C7_12 
REMARK    7  A    between atoms: C10_15  and  C11_16 
REMARK    8  A    between atoms: C11_16  and  O4_17 
REMARK    9  A    between atoms: C11_16  and  C12_19 
REMARK   10  A    between atoms: C12_19  and  C13_20 
REMARK   11  A    between atoms: C12_19  and  N2_27 
REMARK   12  A    between atoms: C13_20  and  C14_21 
REMARK       I    between atoms: N2_27  and  C20_29 
REMARK   13  A    between atoms: C20_29  and  O6_31 
REMARK   14  A    between atoms: O6_31  and  C21_32 
ROOT
HETATM    1  C12 UNL     1       9.274  18.470  16.246  1.00  0.00     0.026 C 
ENDROOT
BRANCH   1   2
HETATM    2  C11 UNL     1      10.434  19.419  16.132  1.00  0.00     0.183 C 
BRANCH   2   3
HETATM    3  C10 UNL     1      11.399  19.402  17.276  1.00  0.00     0.178 C 
BRANCH   3   4
HETATM    4  N1  UNL     1      11.447  20.598  18.045  1.00  0.00    -0.283 N 
BRANCH   4   5
HETATM    5  S1  UNL     1      12.310  21.880  17.393  1.00  0.00     0.264 S 
HETATM    6  O2  UNL     1      11.284  22.888  16.853  1.00  0.00    -0.200 OA
HETATM    7  O3  UNL     1      13.051  21.484  16.106  1.00  0.00    -0.200 OA
BRANCH   5   8
HETATM    8  C5  UNL     1      13.335  22.762  18.455  1.00  0.00     0.080 A 
HETATM    9  C4  UNL     1      13.856  23.971  18.042  1.00  0.00     0.028 A 
HETATM   10  C3  UNL     1      14.713  24.701  18.836  1.00  0.00     0.038 A 
HETATM   11  C2  UNL     1      15.091  24.248  20.096  1.00  0.00     0.068 A 
HETATM   12  C32 UNL     1      14.569  23.042  20.507  1.00  0.00     0.038 A 
HETATM   13  C31 UNL     1      13.714  22.327  19.697  1.00  0.00     0.028 A 
BRANCH  11  14
HETATM   14  O1  UNL     1      15.961  24.974  20.920  1.00  0.00    -0.356 OA
HETATM   15  C1  UNL     1      17.337  25.028  20.624  1.00  0.00     0.210 C 
ENDBRANCH  11  14
ENDBRANCH   5   8
ENDBRANCH   4   5
BRANCH   4  16
HETATM   16  C6  UNL     1      10.301  20.984  18.755  1.00  0.00     0.080 C 
BRANCH  16  17
HETATM   17  C7  UNL     1      10.244  20.747  20.206  1.00  0.00     0.017 C 
HETATM   18  C8  UNL     1      10.428  19.367  20.713  1.00  0.00     0.015 C 
HETATM   19  C9  UNL     1       8.978  21.334  20.845  1.00  0.00     0.015 C 
ENDBRANCH  16  17
ENDBRANCH   4  16
ENDBRANCH   3   4
ENDBRANCH   2   3
BRANCH   2  20
HETATM   20  O4  UNL     1      11.198  18.939  15.015  1.00  0.00    -0.388 OA
ATOM     21  H4  UNL     1      12.101  19.106  15.258  1.00  0.00     0.210 HD
ENDBRANCH   2  20
ENDBRANCH   1   2
BRANCH   1  22
HETATM   22  C13 UNL     1       8.419  18.321  15.043  1.00  0.00     0.094 C 
BRANCH  22  23
HETATM   23  C14 UNL     1       7.755  17.023  14.839  1.00  0.00    -0.053 A 
HETATM   24  C15 UNL     1       8.372  16.044  14.103  1.00  0.00     0.007 A 
HETATM   25  C16 UNL     1       7.759  14.837  13.907  1.00  0.00     0.001 A 
HETATM   26  C17 UNL     1       6.519  14.536  14.421  1.00  0.00     0.000 A 
HETATM   27  C18 UNL     1       5.906  15.549  15.170  1.00  0.00     0.001 A 
HETATM   28  C19 UNL     1       6.508  16.751  15.370  1.00  0.00     0.007 A 
ENDBRANCH  22  23
ENDBRANCH   1  22
BRANCH   1  29
HETATM   29  N2  UNL     1       8.600  18.470  17.510  1.00  0.00    -0.307 N 
HETATM   30  C20 UNL     1       8.482  17.319  18.312  1.00  0.00     0.365 C 
HETATM   31  O5  UNL     1       8.995  16.262  17.922  1.00  0.00    -0.238 OA
ATOM     32  H2  UNL     1       8.187  19.341  17.843  1.00  0.00     0.170 HD
BRANCH  30  33
HETATM   33  O6  UNL     1       7.838  17.237  19.518  1.00  0.00    -0.298 OA
BRANCH  33  34
HETATM   34  C21 UNL     1       7.159  16.097  19.948  1.00  0.00     0.140 C 
HETATM   35  C22 UNL     1       7.670  15.554  21.260  1.00  0.00     0.033 C 
HETATM   36  C23 UNL     1       7.281  16.406  22.436  1.00  0.00     0.005 C 
HETATM   37  C24 UNL     1       6.099  17.299  22.199  1.00  0.00     0.032 C 
HETATM   38  C25 UNL     1       5.101  16.791  21.212  1.00  0.00     0.131 C 
HETATM   39  O7  UNL     1       4.225  17.812  20.886  1.00  0.00    -0.355 OA
HETATM   40  C30 UNL     1       5.660  16.248  19.954  1.00  0.00     0.053 C 
HETATM   41  C26 UNL     1       4.473  18.274  19.624  1.00  0.00     0.264 C 
HETATM   42  O8  UNL     1       3.217  18.495  19.005  1.00  0.00    -0.361 OA
HETATM   43  C29 UNL     1       5.087  17.124  18.904  1.00  0.00     0.052 C 
HETATM   44  C27 UNL     1       2.693  17.228  18.878  1.00  0.00     0.171 C 
HETATM   45  C28 UNL     1       3.856  16.489  18.233  1.00  0.00     0.036 C 
ENDBRANCH  33  34
ENDBRANCH  30  33
ENDBRANCH   1  29
TORSDOF 14
ENDMDL
