MODEL 19
REMARK VINA RESULT: -9.515951249      2.273     10.937
REMARK  14 active torsions:
REMARK  status: ('A' for Active; 'I' for Inactive)
REMARK    1  A    between atoms: O1_2  and  C2_3 
REMARK    2  A    between atoms: C5_6  and  S1_7 
REMARK    3  A    between atoms: S1_7  and  N1_10 
REMARK    4  A    between atoms: N1_10  and  C6_11 
REMARK    5  A    between atoms: N1_10  and  C10_15 
REMARK    6  A    between atoms: C6_11  and  C7_12 
REMARK    7  A    between atoms: C10_15  and  C11_16 
REMARK    8  A    between atoms: C11_16  and  O4_17 
REMARK    9  A    between atoms: C11_16  and  C12_19 
REMARK   10  A    between atoms: C12_19  and  C13_20 
REMARK   11  A    between atoms: C12_19  and  N2_27 
REMARK   12  A    between atoms: C13_20  and  C14_21 
REMARK       I    between atoms: N2_27  and  C20_29 
REMARK   13  A    between atoms: C20_29  and  O6_31 
REMARK   14  A    between atoms: O6_31  and  C21_32 
ROOT
HETATM    1  C12 UNL     1      13.576  19.872  17.352  1.00  0.00     0.026 C 
ENDROOT
BRANCH   1   2
HETATM    2  C11 UNL     1      12.956  18.851  18.264  1.00  0.00     0.183 C 
BRANCH   2   3
HETATM    3  C10 UNL     1      11.949  17.944  17.631  1.00  0.00     0.178 C 
BRANCH   3   4
HETATM    4  N1  UNL     1      10.622  18.454  17.581  1.00  0.00    -0.283 N 
BRANCH   4   5
HETATM    5  S1  UNL     1       9.822  18.333  16.111  1.00  0.00     0.264 S 
HETATM    6  O2  UNL     1      10.898  18.216  15.020  1.00  0.00    -0.200 OA
HETATM    7  O3  UNL     1       9.132  19.648  15.717  1.00  0.00    -0.200 OA
BRANCH   5   8
HETATM    8  C5  UNL     1       8.772  16.989  15.894  1.00  0.00     0.080 A 
HETATM    9  C4  UNL     1       7.508  17.023  16.446  1.00  0.00     0.028 A 
HETATM   10  C3  UNL     1       6.638  15.960  16.335  1.00  0.00     0.038 A 
HETATM   11  C2  UNL     1       7.001  14.800  15.659  1.00  0.00     0.068 A 
HETATM   12  C32 UNL     1       8.262  14.768  15.108  1.00  0.00     0.038 A 
HETATM   13  C31 UNL     1       9.116  15.842  15.230  1.00  0.00     0.028 A 
BRANCH  11  14
HETATM   14  O1  UNL     1       6.133  13.706  15.535  1.00  0.00    -0.356 OA
HETATM   15  C1  UNL     1       4.741  13.891  15.637  1.00  0.00     0.210 C 
ENDBRANCH  11  14
ENDBRANCH   5   8
ENDBRANCH   4   5
BRANCH   4  16
HETATM   16  C6  UNL     1       9.794  18.277  18.698  1.00  0.00     0.080 C 
BRANCH  16  17
HETATM   17  C7  UNL     1       9.720  19.343  19.711  1.00  0.00     0.017 C 
HETATM   18  C8  UNL     1      10.005  20.738  19.302  1.00  0.00     0.015 C 
HETATM   19  C9  UNL     1      10.553  19.022  20.959  1.00  0.00     0.015 C 
ENDBRANCH  16  17
ENDBRANCH   4  16
ENDBRANCH   3   4
ENDBRANCH   2   3
BRANCH   2  20
HETATM   20  O4  UNL     1      14.037  17.981  18.634  1.00  0.00    -0.388 OA
ATOM     21  H4  UNL     1      14.086  18.055  19.580  1.00  0.00     0.210 HD
ENDBRANCH   2  20
ENDBRANCH   1   2
BRANCH   1  22
HETATM   22  C13 UNL     1      13.830  19.446  15.954  1.00  0.00     0.094 C 
BRANCH  22  23
HETATM   23  C14 UNL     1      14.444  20.428  15.046  1.00  0.00    -0.053 A 
HETATM   24  C15 UNL     1      15.808  20.497  14.929  1.00  0.00     0.007 A 
HETATM   25  C16 UNL     1      16.385  21.410  14.088  1.00  0.00     0.001 A 
HETATM   26  C17 UNL     1      15.653  22.292  13.328  1.00  0.00     0.000 A 
HETATM   27  C18 UNL     1      14.261  22.205  13.461  1.00  0.00     0.001 A 
HETATM   28  C19 UNL     1      13.680  21.301  14.293  1.00  0.00     0.007 A 
ENDBRANCH  22  23
ENDBRANCH   1  22
BRANCH   1  29
HETATM   29  N2  UNL     1      14.570  20.712  17.951  1.00  0.00    -0.307 N 
HETATM   30  C20 UNL     1      14.333  22.060  18.282  1.00  0.00     0.365 C 
HETATM   31  O5  UNL     1      13.214  22.542  18.063  1.00  0.00    -0.238 OA
ATOM     32  H2  UNL     1      15.489  20.316  18.147  1.00  0.00     0.170 HD
BRANCH  30  33
HETATM   33  O6  UNL     1      15.236  22.927  18.837  1.00  0.00    -0.298 OA
BRANCH  33  34
HETATM   34  C21 UNL     1      15.282  24.286  18.530  1.00  0.00     0.140 C 
HETATM   35  C22 UNL     1      14.962  25.178  19.704  1.00  0.00     0.033 C 
HETATM   36  C23 UNL     1      16.068  25.223  20.722  1.00  0.00     0.005 C 
HETATM   37  C24 UNL     1      17.416  24.825  20.199  1.00  0.00     0.032 C 
HETATM   38  C25 UNL     1      17.648  25.102  18.751  1.00  0.00     0.131 C 
HETATM   39  O7  UNL     1      18.799  24.450  18.342  1.00  0.00    -0.355 OA
HETATM   40  C30 UNL     1      16.551  24.711  17.838  1.00  0.00     0.053 C 
HETATM   41  C26 UNL     1      18.488  23.373  17.560  1.00  0.00     0.264 C 
HETATM   42  O8  UNL     1      19.424  23.347  16.494  1.00  0.00    -0.361 OA
HETATM   43  C29 UNL     1      17.175  23.707  16.943  1.00  0.00     0.052 C 
HETATM   44  C27 UNL     1      19.118  24.477  15.770  1.00  0.00     0.171 C 
HETATM   45  C28 UNL     1      17.613  24.325  15.603  1.00  0.00     0.036 C 
ENDBRANCH  33  34
ENDBRANCH  30  33
ENDBRANCH   1  29
TORSDOF 14
ENDMDL
