MODEL 1
REMARK VINA RESULT: -10.188672400      0.000      0.000
REMARK  14 active torsions:
REMARK  status: ('A' for Active; 'I' for Inactive)
REMARK    1  A    between atoms: O1_2  and  C2_3 
REMARK    2  A    between atoms: C5_6  and  S1_7 
REMARK    3  A    between atoms: S1_7  and  N1_10 
REMARK    4  A    between atoms: N1_10  and  C6_11 
REMARK    5  A    between atoms: N1_10  and  C10_15 
REMARK    6  A    between atoms: C6_11  and  C7_12 
REMARK    7  A    between atoms: C10_15  and  C11_16 
REMARK    8  A    between atoms: C11_16  and  O4_17 
REMARK    9  A    between atoms: C11_16  and  C12_19 
REMARK   10  A    between atoms: C12_19  and  C13_20 
REMARK   11  A    between atoms: C12_19  and  N2_27 
REMARK   12  A    between atoms: C13_20  and  C14_21 
REMARK       I    between atoms: N2_27  and  C20_29 
REMARK   13  A    between atoms: C20_29  and  O6_31 
REMARK   14  A    between atoms: O6_31  and  C21_32 
ROOT
HETATM    1  C12 UNL     1      11.233  18.590  18.455  1.00  0.00     0.026 C 
ENDROOT
BRANCH   1   2
HETATM    2  C11 UNL     1      12.683  18.594  18.055  1.00  0.00     0.183 C 
BRANCH   2   3
HETATM    3  C10 UNL     1      13.418  19.873  18.303  1.00  0.00     0.178 C 
BRANCH   3   4
HETATM    4  N1  UNL     1      13.109  20.933  17.405  1.00  0.00    -0.283 N 
BRANCH   4   5
HETATM    5  S1  UNL     1      12.533  22.354  18.086  1.00  0.00     0.264 S 
HETATM    6  O2  UNL     1      11.567  21.955  19.213  1.00  0.00    -0.200 OA
HETATM    7  O3  UNL     1      11.593  23.112  17.136  1.00  0.00    -0.200 OA
BRANCH   5   8
HETATM    8  C5  UNL     1      13.687  23.412  18.796  1.00  0.00     0.080 A 
HETATM    9  C4  UNL     1      13.921  24.642  18.217  1.00  0.00     0.028 A 
HETATM   10  C3  UNL     1      14.861  25.515  18.722  1.00  0.00     0.038 A 
HETATM   11  C2  UNL     1      15.618  25.189  19.842  1.00  0.00     0.068 A 
HETATM   12  C32 UNL     1      15.382  23.962  20.419  1.00  0.00     0.038 A 
HETATM   13  C31 UNL     1      14.438  23.104  19.899  1.00  0.00     0.028 A 
BRANCH  11  14
HETATM   14  O1  UNL     1      16.580  26.060  20.372  1.00  0.00    -0.356 OA
HETATM   15  C1  UNL     1      17.725  26.392  19.621  1.00  0.00     0.210 C 
ENDBRANCH  11  14
ENDBRANCH   5   8
ENDBRANCH   4   5
BRANCH   4  16
HETATM   16  C6  UNL     1      13.935  21.128  16.289  1.00  0.00     0.080 C 
BRANCH  16  17
HETATM   17  C7  UNL     1      13.514  20.591  14.985  1.00  0.00     0.017 C 
HETATM   18  C8  UNL     1      13.766  21.394  13.766  1.00  0.00     0.015 C 
HETATM   19  C9  UNL     1      12.044  20.150  14.981  1.00  0.00     0.015 C 
ENDBRANCH  16  17
ENDBRANCH   4  16
ENDBRANCH   3   4
ENDBRANCH   2   3
BRANCH   2  20
HETATM   20  O4  UNL     1      13.311  17.646  18.931  1.00  0.00    -0.388 OA
ATOM     21  H4  UNL     1      14.019  17.281  18.415  1.00  0.00     0.210 HD
ENDBRANCH   2  20
ENDBRANCH   1   2
BRANCH   1  22
HETATM   22  C13 UNL     1      10.938  18.885  19.878  1.00  0.00     0.094 C 
BRANCH  22  23
HETATM   23  C14 UNL     1       9.522  18.946  20.279  1.00  0.00    -0.053 A 
HETATM   24  C15 UNL     1       8.919  17.850  20.841  1.00  0.00     0.007 A 
HETATM   25  C16 UNL     1       7.603  17.899  21.212  1.00  0.00     0.001 A 
HETATM   26  C17 UNL     1       6.823  19.020  21.050  1.00  0.00     0.000 A 
HETATM   27  C18 UNL     1       7.457  20.129  20.475  1.00  0.00     0.001 A 
HETATM   28  C19 UNL     1       8.764  20.088  20.104  1.00  0.00     0.007 A 
ENDBRANCH  22  23
ENDBRANCH   1  22
BRANCH   1  29
HETATM   29  N2  UNL     1      10.425  17.586  17.832  1.00  0.00    -0.307 N 
HETATM   30  C20 UNL     1       9.299  17.892  17.043  1.00  0.00     0.365 C 
HETATM   31  O5  UNL     1       9.000  19.079  16.863  1.00  0.00    -0.238 OA
ATOM     32  H2  UNL     1      10.675  16.606  17.966  1.00  0.00     0.170 HD
BRANCH  30  33
HETATM   33  O6  UNL     1       8.470  16.988  16.434  1.00  0.00    -0.298 OA
BRANCH  33  34
HETATM   34  C21 UNL     1       7.909  17.192  15.173  1.00  0.00     0.140 C 
HETATM   35  C22 UNL     1       8.896  17.025  14.044  1.00  0.00     0.033 C 
HETATM   36  C23 UNL     1       9.272  15.589  13.804  1.00  0.00     0.005 C 
HETATM   37  C24 UNL     1       8.289  14.588  14.332  1.00  0.00     0.032 C 
HETATM   38  C25 UNL     1       6.870  15.047  14.377  1.00  0.00     0.131 C 
HETATM   39  O7  UNL     1       6.125  14.151  15.125  1.00  0.00    -0.355 OA
HETATM   40  C30 UNL     1       6.649  16.401  14.933  1.00  0.00     0.053 C 
HETATM   41  C26 UNL     1       5.801  14.691  16.339  1.00  0.00     0.264 C 
HETATM   42  O8  UNL     1       4.457  14.329  16.611  1.00  0.00    -0.361 OA
HETATM   43  C29 UNL     1       5.791  16.164  16.117  1.00  0.00     0.052 C 
HETATM   44  C27 UNL     1       3.739  15.014  15.657  1.00  0.00     0.171 C 
HETATM   45  C28 UNL     1       4.304  16.418  15.811  1.00  0.00     0.036 C 
ENDBRANCH  33  34
ENDBRANCH  30  33
ENDBRANCH   1  29
TORSDOF 14
ENDMDL
