MODEL 3
REMARK VINA RESULT: -10.086439151      2.381      6.723
REMARK  14 active torsions:
REMARK  status: ('A' for Active; 'I' for Inactive)
REMARK    1  A    between atoms: O1_2  and  C2_3 
REMARK    2  A    between atoms: C5_6  and  S1_7 
REMARK    3  A    between atoms: S1_7  and  N1_10 
REMARK    4  A    between atoms: N1_10  and  C6_11 
REMARK    5  A    between atoms: N1_10  and  C10_15 
REMARK    6  A    between atoms: C6_11  and  C7_12 
REMARK    7  A    between atoms: C10_15  and  C11_16 
REMARK    8  A    between atoms: C11_16  and  O4_17 
REMARK    9  A    between atoms: C11_16  and  C12_19 
REMARK   10  A    between atoms: C12_19  and  C13_20 
REMARK   11  A    between atoms: C12_19  and  N2_27 
REMARK   12  A    between atoms: C13_20  and  C14_21 
REMARK       I    between atoms: N2_27  and  C20_29 
REMARK   13  A    between atoms: C20_29  and  O6_31 
REMARK   14  A    between atoms: O6_31  and  C21_32 
ROOT
HETATM    1  C12 UNL     1      13.340  20.983  18.806  1.00  0.00     0.026 C 
ENDROOT
BRANCH   1   2
HETATM    2  C11 UNL     1      14.153  20.058  17.944  1.00  0.00     0.183 C 
BRANCH   2   3
HETATM    3  C10 UNL     1      14.933  20.714  16.849  1.00  0.00     0.178 C 
BRANCH   3   4
HETATM    4  N1  UNL     1      14.520  20.380  15.529  1.00  0.00    -0.283 N 
BRANCH   4   5
HETATM    5  S1  UNL     1      12.918  20.687  15.139  1.00  0.00     0.264 S 
HETATM    6  O2  UNL     1      12.878  21.052  13.647  1.00  0.00    -0.200 OA
HETATM    7  O3  UNL     1      12.404  21.985  15.782  1.00  0.00    -0.200 OA
BRANCH   5   8
HETATM    8  C5  UNL     1      11.795  19.401  15.348  1.00  0.00     0.080 A 
HETATM    9  C4  UNL     1      10.506  19.689  15.745  1.00  0.00     0.028 A 
HETATM   10  C3  UNL     1       9.576  18.696  15.964  1.00  0.00     0.038 A 
HETATM   11  C2  UNL     1       9.900  17.354  15.795  1.00  0.00     0.068 A 
HETATM   12  C32 UNL     1      11.188  17.069  15.398  1.00  0.00     0.038 A 
HETATM   13  C31 UNL     1      12.102  18.077  15.185  1.00  0.00     0.028 A 
BRANCH  11  14
HETATM   14  O1  UNL     1       8.971  16.327  16.013  1.00  0.00    -0.356 OA
HETATM   15  C1  UNL     1       8.871  15.257  15.103  1.00  0.00     0.210 C 
ENDBRANCH  11  14
ENDBRANCH   5   8
ENDBRANCH   4   5
BRANCH   4  16
HETATM   16  C6  UNL     1      15.417  20.597  14.472  1.00  0.00     0.080 C 
BRANCH  16  17
HETATM   17  C7  UNL     1      16.210  21.836  14.450  1.00  0.00     0.017 C 
HETATM   18  C8  UNL     1      15.935  22.843  13.400  1.00  0.00     0.015 C 
HETATM   19  C9  UNL     1      17.721  21.563  14.477  1.00  0.00     0.015 C 
ENDBRANCH  16  17
ENDBRANCH   4  16
ENDBRANCH   3   4
ENDBRANCH   2   3
BRANCH   2  20
HETATM   20  O4  UNL     1      15.154  19.519  18.821  1.00  0.00    -0.388 OA
ATOM     21  H4  UNL     1      14.703  19.400  19.649  1.00  0.00     0.210 HD
ENDBRANCH   2  20
ENDBRANCH   1   2
BRANCH   1  22
HETATM   22  C13 UNL     1      14.062  21.674  19.903  1.00  0.00     0.094 C 
BRANCH  22  23
HETATM   23  C14 UNL     1      14.418  23.087  19.696  1.00  0.00    -0.053 A 
HETATM   24  C15 UNL     1      15.197  23.742  20.616  1.00  0.00     0.007 A 
HETATM   25  C16 UNL     1      15.529  25.056  20.431  1.00  0.00     0.001 A 
HETATM   26  C17 UNL     1      15.114  25.785  19.341  1.00  0.00     0.000 A 
HETATM   27  C18 UNL     1      14.320  25.099  18.413  1.00  0.00     0.001 A 
HETATM   28  C19 UNL     1      13.986  23.793  18.588  1.00  0.00     0.007 A 
ENDBRANCH  22  23
ENDBRANCH   1  22
BRANCH   1  29
HETATM   29  N2  UNL     1      12.009  20.541  19.101  1.00  0.00    -0.307 N 
HETATM   30  C20 UNL     1      11.634  19.185  19.085  1.00  0.00     0.365 C 
HETATM   31  O5  UNL     1      12.490  18.330  18.823  1.00  0.00    -0.238 OA
ATOM     32  H2  UNL     1      11.303  21.241  19.331  1.00  0.00     0.170 HD
BRANCH  30  33
HETATM   33  O6  UNL     1      10.382  18.689  19.336  1.00  0.00    -0.298 OA
BRANCH  33  34
HETATM   34  C21 UNL     1       9.779  18.730  20.592  1.00  0.00     0.140 C 
HETATM   35  C22 UNL     1       9.735  20.114  21.192  1.00  0.00     0.033 C 
HETATM   36  C23 UNL     1       8.732  21.010  20.520  1.00  0.00     0.005 C 
HETATM   37  C24 UNL     1       7.650  20.289  19.772  1.00  0.00     0.032 C 
HETATM   38  C25 UNL     1       7.291  18.943  20.305  1.00  0.00     0.131 C 
HETATM   39  O7  UNL     1       6.497  18.285  19.382  1.00  0.00    -0.355 OA
HETATM   40  C30 UNL     1       8.431  18.059  20.642  1.00  0.00     0.053 C 
HETATM   41  C26 UNL     1       7.202  17.287  18.767  1.00  0.00     0.264 C 
HETATM   42  O8  UNL     1       6.332  16.172  18.654  1.00  0.00    -0.361 OA
HETATM   43  C29 UNL     1       8.249  16.890  19.748  1.00  0.00     0.052 C 
HETATM   44  C27 UNL     1       6.134  15.783  19.960  1.00  0.00     0.171 C 
HETATM   45  C28 UNL     1       7.565  15.716  20.470  1.00  0.00     0.036 C 
ENDBRANCH  33  34
ENDBRANCH  30  33
ENDBRANCH   1  29
TORSDOF 14
ENDMDL
