MODEL 1
REMARK VINA RESULT: -7.634269504      0.000      0.000
REMARK  4 active torsions:
REMARK  status: ('A' for Active; 'I' for Inactive)
REMARK    1  A    between atoms: C2_2  and  O1_3 
REMARK    2  A    between atoms: C2_2  and  C3_5 
REMARK    3  A    between atoms: C3_5  and  O2_6 
REMARK    4  A    between atoms: C3_5  and  C4_8 
ROOT
HETATM    1  C4  UNL     1       6.751   2.800  33.331  1.00  0.00     0.131 C 
HETATM    2  C5  UNL     1       5.525   1.909  33.336  1.00  0.00     0.149 C 
HETATM    3  N1  UNL     1       5.014   1.845  34.697  1.00  0.00    -0.372 N 
ATOM      4  H1  UNL     1       4.771   0.941  35.104  1.00  0.00     0.161 HD
HETATM    5  C6  UNL     1       4.852   3.032  35.467  1.00  0.00     0.136 A 
HETATM    6  N2  UNL     1       3.960   3.136  36.467  1.00  0.00    -0.315 N 
ATOM      7  H2  UNL     1       3.375   2.329  36.681  1.00  0.00     0.170 HD
HETATM    8  C7  UNL     1       3.800   4.253  37.198  1.00  0.00     0.196 A 
HETATM    9  N3  UNL     1       2.857   4.364  38.255  1.00  0.00    -0.063 NA
HETATM   10  N4  UNL     1       4.574   5.313  36.911  1.00  0.00    -0.295 N 
ATOM     11  H4  UNL     1       4.466   6.168  37.457  1.00  0.00     0.171 HD
HETATM   12  C8  UNL     1       5.495   5.277  35.915  1.00  0.00     0.278 A 
HETATM   13  O3  UNL     1       6.219   6.270  35.647  1.00  0.00    -0.265 OA
HETATM   14  C9  UNL     1       5.649   4.120  35.170  1.00  0.00     0.141 A 
HETATM   15  N5  UNL     1       6.577   3.983  34.117  1.00  0.00    -0.374 N 
ATOM     16  H5  UNL     1       7.168   4.786  33.899  1.00  0.00     0.160 HD
ENDROOT
BRANCH   1  17
HETATM   17  C3  UNL     1       7.924   1.953  33.774  1.00  0.00     0.170 C 
BRANCH  17  18
HETATM   18  C2  UNL     1       9.042   2.813  34.356  1.00  0.00     0.145 C 
HETATM   19  C1  UNL     1      10.334   2.055  34.213  1.00  0.00     0.042 C 
BRANCH  18  20
HETATM   20  O1  UNL     1       8.827   3.099  35.692  1.00  0.00    -0.393 OA
ATOM     21  H1  UNL     1       7.935   2.866  35.922  1.00  0.00     0.210 HD
ENDBRANCH  18  20
ENDBRANCH  17  18
BRANCH  17  22
HETATM   22  O2  UNL     1       8.450   1.366  32.609  1.00  0.00    -0.391 OA
ATOM     23  H2  UNL     1       7.864   0.652  32.386  1.00  0.00     0.210 HD
ENDBRANCH  17  22
ENDBRANCH   1  17
TORSDOF 4
ENDMDL
