MODEL 5
REMARK VINA RESULT: -6.489776221      2.320      3.486
REMARK  4 active torsions:
REMARK  status: ('A' for Active; 'I' for Inactive)
REMARK    1  A    between atoms: C2_2  and  O1_3 
REMARK    2  A    between atoms: C2_2  and  C3_5 
REMARK    3  A    between atoms: C3_5  and  O2_6 
REMARK    4  A    between atoms: C3_5  and  C4_8 
ROOT
HETATM    1  C4  UNL     1       6.540   1.668  33.533  1.00  0.00     0.131 C 
HETATM    2  C5  UNL     1       7.373   2.643  34.343  1.00  0.00     0.149 C 
HETATM    3  N1  UNL     1       6.502   3.716  34.799  1.00  0.00    -0.372 N 
ATOM      4  H1  UNL     1       6.798   4.686  34.693  1.00  0.00     0.161 HD
HETATM    5  C6  UNL     1       5.240   3.423  35.391  1.00  0.00     0.136 A 
HETATM    6  N2  UNL     1       4.635   4.248  36.263  1.00  0.00    -0.315 N 
ATOM      7  H2  UNL     1       5.102   5.121  36.509  1.00  0.00     0.170 HD
HETATM    8  C7  UNL     1       3.445   3.979  36.827  1.00  0.00     0.196 A 
HETATM    9  N3  UNL     1       2.805   4.851  37.748  1.00  0.00    -0.063 NA
HETATM   10  N4  UNL     1       2.835   2.828  36.499  1.00  0.00    -0.295 N 
ATOM     11  H4  UNL     1       1.930   2.610  36.917  1.00  0.00     0.171 HD
HETATM   12  C8  UNL     1       3.389   1.949  35.625  1.00  0.00     0.278 A 
HETATM   13  O3  UNL     1       2.817   0.872  35.319  1.00  0.00    -0.265 OA
HETATM   14  C9  UNL     1       4.616   2.239  35.052  1.00  0.00     0.141 A 
HETATM   15  N5  UNL     1       5.272   1.392  34.135  1.00  0.00    -0.374 N 
ATOM     16  H5  UNL     1       4.809   0.519  33.882  1.00  0.00     0.160 HD
ENDROOT
BRANCH   1  17
HETATM   17  C3  UNL     1       6.430   2.228  32.132  1.00  0.00     0.170 C 
BRANCH  17  18
HETATM   18  C2  UNL     1       5.430   1.435  31.294  1.00  0.00     0.145 C 
HETATM   19  C1  UNL     1       5.691   1.746  29.844  1.00  0.00     0.042 C 
BRANCH  18  20
HETATM   20  O1  UNL     1       4.124   1.766  31.604  1.00  0.00    -0.393 OA
ATOM     21  H1  UNL     1       3.965   2.672  31.366  1.00  0.00     0.210 HD
ENDBRANCH  18  20
ENDBRANCH  17  18
BRANCH  17  22
HETATM   22  O2  UNL     1       7.686   2.034  31.529  1.00  0.00    -0.391 OA
ATOM     23  H2  UNL     1       8.304   1.918  32.241  1.00  0.00     0.210 HD
ENDBRANCH  17  22
ENDBRANCH   1  17
TORSDOF 4
ENDMDL
