MODEL 10
REMARK VINA RESULT: -6.041314900      2.292      5.699
REMARK  4 active torsions:
REMARK  status: ('A' for Active; 'I' for Inactive)
REMARK    1  A    between atoms: C2_2  and  O1_3 
REMARK    2  A    between atoms: C2_2  and  C3_5 
REMARK    3  A    between atoms: C3_5  and  O2_6 
REMARK    4  A    between atoms: C3_5  and  C4_8 
ROOT
HETATM    1  C4  UNL     1       5.007   4.605  36.183  1.00  0.00     0.131 C 
HETATM    2  C5  UNL     1       6.108   5.641  36.074  1.00  0.00     0.149 C 
HETATM    3  N1  UNL     1       7.386   4.946  36.055  1.00  0.00    -0.372 N 
ATOM      4  H1  UNL     1       8.146   5.269  36.655  1.00  0.00     0.161 HD
HETATM    5  C6  UNL     1       7.586   3.820  35.208  1.00  0.00     0.136 A 
HETATM    6  N2  UNL     1       8.797   3.456  34.751  1.00  0.00    -0.315 N 
ATOM      7  H2  UNL     1       9.606   4.013  35.026  1.00  0.00     0.170 HD
HETATM    8  C7  UNL     1       8.994   2.395  33.950  1.00  0.00     0.196 A 
HETATM    9  N3  UNL     1      10.274   2.010  33.468  1.00  0.00    -0.063 NA
HETATM   10  N4  UNL     1       7.925   1.665  33.593  1.00  0.00    -0.295 N 
ATOM     11  H4  UNL     1       8.057   0.855  32.986  1.00  0.00     0.171 HD
HETATM   12  C8  UNL     1       6.673   1.975  34.017  1.00  0.00     0.278 A 
HETATM   13  O3  UNL     1       5.672   1.291  33.681  1.00  0.00    -0.265 OA
HETATM   14  C9  UNL     1       6.484   3.072  34.841  1.00  0.00     0.141 A 
HETATM   15  N5  UNL     1       5.226   3.474  35.334  1.00  0.00    -0.374 N 
ATOM     16  H5  UNL     1       4.413   2.919  35.066  1.00  0.00     0.160 HD
ENDROOT
BRANCH   1  17
HETATM   17  C3  UNL     1       4.877   4.240  37.646  1.00  0.00     0.170 C 
BRANCH  17  18
HETATM   18  C2  UNL     1       3.436   4.391  38.130  1.00  0.00     0.145 C 
HETATM   19  C1  UNL     1       2.541   4.421  36.920  1.00  0.00     0.042 C 
BRANCH  18  20
HETATM   20  O1  UNL     1       3.259   5.553  38.858  1.00  0.00    -0.393 OA
ATOM     21  H1  UNL     1       4.107   5.934  39.051  1.00  0.00     0.210 HD
ENDBRANCH  18  20
ENDBRANCH  17  18
BRANCH  17  22
HETATM   22  O2  UNL     1       5.629   5.191  38.359  1.00  0.00    -0.391 OA
ATOM     23  H2  UNL     1       5.613   4.911  39.267  1.00  0.00     0.210 HD
ENDBRANCH  17  22
ENDBRANCH   1  17
TORSDOF 4
ENDMDL
