MODEL 3
REMARK VINA RESULT: -6.610183053      1.811      2.373
REMARK  4 active torsions:
REMARK  status: ('A' for Active; 'I' for Inactive)
REMARK    1  A    between atoms: C2_2  and  O1_3 
REMARK    2  A    between atoms: C2_2  and  C3_5 
REMARK    3  A    between atoms: C3_5  and  O2_6 
REMARK    4  A    between atoms: C3_5  and  C4_8 
ROOT
HETATM    1  C4  UNL     1       8.851   2.561  33.534  1.00  0.00     0.131 C 
HETATM    2  C5  UNL     1       7.879   2.389  32.383  1.00  0.00     0.149 C 
HETATM    3  N1  UNL     1       6.686   1.729  32.890  1.00  0.00    -0.372 N 
ATOM      4  H1  UNL     1       6.291   0.938  32.381  1.00  0.00     0.161 HD
HETATM    5  C6  UNL     1       6.065   2.177  34.091  1.00  0.00     0.136 A 
HETATM    6  N2  UNL     1       4.758   1.996  34.346  1.00  0.00    -0.315 N 
ATOM      7  H2  UNL     1       4.189   1.516  33.649  1.00  0.00     0.170 HD
HETATM    8  C7  UNL     1       4.164   2.416  35.477  1.00  0.00     0.196 A 
HETATM    9  N3  UNL     1       2.782   2.224  35.748  1.00  0.00    -0.063 NA
HETATM   10  N4  UNL     1       4.918   3.046  36.392  1.00  0.00    -0.295 N 
ATOM     11  H4  UNL     1       4.483   3.370  37.256  1.00  0.00     0.171 HD
HETATM   12  C8  UNL     1       6.244   3.263  36.198  1.00  0.00     0.278 A 
HETATM   13  O3  UNL     1       6.950   3.854  37.055  1.00  0.00    -0.265 OA
HETATM   14  C9  UNL     1       6.843   2.825  35.029  1.00  0.00     0.141 A 
HETATM   15  N5  UNL     1       8.211   3.001  34.736  1.00  0.00    -0.374 N 
ATOM     16  H5  UNL     1       8.787   3.477  35.431  1.00  0.00     0.160 HD
ENDROOT
BRANCH   1  17
HETATM   17  C3  UNL     1       9.594   1.253  33.694  1.00  0.00     0.170 C 
BRANCH  17  18
HETATM   18  C2  UNL     1      11.073   1.487  33.993  1.00  0.00     0.145 C 
HETATM   19  C1  UNL     1      11.821   0.228  33.648  1.00  0.00     0.042 C 
BRANCH  18  20
HETATM   20  O1  UNL     1      11.285   1.793  35.325  1.00  0.00    -0.393 OA
ATOM     21  H1  UNL     1      12.068   1.349  35.628  1.00  0.00     0.210 HD
ENDBRANCH  18  20
ENDBRANCH  17  18
BRANCH  17  22
HETATM   22  O2  UNL     1       9.545   0.615  32.442  1.00  0.00    -0.391 OA
ATOM     23  H2  UNL     1       8.895  -0.073  32.522  1.00  0.00     0.210 HD
ENDBRANCH  17  22
ENDBRANCH   1  17
TORSDOF 4
ENDMDL
