MODEL 2
REMARK VINA RESULT: -7.188379243      2.612      5.766
REMARK  4 active torsions:
REMARK  status: ('A' for Active; 'I' for Inactive)
REMARK    1  A    between atoms: C2_2  and  O1_3 
REMARK    2  A    between atoms: C2_2  and  C3_5 
REMARK    3  A    between atoms: C3_5  and  O2_6 
REMARK    4  A    between atoms: C3_5  and  C4_8 
ROOT
HETATM    1  C4  UNL     1       5.874   4.018  35.102  1.00  0.00     0.131 C 
HETATM    2  C5  UNL     1       7.035   4.623  35.866  1.00  0.00     0.149 C 
HETATM    3  N1  UNL     1       8.110   3.644  35.908  1.00  0.00    -0.372 N 
ATOM      4  H1  UNL     1       8.582   3.450  36.792  1.00  0.00     0.161 HD
HETATM    5  C6  UNL     1       8.510   2.955  34.728  1.00  0.00     0.136 A 
HETATM    6  N2  UNL     1       9.747   2.460  34.556  1.00  0.00    -0.315 N 
ATOM      7  H2  UNL     1      10.428   2.584  35.306  1.00  0.00     0.170 HD
HETATM    8  C7  UNL     1      10.132   1.808  33.445  1.00  0.00     0.196 A 
HETATM    9  N3  UNL     1      11.440   1.284  33.264  1.00  0.00    -0.063 NA
HETATM   10  N4  UNL     1       9.232   1.647  32.462  1.00  0.00    -0.295 N 
ATOM     11  H4  UNL     1       9.508   1.154  31.612  1.00  0.00     0.171 HD
HETATM   12  C8  UNL     1       7.965   2.122  32.568  1.00  0.00     0.278 A 
HETATM   13  O3  UNL     1       7.122   1.972  31.647  1.00  0.00    -0.265 OA
HETATM   14  C9  UNL     1       7.581   2.791  33.719  1.00  0.00     0.141 A 
HETATM   15  N5  UNL     1       6.291   3.320  33.924  1.00  0.00    -0.374 N 
ATOM     16  H5  UNL     1       5.604   3.197  33.180  1.00  0.00     0.160 HD
ENDROOT
BRANCH   1  17
HETATM   17  C3  UNL     1       5.101   3.151  36.071  1.00  0.00     0.170 C 
BRANCH  17  18
HETATM   18  C2  UNL     1       3.601   3.428  35.991  1.00  0.00     0.145 C 
HETATM   19  C1  UNL     1       3.192   4.135  37.255  1.00  0.00     0.042 C 
BRANCH  18  20
HETATM   20  O1  UNL     1       2.870   2.261  35.863  1.00  0.00    -0.393 OA
ATOM     21  H1  UNL     1       2.824   1.827  36.706  1.00  0.00     0.210 HD
ENDBRANCH  18  20
ENDBRANCH  17  18
BRANCH  17  22
HETATM   22  O2  UNL     1       5.502   3.545  37.361  1.00  0.00    -0.391 OA
ATOM     23  H2  UNL     1       5.973   4.362  37.251  1.00  0.00     0.210 HD
ENDBRANCH  17  22
ENDBRANCH   1  17
TORSDOF 4
ENDMDL
