MODEL 2
REMARK VINA RESULT: -8.002560067      0.937      1.199
REMARK  9 active torsions:
REMARK  status: ('A' for Active; 'I' for Inactive)
REMARK    1  A    between atoms: C2_2  and  C3_3 
REMARK    2  A    between atoms: C5_8  and  N3_9 
REMARK    3  A    between atoms: N3_9  and  C6_11 
REMARK    4  A    between atoms: C6_11  and  C7_12 
REMARK    5  A    between atoms: N4_16  and  O1_17 
REMARK    6  A    between atoms: C13_21  and  N5_22 
REMARK    7  A    between atoms: C18_27  and  C19_28 
REMARK    8  A    between atoms: C19_28  and  C20_29 
REMARK    9  A    between atoms: C20_29  and  O2_30 
ROOT
HETATM    1  C3  UNL     1      30.000 -24.193   3.606  1.00  0.00     0.004 A 
HETATM    2  C4  UNL     1      29.143 -25.225   3.295  1.00  0.00     0.118 A 
HETATM    3  N1  UNL     1      29.143 -26.082   4.324  1.00  0.00    -0.301 N 
ATOM      4  H1  UNL     1      28.595 -26.941   4.360  1.00  0.00     0.186 HD
HETATM    5  N2  UNL     1      29.951 -25.667   5.284  1.00  0.00    -0.224 N 
HETATM    6  C5  UNL     1      30.261 -26.196   6.478  1.00  0.00     0.129 A 
HETATM    7  C12 UNL     1      31.156 -25.497   7.256  1.00  0.00     0.098 A 
HETATM    8  C13 UNL     1      31.716 -24.308   6.840  1.00  0.00     0.108 A 
HETATM    9  N6  UNL     1      31.364 -23.834   5.639  1.00  0.00    -0.327 N 
ATOM     10  H6  UNL     1      31.766 -22.955   5.311  1.00  0.00     0.169 HD
HETATM   11  C21 UNL     1      30.494 -24.493   4.857  1.00  0.00     0.138 A 
ENDROOT
BRANCH   6  12
HETATM   12  N3  UNL     1      29.684 -27.422   6.892  1.00  0.00    -0.370 N 
ATOM     13  H3  UNL     1      30.059 -28.287   6.503  1.00  0.00     0.161 HD
BRANCH  12  14
HETATM   14  C6  UNL     1      28.597 -27.513   7.833  1.00  0.00     0.161 C 
BRANCH  14  15
HETATM   15  C7  UNL     1      27.456 -28.177   7.170  1.00  0.00    -0.023 A 
HETATM   16  C8  UNL     1      26.785 -29.175   7.838  1.00  0.00     0.012 A 
HETATM   17  C9  UNL     1      25.719 -29.807   7.223  1.00  0.00     0.020 A 
HETATM   18  C10 UNL     1      25.321 -29.453   5.955  1.00  0.00     0.122 A 
HETATM   19  N4  UNL     1      26.001 -28.471   5.327  1.00  0.00    -0.247 N 
HETATM   20  C11 UNL     1      27.050 -27.832   5.902  1.00  0.00     0.131 A 
BRANCH  19  21
HETATM   21  O1  UNL     1      25.574 -28.147   4.065  1.00  0.00    -0.284 OA
ATOM     22  H1  UNL     1      25.993 -28.606   3.347  1.00  0.00     0.245 HD
ENDBRANCH  19  21
ENDBRANCH  14  15
ENDBRANCH  12  14
ENDBRANCH   6  12
BRANCH   8  23
HETATM   23  N5  UNL     1      32.656 -23.572   7.659  1.00  0.00    -0.362 N 
HETATM   24  C14 UNL     1      33.647 -24.339   8.341  1.00  0.00     0.125 C 
HETATM   25  C15 UNL     1      34.402 -23.491   9.299  1.00  0.00     0.020 C 
HETATM   26  C16 UNL     1      33.457 -22.590  10.037  1.00  0.00     0.004 C 
HETATM   27  C17 UNL     1      32.721 -21.643   9.124  1.00  0.00     0.025 C 
HETATM   28  C18 UNL     1      32.553 -22.140   7.743  1.00  0.00     0.087 C 
BRANCH  28  29
HETATM   29  C19 UNL     1      33.471 -21.540   6.722  1.00  0.00     0.051 C 
BRANCH  29  30
HETATM   30  C20 UNL     1      32.812 -20.533   5.817  1.00  0.00     0.166 C 
BRANCH  30  31
HETATM   31  O2  UNL     1      31.506 -20.854   5.515  1.00  0.00    -0.401 OA
ATOM     32  H2  UNL     1      31.390 -21.123   4.612  1.00  0.00     0.209 HD
ENDBRANCH  30  31
ENDBRANCH  29  30
ENDBRANCH  28  29
ENDBRANCH   8  23
BRANCH   1  33
HETATM   33  C2  UNL     1      30.292 -23.031   2.741  1.00  0.00     0.039 C 
HETATM   34  C1  UNL     1      29.582 -23.101   1.409  1.00  0.00     0.010 C 
ENDBRANCH   1  33
TORSDOF 9
ENDMDL
