MODEL 1
REMARK VINA RESULT: -8.043612750      0.000      0.000
REMARK  9 active torsions:
REMARK  status: ('A' for Active; 'I' for Inactive)
REMARK    1  A    between atoms: C2_2  and  C3_3 
REMARK    2  A    between atoms: C5_8  and  N3_9 
REMARK    3  A    between atoms: N3_9  and  C6_11 
REMARK    4  A    between atoms: C6_11  and  C7_12 
REMARK    5  A    between atoms: N4_16  and  O1_17 
REMARK    6  A    between atoms: C13_21  and  N5_22 
REMARK    7  A    between atoms: C18_27  and  C19_28 
REMARK    8  A    between atoms: C19_28  and  C20_29 
REMARK    9  A    between atoms: C20_29  and  O2_30 
ROOT
HETATM    1  C3  UNL     1      30.034 -24.232   3.492  1.00  0.00     0.004 A 
HETATM    2  C4  UNL     1      29.123 -25.220   3.192  1.00  0.00     0.118 A 
HETATM    3  N1  UNL     1      29.064 -26.055   4.237  1.00  0.00    -0.301 N 
ATOM      4  H1  UNL     1      28.467 -26.880   4.285  1.00  0.00     0.186 HD
HETATM    5  N2  UNL     1      29.883 -25.665   5.199  1.00  0.00    -0.224 N 
HETATM    6  C5  UNL     1      30.150 -26.187   6.406  1.00  0.00     0.129 A 
HETATM    7  C12 UNL     1      31.075 -25.524   7.181  1.00  0.00     0.098 A 
HETATM    8  C13 UNL     1      31.706 -24.377   6.748  1.00  0.00     0.108 A 
HETATM    9  N6  UNL     1      31.395 -23.909   5.534  1.00  0.00    -0.327 N 
ATOM     10  H6  UNL     1      31.849 -23.061   5.193  1.00  0.00     0.169 HD
HETATM   11  C21 UNL     1      30.497 -24.533   4.755  1.00  0.00     0.138 A 
ENDROOT
BRANCH   6  12
HETATM   12  N3  UNL     1      29.500 -27.369   6.838  1.00  0.00    -0.370 N 
ATOM     13  H3  UNL     1      29.889 -28.266   6.548  1.00  0.00     0.161 HD
BRANCH  12  14
HETATM   14  C6  UNL     1      28.321 -27.373   7.665  1.00  0.00     0.161 C 
BRANCH  14  15
HETATM   15  C7  UNL     1      27.238 -28.066   6.936  1.00  0.00    -0.023 A 
HETATM   16  C8  UNL     1      26.916 -27.647   5.666  1.00  0.00     0.012 A 
HETATM   17  C9  UNL     1      25.900 -28.286   4.978  1.00  0.00     0.020 A 
HETATM   18  C10 UNL     1      25.208 -29.331   5.544  1.00  0.00     0.122 A 
HETATM   19  N4  UNL     1      25.548 -29.716   6.791  1.00  0.00    -0.247 N 
HETATM   20  C11 UNL     1      26.540 -29.111   7.493  1.00  0.00     0.131 A 
BRANCH  19  21
HETATM   21  O1  UNL     1      24.836 -30.761   7.321  1.00  0.00    -0.284 OA
ATOM     22  H1  UNL     1      24.765 -31.539   6.780  1.00  0.00     0.245 HD
ENDBRANCH  19  21
ENDBRANCH  14  15
ENDBRANCH  12  14
ENDBRANCH   6  12
BRANCH   8  23
HETATM   23  N5  UNL     1      32.677 -23.678   7.563  1.00  0.00    -0.362 N 
HETATM   24  C14 UNL     1      33.683 -24.478   8.186  1.00  0.00     0.125 C 
HETATM   25  C15 UNL     1      34.474 -23.671   9.149  1.00  0.00     0.020 C 
HETATM   26  C16 UNL     1      33.560 -22.789   9.948  1.00  0.00     0.004 C 
HETATM   27  C17 UNL     1      32.806 -21.804   9.093  1.00  0.00     0.025 C 
HETATM   28  C18 UNL     1      32.590 -22.250   7.701  1.00  0.00     0.087 C 
BRANCH  28  29
HETATM   29  C19 UNL     1      33.482 -21.621   6.675  1.00  0.00     0.051 C 
BRANCH  29  30
HETATM   30  C20 UNL     1      32.804 -20.578   5.826  1.00  0.00     0.166 C 
BRANCH  30  31
HETATM   31  O2  UNL     1      31.536 -20.946   5.431  1.00  0.00    -0.401 OA
ATOM     32  H2  UNL     1      31.034 -20.223   5.075  1.00  0.00     0.209 HD
ENDBRANCH  30  31
ENDBRANCH  29  30
ENDBRANCH  28  29
ENDBRANCH   8  23
BRANCH   1  33
HETATM   33  C2  UNL     1      30.401 -23.107   2.607  1.00  0.00     0.039 C 
HETATM   34  C1  UNL     1      29.519 -23.014   1.384  1.00  0.00     0.010 C 
ENDBRANCH   1  33
TORSDOF 9
ENDMDL
