MODEL 3
REMARK VINA RESULT: -7.797881484      3.632      6.572
REMARK  9 active torsions:
REMARK  status: ('A' for Active; 'I' for Inactive)
REMARK    1  A    between atoms: C2_2  and  C3_3 
REMARK    2  A    between atoms: C5_8  and  N3_9 
REMARK    3  A    between atoms: N3_9  and  C6_11 
REMARK    4  A    between atoms: C6_11  and  C7_12 
REMARK    5  A    between atoms: N4_16  and  O1_17 
REMARK    6  A    between atoms: C13_21  and  N5_22 
REMARK    7  A    between atoms: C18_27  and  C19_28 
REMARK    8  A    between atoms: C19_28  and  C20_29 
REMARK    9  A    between atoms: C20_29  and  O2_30 
ROOT
HETATM    1  C3  UNL     1      30.120 -22.391   2.282  1.00  0.00     0.004 A 
HETATM    2  C4  UNL     1      29.656 -22.457   0.988  1.00  0.00     0.118 A 
HETATM    3  N1  UNL     1      29.171 -23.689   0.788  1.00  0.00    -0.301 N 
ATOM      4  H1  UNL     1      28.762 -24.014  -0.088  1.00  0.00     0.186 HD
HETATM    5  N2  UNL     1      29.293 -24.426   1.878  1.00  0.00    -0.224 N 
HETATM    6  C5  UNL     1      28.950 -25.698   2.135  1.00  0.00     0.129 A 
HETATM    7  C12 UNL     1      29.221 -26.173   3.399  1.00  0.00     0.098 A 
HETATM    8  C13 UNL     1      29.816 -25.390   4.364  1.00  0.00     0.108 A 
HETATM    9  N6  UNL     1      30.133 -24.129   4.044  1.00  0.00    -0.327 N 
ATOM     10  H6  UNL     1      30.574 -23.532   4.742  1.00  0.00     0.169 HD
HETATM   11  C21 UNL     1      29.882 -23.637   2.820  1.00  0.00     0.138 A 
ENDROOT
BRANCH   6  12
HETATM   12  N3  UNL     1      28.344 -26.496   1.135  1.00  0.00    -0.370 N 
ATOM     13  H3  UNL     1      27.360 -26.743   1.245  1.00  0.00     0.161 HD
BRANCH  12  14
HETATM   14  C6  UNL     1      29.040 -26.978  -0.030  1.00  0.00     0.161 C 
BRANCH  14  15
HETATM   15  C7  UNL     1      28.428 -26.368  -1.230  1.00  0.00    -0.023 A 
HETATM   16  C8  UNL     1      29.121 -26.396  -2.418  1.00  0.00     0.012 A 
HETATM   17  C9  UNL     1      28.559 -25.822  -3.545  1.00  0.00     0.020 A 
HETATM   18  C10 UNL     1      27.321 -25.225  -3.494  1.00  0.00     0.122 A 
HETATM   19  N4  UNL     1      26.669 -25.215  -2.313  1.00  0.00    -0.247 N 
HETATM   20  C11 UNL     1      27.192 -25.769  -1.189  1.00  0.00     0.131 A 
BRANCH  19  21
HETATM   21  O1  UNL     1      25.437 -24.612  -2.303  1.00  0.00    -0.284 OA
ATOM     22  H1  UNL     1      25.101 -24.328  -3.144  1.00  0.00     0.245 HD
ENDBRANCH  19  21
ENDBRANCH  14  15
ENDBRANCH  12  14
ENDBRANCH   6  12
BRANCH   8  23
HETATM   23  N5  UNL     1      30.100 -25.888   5.694  1.00  0.00    -0.362 N 
HETATM   24  C14 UNL     1      30.881 -25.044   6.540  1.00  0.00     0.125 C 
HETATM   25  C15 UNL     1      31.270 -25.760   7.781  1.00  0.00     0.020 C 
HETATM   26  C16 UNL     1      31.699 -27.159   7.451  1.00  0.00     0.004 C 
HETATM   27  C17 UNL     1      30.597 -27.974   6.823  1.00  0.00     0.025 C 
HETATM   28  C18 UNL     1      29.593 -27.173   6.092  1.00  0.00     0.087 C 
BRANCH  28  29
HETATM   29  C19 UNL     1      28.289 -26.968   6.800  1.00  0.00     0.051 C 
BRANCH  29  30
HETATM   30  C20 UNL     1      27.893 -28.107   7.702  1.00  0.00     0.166 C 
BRANCH  30  31
HETATM   31  O2  UNL     1      27.294 -29.147   7.026  1.00  0.00    -0.401 OA
ATOM     32  H2  UNL     1      26.371 -29.238   7.226  1.00  0.00     0.209 HD
ENDBRANCH  30  31
ENDBRANCH  29  30
ENDBRANCH  28  29
ENDBRANCH   8  23
BRANCH   1  33
HETATM   33  C2  UNL     1      30.737 -21.206   2.912  1.00  0.00     0.039 C 
HETATM   34  C1  UNL     1      29.826 -20.534   3.912  1.00  0.00     0.010 C 
ENDBRANCH   1  33
TORSDOF 9
ENDMDL
