MODEL 6
REMARK VINA RESULT: -6.678883230      1.729      2.400
REMARK  1 active torsions:
REMARK  status: ('A' for Active; 'I' for Inactive)
REMARK    1  A    between atoms: C6_8  and  O1_9 
ROOT
HETATM    1  C1  UNL     1       2.817   6.759 -12.750  1.00  0.00     0.071 C 
HETATM    2  C2  UNL     1       1.561   6.080 -12.277  1.00  0.00     0.039 A 
HETATM    3  N1  UNL     1       0.422   6.757 -12.083  1.00  0.00    -0.366 N 
ATOM      4  H1  UNL     1       0.408   7.762 -12.261  1.00  0.00     0.165 HD
HETATM    5  C3  UNL     1      -0.705   6.155 -11.661  1.00  0.00     0.106 A 
HETATM    6  C4  UNL     1      -0.755   4.801 -11.399  1.00  0.00     0.066 A 
HETATM    7  C5  UNL     1       0.407   4.085 -11.592  1.00  0.00     0.019 A 
HETATM    8  C6  UNL     1       1.551   4.720 -12.026  1.00  0.00     0.097 A 
HETATM    9  C7  UNL     1       0.086   2.683 -11.247  1.00  0.00     0.222 A 
HETATM   10  O2  UNL     1      -1.259   2.606 -10.859  1.00  0.00    -0.313 OA
HETATM   11  C8  UNL     1      -1.788   3.878 -10.943  1.00  0.00     0.295 A 
HETATM   12  O3  UNL     1      -2.994   4.181 -10.663  1.00  0.00    -0.259 OA
ENDROOT
BRANCH   8  13
HETATM   13  O1  UNL     1       2.730   3.989 -12.220  1.00  0.00    -0.358 OA
ATOM     14  H1  UNL     1       3.564   4.419 -12.074  1.00  0.00     0.217 HD
ENDBRANCH   8  13
TORSDOF 1
ENDMDL
