MODEL 14
REMARK VINA RESULT: -4.405959808      6.026      6.952
REMARK  1 active torsions:
REMARK  status: ('A' for Active; 'I' for Inactive)
REMARK    1  A    between atoms: C6_8  and  O1_9 
ROOT
HETATM    1  C1  UNL     1      -4.356   3.363  -5.321  1.00  0.00     0.071 C 
HETATM    2  C2  UNL     1      -3.625   2.247  -6.015  1.00  0.00     0.039 A 
HETATM    3  N1  UNL     1      -2.924   1.331  -5.334  1.00  0.00    -0.366 N 
ATOM      4  H1  UNL     1      -2.885   1.394  -4.317  1.00  0.00     0.165 HD
HETATM    5  C3  UNL     1      -2.270   0.330  -5.950  1.00  0.00     0.106 A 
HETATM    6  C4  UNL     1      -2.280   0.186  -7.323  1.00  0.00     0.066 A 
HETATM    7  C5  UNL     1      -2.995   1.119  -8.042  1.00  0.00     0.019 A 
HETATM    8  C6  UNL     1      -3.660   2.136  -7.393  1.00  0.00     0.097 A 
HETATM    9  C7  UNL     1      -2.845   0.742  -9.464  1.00  0.00     0.222 A 
HETATM   10  O2  UNL     1      -2.043  -0.406  -9.549  1.00  0.00    -0.313 OA
HETATM   11  C8  UNL     1      -1.689  -0.760  -8.263  1.00  0.00     0.295 A 
HETATM   12  O3  UNL     1      -0.960  -1.760  -7.962  1.00  0.00    -0.259 OA
ENDROOT
BRANCH   8  13
HETATM   13  O1  UNL     1      -4.386   3.083  -8.128  1.00  0.00    -0.358 OA
ATOM     14  H1  UNL     1      -4.301   3.090  -9.074  1.00  0.00     0.217 HD
ENDBRANCH   8  13
TORSDOF 1
ENDMDL
