MODEL 8
REMARK VINA RESULT: -6.120239794      1.514      3.982
REMARK  1 active torsions:
REMARK  status: ('A' for Active; 'I' for Inactive)
REMARK    1  A    between atoms: C6_8  and  O1_9 
ROOT
HETATM    1  C1  UNL     1      -1.273   2.220 -10.796  1.00  0.00     0.071 C 
HETATM    2  C2  UNL     1      -0.123   3.124 -11.145  1.00  0.00     0.039 A 
HETATM    3  N1  UNL     1       1.139   2.675 -11.191  1.00  0.00    -0.366 N 
ATOM      4  H1  UNL     1       1.322   1.694 -10.981  1.00  0.00     0.165 HD
HETATM    5  C3  UNL     1       2.172   3.479 -11.503  1.00  0.00     0.106 A 
HETATM    6  C4  UNL     1       1.994   4.816 -11.795  1.00  0.00     0.066 A 
HETATM    7  C5  UNL     1       0.704   5.298 -11.754  1.00  0.00     0.019 A 
HETATM    8  C6  UNL     1      -0.341   4.459 -11.433  1.00  0.00     0.097 A 
HETATM    9  C7  UNL     1       0.791   6.733 -12.100  1.00  0.00     0.222 A 
HETATM   10  O2  UNL     1       2.133   7.063 -12.339  1.00  0.00    -0.313 OA
HETATM   11  C8  UNL     1       2.880   5.917 -12.158  1.00  0.00     0.295 A 
HETATM   12  O3  UNL     1       4.145   5.848 -12.293  1.00  0.00    -0.259 OA
ENDROOT
BRANCH   8  13
HETATM   13  O1  UNL     1      -1.652   4.952 -11.391  1.00  0.00    -0.358 OA
ATOM     14  H1  UNL     1      -1.802   5.868 -11.594  1.00  0.00     0.217 HD
ENDBRANCH   8  13
TORSDOF 1
ENDMDL
