MODEL 11
REMARK VINA RESULT: -5.287575047      6.233      7.320
REMARK  1 active torsions:
REMARK  status: ('A' for Active; 'I' for Inactive)
REMARK    1  A    between atoms: C6_8  and  O1_9 
ROOT
HETATM    1  C1  UNL     1      -3.325   2.409  -4.719  1.00  0.00     0.071 C 
HETATM    2  C2  UNL     1      -3.137   1.724  -6.044  1.00  0.00     0.039 A 
HETATM    3  N1  UNL     1      -3.663   2.215  -7.174  1.00  0.00    -0.366 N 
ATOM      4  H1  UNL     1      -4.206   3.078  -7.132  1.00  0.00     0.165 HD
HETATM    5  C3  UNL     1      -3.497   1.607  -8.363  1.00  0.00     0.106 A 
HETATM    6  C4  UNL     1      -2.775   0.438  -8.490  1.00  0.00     0.066 A 
HETATM    7  C5  UNL     1      -2.225  -0.085  -7.339  1.00  0.00     0.019 A 
HETATM    8  C6  UNL     1      -2.406   0.554  -6.131  1.00  0.00     0.097 A 
HETATM    9  C7  UNL     1      -1.516  -1.317  -7.747  1.00  0.00     0.222 A 
HETATM   10  O2  UNL     1      -1.664  -1.491  -9.131  1.00  0.00    -0.313 OA
HETATM   11  C8  UNL     1      -2.424  -0.440  -9.601  1.00  0.00     0.295 A 
HETATM   12  O3  UNL     1      -2.758  -0.276 -10.820  1.00  0.00    -0.259 OA
ENDROOT
BRANCH   8  13
HETATM   13  O1  UNL     1      -1.846   0.019  -4.964  1.00  0.00    -0.358 OA
ATOM     14  H1  UNL     1      -1.767  -0.924  -4.885  1.00  0.00     0.217 HD
ENDBRANCH   8  13
TORSDOF 1
ENDMDL
