MODEL 5
REMARK VINA RESULT: -6.878422804      1.672      2.540
REMARK  1 active torsions:
REMARK  status: ('A' for Active; 'I' for Inactive)
REMARK    1  A    between atoms: C6_8  and  O1_9 
ROOT
HETATM    1  C1  UNL     1       3.994   5.477 -12.474  1.00  0.00     0.071 C 
HETATM    2  C2  UNL     1       2.528   5.342 -12.163  1.00  0.00     0.039 A 
HETATM    3  N1  UNL     1       1.719   6.407 -12.101  1.00  0.00    -0.366 N 
ATOM      4  H1  UNL     1       2.109   7.335 -12.268  1.00  0.00     0.165 HD
HETATM    5  C3  UNL     1       0.407   6.291 -11.824  1.00  0.00     0.106 A 
HETATM    6  C4  UNL     1      -0.185   5.067 -11.586  1.00  0.00     0.066 A 
HETATM    7  C5  UNL     1       0.631   3.958 -11.645  1.00  0.00     0.019 A 
HETATM    8  C6  UNL     1       1.973   4.097 -11.932  1.00  0.00     0.097 A 
HETATM    9  C7  UNL     1      -0.236   2.796 -11.358  1.00  0.00     0.222 A 
HETATM   10  O2  UNL     1      -1.545   3.249 -11.136  1.00  0.00    -0.313 OA
HETATM   11  C8  UNL     1      -1.537   4.622 -11.268  1.00  0.00     0.295 A 
HETATM   12  O3  UNL     1      -2.560   5.369 -11.132  1.00  0.00    -0.259 OA
ENDROOT
BRANCH   8  13
HETATM   13  O1  UNL     1       2.799   2.967 -11.990  1.00  0.00    -0.358 OA
ATOM     14  H1  UNL     1       2.936   2.459 -11.200  1.00  0.00     0.217 HD
ENDBRANCH   8  13
TORSDOF 1
ENDMDL
