MODEL 11
REMARK VINA RESULT: -6.566388308      5.284      7.340
REMARK  0 active torsions:
REMARK  status: ('A' for Active; 'I' for Inactive)
ROOT
HETATM    1  O1  UNL     1      29.675  28.478  51.711  1.00  0.00    -0.264 OA
HETATM    2  C1  UNL     1      29.826  28.489  50.462  1.00  0.00     0.292 A 
HETATM    3  N1  UNL     1      30.676  27.644  49.859  1.00  0.00    -0.318 N 
ATOM      4  H1  UNL     1      31.212  26.979  50.417  1.00  0.00     0.169 HD
HETATM    5  C2  UNL     1      30.826  27.670  48.516  1.00  0.00     0.062 A 
HETATM    6  C3  UNL     1      31.717  26.771  47.966  1.00  0.00     0.032 A 
HETATM    7  C4  UNL     1      31.885  26.779  46.606  1.00  0.00     0.002 A 
HETATM    8  C5  UNL     1      31.172  27.670  45.832  1.00  0.00     0.002 A 
HETATM    9  C6  UNL     1      30.280  28.569  46.381  1.00  0.00     0.032 A 
HETATM   10  C7  UNL     1      30.116  28.556  47.742  1.00  0.00     0.070 A 
HETATM   11  N2  UNL     1      29.260  29.413  48.316  1.00  0.00    -0.268 N 
HETATM   12  C8  UNL     1      28.463  30.358  47.807  1.00  0.00     0.179 A 
HETATM   13  S1  UNL     1      28.189  30.894  46.132  1.00  0.00    -0.011 SA
HETATM   14  N3  UNL     1      27.820  30.914  48.851  1.00  0.00    -0.277 N 
ATOM     15  H3  UNL     1      27.137  31.671  48.792  1.00  0.00     0.189 HD
HETATM   16  N4  UNL     1      28.215  30.324  49.963  1.00  0.00    -0.278 N 
ATOM     17  H4  UNL     1      27.887  30.552  50.901  1.00  0.00     0.189 HD
HETATM   18  C9  UNL     1      29.127  29.368  49.662  1.00  0.00     0.199 A 
ENDROOT
TORSDOF 0
ENDMDL
