MODEL 12
REMARK VINA RESULT: -6.454601096      4.161      5.612
REMARK  0 active torsions:
REMARK  status: ('A' for Active; 'I' for Inactive)
ROOT
HETATM    1  O1  UNL     1      29.170  29.140  51.006  1.00  0.00    -0.264 OA
HETATM    2  C1  UNL     1      29.076  29.457  49.792  1.00  0.00     0.292 A 
HETATM    3  N1  UNL     1      28.271  30.455  49.397  1.00  0.00    -0.318 N 
ATOM      4  H1  UNL     1      27.724  30.970  50.087  1.00  0.00     0.169 HD
HETATM    5  C2  UNL     1      28.182  30.782  48.088  1.00  0.00     0.062 A 
HETATM    6  C3  UNL     1      27.334  31.820  47.756  1.00  0.00     0.032 A 
HETATM    7  C4  UNL     1      27.228  32.168  46.435  1.00  0.00     0.002 A 
HETATM    8  C5  UNL     1      27.958  31.486  45.485  1.00  0.00     0.002 A 
HETATM    9  C6  UNL     1      28.805  30.448  45.816  1.00  0.00     0.032 A 
HETATM   10  C7  UNL     1      28.908  30.104  47.138  1.00  0.00     0.070 A 
HETATM   11  N2  UNL     1      29.720  29.102  47.503  1.00  0.00    -0.268 N 
HETATM   12  C8  UNL     1      30.520  28.297  46.798  1.00  0.00     0.179 A 
HETATM   13  S1  UNL     1      30.858  28.203  45.052  1.00  0.00    -0.011 SA
HETATM   14  N3  UNL     1      31.104  27.469  47.686  1.00  0.00    -0.277 N 
ATOM     15  H3  UNL     1      31.774  26.734  47.459  1.00  0.00     0.189 HD
HETATM   16  N4  UNL     1      30.671  27.764  48.896  1.00  0.00    -0.278 N 
ATOM     17  H4  UNL     1      30.952  27.292  49.755  1.00  0.00     0.189 HD
HETATM   18  C9  UNL     1      29.793  28.793  48.819  1.00  0.00     0.199 A 
ENDROOT
TORSDOF 0
ENDMDL
