MODEL 1
REMARK VINA RESULT: -8.135626971      0.000      0.000
REMARK  0 active torsions:
REMARK  status: ('A' for Active; 'I' for Inactive)
ROOT
HETATM    1  O1  UNL     1      25.844  35.450  49.681  1.00  0.00    -0.264 OA
HETATM    2  C1  UNL     1      26.211  35.175  48.509  1.00  0.00     0.292 A 
HETATM    3  N1  UNL     1      26.366  36.137  47.588  1.00  0.00    -0.318 N 
ATOM      4  H1  UNL     1      26.185  37.110  47.834  1.00  0.00     0.169 HD
HETATM    5  C2  UNL     1      26.760  35.823  46.333  1.00  0.00     0.062 A 
HETATM    6  C3  UNL     1      26.899  36.864  45.439  1.00  0.00     0.032 A 
HETATM    7  C4  UNL     1      27.298  36.570  44.161  1.00  0.00     0.002 A 
HETATM    8  C5  UNL     1      27.547  35.260  43.806  1.00  0.00     0.002 A 
HETATM    9  C6  UNL     1      27.408  34.218  44.699  1.00  0.00     0.032 A 
HETATM   10  C7  UNL     1      27.010  34.519  45.976  1.00  0.00     0.070 A 
HETATM   11  N2  UNL     1      26.863  33.536  46.875  1.00  0.00    -0.268 N 
HETATM   12  C8  UNL     1      27.036  32.214  46.792  1.00  0.00     0.179 A 
HETATM   13  S1  UNL     1      27.541  31.172  45.439  1.00  0.00    -0.011 SA
HETATM   14  N3  UNL     1      26.745  31.715  48.009  1.00  0.00    -0.277 N 
ATOM     15  H3  UNL     1      26.781  30.729  48.270  1.00  0.00     0.189 HD
HETATM   16  N4  UNL     1      26.403  32.708  48.809  1.00  0.00    -0.278 N 
ATOM     17  H4  UNL     1      26.134  32.611  49.787  1.00  0.00     0.189 HD
HETATM   18  C9  UNL     1      26.467  33.876  48.124  1.00  0.00     0.199 A 
ENDROOT
TORSDOF 0
ENDMDL
