MODEL 5
REMARK VINA RESULT: -7.119618582      3.165      4.541
REMARK  0 active torsions:
REMARK  status: ('A' for Active; 'I' for Inactive)
ROOT
HETATM    1  O1  UNL     1      21.935  33.439  45.677  1.00  0.00    -0.264 OA
HETATM    2  C1  UNL     1      23.191  33.456  45.616  1.00  0.00     0.292 A 
HETATM    3  N1  UNL     1      23.900  32.317  45.616  1.00  0.00    -0.318 N 
ATOM      4  H1  UNL     1      23.418  31.419  45.664  1.00  0.00     0.169 HD
HETATM    5  C2  UNL     1      25.250  32.353  45.550  1.00  0.00     0.062 A 
HETATM    6  C3  UNL     1      25.912  31.142  45.554  1.00  0.00     0.032 A 
HETATM    7  C4  UNL     1      27.280  31.155  45.489  1.00  0.00     0.002 A 
HETATM    8  C5  UNL     1      27.953  32.357  45.422  1.00  0.00     0.002 A 
HETATM    9  C6  UNL     1      27.292  33.569  45.419  1.00  0.00     0.032 A 
HETATM   10  C7  UNL     1      25.923  33.550  45.484  1.00  0.00     0.070 A 
HETATM   11  N2  UNL     1      25.242  34.704  45.484  1.00  0.00    -0.268 N 
HETATM   12  C8  UNL     1      25.640  35.978  45.428  1.00  0.00     0.179 A 
HETATM   13  S1  UNL     1      27.263  36.704  45.330  1.00  0.00    -0.011 SA
HETATM   14  N3  UNL     1      24.522  36.728  45.459  1.00  0.00    -0.277 N 
ATOM     15  H3  UNL     1      24.490  37.748  45.431  1.00  0.00     0.189 HD
HETATM   16  N4  UNL     1      23.473  35.931  45.532  1.00  0.00    -0.278 N 
ATOM     17  H4  UNL     1      22.501  36.236  45.569  1.00  0.00     0.189 HD
HETATM   18  C9  UNL     1      23.891  34.642  45.549  1.00  0.00     0.199 A 
ENDROOT
TORSDOF 0
ENDMDL
