MODEL 14
REMARK VINA RESULT: -6.269859905      1.663      1.745
REMARK  0 active torsions:
REMARK  status: ('A' for Active; 'I' for Inactive)
ROOT
HETATM    1  O1  UNL     1      25.731  35.032  49.353  1.00  0.00    -0.264 OA
HETATM    2  C1  UNL     1      25.943  35.114  48.115  1.00  0.00     0.292 A 
HETATM    3  N1  UNL     1      26.666  36.121  47.602  1.00  0.00    -0.318 N 
ATOM      4  H1  UNL     1      27.052  36.835  48.219  1.00  0.00     0.169 HD
HETATM    5  C2  UNL     1      26.884  36.194  46.269  1.00  0.00     0.062 A 
HETATM    6  C3  UNL     1      27.636  37.257  45.813  1.00  0.00     0.032 A 
HETATM    7  C4  UNL     1      27.870  37.352  44.466  1.00  0.00     0.002 A 
HETATM    8  C5  UNL     1      27.356  36.398  43.613  1.00  0.00     0.002 A 
HETATM    9  C6  UNL     1      26.604  35.334  44.068  1.00  0.00     0.032 A 
HETATM   10  C7  UNL     1      26.374  35.245  45.416  1.00  0.00     0.070 A 
HETATM   11  N2  UNL     1      25.648  34.227  45.900  1.00  0.00    -0.268 N 
HETATM   12  C8  UNL     1      25.049  33.192  45.304  1.00  0.00     0.179 A 
HETATM   13  S1  UNL     1      24.954  32.709  43.593  1.00  0.00    -0.011 SA
HETATM   14  N3  UNL     1      24.460  32.479  46.283  1.00  0.00    -0.277 N 
ATOM     15  H3  UNL     1      23.919  31.624  46.150  1.00  0.00     0.189 HD
HETATM   16  N4  UNL     1      24.694  33.066  47.441  1.00  0.00    -0.278 N 
ATOM     17  H4  UNL     1      24.363  32.736  48.348  1.00  0.00     0.189 HD
HETATM   18  C9  UNL     1      25.444  34.176  47.237  1.00  0.00     0.199 A 
ENDROOT
TORSDOF 0
ENDMDL
