MODEL 3
REMARK VINA RESULT: -6.755934777      0.896      1.655
REMARK  3 active torsions:
REMARK  status: ('A' for Active; 'I' for Inactive)
REMARK    1  A    between atoms: C1_2  and  C2_4 
REMARK    2  A    between atoms: C2_4  and  C3_6 
REMARK    3  A    between atoms: C3_6  and  C4_7 
ROOT
HETATM    1  C4  UNL     1      13.222 100.829 158.519  1.00  0.00    -0.051 A 
HETATM    2  C5  UNL     1      12.843 100.206 157.343  1.00  0.00     0.007 A 
HETATM    3  C6  UNL     1      13.652  99.254 156.781  1.00  0.00     0.001 A 
HETATM    4  C7  UNL     1      14.866  98.869 157.340  1.00  0.00     0.000 A 
HETATM    5  C8  UNL     1      15.228  99.503 158.512  1.00  0.00     0.001 A 
HETATM    6  C9  UNL     1      14.411 100.460 159.075  1.00  0.00     0.007 A 
ENDROOT
BRANCH   1   7
HETATM    7  C3  UNL     1      12.397 101.867 159.182  1.00  0.00     0.129 C 
BRANCH   7   8
HETATM    8  C2  UNL     1      11.136 101.320 159.708  1.00  0.00     0.229 C 
HETATM    9  O3  UNL     1      11.139 100.282 160.394  1.00  0.00    -0.285 OA
BRANCH   8  10
HETATM   10  C1  UNL     1       9.893 101.999 159.423  1.00  0.00     0.247 C 
HETATM   11  O1  UNL     1       9.752 102.693 158.374  1.00  0.00    -0.642 OA
HETATM   12  O2  UNL     1       8.792 101.938 160.262  1.00  0.00    -0.642 OA
ENDBRANCH   8  10
ENDBRANCH   7   8
ENDBRANCH   1   7
TORSDOF 3
ENDMDL
