MODEL 18
REMARK VINA RESULT: -5.237327777      2.587      5.159
REMARK  3 active torsions:
REMARK  status: ('A' for Active; 'I' for Inactive)
REMARK    1  A    between atoms: C1_2  and  C2_4 
REMARK    2  A    between atoms: C2_4  and  C3_6 
REMARK    3  A    between atoms: C3_6  and  C4_7 
ROOT
HETATM    1  C4  UNL     1      12.070 101.625 159.152  1.00  0.00    -0.051 A 
HETATM    2  C5  UNL     1      11.177 100.856 159.877  1.00  0.00     0.007 A 
HETATM    3  C6  UNL     1       9.964 101.378 160.244  1.00  0.00     0.001 A 
HETATM    4  C7  UNL     1       9.571 102.672 159.921  1.00  0.00     0.000 A 
HETATM    5  C8  UNL     1      10.476 103.424 159.199  1.00  0.00     0.001 A 
HETATM    6  C9  UNL     1      11.694 102.895 158.831  1.00  0.00     0.007 A 
ENDROOT
BRANCH   1   7
HETATM    7  C3  UNL     1      13.398 101.126 158.722  1.00  0.00     0.129 C 
BRANCH   7   8
HETATM    8  C2  UNL     1      13.303 100.230 157.558  1.00  0.00     0.229 C 
HETATM    9  O3  UNL     1      12.304 100.266 156.817  1.00  0.00    -0.285 OA
BRANCH   8  10
HETATM   10  C1  UNL     1      14.381  99.308 157.281  1.00  0.00     0.247 C 
HETATM   11  O1  UNL     1      14.578  98.864 156.113  1.00  0.00    -0.642 OA
HETATM   12  O2  UNL     1      15.254  98.856 158.258  1.00  0.00    -0.642 OA
ENDBRANCH   8  10
ENDBRANCH   7   8
ENDBRANCH   1   7
TORSDOF 3
ENDMDL
