MODEL 5
REMARK VINA RESULT: -6.696997067      1.000      2.046
REMARK  3 active torsions:
REMARK  status: ('A' for Active; 'I' for Inactive)
REMARK    1  A    between atoms: C1_2  and  C2_4 
REMARK    2  A    between atoms: C2_4  and  C3_6 
REMARK    3  A    between atoms: C3_6  and  C4_7 
ROOT
HETATM    1  C4  UNL     1      13.093 101.126 158.155  1.00  0.00    -0.051 A 
HETATM    2  C5  UNL     1      12.738 100.209 157.181  1.00  0.00     0.007 A 
HETATM    3  C6  UNL     1      13.539  99.124 156.938  1.00  0.00     0.001 A 
HETATM    4  C7  UNL     1      14.719  98.886 157.634  1.00  0.00     0.000 A 
HETATM    5  C8  UNL     1      15.056  99.811 158.601  1.00  0.00     0.001 A 
HETATM    6  C9  UNL     1      14.248 100.902 158.843  1.00  0.00     0.007 A 
ENDROOT
BRANCH   1   7
HETATM    7  C3  UNL     1      12.276 102.322 158.470  1.00  0.00     0.129 C 
BRANCH   7   8
HETATM    8  C2  UNL     1      10.876 101.976 158.764  1.00  0.00     0.229 C 
HETATM    9  O3  UNL     1       9.979 102.235 157.943  1.00  0.00    -0.285 OA
BRANCH   8  10
HETATM   10  C1  UNL     1      10.552 101.330 160.016  1.00  0.00     0.247 C 
HETATM   11  O1  UNL     1       9.709 101.835 160.813  1.00  0.00    -0.642 OA
HETATM   12  O2  UNL     1      11.131 100.138 160.420  1.00  0.00    -0.642 OA
ENDBRANCH   8  10
ENDBRANCH   7   8
ENDBRANCH   1   7
TORSDOF 3
ENDMDL
