MODEL 19
REMARK VINA RESULT: -5.211023274      2.579      5.137
REMARK  3 active torsions:
REMARK  status: ('A' for Active; 'I' for Inactive)
REMARK    1  A    between atoms: C1_2  and  C2_4 
REMARK    2  A    between atoms: C2_4  and  C3_6 
REMARK    3  A    between atoms: C3_6  and  C4_7 
ROOT
HETATM    1  C4  UNL     1      12.079 101.649 159.160  1.00  0.00    -0.051 A 
HETATM    2  C5  UNL     1      11.708 102.936 158.811  1.00  0.00     0.007 A 
HETATM    3  C6  UNL     1      10.481 103.419 159.181  1.00  0.00     0.001 A 
HETATM    4  C7  UNL     1       9.562 102.668 159.908  1.00  0.00     0.000 A 
HETATM    5  C8  UNL     1       9.950 101.386 160.245  1.00  0.00     0.001 A 
HETATM    6  C9  UNL     1      11.186 100.905 159.870  1.00  0.00     0.007 A 
ENDROOT
BRANCH   1   7
HETATM    7  C3  UNL     1      13.390 101.063 158.792  1.00  0.00     0.129 C 
BRANCH   7   8
HETATM    8  C2  UNL     1      13.305 100.228 157.582  1.00  0.00     0.229 C 
HETATM    9  O3  UNL     1      12.321 100.318 156.825  1.00  0.00    -0.285 OA
BRANCH   8  10
HETATM   10  C1  UNL     1      14.373  99.304 157.280  1.00  0.00     0.247 C 
HETATM   11  O1  UNL     1      14.556  98.878 156.103  1.00  0.00    -0.642 OA
HETATM   12  O2  UNL     1      15.253  98.831 158.240  1.00  0.00    -0.642 OA
ENDBRANCH   8  10
ENDBRANCH   7   8
ENDBRANCH   1   7
TORSDOF 3
ENDMDL
