MODEL 1
REMARK VINA RESULT: -6.918969731      0.000      0.000
REMARK  3 active torsions:
REMARK  status: ('A' for Active; 'I' for Inactive)
REMARK    1  A    between atoms: C1_2  and  C2_4 
REMARK    2  A    between atoms: C2_4  and  C3_6 
REMARK    3  A    between atoms: C3_6  and  C4_7 
ROOT
HETATM    1  C4  UNL     1      12.701 100.832 158.211  1.00  0.00    -0.051 A 
HETATM    2  C5  UNL     1      13.832 100.962 158.999  1.00  0.00     0.007 A 
HETATM    3  C6  UNL     1      14.949 100.221 158.720  1.00  0.00     0.001 A 
HETATM    4  C7  UNL     1      15.013  99.320 157.662  1.00  0.00     0.000 A 
HETATM    5  C8  UNL     1      13.875  99.203 156.889  1.00  0.00     0.001 A 
HETATM    6  C9  UNL     1      12.753  99.952 157.172  1.00  0.00     0.007 A 
ENDROOT
BRANCH   1   7
HETATM    7  C3  UNL     1      11.458 101.602 158.455  1.00  0.00     0.129 C 
BRANCH   7   8
HETATM    8  C2  UNL     1      10.836 101.257 159.743  1.00  0.00     0.229 C 
HETATM    9  O3  UNL     1      11.123 100.189 160.314  1.00  0.00    -0.285 OA
BRANCH   8  10
HETATM   10  C1  UNL     1       9.888 102.169 160.342  1.00  0.00     0.247 C 
HETATM   11  O1  UNL     1      10.273 103.124 161.076  1.00  0.00    -0.642 OA
HETATM   12  O2  UNL     1       8.519 102.061 160.155  1.00  0.00    -0.642 OA
ENDBRANCH   8  10
ENDBRANCH   7   8
ENDBRANCH   1   7
TORSDOF 3
ENDMDL
