MODEL 17
REMARK VINA RESULT: -5.297183904      2.872      4.785
REMARK  3 active torsions:
REMARK  status: ('A' for Active; 'I' for Inactive)
REMARK    1  A    between atoms: C1_2  and  C2_4 
REMARK    2  A    between atoms: C2_4  and  C3_6 
REMARK    3  A    between atoms: C3_6  and  C4_7 
ROOT
HETATM    1  C4  UNL     1      12.934 101.233 159.099  1.00  0.00    -0.051 A 
HETATM    2  C5  UNL     1      12.235 100.361 159.916  1.00  0.00     0.007 A 
HETATM    3  C6  UNL     1      10.911 100.589 160.186  1.00  0.00     0.001 A 
HETATM    4  C7  UNL     1      10.212 101.675 159.671  1.00  0.00     0.000 A 
HETATM    5  C8  UNL     1      10.926 102.534 158.860  1.00  0.00     0.001 A 
HETATM    6  C9  UNL     1      12.258 102.301 158.590  1.00  0.00     0.007 A 
ENDROOT
BRANCH   1   7
HETATM    7  C3  UNL     1      14.366 101.049 158.766  1.00  0.00     0.129 C 
BRANCH   7   8
HETATM    8  C2  UNL     1      14.638  99.717 158.201  1.00  0.00     0.229 C 
HETATM    9  O3  UNL     1      15.359  98.909 158.815  1.00  0.00    -0.285 OA
BRANCH   8  10
HETATM   10  C1  UNL     1      14.059  99.353 156.928  1.00  0.00     0.247 C 
HETATM   11  O1  UNL     1      14.776  98.902 155.989  1.00  0.00    -0.642 OA
HETATM   12  O2  UNL     1      12.706  99.472 156.655  1.00  0.00    -0.642 OA
ENDBRANCH   8  10
ENDBRANCH   7   8
ENDBRANCH   1   7
TORSDOF 3
ENDMDL
