MODEL 4
REMARK VINA RESULT: -6.748852752      0.889      1.013
REMARK  3 active torsions:
REMARK  status: ('A' for Active; 'I' for Inactive)
REMARK    1  A    between atoms: C1_2  and  C2_4 
REMARK    2  A    between atoms: C2_4  and  C3_6 
REMARK    3  A    between atoms: C3_6  and  C4_7 
ROOT
HETATM    1  C4  UNL     1      13.243 100.874 158.524  1.00  0.00    -0.051 A 
HETATM    2  C5  UNL     1      14.433 100.504 159.126  1.00  0.00     0.007 A 
HETATM    3  C6  UNL     1      15.199  99.511 158.574  1.00  0.00     0.001 A 
HETATM    4  C7  UNL     1      14.838  98.836 157.413  1.00  0.00     0.000 A 
HETATM    5  C8  UNL     1      13.647  99.219 156.828  1.00  0.00     0.001 A 
HETATM    6  C9  UNL     1      12.880 100.218 157.386  1.00  0.00     0.007 A 
ENDROOT
BRANCH   1   7
HETATM    7  C3  UNL     1      12.365 101.938 159.066  1.00  0.00     0.129 C 
BRANCH   7   8
HETATM    8  C2  UNL     1      11.138 101.392 159.668  1.00  0.00     0.229 C 
HETATM    9  O3  UNL     1      11.190 100.382 160.393  1.00  0.00    -0.285 OA
BRANCH   8  10
HETATM   10  C1  UNL     1       9.872 102.039 159.412  1.00  0.00     0.247 C 
HETATM   11  O1  UNL     1       9.694 102.742 158.375  1.00  0.00    -0.642 OA
HETATM   12  O2  UNL     1       8.787 101.936 160.268  1.00  0.00    -0.642 OA
ENDBRANCH   8  10
ENDBRANCH   7   8
ENDBRANCH   1   7
TORSDOF 3
ENDMDL
