MODEL 2
REMARK VINA RESULT: -6.882546737      0.046      1.359
REMARK  3 active torsions:
REMARK  status: ('A' for Active; 'I' for Inactive)
REMARK    1  A    between atoms: C1_2  and  C2_4 
REMARK    2  A    between atoms: C2_4  and  C3_6 
REMARK    3  A    between atoms: C3_6  and  C4_7 
ROOT
HETATM    1  C4  UNL     1      12.691 100.857 158.174  1.00  0.00    -0.051 A 
HETATM    2  C5  UNL     1      12.735  99.952 157.128  1.00  0.00     0.007 A 
HETATM    3  C6  UNL     1      13.870  99.217 156.906  1.00  0.00     0.001 A 
HETATM    4  C7  UNL     1      15.011  99.333 157.693  1.00  0.00     0.000 A 
HETATM    5  C8  UNL     1      14.948 100.241 158.731  1.00  0.00     0.001 A 
HETATM    6  C9  UNL     1      13.804 100.979 158.952  1.00  0.00     0.007 A 
ENDROOT
BRANCH   1   7
HETATM    7  C3  UNL     1      11.498 101.685 158.472  1.00  0.00     0.129 C 
BRANCH   7   8
HETATM    8  C2  UNL     1      10.859 101.300 159.740  1.00  0.00     0.229 C 
HETATM    9  O3  UNL     1      11.145 100.220 160.286  1.00  0.00    -0.285 OA
BRANCH   8  10
HETATM   10  C1  UNL     1       9.895 102.189 160.348  1.00  0.00     0.247 C 
HETATM   11  O1  UNL     1      10.263 103.137 161.102  1.00  0.00    -0.642 OA
HETATM   12  O2  UNL     1       8.529 102.066 160.151  1.00  0.00    -0.642 OA
ENDBRANCH   8  10
ENDBRANCH   7   8
ENDBRANCH   1   7
TORSDOF 3
ENDMDL
