MODEL 2
REMARK VINA RESULT: -7.891762144      4.163      5.109
REMARK  2 active torsions:
REMARK  status: ('A' for Active; 'I' for Inactive)
REMARK    1  A    between atoms: C4_7  and  C5_8 
REMARK    2  A    between atoms: C15_19  and  O2_20 
ROOT
HETATM    1  O1  UNL     1       8.686  20.245  -8.808  1.00  0.00    -0.265 OA
HETATM    2  C1  UNL     1       9.365  20.856  -9.678  1.00  0.00     0.279 A 
HETATM    3  N1  UNL     1       9.417  20.455 -10.973  1.00  0.00    -0.321 N 
ATOM      4  H1  UNL     1       8.892  19.630 -11.264  1.00  0.00     0.169 HD
HETATM    5  C2  UNL     1      10.147  21.125 -11.881  1.00  0.00     0.046 A 
HETATM    6  C3  UNL     1      10.177  20.688 -13.186  1.00  0.00     0.042 A 
HETATM    7  C4  UNL     1      10.912  21.346 -14.148  1.00  0.00    -0.024 A 
HETATM    8  C11 UNL     1      11.629  22.467 -13.773  1.00  0.00     0.013 A 
HETATM    9  C12 UNL     1      11.614  22.921 -12.474  1.00  0.00     0.014 A 
HETATM   10  C13 UNL     1      10.870  22.248 -11.521  1.00  0.00    -0.006 A 
HETATM   11  C14 UNL     1      10.825  22.671 -10.195  1.00  0.00     0.056 A 
HETATM   12  C15 UNL     1      10.066  21.961  -9.284  1.00  0.00     0.135 A 
ENDROOT
BRANCH   7  13
HETATM   13  C5  UNL     1      10.975  20.893 -15.526  1.00  0.00    -0.026 A 
HETATM   14  C6  UNL     1      10.898  21.803 -16.569  1.00  0.00     0.015 A 
HETATM   15  C7  UNL     1      10.975  21.373 -17.877  1.00  0.00     0.043 A 
HETATM   16  C8  UNL     1      11.131  20.034 -18.154  1.00  0.00     0.116 A 
HETATM   17  F1  UNL     1      11.202  19.649 -19.458  1.00  0.00    -0.206 F 
HETATM   18  C9  UNL     1      11.208  19.130 -17.125  1.00  0.00     0.043 A 
HETATM   19  C10 UNL     1      11.130  19.543 -15.801  1.00  0.00     0.015 A 
ENDBRANCH   7  13
BRANCH  12  20
HETATM   20  O2  UNL     1      10.026  22.390  -7.962  1.00  0.00    -0.356 OA
ATOM     21  H2  UNL     1       9.374  22.049  -7.363  1.00  0.00     0.218 HD
ENDBRANCH  12  20
TORSDOF 2
ENDMDL
