MODEL 1
REMARK VINA RESULT: -7.999315595      0.000      0.000
REMARK  2 active torsions:
REMARK  status: ('A' for Active; 'I' for Inactive)
REMARK    1  A    between atoms: C4_7  and  C5_8 
REMARK    2  A    between atoms: C15_19  and  O2_20 
ROOT
HETATM    1  O1  UNL     1      14.832  25.466 -10.461  1.00  0.00    -0.265 OA
HETATM    2  C1  UNL     1      13.923  24.592 -10.507  1.00  0.00     0.279 A 
HETATM    3  N1  UNL     1      14.145  23.335 -10.967  1.00  0.00    -0.321 N 
ATOM      4  H1  UNL     1      15.078  23.077 -11.290  1.00  0.00     0.169 HD
HETATM    5  C2  UNL     1      13.159  22.423 -11.004  1.00  0.00     0.046 A 
HETATM    6  C3  UNL     1      13.422  21.156 -11.477  1.00  0.00     0.042 A 
HETATM    7  C4  UNL     1      12.440  20.191 -11.531  1.00  0.00    -0.024 A 
HETATM    8  C11 UNL     1      11.171  20.521 -11.096  1.00  0.00     0.013 A 
HETATM    9  C12 UNL     1      10.885  21.781 -10.620  1.00  0.00     0.014 A 
HETATM   10  C13 UNL     1      11.883  22.738 -10.573  1.00  0.00    -0.006 A 
HETATM   11  C14 UNL     1      11.641  24.025 -10.098  1.00  0.00     0.056 A 
HETATM   12  C15 UNL     1      12.675  24.942 -10.073  1.00  0.00     0.135 A 
ENDROOT
BRANCH   7  13
HETATM   13  C5  UNL     1      12.688  18.856 -12.044  1.00  0.00    -0.026 A 
HETATM   14  C6  UNL     1      13.588  18.014 -11.409  1.00  0.00     0.015 A 
HETATM   15  C7  UNL     1      13.810  16.740 -11.888  1.00  0.00     0.043 A 
HETATM   16  C8  UNL     1      13.135  16.296 -13.002  1.00  0.00     0.116 A 
HETATM   17  F1  UNL     1      13.381  15.032 -13.444  1.00  0.00    -0.206 F 
HETATM   18  C9  UNL     1      12.243  17.125 -13.634  1.00  0.00     0.043 A 
HETATM   19  C10 UNL     1      12.007  18.412 -13.168  1.00  0.00     0.015 A 
ENDBRANCH   7  13
BRANCH  12  20
HETATM   20  O2  UNL     1      12.425  26.224  -9.598  1.00  0.00    -0.356 OA
ATOM     21  H2  UNL     1      11.545  26.580  -9.610  1.00  0.00     0.218 HD
ENDBRANCH  12  20
TORSDOF 2
ENDMDL
