MODEL 4
REMARK VINA RESULT: -7.666980533      1.109      1.349
REMARK  2 active torsions:
REMARK  status: ('A' for Active; 'I' for Inactive)
REMARK    1  A    between atoms: C4_7  and  C5_8 
REMARK    2  A    between atoms: C15_19  and  O2_20 
ROOT
HETATM    1  O1  UNL     1      15.731  25.764  -9.527  1.00  0.00    -0.265 OA
HETATM    2  C1  UNL     1      14.691  25.208  -9.974  1.00  0.00     0.279 A 
HETATM    3  N1  UNL     1      14.682  23.920 -10.401  1.00  0.00    -0.321 N 
ATOM      4  H1  UNL     1      15.542  23.373 -10.363  1.00  0.00     0.169 HD
HETATM    5  C2  UNL     1      13.560  23.350 -10.873  1.00  0.00     0.046 A 
HETATM    6  C3  UNL     1      13.589  22.041 -11.298  1.00  0.00     0.042 A 
HETATM    7  C4  UNL     1      12.460  21.419 -11.787  1.00  0.00    -0.024 A 
HETATM    8  C11 UNL     1      11.285  22.143 -11.845  1.00  0.00     0.013 A 
HETATM    9  C12 UNL     1      11.233  23.453 -11.427  1.00  0.00     0.014 A 
HETATM   10  C13 UNL     1      12.376  24.062 -10.938  1.00  0.00    -0.006 A 
HETATM   11  C14 UNL     1      12.371  25.385 -10.503  1.00  0.00     0.056 A 
HETATM   12  C15 UNL     1      13.541  25.943 -10.023  1.00  0.00     0.135 A 
ENDROOT
BRANCH   7  13
HETATM   13  C5  UNL     1      12.471  20.046 -12.259  1.00  0.00    -0.026 A 
HETATM   14  C6  UNL     1      13.206  19.078 -11.592  1.00  0.00     0.015 A 
HETATM   15  C7  UNL     1      13.201  17.772 -12.032  1.00  0.00     0.043 A 
HETATM   16  C8  UNL     1      12.462  17.420 -13.138  1.00  0.00     0.116 A 
HETATM   17  F1  UNL     1      12.483  16.120 -13.541  1.00  0.00    -0.206 F 
HETATM   18  C9  UNL     1      11.733  18.373 -13.801  1.00  0.00     0.043 A 
HETATM   19  C10 UNL     1      11.726  19.695 -13.375  1.00  0.00     0.015 A 
ENDBRANCH   7  13
BRANCH  12  20
HETATM   20  O2  UNL     1      13.527  27.265  -9.591  1.00  0.00    -0.356 OA
ATOM     21  H2  UNL     1      14.219  27.864  -9.846  1.00  0.00     0.218 HD
ENDBRANCH  12  20
TORSDOF 2
ENDMDL
