MODEL 3
REMARK VINA RESULT: -7.683016414      1.330      1.991
REMARK  2 active torsions:
REMARK  status: ('A' for Active; 'I' for Inactive)
REMARK    1  A    between atoms: C4_7  and  C5_8 
REMARK    2  A    between atoms: C15_19  and  O2_20 
ROOT
HETATM    1  O1  UNL     1      15.874  25.622  -9.375  1.00  0.00    -0.265 OA
HETATM    2  C1  UNL     1      14.816  25.180  -9.900  1.00  0.00     0.279 A 
HETATM    3  N1  UNL     1      14.708  23.906 -10.356  1.00  0.00    -0.321 N 
ATOM      4  H1  UNL     1      15.505  23.275 -10.275  1.00  0.00     0.169 HD
HETATM    5  C2  UNL     1      13.568  23.460 -10.911  1.00  0.00     0.046 A 
HETATM    6  C3  UNL     1      13.496  22.161 -11.362  1.00  0.00     0.042 A 
HETATM    7  C4  UNL     1      12.346  21.663 -11.937  1.00  0.00    -0.024 A 
HETATM    8  C11 UNL     1      11.254  22.502 -12.053  1.00  0.00     0.013 A 
HETATM    9  C12 UNL     1      11.305  23.804 -11.609  1.00  0.00     0.014 A 
HETATM   10  C13 UNL     1      12.468  24.288 -11.035  1.00  0.00    -0.006 A 
HETATM   11  C14 UNL     1      12.565  25.597 -10.571  1.00  0.00     0.056 A 
HETATM   12  C15 UNL     1      13.750  26.027 -10.005  1.00  0.00     0.135 A 
ENDROOT
BRANCH   7  13
HETATM   13  C5  UNL     1      12.251  20.304 -12.438  1.00  0.00    -0.026 A 
HETATM   14  C6  UNL     1      11.489  20.021 -13.562  1.00  0.00     0.015 A 
HETATM   15  C7  UNL     1      11.414  18.732 -14.047  1.00  0.00     0.043 A 
HETATM   16  C8  UNL     1      12.098  17.718 -13.417  1.00  0.00     0.116 A 
HETATM   17  F1  UNL     1      11.999  16.459 -13.925  1.00  0.00    -0.206 F 
HETATM   18  C9  UNL     1      12.853  17.993 -12.305  1.00  0.00     0.043 A 
HETATM   19  C10 UNL     1      12.940  19.284 -11.800  1.00  0.00     0.015 A 
ENDBRANCH   7  13
BRANCH  12  20
HETATM   20  O2  UNL     1      13.839  27.337  -9.545  1.00  0.00    -0.356 OA
ATOM     21  H2  UNL     1      13.371  27.607  -8.764  1.00  0.00     0.218 HD
ENDBRANCH  12  20
TORSDOF 2
ENDMDL
