MODEL 2
REMARK VINA RESULT: -9.621983228      0.064      3.160
REMARK  6 active torsions:
REMARK  status: ('A' for Active; 'I' for Inactive)
REMARK    1  A    between atoms: C1_2  and  C2_4 
REMARK    2  A    between atoms: C4_6  and  O3_7 
REMARK    3  A    between atoms: O3_7  and  C5_8 
REMARK    4  A    between atoms: C5_8  and  C6_9 
REMARK    5  A    between atoms: C10_13  and  N1_14 
REMARK    6  A    between atoms: C13_19  and  C14_20 
ROOT
HETATM    1  C2  UNL     1      -2.621  34.023  77.818  1.00  0.00     0.044 A 
HETATM    2  C3  UNL     1      -3.434  35.085  78.084  1.00  0.00     0.055 A 
HETATM    3  C4  UNL     1      -3.943  35.292  79.336  1.00  0.00     0.071 A 
HETATM    4  C12 UNL     1      -3.632  34.409  80.365  1.00  0.00     0.055 A 
HETATM    5  C13 UNL     1      -2.806  33.328  80.102  1.00  0.00     0.044 A 
HETATM    6  C15 UNL     1      -2.319  33.155  78.840  1.00  0.00     0.037 A 
ENDROOT
BRANCH   3   7
HETATM    7  O3  UNL     1      -4.766  36.361  79.623  1.00  0.00    -0.347 OA
BRANCH   7   8
HETATM    8  C5  UNL     1      -5.307  36.562  80.910  1.00  0.00     0.214 C 
BRANCH   8   9
HETATM    9  C6  UNL     1      -6.649  35.931  81.042  1.00  0.00    -0.032 A 
HETATM   10  C7  UNL     1      -7.412  35.640  79.918  1.00  0.00     0.009 A 
HETATM   11  C8  UNL     1      -8.651  35.059  80.032  1.00  0.00     0.003 A 
HETATM   12  C9  UNL     1      -9.181  34.746  81.264  1.00  0.00     0.036 A 
HETATM   13  C10 UNL     1      -8.446  35.023  82.410  1.00  0.00     0.103 A 
HETATM   14  C11 UNL     1      -7.190  35.613  82.267  1.00  0.00     0.045 A 
BRANCH  13  15
HETATM   15  N1  UNL     1      -8.976  34.707  83.685  1.00  0.00    -0.116 N 
HETATM   16  O4  UNL     1      -8.592  35.344  84.675  1.00  0.00    -0.532 OA
HETATM   17  O5  UNL     1      -9.903  33.718  83.860  1.00  0.00    -0.532 OA
ENDBRANCH  13  15
ENDBRANCH   8   9
ENDBRANCH   7   8
ENDBRANCH   3   7
BRANCH   1  18
HETATM   18  C1  UNL     1      -2.075  33.802  76.467  1.00  0.00     0.209 C 
HETATM   19  O1  UNL     1      -2.391  34.604  75.555  1.00  0.00    -0.644 OA
HETATM   20  O2  UNL     1      -1.244  32.725  76.266  1.00  0.00    -0.644 OA
ENDBRANCH   1  18
BRANCH   5  21
HETATM   21  C14 UNL     1      -2.482  32.408  81.173  1.00  0.00     0.209 C 
HETATM   22  O6  UNL     1      -2.320  31.180  80.972  1.00  0.00    -0.644 OA
HETATM   23  O7  UNL     1      -2.346  32.887  82.458  1.00  0.00    -0.644 OA
ENDBRANCH   5  21
TORSDOF 6
ENDMDL
