MODEL 17
REMARK VINA RESULT: -8.184185195      0.945      3.527
REMARK  6 active torsions:
REMARK  status: ('A' for Active; 'I' for Inactive)
REMARK    1  A    between atoms: C1_2  and  C2_4 
REMARK    2  A    between atoms: C4_6  and  O3_7 
REMARK    3  A    between atoms: O3_7  and  C5_8 
REMARK    4  A    between atoms: C5_8  and  C6_9 
REMARK    5  A    between atoms: C10_13  and  N1_14 
REMARK    6  A    between atoms: C13_19  and  C14_20 
ROOT
HETATM    1  C2  UNL     1      -2.747  34.237  77.853  1.00  0.00     0.044 A 
HETATM    2  C3  UNL     1      -3.677  35.184  78.162  1.00  0.00     0.055 A 
HETATM    3  C4  UNL     1      -4.187  35.293  79.426  1.00  0.00     0.071 A 
HETATM    4  C12 UNL     1      -3.756  34.423  80.423  1.00  0.00     0.055 A 
HETATM    5  C13 UNL     1      -2.811  33.458  80.117  1.00  0.00     0.044 A 
HETATM    6  C15 UNL     1      -2.327  33.381  78.844  1.00  0.00     0.037 A 
ENDROOT
BRANCH   3   7
HETATM    7  O3  UNL     1      -5.127  36.246  79.757  1.00  0.00    -0.347 OA
BRANCH   7   8
HETATM    8  C5  UNL     1      -6.507  35.954  79.785  1.00  0.00     0.214 C 
BRANCH   8   9
HETATM    9  C6  UNL     1      -6.947  35.527  81.141  1.00  0.00    -0.032 A 
HETATM   10  C7  UNL     1      -6.021  35.129  82.097  1.00  0.00     0.009 A 
HETATM   11  C8  UNL     1      -6.419  34.732  83.350  1.00  0.00     0.003 A 
HETATM   12  C9  UNL     1      -7.751  34.716  83.703  1.00  0.00     0.036 A 
HETATM   13  C10 UNL     1      -8.705  35.107  82.772  1.00  0.00     0.103 A 
HETATM   14  C11 UNL     1      -8.274  35.505  81.507  1.00  0.00     0.045 A 
BRANCH  13  15
HETATM   15  N1  UNL     1     -10.078  35.096  83.119  1.00  0.00    -0.116 N 
HETATM   16  O4  UNL     1     -10.519  34.170  83.813  1.00  0.00    -0.532 OA
HETATM   17  O5  UNL     1     -10.937  36.078  82.711  1.00  0.00    -0.532 OA
ENDBRANCH  13  15
ENDBRANCH   8   9
ENDBRANCH   7   8
ENDBRANCH   3   7
BRANCH   1  18
HETATM   18  C1  UNL     1      -2.201  34.123  76.489  1.00  0.00     0.209 C 
HETATM   19  O1  UNL     1      -2.349  35.090  75.703  1.00  0.00    -0.644 OA
HETATM   20  O2  UNL     1      -1.554  32.961  76.139  1.00  0.00    -0.644 OA
ENDBRANCH   1  18
BRANCH   5  21
HETATM   21  C14 UNL     1      -2.361  32.551  81.154  1.00  0.00     0.209 C 
HETATM   22  O6  UNL     1      -2.039  32.953  82.298  1.00  0.00    -0.644 OA
HETATM   23  O7  UNL     1      -2.280  31.203  80.883  1.00  0.00    -0.644 OA
ENDBRANCH   5  21
TORSDOF 6
ENDMDL
