MODEL 7
REMARK VINA RESULT: -9.043066631      3.028      7.611
REMARK  6 active torsions:
REMARK  status: ('A' for Active; 'I' for Inactive)
REMARK    1  A    between atoms: C1_2  and  C2_4 
REMARK    2  A    between atoms: C4_6  and  O3_7 
REMARK    3  A    between atoms: O3_7  and  C5_8 
REMARK    4  A    between atoms: C5_8  and  C6_9 
REMARK    5  A    between atoms: C10_13  and  N1_14 
REMARK    6  A    between atoms: C13_19  and  C14_20 
ROOT
HETATM    1  C2  UNL     1      -9.033  35.351  82.314  1.00  0.00     0.044 A 
HETATM    2  C3  UNL     1      -8.080  34.972  81.416  1.00  0.00     0.055 A 
HETATM    3  C4  UNL     1      -8.041  35.503  80.156  1.00  0.00     0.071 A 
HETATM    4  C12 UNL     1      -8.989  36.447  79.773  1.00  0.00     0.055 A 
HETATM    5  C13 UNL     1      -9.961  36.837  80.681  1.00  0.00     0.044 A 
HETATM    6  C15 UNL     1      -9.966  36.284  81.928  1.00  0.00     0.037 A 
ENDROOT
BRANCH   3   7
HETATM    7  O3  UNL     1      -7.084  35.133  79.235  1.00  0.00    -0.347 OA
BRANCH   7   8
HETATM    8  C5  UNL     1      -5.979  35.956  78.934  1.00  0.00     0.214 C 
BRANCH   8   9
HETATM    9  C6  UNL     1      -4.693  35.287  79.270  1.00  0.00    -0.032 A 
HETATM   10  C7  UNL     1      -4.368  34.991  80.588  1.00  0.00     0.009 A 
HETATM   11  C8  UNL     1      -3.183  34.375  80.906  1.00  0.00     0.003 A 
HETATM   12  C9  UNL     1      -2.275  34.029  79.930  1.00  0.00     0.036 A 
HETATM   13  C10 UNL     1      -2.566  34.309  78.601  1.00  0.00     0.103 A 
HETATM   14  C11 UNL     1      -3.777  34.936  78.305  1.00  0.00     0.045 A 
BRANCH  13  15
HETATM   15  N1  UNL     1      -1.643  33.960  77.585  1.00  0.00    -0.116 N 
HETATM   16  O4  UNL     1      -0.433  33.947  77.846  1.00  0.00    -0.532 OA
HETATM   17  O5  UNL     1      -2.046  33.635  76.320  1.00  0.00    -0.532 OA
ENDBRANCH  13  15
ENDBRANCH   8   9
ENDBRANCH   7   8
ENDBRANCH   3   7
BRANCH   1  18
HETATM   18  C1  UNL     1      -9.071  34.776  83.671  1.00  0.00     0.209 C 
HETATM   19  O1  UNL     1      -8.333  35.276  84.554  1.00  0.00    -0.644 OA
HETATM   20  O2  UNL     1      -9.914  33.716  83.907  1.00  0.00    -0.644 OA
ENDBRANCH   1  18
BRANCH   5  21
HETATM   21  C14 UNL     1     -10.948  37.819  80.284  1.00  0.00     0.209 C 
HETATM   22  O6  UNL     1     -11.626  37.699  79.234  1.00  0.00    -0.644 OA
HETATM   23  O7  UNL     1     -11.155  38.927  81.077  1.00  0.00    -0.644 OA
ENDBRANCH   5  21
TORSDOF 6
ENDMDL
