MODEL 4
REMARK VINA RESULT: -9.101311633      2.759      6.626
REMARK  6 active torsions:
REMARK  status: ('A' for Active; 'I' for Inactive)
REMARK    1  A    between atoms: C1_2  and  C2_4 
REMARK    2  A    between atoms: C4_6  and  O3_7 
REMARK    3  A    between atoms: O3_7  and  C5_8 
REMARK    4  A    between atoms: C5_8  and  C6_9 
REMARK    5  A    between atoms: C10_13  and  N1_14 
REMARK    6  A    between atoms: C13_19  and  C14_20 
ROOT
HETATM    1  C2  UNL     1      -8.541  35.232  81.274  1.00  0.00     0.044 A 
HETATM    2  C3  UNL     1      -7.292  35.774  81.334  1.00  0.00     0.055 A 
HETATM    3  C4  UNL     1      -6.493  35.839  80.226  1.00  0.00     0.071 A 
HETATM    4  C12 UNL     1      -6.954  35.344  79.010  1.00  0.00     0.055 A 
HETATM    5  C13 UNL     1      -8.223  34.791  78.942  1.00  0.00     0.044 A 
HETATM    6  C15 UNL     1      -8.989  34.744  80.069  1.00  0.00     0.037 A 
ENDROOT
BRANCH   3   7
HETATM    7  O3  UNL     1      -5.227  36.385  80.266  1.00  0.00    -0.347 OA
BRANCH   7   8
HETATM    8  C5  UNL     1      -4.256  35.950  81.193  1.00  0.00     0.214 C 
BRANCH   8   9
HETATM    9  C6  UNL     1      -3.554  34.728  80.714  1.00  0.00    -0.032 A 
HETATM   10  C7  UNL     1      -3.102  33.769  81.612  1.00  0.00     0.009 A 
HETATM   11  C8  UNL     1      -2.453  32.640  81.178  1.00  0.00     0.003 A 
HETATM   12  C9  UNL     1      -2.228  32.418  79.837  1.00  0.00     0.036 A 
HETATM   13  C10 UNL     1      -2.666  33.356  78.911  1.00  0.00     0.103 A 
HETATM   14  C11 UNL     1      -3.322  34.494  79.377  1.00  0.00     0.045 A 
BRANCH  13  15
HETATM   15  N1  UNL     1      -2.441  33.143  77.528  1.00  0.00    -0.116 N 
HETATM   16  O4  UNL     1      -1.378  33.525  77.022  1.00  0.00    -0.532 OA
HETATM   17  O5  UNL     1      -3.364  32.526  76.731  1.00  0.00    -0.532 OA
ENDBRANCH  13  15
ENDBRANCH   8   9
ENDBRANCH   7   8
ENDBRANCH   3   7
BRANCH   1  18
HETATM   18  C1  UNL     1      -9.398  35.163  82.471  1.00  0.00     0.209 C 
HETATM   19  O1  UNL     1     -10.334  35.991  82.585  1.00  0.00    -0.644 OA
HETATM   20  O2  UNL     1      -9.133  34.195  83.410  1.00  0.00    -0.644 OA
ENDBRANCH   1  18
BRANCH   5  21
HETATM   21  C14 UNL     1      -8.704  34.274  77.677  1.00  0.00     0.209 C 
HETATM   22  O6  UNL     1      -9.797  34.638  77.180  1.00  0.00    -0.644 OA
HETATM   23  O7  UNL     1      -7.943  33.352  76.991  1.00  0.00    -0.644 OA
ENDBRANCH   5  21
TORSDOF 6
ENDMDL
