MODEL 1
REMARK VINA RESULT: -9.696183023      0.000      0.000
REMARK  6 active torsions:
REMARK  status: ('A' for Active; 'I' for Inactive)
REMARK    1  A    between atoms: C1_2  and  C2_4 
REMARK    2  A    between atoms: C4_6  and  O3_7 
REMARK    3  A    between atoms: O3_7  and  C5_8 
REMARK    4  A    between atoms: C5_8  and  C6_9 
REMARK    5  A    between atoms: C10_13  and  N1_14 
REMARK    6  A    between atoms: C13_19  and  C14_20 
ROOT
HETATM    1  C2  UNL     1      -2.815  33.332  80.180  1.00  0.00     0.044 A 
HETATM    2  C3  UNL     1      -3.621  34.408  80.404  1.00  0.00     0.055 A 
HETATM    3  C4  UNL     1      -3.935  35.281  79.400  1.00  0.00     0.071 A 
HETATM    4  C12 UNL     1      -3.425  35.078  78.121  1.00  0.00     0.055 A 
HETATM    5  C13 UNL     1      -2.605  33.986  77.885  1.00  0.00     0.044 A 
HETATM    6  C15 UNL     1      -2.316  33.138  78.914  1.00  0.00     0.037 A 
ENDROOT
BRANCH   3   7
HETATM    7  O3  UNL     1      -4.749  36.375  79.608  1.00  0.00    -0.347 OA
BRANCH   7   8
HETATM    8  C5  UNL     1      -5.332  36.643  80.863  1.00  0.00     0.214 C 
BRANCH   8   9
HETATM    9  C6  UNL     1      -6.659  35.982  81.002  1.00  0.00    -0.032 A 
HETATM   10  C7  UNL     1      -7.416  35.665  79.881  1.00  0.00     0.009 A 
HETATM   11  C8  UNL     1      -8.641  35.056  80.001  1.00  0.00     0.003 A 
HETATM   12  C9  UNL     1      -9.161  34.737  81.236  1.00  0.00     0.036 A 
HETATM   13  C10 UNL     1      -8.431  35.040  82.379  1.00  0.00     0.103 A 
HETATM   14  C11 UNL     1      -7.190  35.659  82.230  1.00  0.00     0.045 A 
BRANCH  13  15
HETATM   15  N1  UNL     1      -8.952  34.719  83.657  1.00  0.00    -0.116 N 
HETATM   16  O4  UNL     1      -8.558  35.351  84.646  1.00  0.00    -0.532 OA
HETATM   17  O5  UNL     1      -9.879  33.731  83.834  1.00  0.00    -0.532 OA
ENDBRANCH  13  15
ENDBRANCH   8   9
ENDBRANCH   7   8
ENDBRANCH   3   7
BRANCH   1  18
HETATM   18  C1  UNL     1      -2.479  32.394  81.265  1.00  0.00     0.209 C 
HETATM   19  O1  UNL     1      -2.331  31.180  80.983  1.00  0.00    -0.644 OA
HETATM   20  O2  UNL     1      -2.344  32.891  82.540  1.00  0.00    -0.644 OA
ENDBRANCH   1  18
BRANCH   5  21
HETATM   21  C14 UNL     1      -2.074  33.773  76.555  1.00  0.00     0.209 C 
HETATM   22  O6  UNL     1      -1.328  32.801  76.282  1.00  0.00    -0.644 OA
HETATM   23  O7  UNL     1      -2.392  34.661  75.550  1.00  0.00    -0.644 OA
ENDBRANCH   5  21
TORSDOF 6
ENDMDL
