MODEL 3
REMARK VINA RESULT: -9.116984045      2.455      6.296
REMARK  6 active torsions:
REMARK  status: ('A' for Active; 'I' for Inactive)
REMARK    1  A    between atoms: C1_2  and  C2_4 
REMARK    2  A    between atoms: C4_6  and  O3_7 
REMARK    3  A    between atoms: O3_7  and  C5_8 
REMARK    4  A    between atoms: C5_8  and  C6_9 
REMARK    5  A    between atoms: C10_13  and  N1_14 
REMARK    6  A    between atoms: C13_19  and  C14_20 
ROOT
HETATM    1  C2  UNL     1      -8.643  35.212  81.307  1.00  0.00     0.044 A 
HETATM    2  C3  UNL     1      -7.406  35.782  81.369  1.00  0.00     0.055 A 
HETATM    3  C4  UNL     1      -6.609  35.868  80.262  1.00  0.00     0.071 A 
HETATM    4  C12 UNL     1      -7.058  35.367  79.044  1.00  0.00     0.055 A 
HETATM    5  C13 UNL     1      -8.314  34.787  78.973  1.00  0.00     0.044 A 
HETATM    6  C15 UNL     1      -9.080  34.719  80.100  1.00  0.00     0.037 A 
ENDROOT
BRANCH   3   7
HETATM    7  O3  UNL     1      -5.355  36.442  80.306  1.00  0.00    -0.347 OA
BRANCH   7   8
HETATM    8  C5  UNL     1      -4.518  36.493  79.172  1.00  0.00     0.214 C 
BRANCH   8   9
HETATM    9  C6  UNL     1      -3.728  35.240  79.021  1.00  0.00    -0.032 A 
HETATM   10  C7  UNL     1      -3.251  34.845  77.777  1.00  0.00     0.009 A 
HETATM   11  C8  UNL     1      -2.522  33.691  77.629  1.00  0.00     0.003 A 
HETATM   12  C9  UNL     1      -2.239  32.884  78.709  1.00  0.00     0.036 A 
HETATM   13  C10 UNL     1      -2.700  33.247  79.968  1.00  0.00     0.103 A 
HETATM   14  C11 UNL     1      -3.437  34.424  80.091  1.00  0.00     0.045 A 
BRANCH  13  15
HETATM   15  N1  UNL     1      -2.417  32.428  81.089  1.00  0.00    -0.116 N 
HETATM   16  O4  UNL     1      -2.321  31.203  80.933  1.00  0.00    -0.532 OA
HETATM   17  O5  UNL     1      -2.246  32.947  82.341  1.00  0.00    -0.532 OA
ENDBRANCH  13  15
ENDBRANCH   8   9
ENDBRANCH   7   8
ENDBRANCH   3   7
BRANCH   1  18
HETATM   18  C1  UNL     1      -9.500  35.120  82.503  1.00  0.00     0.209 C 
HETATM   19  O1  UNL     1     -10.396  35.984  82.665  1.00  0.00    -0.644 OA
HETATM   20  O2  UNL     1      -9.276  34.093  83.389  1.00  0.00    -0.644 OA
ENDBRANCH   1  18
BRANCH   5  21
HETATM   21  C14 UNL     1      -8.783  34.265  77.706  1.00  0.00     0.209 C 
HETATM   22  O6  UNL     1      -9.833  34.682  77.159  1.00  0.00    -0.644 OA
HETATM   23  O7  UNL     1      -8.061  33.276  77.075  1.00  0.00    -0.644 OA
ENDBRANCH   5  21
TORSDOF 6
ENDMDL
