MODEL 1
REMARK VINA RESULT: -7.296714513      0.000      0.000
REMARK  7 active torsions:
REMARK  status: ('A' for Active; 'I' for Inactive)
REMARK    1  A    between atoms: N1_2  and  C2_5 
REMARK    2  A    between atoms: C2_5  and  C4_7 
REMARK       I    between atoms: C4_7  and  N2_9 
REMARK    3  A    between atoms: N2_9  and  C5_11 
REMARK       I    between atoms: N3_13  and  C7_14 
REMARK    4  A    between atoms: C7_14  and  C8_16 
REMARK    5  A    between atoms: N5_29  and  C20_30 
REMARK    6  A    between atoms: C20_30  and  C21_31 
REMARK    7  A    between atoms: C22_32  and  O3_33 
ROOT
HETATM    1  C5  UNL     1      29.138  31.328  12.383  1.00  0.00     0.195 C 
HETATM    2  C6  UNL     1      30.522  31.357  13.051  1.00  0.00     0.167 C 
HETATM    3  N3  UNL     1      30.279  31.621  14.487  1.00  0.00    -0.309 N 
HETATM    4  C7  UNL     1      30.366  30.519  15.339  1.00  0.00     0.258 C 
HETATM    5  O2  UNL     1      31.238  29.629  14.995  1.00  0.00    -0.267 OA
HETATM    6  C14 UNL     1      29.878  32.846  15.077  1.00  0.00     0.064 A 
HETATM    7  C15 UNL     1      30.416  32.994  16.356  1.00  0.00     0.032 A 
HETATM    8  C16 UNL     1      30.120  34.147  17.021  1.00  0.00     0.002 A 
HETATM    9  C17 UNL     1      29.321  35.123  16.448  1.00  0.00     0.002 A 
HETATM   10  C18 UNL     1      28.802  34.935  15.161  1.00  0.00     0.032 A 
HETATM   11  C19 UNL     1      29.085  33.795  14.483  1.00  0.00     0.064 A 
HETATM   12  N5  UNL     1      28.510  33.820  13.156  1.00  0.00    -0.310 N 
HETATM   13  C32 UNL     1      28.469  32.610  12.354  1.00  0.00     0.249 C 
HETATM   14  O4  UNL     1      27.618  32.755  11.404  1.00  0.00    -0.271 OA
ENDROOT
BRANCH  12  15
HETATM   15  C20 UNL     1      28.044  35.052  12.612  1.00  0.00     0.174 C 
BRANCH  15  16
HETATM   16  C21 UNL     1      28.728  35.562  11.405  1.00  0.00     0.005 A 
HETATM   17  C22 UNL     1      30.083  35.474  11.220  1.00  0.00     0.077 A 
HETATM   18  C24 UNL     1      30.688  35.938  10.045  1.00  0.00     0.038 A 
HETATM   19  C25 UNL     1      29.943  36.498   9.036  1.00  0.00     0.015 A 
HETATM   20  C26 UNL     1      28.581  36.595   9.205  1.00  0.00    -0.025 A 
HETATM   21  C27 UNL     1      27.864  37.148   8.170  1.00  0.00     0.012 A 
HETATM   22  C31 UNL     1      27.966  36.138  10.366  1.00  0.00    -0.015 A 
HETATM   23  C28 UNL     1      26.491  37.266   8.253  1.00  0.00     0.001 A 
HETATM   24  C29 UNL     1      25.868  36.816   9.396  1.00  0.00     0.001 A 
HETATM   25  C30 UNL     1      26.610  36.263  10.427  1.00  0.00     0.013 A 
BRANCH  17  26
HETATM   26  O3  UNL     1      30.889  34.921  12.200  1.00  0.00    -0.355 OA
HETATM   27  C23 UNL     1      31.842  35.772  12.841  1.00  0.00     0.210 C 
ENDBRANCH  17  26
ENDBRANCH  15  16
ENDBRANCH  12  15
BRANCH   1  28
HETATM   28  N2  UNL     1      29.315  30.788  11.062  1.00  0.00    -0.344 N 
HETATM   29  C4  UNL     1      29.166  29.401  10.777  1.00  0.00     0.248 C 
HETATM   30  O1  UNL     1      28.871  28.651  11.750  1.00  0.00    -0.271 OA
ATOM     31  H2  UNL     1      29.557  31.422  10.301  1.00  0.00     0.163 HD
BRANCH  29  32
HETATM   32  C2  UNL     1      29.360  28.900   9.398  1.00  0.00     0.272 C 
HETATM   33  C3  UNL     1      29.923  30.018   8.511  1.00  0.00     0.050 C 
BRANCH  32  34
HETATM   34  N1  UNL     1      28.094  28.478   8.809  1.00  0.00    -0.067 N 
HETATM   35  C1  UNL     1      28.153  28.479   7.377  1.00  0.00     0.267 C 
ATOM     36  H12 UNL     1      27.316  29.043   9.150  1.00  0.00     0.277 HD
ATOM     37  H11 UNL     1      27.800  27.571   9.170  1.00  0.00     0.277 HD
ENDBRANCH  32  34
ENDBRANCH  29  32
ENDBRANCH   1  28
BRANCH   4  38
HETATM   38  C8  UNL     1      29.591  30.257  16.551  1.00  0.00     0.032 A 
HETATM   39  C9  UNL     1      28.215  30.167  16.588  1.00  0.00     0.019 A 
HETATM   40  C10 UNL     1      27.520  29.938  17.762  1.00  0.00     0.027 A 
HETATM   41  C11 UNL     1      28.204  29.790  18.929  1.00  0.00     0.046 A 
HETATM   42  N4  UNL     1      27.569  29.542  20.174  1.00  0.00    -0.102 NA
HETATM   43  C12 UNL     1      29.585  29.874  18.916  1.00  0.00     0.027 A 
HETATM   44  C13 UNL     1      30.245  30.101  17.748  1.00  0.00     0.019 A 
ENDBRANCH   4  38
TORSDOF 7
ENDMDL
