MODEL 3
REMARK VINA RESULT: -6.834462469      1.459      1.625
REMARK  7 active torsions:
REMARK  status: ('A' for Active; 'I' for Inactive)
REMARK    1  A    between atoms: N1_2  and  C2_5 
REMARK    2  A    between atoms: C2_5  and  C4_7 
REMARK       I    between atoms: C4_7  and  N2_9 
REMARK    3  A    between atoms: N2_9  and  C5_11 
REMARK       I    between atoms: N3_13  and  C7_14 
REMARK    4  A    between atoms: C7_14  and  C8_16 
REMARK    5  A    between atoms: N5_29  and  C20_30 
REMARK    6  A    between atoms: C20_30  and  C21_31 
REMARK    7  A    between atoms: C22_32  and  O3_33 
ROOT
HETATM    1  C5  UNL     1      30.069  32.328  11.479  1.00  0.00     0.195 C 
HETATM    2  C6  UNL     1      31.266  32.458  12.434  1.00  0.00     0.167 C 
HETATM    3  N3  UNL     1      30.707  32.403  13.803  1.00  0.00    -0.309 N 
HETATM    4  C7  UNL     1      30.849  31.190  14.479  1.00  0.00     0.258 C 
HETATM    5  O2  UNL     1      31.931  30.537  14.208  1.00  0.00    -0.267 OA
HETATM    6  C14 UNL     1      29.963  33.412  14.466  1.00  0.00     0.064 A 
HETATM    7  C15 UNL     1      30.207  33.403  15.840  1.00  0.00     0.032 A 
HETATM    8  C16 UNL     1      29.565  34.346  16.587  1.00  0.00     0.002 A 
HETATM    9  C17 UNL     1      28.711  35.267  16.003  1.00  0.00     0.002 A 
HETATM   10  C18 UNL     1      28.494  35.242  14.621  1.00  0.00     0.032 A 
HETATM   11  C19 UNL     1      29.124  34.313  13.859  1.00  0.00     0.064 A 
HETATM   12  N5  UNL     1      28.819  34.492  12.457  1.00  0.00    -0.310 N 
HETATM   13  C32 UNL     1      29.174  33.464  11.494  1.00  0.00     0.249 C 
HETATM   14  O4  UNL     1      28.508  33.642  10.412  1.00  0.00    -0.271 OA
ENDROOT
BRANCH  12  15
HETATM   15  C20 UNL     1      28.227  35.709  12.013  1.00  0.00     0.174 C 
BRANCH  15  16
HETATM   16  C21 UNL     1      29.049  36.590  11.156  1.00  0.00     0.005 A 
HETATM   17  C22 UNL     1      30.330  36.958  11.474  1.00  0.00     0.077 A 
HETATM   18  C24 UNL     1      31.089  37.765  10.617  1.00  0.00     0.038 A 
HETATM   19  C25 UNL     1      30.573  38.217   9.426  1.00  0.00     0.015 A 
HETATM   20  C26 UNL     1      29.288  37.858   9.092  1.00  0.00    -0.025 A 
HETATM   21  C27 UNL     1      28.808  38.316   7.887  1.00  0.00     0.012 A 
HETATM   22  C31 UNL     1      28.523  37.056   9.933  1.00  0.00    -0.015 A 
HETATM   23  C28 UNL     1      27.534  37.987   7.469  1.00  0.00     0.001 A 
HETATM   24  C29 UNL     1      26.766  37.192   8.290  1.00  0.00     0.001 A 
HETATM   25  C30 UNL     1      27.269  36.742   9.500  1.00  0.00     0.013 A 
BRANCH  17  26
HETATM   26  O3  UNL     1      30.906  36.536  12.661  1.00  0.00    -0.355 OA
HETATM   27  C23 UNL     1      32.240  36.025  12.612  1.00  0.00     0.210 C 
ENDBRANCH  17  26
ENDBRANCH  15  16
ENDBRANCH  12  15
BRANCH   1  28
HETATM   28  N2  UNL     1      30.599  32.082  10.165  1.00  0.00    -0.344 N 
HETATM   29  C4  UNL     1      30.205  30.963   9.378  1.00  0.00     0.248 C 
HETATM   30  O1  UNL     1      29.358  30.178   9.893  1.00  0.00    -0.271 OA
ATOM     31  H2  UNL     1      31.283  32.734   9.782  1.00  0.00     0.163 HD
BRANCH  29  32
HETATM   32  C2  UNL     1      30.783  30.760   8.031  1.00  0.00     0.272 C 
HETATM   33  C3  UNL     1      31.047  32.118   7.367  1.00  0.00     0.050 C 
BRANCH  32  34
HETATM   34  N1  UNL     1      29.862  30.029   7.167  1.00  0.00    -0.067 N 
HETATM   35  C1  UNL     1      29.734  30.654   5.884  1.00  0.00     0.267 C 
ATOM     36  H12 UNL     1      28.953  29.903   7.613  1.00  0.00     0.277 HD
ATOM     37  H11 UNL     1      30.133  29.049   7.080  1.00  0.00     0.277 HD
ENDBRANCH  32  34
ENDBRANCH  29  32
ENDBRANCH   1  28
BRANCH   4  38
HETATM   38  C8  UNL     1      29.926  30.581  15.435  1.00  0.00     0.032 A 
HETATM   39  C9  UNL     1      28.586  30.363  15.191  1.00  0.00     0.019 A 
HETATM   40  C10 UNL     1      27.744  29.801  16.133  1.00  0.00     0.027 A 
HETATM   41  C11 UNL     1      28.241  29.442  17.349  1.00  0.00     0.046 A 
HETATM   42  N4  UNL     1      27.447  28.851  18.367  1.00  0.00    -0.102 NA
HETATM   43  C12 UNL     1      29.582  29.649  17.616  1.00  0.00     0.027 A 
HETATM   44  C13 UNL     1      30.390  30.205  16.672  1.00  0.00     0.019 A 
ENDBRANCH   4  38
TORSDOF 7
ENDMDL
