MODEL 2
REMARK VINA RESULT: -6.834637049      0.774      2.446
REMARK  7 active torsions:
REMARK  status: ('A' for Active; 'I' for Inactive)
REMARK    1  A    between atoms: N1_2  and  C2_5 
REMARK    2  A    between atoms: C2_5  and  C4_7 
REMARK       I    between atoms: C4_7  and  N2_9 
REMARK    3  A    between atoms: N2_9  and  C5_11 
REMARK       I    between atoms: N3_13  and  C7_14 
REMARK    4  A    between atoms: C7_14  and  C8_16 
REMARK    5  A    between atoms: N5_29  and  C20_30 
REMARK    6  A    between atoms: C20_30  and  C21_31 
REMARK    7  A    between atoms: C22_32  and  O3_33 
ROOT
HETATM    1  C5  UNL     1      29.180  31.329  12.517  1.00  0.00     0.195 C 
HETATM    2  C6  UNL     1      30.556  31.333  13.204  1.00  0.00     0.167 C 
HETATM    3  N3  UNL     1      30.297  31.597  14.637  1.00  0.00    -0.309 N 
HETATM    4  C7  UNL     1      30.354  30.491  15.487  1.00  0.00     0.258 C 
HETATM    5  O2  UNL     1      31.217  29.588  15.152  1.00  0.00    -0.267 OA
HETATM    6  C14 UNL     1      29.908  32.827  15.226  1.00  0.00     0.064 A 
HETATM    7  C15 UNL     1      30.431  32.962  16.512  1.00  0.00     0.032 A 
HETATM    8  C16 UNL     1      30.145  34.118  17.176  1.00  0.00     0.002 A 
HETATM    9  C17 UNL     1      29.369  35.108  16.595  1.00  0.00     0.002 A 
HETATM   10  C18 UNL     1      28.865  34.933  15.301  1.00  0.00     0.032 A 
HETATM   11  C19 UNL     1      29.139  33.790  14.623  1.00  0.00     0.064 A 
HETATM   12  N5  UNL     1      28.582  33.828  13.289  1.00  0.00    -0.310 N 
HETATM   13  C32 UNL     1      28.533  32.621  12.483  1.00  0.00     0.249 C 
HETATM   14  O4  UNL     1      27.698  32.782  11.522  1.00  0.00    -0.271 OA
ENDROOT
BRANCH  12  15
HETATM   15  C20 UNL     1      28.143  35.069  12.742  1.00  0.00     0.174 C 
BRANCH  15  16
HETATM   16  C21 UNL     1      28.838  35.561  11.534  1.00  0.00     0.005 A 
HETATM   17  C22 UNL     1      28.194  35.815  10.352  1.00  0.00     0.077 A 
HETATM   18  C24 UNL     1      28.883  36.315   9.240  1.00  0.00     0.038 A 
HETATM   19  C25 UNL     1      30.233  36.568   9.297  1.00  0.00     0.015 A 
HETATM   20  C26 UNL     1      30.896  36.318  10.476  1.00  0.00    -0.025 A 
HETATM   21  C27 UNL     1      32.243  36.596  10.502  1.00  0.00     0.012 A 
HETATM   22  C31 UNL     1      30.224  35.822  11.588  1.00  0.00    -0.015 A 
HETATM   23  C28 UNL     1      32.979  36.390  11.651  1.00  0.00     0.001 A 
HETATM   24  C29 UNL     1      32.327  35.901  12.761  1.00  0.00     0.001 A 
HETATM   25  C30 UNL     1      30.969  35.627  12.712  1.00  0.00     0.013 A 
BRANCH  17  26
HETATM   26  O3  UNL     1      26.835  35.579  10.230  1.00  0.00    -0.355 OA
HETATM   27  C23 UNL     1      25.991  36.683   9.899  1.00  0.00     0.210 C 
ENDBRANCH  17  26
ENDBRANCH  15  16
ENDBRANCH  12  15
BRANCH   1  28
HETATM   28  N2  UNL     1      29.367  30.789  11.197  1.00  0.00    -0.344 N 
HETATM   29  C4  UNL     1      29.208  29.404  10.907  1.00  0.00     0.248 C 
HETATM   30  O1  UNL     1      28.895  28.655  11.876  1.00  0.00    -0.271 OA
ATOM     31  H2  UNL     1      29.623  31.422  10.440  1.00  0.00     0.163 HD
BRANCH  29  32
HETATM   32  C2  UNL     1      29.412  28.904   9.529  1.00  0.00     0.272 C 
HETATM   33  C3  UNL     1      29.987  30.021   8.649  1.00  0.00     0.050 C 
BRANCH  32  34
HETATM   34  N1  UNL     1      28.150  28.488   8.929  1.00  0.00    -0.067 N 
HETATM   35  C1  UNL     1      28.223  28.485   7.497  1.00  0.00     0.267 C 
ATOM     36  H12 UNL     1      27.372  29.058   9.261  1.00  0.00     0.277 HD
ATOM     37  H11 UNL     1      27.847  27.583   9.288  1.00  0.00     0.277 HD
ENDBRANCH  32  34
ENDBRANCH  29  32
ENDBRANCH   1  28
BRANCH   4  38
HETATM   38  C8  UNL     1      29.559  30.238  16.687  1.00  0.00     0.032 A 
HETATM   39  C9  UNL     1      28.182  30.161  16.704  1.00  0.00     0.019 A 
HETATM   40  C10 UNL     1      27.467  29.939  17.867  1.00  0.00     0.027 A 
HETATM   41  C11 UNL     1      28.132  29.788  19.045  1.00  0.00     0.046 A 
HETATM   42  N4  UNL     1      27.476  29.548  20.281  1.00  0.00    -0.102 NA
HETATM   43  C12 UNL     1      29.514  29.860  19.053  1.00  0.00     0.027 A 
HETATM   44  C13 UNL     1      30.193  30.080  17.895  1.00  0.00     0.019 A 
ENDBRANCH   4  38
TORSDOF 7
ENDMDL
