MODEL 9
REMARK VINA RESULT: -6.413462537      2.836      3.858
REMARK  2 active torsions:
REMARK  status: ('A' for Active; 'I' for Inactive)
REMARK    1  A    between atoms: C2_2  and  C3_3 
REMARK    2  A    between atoms: C6_12  and  C7_13 
ROOT
HETATM    1  C3  UNL     1      -2.062  -3.654   1.225  1.00  0.00     0.025 A 
HETATM    2  N1  UNL     1      -3.074  -4.237   1.901  1.00  0.00    -0.333 N 
ATOM      3  H1  UNL     1      -4.014  -3.856   1.794  1.00  0.00     0.168 HD
HETATM    4  C4  UNL     1      -2.901  -5.292   2.704  1.00  0.00     0.194 A 
HETATM    5  N2  UNL     1      -4.022  -5.827   3.378  1.00  0.00    -0.063 NA
HETATM    6  N3  UNL     1      -1.671  -5.791   2.843  1.00  0.00    -0.318 N 
ATOM      7  H3  UNL     1      -1.539  -6.597   3.454  1.00  0.00     0.169 HD
HETATM    8  C5  UNL     1      -0.596  -5.280   2.213  1.00  0.00     0.131 A 
HETATM    9  N4  UNL     1       0.707  -5.833   2.384  1.00  0.00    -0.082 NA
HETATM   10  C6  UNL     1      -0.807  -4.174   1.378  1.00  0.00     0.038 A 
ENDROOT
BRANCH  10  11
HETATM   11  C7  UNL     1       0.392  -3.617   0.751  1.00  0.00    -0.021 A 
HETATM   12  C8  UNL     1       1.129  -2.636   1.423  1.00  0.00     0.014 A 
HETATM   13  C9  UNL     1       2.269  -2.063   0.898  1.00  0.00     0.024 A 
HETATM   14  C10 UNL     1       2.673  -2.499  -0.346  1.00  0.00     0.034 A 
HETATM   15 CL1  UNL     1       4.125  -1.776  -1.011  1.00  0.00    -0.084 Cl
HETATM   16  C11 UNL     1       1.951  -3.469  -1.018  1.00  0.00     0.024 A 
HETATM   17  C12 UNL     1       0.796  -4.037  -0.469  1.00  0.00     0.014 A 
ENDBRANCH  10  11
BRANCH   1  18
HETATM   18  C2  UNL     1      -2.264  -2.504   0.327  1.00  0.00     0.054 C 
HETATM   19  C1  UNL     1      -2.627  -2.954  -1.081  1.00  0.00     0.011 C 
ENDBRANCH   1  18
TORSDOF 2
ENDMDL
