MODEL 8
REMARK VINA RESULT: -6.420042529      2.901      4.351
REMARK  2 active torsions:
REMARK  status: ('A' for Active; 'I' for Inactive)
REMARK    1  A    between atoms: C2_2  and  C3_3 
REMARK    2  A    between atoms: C6_12  and  C7_13 
ROOT
HETATM    1  C3  UNL     1       2.816  -4.643  -0.091  1.00  0.00     0.025 A 
HETATM    2  N1  UNL     1       3.400  -3.623  -0.754  1.00  0.00    -0.333 N 
ATOM      3  H1  UNL     1       4.197  -3.828  -1.357  1.00  0.00     0.168 HD
HETATM    4  C4  UNL     1       2.982  -2.357  -0.658  1.00  0.00     0.194 A 
HETATM    5  N2  UNL     1       3.666  -1.356  -1.384  1.00  0.00    -0.063 NA
HETATM    6  N3  UNL     1       1.939  -2.089   0.130  1.00  0.00    -0.318 N 
ATOM      7  H3  UNL     1       1.618  -1.124   0.203  1.00  0.00     0.169 HD
HETATM    8  C5  UNL     1       1.288  -3.036   0.835  1.00  0.00     0.131 A 
HETATM    9  N4  UNL     1       0.179  -2.719   1.671  1.00  0.00    -0.082 NA
HETATM   10  C6  UNL     1       1.749  -4.354   0.715  1.00  0.00     0.038 A 
ENDROOT
BRANCH  10  11
HETATM   11  C7  UNL     1       1.050  -5.345   1.533  1.00  0.00    -0.021 A 
HETATM   12  C8  UNL     1      -0.021  -6.061   0.985  1.00  0.00     0.014 A 
HETATM   13  C9  UNL     1      -0.729  -7.010   1.692  1.00  0.00     0.024 A 
HETATM   14  C10 UNL     1      -0.340  -7.240   2.995  1.00  0.00     0.034 A 
HETATM   15 CL1  UNL     1      -1.236  -8.451   3.892  1.00  0.00    -0.084 Cl
HETATM   16  C11 UNL     1       0.717  -6.538   3.546  1.00  0.00     0.024 A 
HETATM   17  C12 UNL     1       1.422  -5.578   2.812  1.00  0.00     0.014 A 
ENDBRANCH  10  11
BRANCH   1  18
HETATM   18  C2  UNL     1       3.270  -6.038  -0.217  1.00  0.00     0.054 C 
HETATM   19  C1  UNL     1       4.305  -6.190  -1.321  1.00  0.00     0.011 C 
ENDBRANCH   1  18
TORSDOF 2
ENDMDL
