MODEL 3
REMARK VINA RESULT: -6.529810485      2.844      4.458
REMARK  2 active torsions:
REMARK  status: ('A' for Active; 'I' for Inactive)
REMARK    1  A    between atoms: C2_2  and  C3_3 
REMARK    2  A    between atoms: C6_12  and  C7_13 
ROOT
HETATM    1  C3  UNL     1       2.648  -4.459  -0.434  1.00  0.00     0.025 A 
HETATM    2  N1  UNL     1       3.265  -3.431  -1.055  1.00  0.00    -0.333 N 
ATOM      3  H1  UNL     1       3.845  -3.632  -1.869  1.00  0.00     0.168 HD
HETATM    4  C4  UNL     1       3.149  -2.162  -0.651  1.00  0.00     0.194 A 
HETATM    5  N2  UNL     1       3.843  -1.155  -1.359  1.00  0.00    -0.063 NA
HETATM    6  N3  UNL     1       2.389  -1.900   0.415  1.00  0.00    -0.318 N 
ATOM      7  H3  UNL     1       2.300  -0.931   0.723  1.00  0.00     0.169 HD
HETATM    8  C5  UNL     1       1.734  -2.855   1.103  1.00  0.00     0.131 A 
HETATM    9  N4  UNL     1       0.932  -2.544   2.240  1.00  0.00    -0.082 NA
HETATM   10  C6  UNL     1       1.874  -4.176   0.657  1.00  0.00     0.038 A 
ENDROOT
BRANCH  10  11
HETATM   11  C7  UNL     1       1.189  -5.190   1.459  1.00  0.00    -0.021 A 
HETATM   12  C8  UNL     1       1.868  -5.811   2.513  1.00  0.00     0.014 A 
HETATM   13  C9  UNL     1       1.290  -6.774   3.314  1.00  0.00     0.024 A 
HETATM   14  C10 UNL     1      -0.016  -7.119   3.036  1.00  0.00     0.034 A 
HETATM   15 CL1  UNL     1      -0.752  -8.339   4.056  1.00  0.00    -0.084 Cl
HETATM   16  C11 UNL     1      -0.695  -6.511   1.996  1.00  0.00     0.024 A 
HETATM   17  C12 UNL     1      -0.091  -5.536   1.195  1.00  0.00     0.014 A 
ENDBRANCH  10  11
BRANCH   1  18
HETATM   18  C2  UNL     1       2.764  -5.852  -0.897  1.00  0.00     0.054 C 
HETATM   19  C1  UNL     1       4.181  -6.379  -0.729  1.00  0.00     0.011 C 
ENDBRANCH   1  18
TORSDOF 2
ENDMDL
