MODEL 6
REMARK VINA RESULT: -6.472697770      2.676      3.923
REMARK  2 active torsions:
REMARK  status: ('A' for Active; 'I' for Inactive)
REMARK    1  A    between atoms: C2_2  and  C3_3 
REMARK    2  A    between atoms: C6_12  and  C7_13 
ROOT
HETATM    1  C3  UNL     1      -1.230  -5.356   1.748  1.00  0.00     0.025 A 
HETATM    2  N1  UNL     1      -2.459  -5.804   2.082  1.00  0.00    -0.333 N 
ATOM      3  H1  UNL     1      -2.541  -6.728   2.505  1.00  0.00     0.168 HD
HETATM    4  C4  UNL     1      -3.573  -5.092   1.882  1.00  0.00     0.194 A 
HETATM    5  N2  UNL     1      -4.815  -5.651   2.255  1.00  0.00    -0.063 NA
HETATM    6  N3  UNL     1      -3.464  -3.882   1.328  1.00  0.00    -0.318 N 
ATOM      7  H3  UNL     1      -4.314  -3.338   1.177  1.00  0.00     0.169 HD
HETATM    8  C5  UNL     1      -2.285  -3.347   0.959  1.00  0.00     0.131 A 
HETATM    9  N4  UNL     1      -2.201  -2.053   0.366  1.00  0.00    -0.082 NA
HETATM   10  C6  UNL     1      -1.134  -4.116   1.179  1.00  0.00     0.038 A 
ENDROOT
BRANCH  10  11
HETATM   11  C7  UNL     1       0.122  -3.521   0.720  1.00  0.00    -0.021 A 
HETATM   12  C8  UNL     1       0.562  -3.763  -0.586  1.00  0.00     0.014 A 
HETATM   13  C9  UNL     1       1.733  -3.238  -1.092  1.00  0.00     0.024 A 
HETATM   14  C10 UNL     1       2.481  -2.446  -0.247  1.00  0.00     0.034 A 
HETATM   15 CL1  UNL     1       3.966  -1.774  -0.891  1.00  0.00    -0.084 Cl
HETATM   16  C11 UNL     1       2.054  -2.201   1.046  1.00  0.00     0.024 A 
HETATM   17  C12 UNL     1       0.862  -2.743   1.540  1.00  0.00     0.014 A 
ENDBRANCH  10  11
BRANCH   1  18
HETATM   18  C2  UNL     1      -0.006  -6.138   1.988  1.00  0.00     0.054 C 
HETATM   19  C1  UNL     1       0.485  -5.979   3.420  1.00  0.00     0.011 C 
ENDBRANCH   1  18
TORSDOF 2
ENDMDL
