MODEL 5
REMARK VINA RESULT: -6.472825188      2.603      3.996
REMARK  2 active torsions:
REMARK  status: ('A' for Active; 'I' for Inactive)
REMARK    1  A    between atoms: C2_2  and  C3_3 
REMARK    2  A    between atoms: C6_12  and  C7_13 
ROOT
HETATM    1  C3  UNL     1      -0.897  -5.447   1.863  1.00  0.00     0.025 A 
HETATM    2  N1  UNL     1      -2.075  -5.926   2.315  1.00  0.00    -0.333 N 
ATOM      3  H1  UNL     1      -2.086  -6.837   2.772  1.00  0.00     0.168 HD
HETATM    4  C4  UNL     1      -3.228  -5.260   2.190  1.00  0.00     0.194 A 
HETATM    5  N2  UNL     1      -4.412  -5.849   2.685  1.00  0.00    -0.063 NA
HETATM    6  N3  UNL     1      -3.212  -4.067   1.591  1.00  0.00    -0.318 N 
ATOM      7  H3  UNL     1      -4.091  -3.558   1.496  1.00  0.00     0.169 HD
HETATM    8  C5  UNL     1      -2.088  -3.504   1.105  1.00  0.00     0.131 A 
HETATM    9  N4  UNL     1      -2.104  -2.229   0.468  1.00  0.00    -0.082 NA
HETATM   10  C6  UNL     1      -0.896  -4.225   1.250  1.00  0.00     0.038 A 
ENDROOT
BRANCH  10  11
HETATM   11  C7  UNL     1       0.294  -3.603   0.667  1.00  0.00    -0.021 A 
HETATM   12  C8  UNL     1       1.075  -2.742   1.446  1.00  0.00     0.014 A 
HETATM   13  C9  UNL     1       2.209  -2.119   0.968  1.00  0.00     0.024 A 
HETATM   14  C10 UNL     1       2.560  -2.376  -0.341  1.00  0.00     0.034 A 
HETATM   15 CL1  UNL     1       4.005  -1.589  -0.947  1.00  0.00    -0.084 Cl
HETATM   16  C11 UNL     1       1.795  -3.225  -1.119  1.00  0.00     0.024 A 
HETATM   17  C12 UNL     1       0.647  -3.848  -0.615  1.00  0.00     0.014 A 
ENDBRANCH  10  11
BRANCH   1  18
HETATM   18  C2  UNL     1       0.372  -6.177   2.022  1.00  0.00     0.054 C 
HETATM   19  C1  UNL     1       0.988  -5.934   3.392  1.00  0.00     0.011 C 
ENDBRANCH   1  18
TORSDOF 2
ENDMDL
