MODEL 7
REMARK VINA RESULT: -6.449680424      4.157      6.743
REMARK  5 active torsions:
REMARK  status: ('A' for Active; 'I' for Inactive)
REMARK    1  A    between atoms: O1_2  and  C2_3 
REMARK    2  A    between atoms: C4_5  and  C5_6 
REMARK    3  A    between atoms: C5_6  and  C6_7 
REMARK    4  A    between atoms: C11_18  and  O2_19 
REMARK    5  A    between atoms: C13_21  and  O3_22 
ROOT
HETATM    1  C2  UNL     1      13.870   1.971  19.929  1.00  0.00     0.104 A 
HETATM    2  C3  UNL     1      13.021   1.087  19.305  1.00  0.00     0.047 A 
HETATM    3  C4  UNL     1      13.205  -0.302  19.368  1.00  0.00    -0.048 A 
HETATM    4  C10 UNL     1      14.286  -0.749  20.088  1.00  0.00     0.047 A 
HETATM    5  C11 UNL     1      15.166   0.129  20.733  1.00  0.00     0.104 A 
HETATM    6  C13 UNL     1      14.950   1.489  20.648  1.00  0.00     0.135 A 
ENDROOT
BRANCH   3   7
HETATM    7  C5  UNL     1      12.240  -1.188  18.667  1.00  0.00     0.082 C 
BRANCH   7   8
HETATM    8  C6  UNL     1      11.934  -2.427  19.377  1.00  0.00     0.003 A 
HETATM    9  C7  UNL     1      11.138  -2.409  20.517  1.00  0.00     0.101 A 
HETATM   10  N1  UNL     1      10.883  -3.559  21.172  1.00  0.00    -0.340 N 
HETATM   11  C8  UNL     1      11.377  -4.740  20.756  1.00  0.00     0.193 A 
ATOM     12  H1  UNL     1      10.297  -3.534  22.007  1.00  0.00     0.167 HD
HETATM   13  N2  UNL     1      11.079  -5.924  21.485  1.00  0.00    -0.063 NA
HETATM   14  N3  UNL     1      12.150  -4.755  19.651  1.00  0.00    -0.318 N 
HETATM   15  C9  UNL     1      12.436  -3.638  18.958  1.00  0.00     0.126 A 
ATOM     16  H3  UNL     1      12.530  -5.645  19.329  1.00  0.00     0.169 HD
HETATM   17  N4  UNL     1      13.253  -3.793  17.795  1.00  0.00    -0.082 NA
ENDBRANCH   7   8
ENDBRANCH   3   7
BRANCH   1  18
HETATM   18  O1  UNL     1      13.674   3.341  19.856  1.00  0.00    -0.353 OA
HETATM   19  C1  UNL     1      12.479   3.862  19.259  1.00  0.00     0.210 C 
ENDBRANCH   1  18
BRANCH   5  20
HETATM   20  O2  UNL     1      16.240  -0.367  21.448  1.00  0.00    -0.353 OA
HETATM   21  C12 UNL     1      16.388  -1.760  21.612  1.00  0.00     0.210 C 
ENDBRANCH   5  20
BRANCH   6  22
HETATM   22  O3  UNL     1      15.821   2.353  21.287  1.00  0.00    -0.351 OA
HETATM   23  C14 UNL     1      16.871   3.018  20.617  1.00  0.00     0.210 C 
ENDBRANCH   6  22
TORSDOF 5
ENDMDL
