MODEL 6
REMARK VINA RESULT: -6.563828353      4.231      6.029
REMARK  5 active torsions:
REMARK  status: ('A' for Active; 'I' for Inactive)
REMARK    1  A    between atoms: O1_2  and  C2_3 
REMARK    2  A    between atoms: C4_5  and  C5_6 
REMARK    3  A    between atoms: C5_6  and  C6_7 
REMARK    4  A    between atoms: C11_18  and  O2_19 
REMARK    5  A    between atoms: C13_21  and  O3_22 
ROOT
HETATM    1  C2  UNL     1      11.070   4.197  18.088  1.00  0.00     0.104 A 
HETATM    2  C3  UNL     1      11.837   3.506  18.996  1.00  0.00     0.047 A 
HETATM    3  C4  UNL     1      12.484   2.304  18.672  1.00  0.00    -0.048 A 
HETATM    4  C10 UNL     1      12.315   1.840  17.391  1.00  0.00     0.047 A 
HETATM    5  C11 UNL     1      11.540   2.523  16.446  1.00  0.00     0.104 A 
HETATM    6  C13 UNL     1      10.920   3.703  16.804  1.00  0.00     0.135 A 
ENDROOT
BRANCH   3   7
HETATM    7  C5  UNL     1      13.295   1.621  19.712  1.00  0.00     0.082 C 
BRANCH   7   8
HETATM    8  C6  UNL     1      14.521   2.326  20.080  1.00  0.00     0.003 A 
HETATM    9  C7  UNL     1      14.461   3.527  20.778  1.00  0.00     0.101 A 
HETATM   10  N1  UNL     1      15.601   4.176  21.091  1.00  0.00    -0.340 N 
HETATM   11  C8  UNL     1      16.810   3.695  20.748  1.00  0.00     0.193 A 
ATOM     12  H1  UNL     1      15.545   5.056  21.603  1.00  0.00     0.167 HD
HETATM   13  N2  UNL     1      17.981   4.419  21.101  1.00  0.00    -0.063 NA
HETATM   14  N3  UNL     1      16.865   2.530  20.071  1.00  0.00    -0.318 N 
HETATM   15  C9  UNL     1      15.761   1.841  19.732  1.00  0.00     0.126 A 
ATOM     16  H3  UNL     1      17.777   2.158  19.805  1.00  0.00     0.169 HD
HETATM   17  N4  UNL     1      15.957   0.612  19.030  1.00  0.00    -0.082 NA
ENDBRANCH   7   8
ENDBRANCH   3   7
BRANCH   1  18
HETATM   18  O1  UNL     1      10.438   5.383  18.425  1.00  0.00    -0.353 OA
HETATM   19  C1  UNL     1      11.125   6.362  19.217  1.00  0.00     0.210 C 
ENDBRANCH   1  18
BRANCH   5  20
HETATM   20  O2  UNL     1      11.399   2.017  15.167  1.00  0.00    -0.353 OA
HETATM   21  C12 UNL     1      10.973   0.685  14.985  1.00  0.00     0.210 C 
ENDBRANCH   5  20
BRANCH   6  22
HETATM   22  O3  UNL     1      10.156   4.376  15.867  1.00  0.00    -0.351 OA
HETATM   23  C14 UNL     1       8.784   4.109  15.662  1.00  0.00     0.210 C 
ENDBRANCH   6  22
TORSDOF 5
ENDMDL
