MODEL 1
REMARK VINA RESULT: -6.753674629      0.000      0.000
REMARK  5 active torsions:
REMARK  status: ('A' for Active; 'I' for Inactive)
REMARK    1  A    between atoms: O1_2  and  C2_3 
REMARK    2  A    between atoms: C4_5  and  C5_6 
REMARK    3  A    between atoms: C5_6  and  C6_7 
REMARK    4  A    between atoms: C11_18  and  O2_19 
REMARK    5  A    between atoms: C13_21  and  O3_22 
ROOT
HETATM    1  C2  UNL     1      14.319  -1.858  21.075  1.00  0.00     0.104 A 
HETATM    2  C3  UNL     1      14.446  -0.634  20.463  1.00  0.00     0.047 A 
HETATM    3  C4  UNL     1      13.461  -0.115  19.609  1.00  0.00    -0.048 A 
HETATM    4  C10 UNL     1      12.349  -0.895  19.406  1.00  0.00     0.047 A 
HETATM    5  C11 UNL     1      12.194  -2.146  20.017  1.00  0.00     0.104 A 
HETATM    6  C13 UNL     1      13.186  -2.620  20.851  1.00  0.00     0.135 A 
ENDROOT
BRANCH   3   7
HETATM    7  C5  UNL     1      13.675   1.218  18.989  1.00  0.00     0.082 C 
BRANCH   7   8
HETATM    8  C6  UNL     1      14.777   1.982  19.569  1.00  0.00     0.003 A 
HETATM    9  C7  UNL     1      16.089   1.730  19.186  1.00  0.00     0.101 A 
HETATM   10  N1  UNL     1      17.096   2.430  19.747  1.00  0.00    -0.340 N 
HETATM   11  C8  UNL     1      16.871   3.378  20.676  1.00  0.00     0.193 A 
ATOM     12  H1  UNL     1      18.054   2.236  19.459  1.00  0.00     0.167 HD
HETATM   13  N2  UNL     1      17.968   4.086  21.238  1.00  0.00    -0.063 NA
HETATM   14  N3  UNL     1      15.597   3.621  21.046  1.00  0.00    -0.318 N 
HETATM   15  C9  UNL     1      14.555   2.953  20.519  1.00  0.00     0.126 A 
ATOM     16  H3  UNL     1      15.417   4.336  21.750  1.00  0.00     0.169 HD
HETATM   17  N4  UNL     1      13.254   3.317  20.985  1.00  0.00    -0.082 NA
ENDBRANCH   7   8
ENDBRANCH   3   7
BRANCH   1  18
HETATM   18  O1  UNL     1      15.303  -2.356  21.915  1.00  0.00    -0.353 OA
HETATM   19  C1  UNL     1      16.685  -2.116  21.620  1.00  0.00     0.210 C 
ENDBRANCH   1  18
BRANCH   5  20
HETATM   20  O2  UNL     1      11.056  -2.895  19.784  1.00  0.00    -0.353 OA
HETATM   21  C12 UNL     1      10.934  -3.627  18.584  1.00  0.00     0.210 C 
ENDBRANCH   5  20
BRANCH   6  22
HETATM   22  O3  UNL     1      13.028  -3.855  21.453  1.00  0.00    -0.351 OA
HETATM   23  C14 UNL     1      13.568  -5.045  20.916  1.00  0.00     0.210 C 
ENDBRANCH   6  22
TORSDOF 5
ENDMDL
