MODEL 3
REMARK VINA RESULT: -6.699059501      4.215      6.249
REMARK  5 active torsions:
REMARK  status: ('A' for Active; 'I' for Inactive)
REMARK    1  A    between atoms: O1_2  and  C2_3 
REMARK    2  A    between atoms: C4_5  and  C5_6 
REMARK    3  A    between atoms: C5_6  and  C6_7 
REMARK    4  A    between atoms: C11_18  and  O2_19 
REMARK    5  A    between atoms: C13_21  and  O3_22 
ROOT
HETATM    1  C2  UNL     1      11.573   2.484  16.445  1.00  0.00     0.104 A 
HETATM    2  C3  UNL     1      12.345   1.849  17.389  1.00  0.00     0.047 A 
HETATM    3  C4  UNL     1      12.544   2.375  18.675  1.00  0.00    -0.048 A 
HETATM    4  C10 UNL     1      11.925   3.569  18.954  1.00  0.00     0.047 A 
HETATM    5  C11 UNL     1      11.133   4.237  18.012  1.00  0.00     0.104 A 
HETATM    6  C13 UNL     1      10.963   3.687  16.758  1.00  0.00     0.135 A 
ENDROOT
BRANCH   3   7
HETATM    7  C5  UNL     1      13.391   1.624  19.636  1.00  0.00     0.082 C 
BRANCH   7   8
HETATM    8  C6  UNL     1      14.608   2.323  20.041  1.00  0.00     0.003 A 
HETATM    9  C7  UNL     1      14.534   3.497  20.781  1.00  0.00     0.101 A 
HETATM   10  N1  UNL     1      15.667   4.141  21.128  1.00  0.00    -0.340 N 
HETATM   11  C8  UNL     1      16.883   3.682  20.778  1.00  0.00     0.193 A 
ATOM     12  H1  UNL     1      15.600   5.002  21.672  1.00  0.00     0.167 HD
HETATM   13  N2  UNL     1      18.045   4.400  21.168  1.00  0.00    -0.063 NA
HETATM   14  N3  UNL     1      16.952   2.543  20.059  1.00  0.00    -0.318 N 
HETATM   15  C9  UNL     1      15.855   1.859  19.686  1.00  0.00     0.126 A 
ATOM     16  H3  UNL     1      17.868   2.187  19.788  1.00  0.00     0.169 HD
HETATM   17  N4  UNL     1      16.066   0.658  18.941  1.00  0.00    -0.082 NA
ENDBRANCH   7   8
ENDBRANCH   3   7
BRANCH   1  18
HETATM   18  O1  UNL     1      11.389   1.951  15.179  1.00  0.00    -0.353 OA
HETATM   19  C1  UNL     1      10.994   0.581  15.030  1.00  0.00     0.210 C 
ENDBRANCH   1  18
BRANCH   5  20
HETATM   20  O2  UNL     1      10.530   5.437  18.339  1.00  0.00    -0.353 OA
HETATM   21  C12 UNL     1      11.143   6.296  19.274  1.00  0.00     0.210 C 
ENDBRANCH   5  20
BRANCH   6  22
HETATM   22  O3  UNL     1      10.179   4.349  15.831  1.00  0.00    -0.351 OA
HETATM   23  C14 UNL     1       8.803   4.083  15.661  1.00  0.00     0.210 C 
ENDBRANCH   6  22
TORSDOF 5
ENDMDL
