MODEL 2
REMARK VINA RESULT: -6.736889876      0.185      2.760
REMARK  5 active torsions:
REMARK  status: ('A' for Active; 'I' for Inactive)
REMARK    1  A    between atoms: O1_2  and  C2_3 
REMARK    2  A    between atoms: C4_5  and  C5_6 
REMARK    3  A    between atoms: C5_6  and  C6_7 
REMARK    4  A    between atoms: C11_18  and  O2_19 
REMARK    5  A    between atoms: C13_21  and  O3_22 
ROOT
HETATM    1  C2  UNL     1      12.170  -2.178  20.034  1.00  0.00     0.104 A 
HETATM    2  C3  UNL     1      12.372  -0.925  19.505  1.00  0.00     0.047 A 
HETATM    3  C4  UNL     1      13.575  -0.223  19.674  1.00  0.00    -0.048 A 
HETATM    4  C10 UNL     1      14.556  -0.849  20.402  1.00  0.00     0.047 A 
HETATM    5  C11 UNL     1      14.377  -2.124  20.953  1.00  0.00     0.104 A 
HETATM    6  C13 UNL     1      13.179  -2.782  20.764  1.00  0.00     0.135 A 
ENDROOT
BRANCH   3   7
HETATM    7  C5  UNL     1      13.712   1.126  19.067  1.00  0.00     0.082 C 
BRANCH   7   8
HETATM    8  C6  UNL     1      14.802   1.927  19.618  1.00  0.00     0.003 A 
HETATM    9  C7  UNL     1      16.114   1.707  19.214  1.00  0.00     0.101 A 
HETATM   10  N1  UNL     1      17.111   2.441  19.748  1.00  0.00    -0.340 N 
HETATM   11  C8  UNL     1      16.877   3.392  20.672  1.00  0.00     0.193 A 
ATOM     12  H1  UNL     1      18.069   2.270  19.443  1.00  0.00     0.167 HD
HETATM   13  N2  UNL     1      17.965   4.136  21.205  1.00  0.00    -0.063 NA
HETATM   14  N3  UNL     1      15.604   3.603  21.063  1.00  0.00    -0.318 N 
HETATM   15  C9  UNL     1      14.571   2.901  20.563  1.00  0.00     0.126 A 
ATOM     16  H3  UNL     1      15.417   4.321  21.763  1.00  0.00     0.169 HD
HETATM   17  N4  UNL     1      13.269   3.234  21.049  1.00  0.00    -0.082 NA
ENDBRANCH   7   8
ENDBRANCH   3   7
BRANCH   1  18
HETATM   18  O1  UNL     1      10.975  -2.857  19.858  1.00  0.00    -0.353 OA
HETATM   19  C1  UNL     1      10.713  -3.538  18.624  1.00  0.00     0.210 C 
ENDBRANCH   1  18
BRANCH   5  20
HETATM   20  O2  UNL     1      15.395  -2.716  21.679  1.00  0.00    -0.353 OA
HETATM   21  C12 UNL     1      16.688  -2.152  21.657  1.00  0.00     0.210 C 
ENDBRANCH   5  20
BRANCH   6  22
HETATM   22  O3  UNL     1      13.007  -4.042  21.308  1.00  0.00    -0.351 OA
HETATM   23  C14 UNL     1      13.427  -5.222  20.657  1.00  0.00     0.210 C 
ENDBRANCH   6  22
TORSDOF 5
ENDMDL
