MODEL 16
REMARK VINA RESULT: -10.309479818      4.305     11.031
REMARK  11 active torsions:
REMARK  status: ('A' for Active; 'I' for Inactive)
REMARK    1  A    between atoms: C4_10  and  C5_11 
REMARK    2  A    between atoms: C5_11  and  N4_12 
REMARK    3  A    between atoms: N4_12  and  C6_14 
REMARK    4  A    between atoms: C9_17  and  C10_18 
REMARK    5  A    between atoms: C10_18  and  O2_19 
REMARK    6  A    between atoms: C10_18  and  N5_21 
REMARK    7  A    between atoms: N5_21  and  C11_23 
REMARK    8  A    between atoms: C11_23  and  C12_24 
REMARK    9  A    between atoms: C11_23  and  C15_29 
REMARK   10  A    between atoms: C12_24  and  C13_25 
REMARK   11  A    between atoms: C13_25  and  C14_26 
ROOT
HETATM    1  C6  UNL     1      32.893  47.571  46.671  1.00  0.00     0.028 A 
HETATM    2  C7  UNL     1      32.452  46.236  46.668  1.00  0.00     0.030 A 
HETATM    3  C8  UNL     1      31.147  45.970  46.299  1.00  0.00     0.018 A 
HETATM    4  C9  UNL     1      30.253  46.930  45.938  1.00  0.00     0.015 A 
HETATM    5  C16 UNL     1      30.657  48.268  45.931  1.00  0.00     0.018 A 
HETATM    6  C17 UNL     1      31.980  48.539  46.301  1.00  0.00     0.030 A 
ENDROOT
BRANCH   1   7
HETATM    7  N4  UNL     1      34.205  47.892  47.058  1.00  0.00    -0.384 N 
ATOM      8  H4  UNL     1      34.509  48.861  46.964  1.00  0.00     0.160 HD
BRANCH   7   9
HETATM    9  C5  UNL     1      35.158  46.922  47.586  1.00  0.00     0.178 C 
BRANCH   9  10
HETATM   10  C4  UNL     1      35.627  47.574  48.865  1.00  0.00     0.043 A 
HETATM   11  N3  UNL     1      34.956  47.616  49.996  1.00  0.00    -0.350 N 
HETATM   12  C3  UNL     1      35.443  48.146  51.135  1.00  0.00     0.146 A 
ATOM     13  H3  UNL     1      34.015  47.224  50.012  1.00  0.00     0.166 HD
HETATM   14  C2  UNL     1      34.739  48.202  52.323  1.00  0.00     0.278 A 
HETATM   15  C19 UNL     1      36.707  48.659  51.131  1.00  0.00     0.140 A 
HETATM   16  N2  UNL     1      35.209  48.720  53.432  1.00  0.00    -0.295 N 
HETATM   17  O1  UNL     1      33.556  47.721  52.325  1.00  0.00    -0.265 OA
HETATM   18  C1  UNL     1      36.479  49.239  53.441  1.00  0.00     0.196 A 
ATOM     19  H2  UNL     1      34.639  48.736  54.277  1.00  0.00     0.171 HD
HETATM   20  N1  UNL     1      37.004  49.826  54.619  1.00  0.00    -0.063 NA
HETATM   21  N7  UNL     1      37.159  49.180  52.292  1.00  0.00    -0.314 N 
ATOM     22  H7  UNL     1      38.105  49.562  52.292  1.00  0.00     0.170 HD
HETATM   23  N6  UNL     1      37.408  48.627  49.992  1.00  0.00    -0.348 N 
HETATM   24  C18 UNL     1      36.921  48.110  48.851  1.00  0.00     0.116 A 
ATOM     25  H6  UNL     1      38.352  49.011  49.990  1.00  0.00     0.167 HD
ENDBRANCH   9  10
ENDBRANCH   7   9
ENDBRANCH   1   7
BRANCH   4  26
HETATM   26  C10 UNL     1      28.926  46.570  45.521  1.00  0.00     0.147 C 
BRANCH  26  27
HETATM   27  O2  UNL     1      28.916  45.677  44.559  1.00  0.00    -0.346 OA
ATOM     28  H2  UNL     1      29.413  45.947  43.796  1.00  0.00     0.219 HD
ENDBRANCH  26  27
BRANCH  26  29
HETATM   29  N5  UNL     1      27.680  47.017  45.961  1.00  0.00    -0.356 N 
ATOM     30  H5  UNL     1      27.614  47.742  46.675  1.00  0.00     0.162 HD
BRANCH  29  31
HETATM   31  C11 UNL     1      26.441  46.417  45.369  1.00  0.00     0.185 C 
BRANCH  31  32
HETATM   32  C12 UNL     1      25.389  46.389  46.460  1.00  0.00     0.046 C 
BRANCH  32  33
HETATM   33  C13 UNL     1      24.651  45.122  46.623  1.00  0.00     0.116 C 
BRANCH  33  34
HETATM   34  C14 UNL     1      24.268  44.673  47.948  1.00  0.00     0.172 C 
HETATM   35  O3  UNL     1      24.020  43.459  48.180  1.00  0.00    -0.648 OA
HETATM   36  O4  UNL     1      24.174  45.558  48.980  1.00  0.00    -0.648 OA
ENDBRANCH  33  34
ENDBRANCH  32  33
ENDBRANCH  31  32
BRANCH  31  37
HETATM   37  C15 UNL     1      26.079  47.122  44.185  1.00  0.00     0.196 C 
HETATM   38  O5  UNL     1      25.625  48.088  43.680  1.00  0.00    -0.646 OA
HETATM   39  O6  UNL     1      26.525  46.232  42.938  1.00  0.00    -0.646 OA
ENDBRANCH  31  37
ENDBRANCH  29  31
ENDBRANCH  26  29
ENDBRANCH   4  26
TORSDOF 11
ENDMDL
