MODEL 2
REMARK VINA RESULT: -10.897275616      1.271      1.897
REMARK  11 active torsions:
REMARK  status: ('A' for Active; 'I' for Inactive)
REMARK    1  A    between atoms: C4_10  and  C5_11 
REMARK    2  A    between atoms: C5_11  and  N4_12 
REMARK    3  A    between atoms: N4_12  and  C6_14 
REMARK    4  A    between atoms: C9_17  and  C10_18 
REMARK    5  A    between atoms: C10_18  and  O2_19 
REMARK    6  A    between atoms: C10_18  and  N5_21 
REMARK    7  A    between atoms: N5_21  and  C11_23 
REMARK    8  A    between atoms: C11_23  and  C12_24 
REMARK    9  A    between atoms: C11_23  and  C15_29 
REMARK   10  A    between atoms: C12_24  and  C13_25 
REMARK   11  A    between atoms: C13_25  and  C14_26 
ROOT
HETATM    1  C6  UNL     1      32.984  46.970  46.856  1.00  0.00     0.028 A 
HETATM    2  C7  UNL     1      33.768  47.617  45.884  1.00  0.00     0.030 A 
HETATM    3  C8  UNL     1      35.116  47.794  46.130  1.00  0.00     0.018 A 
HETATM    4  C9  UNL     1      35.737  47.383  47.269  1.00  0.00     0.015 A 
HETATM    5  C16 UNL     1      34.988  46.738  48.257  1.00  0.00     0.018 A 
HETATM    6  C17 UNL     1      33.623  46.553  48.007  1.00  0.00     0.030 A 
ENDROOT
BRANCH   1   7
HETATM    7  N4  UNL     1      31.606  46.784  46.659  1.00  0.00    -0.384 N 
ATOM      8  H4  UNL     1      30.965  47.443  47.101  1.00  0.00     0.160 HD
BRANCH   7   9
HETATM    9  C5  UNL     1      31.036  45.706  45.859  1.00  0.00     0.178 C 
BRANCH   9  10
HETATM   10  C4  UNL     1      29.750  46.309  45.348  1.00  0.00     0.043 A 
HETATM   11  N3  UNL     1      28.568  45.733  45.374  1.00  0.00    -0.350 N 
HETATM   12  C3  UNL     1      27.432  46.337  44.972  1.00  0.00     0.146 A 
ATOM     13  H3  UNL     1      28.507  44.775  45.719  1.00  0.00     0.166 HD
HETATM   14  C2  UNL     1      26.189  45.732  44.988  1.00  0.00     0.278 A 
HETATM   15  C19 UNL     1      27.498  47.623  44.522  1.00  0.00     0.140 A 
HETATM   16  N2  UNL     1      25.083  46.316  44.594  1.00  0.00    -0.295 N 
HETATM   17  O1  UNL     1      26.130  44.528  45.409  1.00  0.00    -0.265 OA
HETATM   18  C1  UNL     1      25.136  47.609  44.140  1.00  0.00     0.196 A 
ATOM     19  H2  UNL     1      24.195  45.816  44.626  1.00  0.00     0.171 HD
HETATM   20  N1  UNL     1      23.960  48.258  43.687  1.00  0.00    -0.063 NA
HETATM   21  N7  UNL     1      26.338  48.193  44.130  1.00  0.00    -0.314 N 
ATOM     22  H7  UNL     1      26.384  49.156  43.796  1.00  0.00     0.170 HD
HETATM   23  N6  UNL     1      28.689  48.229  44.487  1.00  0.00    -0.348 N 
HETATM   24  C18 UNL     1      29.826  47.627  44.877  1.00  0.00     0.116 A 
ATOM     25  H6  UNL     1      28.737  49.191  44.151  1.00  0.00     0.167 HD
ENDBRANCH   9  10
ENDBRANCH   7   9
ENDBRANCH   1   7
BRANCH   4  26
HETATM   26  C10 UNL     1      37.154  47.561  47.431  1.00  0.00     0.147 C 
BRANCH  26  27
HETATM   27  O2  UNL     1      37.472  48.129  48.571  1.00  0.00    -0.346 OA
ATOM     28  H2  UNL     1      38.150  48.788  48.481  1.00  0.00     0.219 HD
ENDBRANCH  26  27
BRANCH  26  29
HETATM   29  N5  UNL     1      38.215  47.242  46.584  1.00  0.00    -0.356 N 
ATOM     30  H5  UNL     1      38.651  46.321  46.627  1.00  0.00     0.162 HD
BRANCH  29  31
HETATM   31  C11 UNL     1      38.705  48.271  45.612  1.00  0.00     0.185 C 
BRANCH  31  32
HETATM   32  C12 UNL     1      38.007  48.011  44.291  1.00  0.00     0.046 C 
BRANCH  32  33
HETATM   33  C13 UNL     1      37.960  46.606  43.843  1.00  0.00     0.116 C 
BRANCH  33  34
HETATM   34  C14 UNL     1      38.101  46.291  42.433  1.00  0.00     0.172 C 
HETATM   35  O3  UNL     1      37.404  45.391  41.892  1.00  0.00    -0.648 OA
HETATM   36  O4  UNL     1      38.991  46.972  41.657  1.00  0.00    -0.648 OA
ENDBRANCH  33  34
ENDBRANCH  32  33
ENDBRANCH  31  32
BRANCH  31  37
HETATM   37  C15 UNL     1      38.524  49.576  46.155  1.00  0.00     0.196 C 
HETATM   38  O5  UNL     1      38.830  50.394  46.949  1.00  0.00    -0.646 OA
HETATM   39  O6  UNL     1      37.431  50.322  45.263  1.00  0.00    -0.646 OA
ENDBRANCH  31  37
ENDBRANCH  29  31
ENDBRANCH  26  29
ENDBRANCH   4  26
TORSDOF 11
ENDMDL
