MODEL 1
REMARK VINA RESULT: -10.977320776      0.000      0.000
REMARK  11 active torsions:
REMARK  status: ('A' for Active; 'I' for Inactive)
REMARK    1  A    between atoms: C4_10  and  C5_11 
REMARK    2  A    between atoms: C5_11  and  N4_12 
REMARK    3  A    between atoms: N4_12  and  C6_14 
REMARK    4  A    between atoms: C9_17  and  C10_18 
REMARK    5  A    between atoms: C10_18  and  O2_19 
REMARK    6  A    between atoms: C10_18  and  N5_21 
REMARK    7  A    between atoms: N5_21  and  C11_23 
REMARK    8  A    between atoms: C11_23  and  C12_24 
REMARK    9  A    between atoms: C11_23  and  C15_29 
REMARK   10  A    between atoms: C12_24  and  C13_25 
REMARK   11  A    between atoms: C13_25  and  C14_26 
ROOT
HETATM    1  C6  UNL     1      32.942  47.328  46.959  1.00  0.00     0.028 A 
HETATM    2  C7  UNL     1      33.768  47.697  45.882  1.00  0.00     0.030 A 
HETATM    3  C8  UNL     1      35.138  47.691  46.065  1.00  0.00     0.018 A 
HETATM    4  C9  UNL     1      35.743  47.351  47.236  1.00  0.00     0.015 A 
HETATM    5  C16 UNL     1      34.952  46.980  48.327  1.00  0.00     0.018 A 
HETATM    6  C17 UNL     1      33.564  46.981  48.142  1.00  0.00     0.030 A 
ENDROOT
BRANCH   1   7
HETATM    7  N4  UNL     1      31.544  47.338  46.826  1.00  0.00    -0.384 N 
ATOM      8  H4  UNL     1      30.996  46.775  47.477  1.00  0.00     0.160 HD
BRANCH   7   9
HETATM    9  C5  UNL     1      30.828  48.105  45.814  1.00  0.00     0.178 C 
BRANCH   9  10
HETATM   10  C4  UNL     1      29.714  47.170  45.408  1.00  0.00     0.043 A 
HETATM   11  N3  UNL     1      28.563  47.530  44.883  1.00  0.00    -0.350 N 
HETATM   12  C3  UNL     1      27.624  46.656  44.469  1.00  0.00     0.146 A 
ATOM     13  H3  UNL     1      28.369  48.526  44.784  1.00  0.00     0.166 HD
HETATM   14  C2  UNL     1      26.408  47.028  43.927  1.00  0.00     0.278 A 
HETATM   15  C19 UNL     1      27.876  45.320  44.583  1.00  0.00     0.140 A 
HETATM   16  N2  UNL     1      25.492  46.180  43.525  1.00  0.00    -0.295 N 
HETATM   17  O1  UNL     1      26.174  48.280  43.821  1.00  0.00    -0.265 OA
HETATM   18  C1  UNL     1      25.734  44.835  43.634  1.00  0.00     0.196 A 
ATOM     19  H2  UNL     1      24.611  46.516  43.137  1.00  0.00     0.171 HD
HETATM   20  N1  UNL     1      24.753  43.895  43.230  1.00  0.00    -0.063 NA
HETATM   21  N7  UNL     1      26.912  44.477  44.155  1.00  0.00    -0.314 N 
ATOM     22  H7  UNL     1      27.099  43.478  44.237  1.00  0.00     0.170 HD
HETATM   23  N6  UNL     1      29.041  44.931  45.113  1.00  0.00    -0.348 N 
HETATM   24  C18 UNL     1      29.975  45.800  45.538  1.00  0.00     0.116 A 
ATOM     25  H6  UNL     1      29.229  43.933  45.198  1.00  0.00     0.167 HD
ENDBRANCH   9  10
ENDBRANCH   7   9
ENDBRANCH   1   7
BRANCH   4  26
HETATM   26  C10 UNL     1      37.176  47.323  47.334  1.00  0.00     0.147 C 
BRANCH  26  27
HETATM   27  O2  UNL     1      37.637  48.056  48.320  1.00  0.00    -0.346 OA
ATOM     28  H2  UNL     1      38.073  48.846  48.022  1.00  0.00     0.219 HD
ENDBRANCH  26  27
BRANCH  26  29
HETATM   29  N5  UNL     1      38.129  46.662  46.558  1.00  0.00    -0.356 N 
ATOM     30  H5  UNL     1      38.183  45.643  46.562  1.00  0.00     0.162 HD
BRANCH  29  31
HETATM   31  C11 UNL     1      39.071  47.469  45.719  1.00  0.00     0.185 C 
BRANCH  31  32
HETATM   32  C12 UNL     1      39.559  46.572  44.599  1.00  0.00     0.046 C 
BRANCH  32  33
HETATM   33  C13 UNL     1      38.523  45.811  43.874  1.00  0.00     0.116 C 
BRANCH  33  34
HETATM   34  C14 UNL     1      38.216  46.139  42.495  1.00  0.00     0.172 C 
HETATM   35  O3  UNL     1      37.330  45.510  41.856  1.00  0.00    -0.648 OA
HETATM   36  O4  UNL     1      38.876  47.147  41.858  1.00  0.00    -0.648 OA
ENDBRANCH  33  34
ENDBRANCH  32  33
ENDBRANCH  31  32
BRANCH  31  37
HETATM   37  C15 UNL     1      38.439  48.678  45.306  1.00  0.00     0.196 C 
HETATM   38  O5  UNL     1      37.723  49.242  44.556  1.00  0.00    -0.646 OA
HETATM   39  O6  UNL     1      38.828  49.810  46.362  1.00  0.00    -0.646 OA
ENDBRANCH  31  37
ENDBRANCH  29  31
ENDBRANCH  26  29
ENDBRANCH   4  26
TORSDOF 11
ENDMDL
