MODEL 3
REMARK VINA RESULT: -10.869529649      1.571      1.707
REMARK  11 active torsions:
REMARK  status: ('A' for Active; 'I' for Inactive)
REMARK    1  A    between atoms: C4_10  and  C5_11 
REMARK    2  A    between atoms: C5_11  and  N4_12 
REMARK    3  A    between atoms: N4_12  and  C6_14 
REMARK    4  A    between atoms: C9_17  and  C10_18 
REMARK    5  A    between atoms: C10_18  and  O2_19 
REMARK    6  A    between atoms: C10_18  and  N5_21 
REMARK    7  A    between atoms: N5_21  and  C11_23 
REMARK    8  A    between atoms: C11_23  and  C12_24 
REMARK    9  A    between atoms: C11_23  and  C15_29 
REMARK   10  A    between atoms: C12_24  and  C13_25 
REMARK   11  A    between atoms: C13_25  and  C14_26 
ROOT
HETATM    1  C6  UNL     1      32.869  46.911  46.777  1.00  0.00     0.028 A 
HETATM    2  C7  UNL     1      33.653  47.638  45.863  1.00  0.00     0.030 A 
HETATM    3  C8  UNL     1      34.985  47.856  46.160  1.00  0.00     0.018 A 
HETATM    4  C9  UNL     1      35.589  47.411  47.296  1.00  0.00     0.015 A 
HETATM    5  C16 UNL     1      34.839  46.687  48.227  1.00  0.00     0.018 A 
HETATM    6  C17 UNL     1      33.490  46.461  47.925  1.00  0.00     0.030 A 
ENDROOT
BRANCH   1   7
HETATM    7  N4  UNL     1      31.506  46.681  46.527  1.00  0.00    -0.384 N 
ATOM      8  H4  UNL     1      31.073  45.859  46.948  1.00  0.00     0.160 HD
BRANCH   7   9
HETATM    9  C5  UNL     1      30.672  47.547  45.700  1.00  0.00     0.178 C 
BRANCH   9  10
HETATM   10  C4  UNL     1      30.131  46.598  44.658  1.00  0.00     0.043 A 
HETATM   11  N3  UNL     1      28.884  46.542  44.245  1.00  0.00    -0.350 N 
HETATM   12  C3  UNL     1      28.458  45.727  43.260  1.00  0.00     0.146 A 
ATOM     13  H3  UNL     1      28.200  47.150  44.695  1.00  0.00     0.166 HD
HETATM   14  C2  UNL     1      27.146  45.655  42.829  1.00  0.00     0.278 A 
HETATM   15  C19 UNL     1      29.365  44.919  42.640  1.00  0.00     0.140 A 
HETATM   16  N2  UNL     1      26.729  44.862  41.873  1.00  0.00    -0.295 N 
HETATM   17  O1  UNL     1      26.298  46.413  43.411  1.00  0.00    -0.265 OA
HETATM   18  C1  UNL     1      27.631  44.045  41.242  1.00  0.00     0.196 A 
ATOM     19  H2  UNL     1      25.746  44.851  41.602  1.00  0.00     0.171 HD
HETATM   20  N1  UNL     1      27.204  43.159  40.220  1.00  0.00    -0.063 NA
HETATM   21  N7  UNL     1      28.900  44.118  41.657  1.00  0.00    -0.314 N 
ATOM     22  H7  UNL     1      29.577  43.515  41.190  1.00  0.00     0.170 HD
HETATM   23  N6  UNL     1      30.640  44.959  43.043  1.00  0.00    -0.348 N 
HETATM   24  C18 UNL     1      31.066  45.762  44.033  1.00  0.00     0.116 A 
ATOM     25  H6  UNL     1      31.317  44.355  42.579  1.00  0.00     0.167 HD
ENDBRANCH   9  10
ENDBRANCH   7   9
ENDBRANCH   1   7
BRANCH   4  26
HETATM   26  C10 UNL     1      36.992  47.638  47.511  1.00  0.00     0.147 C 
BRANCH  26  27
HETATM   27  O2  UNL     1      37.239  48.310  48.611  1.00  0.00    -0.346 OA
ATOM     28  H2  UNL     1      38.125  48.185  48.931  1.00  0.00     0.219 HD
ENDBRANCH  26  27
BRANCH  26  29
HETATM   29  N5  UNL     1      38.101  47.272  46.749  1.00  0.00    -0.356 N 
ATOM     30  H5  UNL     1      38.543  46.363  46.883  1.00  0.00     0.162 HD
BRANCH  29  31
HETATM   31  C11 UNL     1      38.632  48.233  45.730  1.00  0.00     0.185 C 
BRANCH  31  32
HETATM   32  C12 UNL     1      37.931  47.934  44.420  1.00  0.00     0.046 C 
BRANCH  32  33
HETATM   33  C13 UNL     1      38.046  46.551  43.918  1.00  0.00     0.116 C 
BRANCH  33  34
HETATM   34  C14 UNL     1      38.133  46.304  42.491  1.00  0.00     0.172 C 
HETATM   35  O3  UNL     1      37.392  45.453  41.929  1.00  0.00    -0.648 OA
HETATM   36  O4  UNL     1      39.020  46.996  41.720  1.00  0.00    -0.648 OA
ENDBRANCH  33  34
ENDBRANCH  32  33
ENDBRANCH  31  32
BRANCH  31  37
HETATM   37  C15 UNL     1      38.498  49.569  46.207  1.00  0.00     0.196 C 
HETATM   38  O5  UNL     1      38.850  50.422  46.942  1.00  0.00    -0.646 OA
HETATM   39  O6  UNL     1      37.383  50.288  45.319  1.00  0.00    -0.646 OA
ENDBRANCH  31  37
ENDBRANCH  29  31
ENDBRANCH  26  29
ENDBRANCH   4  26
TORSDOF 11
ENDMDL
