MODEL 3
REMARK VINA RESULT: -10.858130729      3.998      8.906
REMARK  9 active torsions:
REMARK  status: ('A' for Active; 'I' for Inactive)
REMARK    1  A    between atoms: N1_2  and  C2_3 
REMARK    2  A    between atoms: N1_2  and  C9_20 
REMARK    3  A    between atoms: C2_3  and  C3_4 
REMARK    4  A    between atoms: C12_23  and  C13_24 
REMARK       I    between atoms: C13_24  and  N8_26 
REMARK    5  A    between atoms: N8_26  and  C14_28 
REMARK    6  A    between atoms: C14_28  and  C15_29 
REMARK    7  A    between atoms: C14_28  and  C18_34 
REMARK    8  A    between atoms: C15_29  and  C16_30 
REMARK    9  A    between atoms: C16_30  and  C17_31 
ROOT
HETATM    1  C9  UNL     1      13.186 -36.675   0.771  1.00  0.00     0.030 A 
HETATM    2  C10 UNL     1      13.661 -37.960   0.885  1.00  0.00     0.030 A 
HETATM    3  C11 UNL     1      14.594 -38.290   1.861  1.00  0.00     0.019 A 
HETATM    4  C12 UNL     1      15.089 -37.370   2.754  1.00  0.00     0.032 A 
HETATM    5  C19 UNL     1      14.609 -36.084   2.636  1.00  0.00     0.019 A 
HETATM    6  C20 UNL     1      13.684 -35.724   1.680  1.00  0.00     0.030 A 
ENDROOT
BRANCH   1   7
HETATM    7  N1  UNL     1      12.238 -36.295  -0.209  1.00  0.00    -0.380 N 
HETATM    8  C1  UNL     1      12.735 -36.052  -1.570  1.00  0.00     0.150 C 
BRANCH   7   9
HETATM    9  C2  UNL     1      10.845 -36.123  -0.002  1.00  0.00     0.181 C 
BRANCH   9  10
HETATM   10  C3  UNL     1      10.450 -36.111   1.439  1.00  0.00     0.043 A 
HETATM   11  C4  UNL     1      10.670 -34.977   2.192  1.00  0.00     0.116 A 
HETATM   12  N2  UNL     1      10.321 -34.930   3.505  1.00  0.00    -0.348 N 
HETATM   13  C5  UNL     1       9.751 -35.985   4.112  1.00  0.00     0.138 A 
ATOM     14  H2  UNL     1      10.495 -34.079   4.039  1.00  0.00     0.167 HD
HETATM   15  N3  UNL     1       9.392 -35.969   5.422  1.00  0.00    -0.315 N 
HETATM   16  C8  UNL     1       9.528 -37.116   3.371  1.00  0.00     0.119 A 
HETATM   17  C6  UNL     1       8.822 -37.025   6.032  1.00  0.00     0.195 A 
ATOM     18  H3  UNL     1       9.562 -35.122   5.966  1.00  0.00     0.170 HD
HETATM   19  N4  UNL     1       8.467 -36.949   7.415  1.00  0.00    -0.063 NA
HETATM   20  N5  UNL     1       8.610 -38.123   5.298  1.00  0.00    -0.317 N 
HETATM   21  C7  UNL     1       8.943 -38.199   3.995  1.00  0.00     0.149 A 
ATOM     22  H5  UNL     1       8.178 -38.934   5.742  1.00  0.00     0.169 HD
HETATM   23  N6  UNL     1       8.717 -39.360   3.210  1.00  0.00    -0.080 NA
HETATM   24  N7  UNL     1       9.878 -37.157   2.060  1.00  0.00    -0.351 N 
ATOM     25  H7  UNL     1       9.702 -38.009   1.529  1.00  0.00     0.166 HD
ENDBRANCH   9  10
ENDBRANCH   7   9
ENDBRANCH   1   7
BRANCH   4  26
HETATM   26  C13 UNL     1      16.052 -37.707   3.793  1.00  0.00     0.252 C 
HETATM   27  O1  UNL     1      15.803 -37.469   5.026  1.00  0.00    -0.268 OA
HETATM   28  N8  UNL     1      17.309 -38.311   3.546  1.00  0.00    -0.342 N 
ATOM     29  H8  UNL     1      17.555 -38.530   2.581  1.00  0.00     0.163 HD
BRANCH  28  30
HETATM   30  C14 UNL     1      18.258 -38.631   4.580  1.00  0.00     0.186 C 
BRANCH  30  31
HETATM   31  C15 UNL     1      18.343 -40.092   4.902  1.00  0.00     0.046 C 
BRANCH  31  32
HETATM   32  C16 UNL     1      17.705 -40.515   6.178  1.00  0.00     0.116 C 
BRANCH  32  33
HETATM   33  C17 UNL     1      17.116 -41.872   6.111  1.00  0.00     0.172 C 
HETATM   34  O2  UNL     1      16.486 -42.343   7.090  1.00  0.00    -0.648 OA
HETATM   35  O3  UNL     1      17.218 -42.702   4.983  1.00  0.00    -0.648 OA
ENDBRANCH  32  33
ENDBRANCH  31  32
ENDBRANCH  30  31
BRANCH  30  36
HETATM   36  C18 UNL     1      19.579 -38.019   4.353  1.00  0.00     0.196 C 
HETATM   37  O4  UNL     1      20.572 -38.669   3.913  1.00  0.00    -0.646 OA
HETATM   38  O5  UNL     1      19.798 -36.674   4.615  1.00  0.00    -0.646 OA
ENDBRANCH  30  36
ENDBRANCH  28  30
ENDBRANCH   4  26
TORSDOF 9
ENDMDL
