MODEL 11
REMARK VINA RESULT: -10.377204319      5.933     11.260
REMARK  9 active torsions:
REMARK  status: ('A' for Active; 'I' for Inactive)
REMARK    1  A    between atoms: N1_2  and  C2_3 
REMARK    2  A    between atoms: N1_2  and  C9_20 
REMARK    3  A    between atoms: C2_3  and  C3_4 
REMARK    4  A    between atoms: C12_23  and  C13_24 
REMARK       I    between atoms: C13_24  and  N8_26 
REMARK    5  A    between atoms: N8_26  and  C14_28 
REMARK    6  A    between atoms: C14_28  and  C15_29 
REMARK    7  A    between atoms: C14_28  and  C18_34 
REMARK    8  A    between atoms: C15_29  and  C16_30 
REMARK    9  A    between atoms: C16_30  and  C17_31 
ROOT
HETATM    1  C9  UNL     1      16.089 -37.163   3.197  1.00  0.00     0.030 A 
HETATM    2  C10 UNL     1      16.754 -38.342   3.439  1.00  0.00     0.030 A 
HETATM    3  C11 UNL     1      18.073 -38.339   3.877  1.00  0.00     0.019 A 
HETATM    4  C12 UNL     1      18.780 -37.180   4.091  1.00  0.00     0.032 A 
HETATM    5  C19 UNL     1      18.109 -36.001   3.847  1.00  0.00     0.019 A 
HETATM    6  C20 UNL     1      16.802 -35.969   3.413  1.00  0.00     0.030 A 
ENDROOT
BRANCH   1   7
HETATM    7  N1  UNL     1      14.748 -37.120   2.748  1.00  0.00    -0.380 N 
HETATM    8  C1  UNL     1      13.892 -36.051   3.279  1.00  0.00     0.150 C 
BRANCH   7   9
HETATM    9  C2  UNL     1      14.144 -38.018   1.830  1.00  0.00     0.181 C 
BRANCH   9  10
HETATM   10  C3  UNL     1      13.726 -37.372   0.549  1.00  0.00     0.043 A 
HETATM   11  C4  UNL     1      14.646 -37.223  -0.467  1.00  0.00     0.116 A 
HETATM   12  N2  UNL     1      14.300 -36.642  -1.646  1.00  0.00    -0.348 N 
HETATM   13  C5  UNL     1      13.050 -36.194  -1.861  1.00  0.00     0.138 A 
ATOM     14  H2  UNL     1      15.000 -36.544  -2.381  1.00  0.00     0.167 HD
HETATM   15  N3  UNL     1      12.674 -35.609  -3.028  1.00  0.00    -0.315 N 
HETATM   16  C8  UNL     1      12.129 -36.339  -0.857  1.00  0.00     0.119 A 
HETATM   17  C6  UNL     1      11.424 -35.160  -3.244  1.00  0.00     0.195 A 
ATOM     18  H3  UNL     1      13.367 -35.506  -3.770  1.00  0.00     0.170 HD
HETATM   19  N4  UNL     1      11.087 -34.551  -4.494  1.00  0.00    -0.063 NA
HETATM   20  N5  UNL     1      10.533 -35.307  -2.257  1.00  0.00    -0.317 N 
HETATM   21  C7  UNL     1      10.847 -35.880  -1.078  1.00  0.00     0.149 A 
ATOM     22  H5  UNL     1       9.580 -34.973  -2.402  1.00  0.00     0.169 HD
HETATM   23  N6  UNL     1       9.905 -36.042  -0.028  1.00  0.00    -0.080 NA
HETATM   24  N7  UNL     1      12.481 -36.920   0.318  1.00  0.00    -0.351 N 
ATOM     25  H7  UNL     1      11.778 -37.018   1.050  1.00  0.00     0.166 HD
ENDBRANCH   9  10
ENDBRANCH   7   9
ENDBRANCH   1   7
BRANCH   4  26
HETATM   26  C13 UNL     1      20.155 -37.163   4.568  1.00  0.00     0.252 C 
HETATM   27  O1  UNL     1      20.544 -37.961   5.490  1.00  0.00    -0.268 OA
HETATM   28  N8  UNL     1      21.157 -36.293   4.074  1.00  0.00    -0.342 N 
ATOM     29  H8  UNL     1      20.904 -35.641   3.332  1.00  0.00     0.163 HD
BRANCH  28  30
HETATM   30  C14 UNL     1      22.512 -36.278   4.560  1.00  0.00     0.186 C 
BRANCH  30  31
HETATM   31  C15 UNL     1      23.530 -36.717   3.552  1.00  0.00     0.046 C 
BRANCH  31  32
HETATM   32  C16 UNL     1      22.992 -37.361   2.323  1.00  0.00     0.116 C 
BRANCH  32  33
HETATM   33  C17 UNL     1      23.610 -38.677   2.039  1.00  0.00     0.172 C 
HETATM   34  O2  UNL     1      24.237 -38.870   0.968  1.00  0.00    -0.648 OA
HETATM   35  O3  UNL     1      23.540 -39.768   2.920  1.00  0.00    -0.648 OA
ENDBRANCH  32  33
ENDBRANCH  31  32
ENDBRANCH  30  31
BRANCH  30  36
HETATM   36  C18 UNL     1      22.870 -35.007   5.215  1.00  0.00     0.196 C 
HETATM   37  O4  UNL     1      24.066 -34.669   5.453  1.00  0.00    -0.646 OA
HETATM   38  O5  UNL     1      21.893 -34.105   5.607  1.00  0.00    -0.646 OA
ENDBRANCH  30  36
ENDBRANCH  28  30
ENDBRANCH   4  26
TORSDOF 9
ENDMDL
