MODEL 2
REMARK VINA RESULT: -10.883177333      4.061      8.911
REMARK  9 active torsions:
REMARK  status: ('A' for Active; 'I' for Inactive)
REMARK    1  A    between atoms: N1_2  and  C2_3 
REMARK    2  A    between atoms: N1_2  and  C9_20 
REMARK    3  A    between atoms: C2_3  and  C3_4 
REMARK    4  A    between atoms: C12_23  and  C13_24 
REMARK       I    between atoms: C13_24  and  N8_26 
REMARK    5  A    between atoms: N8_26  and  C14_28 
REMARK    6  A    between atoms: C14_28  and  C15_29 
REMARK    7  A    between atoms: C14_28  and  C18_34 
REMARK    8  A    between atoms: C15_29  and  C16_30 
REMARK    9  A    between atoms: C16_30  and  C17_31 
ROOT
HETATM    1  C9  UNL     1      13.248 -36.604   0.850  1.00  0.00     0.030 A 
HETATM    2  C10 UNL     1      13.740 -35.680   1.742  1.00  0.00     0.030 A 
HETATM    3  C11 UNL     1      14.669 -36.049   2.708  1.00  0.00     0.019 A 
HETATM    4  C12 UNL     1      15.143 -37.333   2.829  1.00  0.00     0.032 A 
HETATM    5  C19 UNL     1      14.647 -38.254   1.932  1.00  0.00     0.019 A 
HETATM    6  C20 UNL     1      13.726 -37.921   0.962  1.00  0.00     0.030 A 
ENDROOT
BRANCH   1   7
HETATM    7  N1  UNL     1      12.301 -36.272  -0.147  1.00  0.00    -0.380 N 
HETATM    8  C1  UNL     1      12.810 -35.994  -1.497  1.00  0.00     0.150 C 
BRANCH   7   9
HETATM    9  C2  UNL     1      10.895 -36.180   0.032  1.00  0.00     0.181 C 
BRANCH   9  10
HETATM   10  C3  UNL     1      10.475 -36.145   1.465  1.00  0.00     0.043 A 
HETATM   11  C4  UNL     1      10.671 -34.995   2.201  1.00  0.00     0.116 A 
HETATM   12  N2  UNL     1      10.299 -34.926   3.506  1.00  0.00    -0.348 N 
HETATM   13  C5  UNL     1       9.729 -35.975   4.123  1.00  0.00     0.138 A 
ATOM     14  H2  UNL     1      10.455 -34.063   4.026  1.00  0.00     0.167 HD
HETATM   15  N3  UNL     1       9.347 -35.938   5.427  1.00  0.00    -0.315 N 
HETATM   16  C8  UNL     1       9.530 -37.123   3.400  1.00  0.00     0.119 A 
HETATM   17  C6  UNL     1       8.777 -36.988   6.046  1.00  0.00     0.195 A 
ATOM     18  H3  UNL     1       9.499 -35.080   5.957  1.00  0.00     0.170 HD
HETATM   19  N4  UNL     1       8.397 -36.889   7.421  1.00  0.00    -0.063 NA
HETATM   20  N5  UNL     1       8.588 -38.102   5.329  1.00  0.00    -0.317 N 
HETATM   21  C7  UNL     1       8.945 -38.199   4.034  1.00  0.00     0.149 A 
ATOM     22  H5  UNL     1       8.157 -38.909   5.782  1.00  0.00     0.169 HD
HETATM   23  N6  UNL     1       8.744 -39.377   3.268  1.00  0.00    -0.080 NA
HETATM   24  N7  UNL     1       9.904 -37.184   2.096  1.00  0.00    -0.351 N 
ATOM     25  H7  UNL     1       9.745 -38.048   1.579  1.00  0.00     0.166 HD
ENDBRANCH   9  10
ENDBRANCH   7   9
ENDBRANCH   1   7
BRANCH   4  26
HETATM   26  C13 UNL     1      16.130 -37.727   3.824  1.00  0.00     0.252 C 
HETATM   27  O1  UNL     1      15.922 -37.536   5.072  1.00  0.00    -0.268 OA
HETATM   28  N8  UNL     1      17.369 -38.339   3.515  1.00  0.00    -0.342 N 
ATOM     29  H8  UNL     1      17.584 -38.522   2.535  1.00  0.00     0.163 HD
BRANCH  28  30
HETATM   30  C14 UNL     1      18.343 -38.716   4.506  1.00  0.00     0.186 C 
BRANCH  30  31
HETATM   31  C15 UNL     1      18.568 -40.193   4.614  1.00  0.00     0.046 C 
BRANCH  31  32
HETATM   32  C16 UNL     1      17.356 -41.019   4.862  1.00  0.00     0.116 C 
BRANCH  32  33
HETATM   33  C17 UNL     1      17.156 -41.343   6.294  1.00  0.00     0.172 C 
HETATM   34  O2  UNL     1      16.565 -42.398   6.632  1.00  0.00    -0.648 OA
HETATM   35  O3  UNL     1      17.602 -40.520   7.340  1.00  0.00    -0.648 OA
ENDBRANCH  32  33
ENDBRANCH  31  32
ENDBRANCH  30  31
BRANCH  30  36
HETATM   36  C18 UNL     1      19.600 -37.954   4.392  1.00  0.00     0.196 C 
HETATM   37  O4  UNL     1      19.696 -36.734   4.712  1.00  0.00    -0.646 OA
HETATM   38  O5  UNL     1      20.758 -38.553   3.919  1.00  0.00    -0.646 OA
ENDBRANCH  30  36
ENDBRANCH  28  30
ENDBRANCH   4  26
TORSDOF 9
ENDMDL
