MODEL 1
REMARK VINA RESULT: -10.962397201      0.000      0.000
REMARK  9 active torsions:
REMARK  status: ('A' for Active; 'I' for Inactive)
REMARK    1  A    between atoms: N1_2  and  C2_3 
REMARK    2  A    between atoms: N1_2  and  C9_20 
REMARK    3  A    between atoms: C2_3  and  C3_4 
REMARK    4  A    between atoms: C12_23  and  C13_24 
REMARK       I    between atoms: C13_24  and  N8_26 
REMARK    5  A    between atoms: N8_26  and  C14_28 
REMARK    6  A    between atoms: C14_28  and  C15_29 
REMARK    7  A    between atoms: C14_28  and  C18_34 
REMARK    8  A    between atoms: C15_29  and  C16_30 
REMARK    9  A    between atoms: C16_30  and  C17_31 
ROOT
HETATM    1  C9  UNL     1      16.899 -37.434   3.647  1.00  0.00     0.030 A 
HETATM    2  C10 UNL     1      16.299 -38.261   2.728  1.00  0.00     0.030 A 
HETATM    3  C11 UNL     1      14.966 -38.087   2.377  1.00  0.00     0.019 A 
HETATM    4  C12 UNL     1      14.181 -37.096   2.917  1.00  0.00     0.032 A 
HETATM    5  C19 UNL     1      14.788 -36.270   3.838  1.00  0.00     0.019 A 
HETATM    6  C20 UNL     1      16.107 -36.416   4.207  1.00  0.00     0.030 A 
ENDROOT
BRANCH   1   7
HETATM    7  N1  UNL     1      18.252 -37.577   4.035  1.00  0.00    -0.380 N 
HETATM    8  C1  UNL     1      19.047 -36.350   4.181  1.00  0.00     0.150 C 
BRANCH   7   9
HETATM    9  C2  UNL     1      18.923 -38.801   4.296  1.00  0.00     0.181 C 
BRANCH   9  10
HETATM   10  C3  UNL     1      18.589 -39.395   5.625  1.00  0.00     0.043 A 
HETATM   11  C4  UNL     1      17.299 -39.812   5.876  1.00  0.00     0.116 A 
HETATM   12  N2  UNL     1      16.959 -40.360   7.073  1.00  0.00    -0.348 N 
HETATM   13  C5  UNL     1      17.868 -40.512   8.051  1.00  0.00     0.138 A 
ATOM     14  H2  UNL     1      15.998 -40.660   7.231  1.00  0.00     0.167 HD
HETATM   15  N3  UNL     1      17.559 -41.054   9.258  1.00  0.00    -0.315 N 
HETATM   16  C8  UNL     1      19.154 -40.100   7.811  1.00  0.00     0.119 A 
HETATM   17  C6  UNL     1      18.469 -41.206  10.239  1.00  0.00     0.195 A 
ATOM     18  H3  UNL     1      16.601 -41.358   9.428  1.00  0.00     0.170 HD
HETATM   19  N4  UNL     1      18.084 -41.784  11.490  1.00  0.00    -0.063 NA
HETATM   20  N5  UNL     1      19.720 -40.801   9.992  1.00  0.00    -0.317 N 
HETATM   21  C7  UNL     1      20.086 -40.257   8.816  1.00  0.00     0.149 A 
ATOM     22  H5  UNL     1      20.423 -40.908  10.724  1.00  0.00     0.169 HD
HETATM   23  N6  UNL     1      21.412 -39.828   8.548  1.00  0.00    -0.080 NA
HETATM   24  N7  UNL     1      19.486 -39.555   6.613  1.00  0.00    -0.351 N 
ATOM     25  H7  UNL     1      20.448 -39.256   6.458  1.00  0.00     0.166 HD
ENDBRANCH   9  10
ENDBRANCH   7   9
ENDBRANCH   1   7
BRANCH   4  26
HETATM   26  C13 UNL     1      12.788 -36.891   2.544  1.00  0.00     0.252 C 
HETATM   27  O1  UNL     1      12.358 -37.235   1.388  1.00  0.00    -0.268 OA
HETATM   28  N8  UNL     1      11.814 -36.315   3.394  1.00  0.00    -0.342 N 
ATOM     29  H8  UNL     1      12.101 -36.031   4.330  1.00  0.00     0.163 HD
BRANCH  28  30
HETATM   30  C14 UNL     1      10.442 -36.108   3.011  1.00  0.00     0.186 C 
BRANCH  30  31
HETATM   31  C15 UNL     1       9.450 -36.433   4.085  1.00  0.00     0.046 C 
BRANCH  31  32
HETATM   32  C16 UNL     1       9.498 -37.822   4.617  1.00  0.00     0.116 C 
BRANCH  32  33
HETATM   33  C17 UNL     1       9.586 -37.876   6.094  1.00  0.00     0.172 C 
HETATM   34  O2  UNL     1       8.868 -37.129   6.804  1.00  0.00    -0.648 OA
HETATM   35  O3  UNL     1      10.451 -38.741   6.784  1.00  0.00    -0.648 OA
ENDBRANCH  32  33
ENDBRANCH  31  32
ENDBRANCH  30  31
BRANCH  30  36
HETATM   36  C18 UNL     1      10.212 -34.784   2.403  1.00  0.00     0.196 C 
HETATM   37  O4  UNL     1      10.312 -33.703   3.052  1.00  0.00    -0.646 OA
HETATM   38  O5  UNL     1       9.869 -34.662   1.065  1.00  0.00    -0.646 OA
ENDBRANCH  30  36
ENDBRANCH  28  30
ENDBRANCH   4  26
TORSDOF 9
ENDMDL
