MODEL 1
REMARK VINA RESULT: -10.912545066      0.000      0.000
REMARK  9 active torsions:
REMARK  status: ('A' for Active; 'I' for Inactive)
REMARK    1  A    between atoms: C4_10  and  C5_11 
REMARK    2  A    between atoms: C5_11  and  N5_12 
REMARK    3  A    between atoms: N5_12  and  C6_14 
REMARK    4  A    between atoms: C9_17  and  C10_18 
REMARK       I    between atoms: C10_18  and  N6_20 
REMARK    5  A    between atoms: N6_20  and  C11_22 
REMARK    6  A    between atoms: C11_22  and  C12_23 
REMARK    7  A    between atoms: C11_22  and  C15_28 
REMARK    8  A    between atoms: C12_23  and  C13_24 
REMARK    9  A    between atoms: C13_24  and  C14_25 
ROOT
HETATM    1  C6  UNL     1      16.105 -37.509   3.287  1.00  0.00     0.028 A 
HETATM    2  C7  UNL     1      16.803 -36.343   3.055  1.00  0.00     0.030 A 
HETATM    3  C8  UNL     1      18.095 -36.155   3.490  1.00  0.00     0.019 A 
HETATM    4  C9  UNL     1      18.761 -37.137   4.189  1.00  0.00     0.032 A 
HETATM    5  C16 UNL     1      18.093 -38.313   4.437  1.00  0.00     0.019 A 
HETATM    6  C17 UNL     1      16.779 -38.485   3.987  1.00  0.00     0.030 A 
ENDROOT
BRANCH   1   7
HETATM    7  N5  UNL     1      14.771 -37.713   2.840  1.00  0.00    -0.384 N 
ATOM      8  H5  UNL     1      14.509 -38.551   2.322  1.00  0.00     0.160 HD
BRANCH   7   9
HETATM    9  C5  UNL     1      13.798 -36.684   3.149  1.00  0.00     0.178 C 
BRANCH   9  10
HETATM   10  C4  UNL     1      13.021 -36.292   1.938  1.00  0.00     0.043 A 
HETATM   11  N4  UNL     1      13.600 -36.221   0.726  1.00  0.00    -0.351 N 
HETATM   12  C3  UNL     1      12.936 -35.870  -0.393  1.00  0.00     0.119 A 
ATOM     13  H4  UNL     1      14.592 -36.444   0.650  1.00  0.00     0.166 HD
HETATM   14  C2  UNL     1      13.534 -35.798  -1.636  1.00  0.00     0.149 A 
HETATM   15  C19 UNL     1      11.583 -35.574  -0.234  1.00  0.00     0.138 A 
HETATM   16  N2  UNL     1      12.816 -35.438  -2.722  1.00  0.00    -0.317 N 
HETATM   17  N3  UNL     1      14.918 -36.111  -1.737  1.00  0.00    -0.080 NA
HETATM   18  C1  UNL     1      11.492 -35.149  -2.567  1.00  0.00     0.195 A 
ATOM     19  H2  UNL     1      13.255 -35.384  -3.642  1.00  0.00     0.169 HD
HETATM   20  N1  UNL     1      10.723 -34.772  -3.690  1.00  0.00    -0.063 NA
HETATM   21  N8  UNL     1      10.912 -35.220  -1.354  1.00  0.00    -0.315 N 
ATOM     22  H8  UNL     1       9.920 -34.997  -1.276  1.00  0.00     0.170 HD
HETATM   23  N7  UNL     1      10.985 -35.638   0.967  1.00  0.00    -0.348 N 
HETATM   24  C18 UNL     1      11.676 -35.992   2.065  1.00  0.00     0.116 A 
ATOM     25  H7  UNL     1       9.992 -35.415   1.047  1.00  0.00     0.167 HD
ENDBRANCH   9  10
ENDBRANCH   7   9
ENDBRANCH   1   7
BRANCH   4  26
HETATM   26  C10 UNL     1      20.128 -36.911   4.637  1.00  0.00     0.252 C 
HETATM   27  O1  UNL     1      20.602 -37.672   5.530  1.00  0.00    -0.268 OA
HETATM   28  N6  UNL     1      20.924 -35.875   4.104  1.00  0.00    -0.342 N 
ATOM     29  H6  UNL     1      20.540 -35.262   3.384  1.00  0.00     0.163 HD
BRANCH  28  30
HETATM   30  C11 UNL     1      22.305 -35.673   4.579  1.00  0.00     0.186 C 
BRANCH  30  31
HETATM   31  C12 UNL     1      23.201 -35.815   3.372  1.00  0.00     0.046 C 
BRANCH  31  32
HETATM   32  C13 UNL     1      23.798 -37.174   3.190  1.00  0.00     0.116 C 
BRANCH  32  33
HETATM   33  C14 UNL     1      23.216 -37.836   1.995  1.00  0.00     0.172 C 
HETATM   34  O2  UNL     1      23.970 -38.443   1.209  1.00  0.00    -0.648 OA
HETATM   35  O3  UNL     1      21.857 -37.777   1.767  1.00  0.00    -0.648 OA
ENDBRANCH  32  33
ENDBRANCH  31  32
ENDBRANCH  30  31
BRANCH  30  36
HETATM   36  C15 UNL     1      22.404 -34.352   5.238  1.00  0.00     0.196 C 
HETATM   37  O4  UNL     1      23.505 -33.924   5.721  1.00  0.00    -0.646 OA
HETATM   38  O5  UNL     1      21.286 -33.548   5.341  1.00  0.00    -0.646 OA
ENDBRANCH  30  36
ENDBRANCH  28  30
ENDBRANCH   4  26
TORSDOF 9
ENDMDL
