MODEL 2
REMARK VINA RESULT: -10.726222108      0.913      2.039
REMARK  9 active torsions:
REMARK  status: ('A' for Active; 'I' for Inactive)
REMARK    1  A    between atoms: C4_10  and  C5_11 
REMARK    2  A    between atoms: C5_11  and  N5_12 
REMARK    3  A    between atoms: N5_12  and  C6_14 
REMARK    4  A    between atoms: C9_17  and  C10_18 
REMARK       I    between atoms: C10_18  and  N6_20 
REMARK    5  A    between atoms: N6_20  and  C11_22 
REMARK    6  A    between atoms: C11_22  and  C12_23 
REMARK    7  A    between atoms: C11_22  and  C15_28 
REMARK    8  A    between atoms: C12_23  and  C13_24 
REMARK    9  A    between atoms: C13_24  and  C14_25 
ROOT
HETATM    1  C6  UNL     1      15.984 -36.644   3.402  1.00  0.00     0.028 A 
HETATM    2  C7  UNL     1      16.622 -37.785   3.840  1.00  0.00     0.030 A 
HETATM    3  C8  UNL     1      17.945 -37.793   4.219  1.00  0.00     0.019 A 
HETATM    4  C9  UNL     1      18.704 -36.645   4.178  1.00  0.00     0.032 A 
HETATM    5  C16 UNL     1      18.098 -35.489   3.747  1.00  0.00     0.019 A 
HETATM    6  C17 UNL     1      16.751 -35.501   3.365  1.00  0.00     0.030 A 
ENDROOT
BRANCH   1   7
HETATM    7  N5  UNL     1      14.617 -36.625   3.011  1.00  0.00    -0.384 N 
ATOM      8  H5  UNL     1      13.971 -35.927   3.377  1.00  0.00     0.160 HD
BRANCH   7   9
HETATM    9  C5  UNL     1      14.178 -37.637   2.070  1.00  0.00     0.178 C 
BRANCH   9  10
HETATM   10  C4  UNL     1      13.751 -37.026   0.778  1.00  0.00     0.043 A 
HETATM   11  N4  UNL     1      12.486 -36.614   0.581  1.00  0.00    -0.351 N 
HETATM   12  C3  UNL     1      12.059 -36.059  -0.570  1.00  0.00     0.119 A 
ATOM     13  H4  UNL     1      11.816 -36.728   1.341  1.00  0.00     0.166 HD
HETATM   14  C2  UNL     1      10.758 -35.638  -0.769  1.00  0.00     0.149 A 
HETATM   15  C19 UNL     1      13.013 -35.927  -1.578  1.00  0.00     0.138 A 
HETATM   16  N2  UNL     1      10.389 -35.089  -1.947  1.00  0.00    -0.317 N 
HETATM   17  N3  UNL     1       9.827 -35.798   0.295  1.00  0.00    -0.080 NA
HETATM   18  C1  UNL     1      11.323 -34.959  -2.933  1.00  0.00     0.195 A 
ATOM     19  H2  UNL     1       9.429 -34.777  -2.097  1.00  0.00     0.169 HD
HETATM   20  N1  UNL     1      10.957 -34.387  -4.171  1.00  0.00    -0.063 NA
HETATM   21  N8  UNL     1      12.589 -35.371  -2.735  1.00  0.00    -0.315 N 
ATOM     22  H8  UNL     1      13.260 -35.259  -3.495  1.00  0.00     0.170 HD
HETATM   23  N7  UNL     1      14.282 -36.332  -1.402  1.00  0.00    -0.348 N 
HETATM   24  C18 UNL     1      14.678 -36.883  -0.241  1.00  0.00     0.116 A 
ATOM     25  H7  UNL     1      14.955 -36.220  -2.161  1.00  0.00     0.167 HD
ENDBRANCH   9  10
ENDBRANCH   7   9
ENDBRANCH   1   7
BRANCH   4  26
HETATM   26  C10 UNL     1      20.102 -36.682   4.585  1.00  0.00     0.252 C 
HETATM   27  O1  UNL     1      20.482 -37.620   5.344  1.00  0.00    -0.268 OA
HETATM   28  N6  UNL     1      21.028 -35.708   4.156  1.00  0.00    -0.342 N 
ATOM     29  H6  UNL     1      20.721 -34.952   3.543  1.00  0.00     0.163 HD
BRANCH  28  30
HETATM   30  C11 UNL     1      22.438 -35.775   4.586  1.00  0.00     0.186 C 
BRANCH  30  31
HETATM   31  C12 UNL     1      23.245 -36.133   3.362  1.00  0.00     0.046 C 
BRANCH  31  32
HETATM   32  C13 UNL     1      23.550 -37.590   3.215  1.00  0.00     0.116 C 
BRANCH  32  33
HETATM   33  C14 UNL     1      22.806 -38.158   2.062  1.00  0.00     0.172 C 
HETATM   34  O2  UNL     1      23.188 -39.236   1.564  1.00  0.00    -0.648 OA
HETATM   35  O3  UNL     1      21.706 -37.496   1.558  1.00  0.00    -0.648 OA
ENDBRANCH  32  33
ENDBRANCH  31  32
ENDBRANCH  30  31
BRANCH  30  36
HETATM   36  C15 UNL     1      22.823 -34.482   5.193  1.00  0.00     0.196 C 
HETATM   37  O4  UNL     1      21.958 -33.703   5.717  1.00  0.00    -0.646 OA
HETATM   38  O5  UNL     1      24.147 -34.093   5.203  1.00  0.00    -0.646 OA
ENDBRANCH  30  36
ENDBRANCH  28  30
ENDBRANCH   4  26
TORSDOF 9
ENDMDL
