MODEL 5
REMARK VINA RESULT: -10.457173306      4.993     11.026
REMARK  9 active torsions:
REMARK  status: ('A' for Active; 'I' for Inactive)
REMARK    1  A    between atoms: C4_10  and  C5_11 
REMARK    2  A    between atoms: C5_11  and  N5_12 
REMARK    3  A    between atoms: N5_12  and  C6_14 
REMARK    4  A    between atoms: C9_17  and  C10_18 
REMARK       I    between atoms: C10_18  and  N6_20 
REMARK    5  A    between atoms: N6_20  and  C11_22 
REMARK    6  A    between atoms: C11_22  and  C12_23 
REMARK    7  A    between atoms: C11_22  and  C15_28 
REMARK    8  A    between atoms: C12_23  and  C13_24 
REMARK    9  A    between atoms: C13_24  and  C14_25 
ROOT
HETATM    1  C6  UNL     1      17.102 -36.093   2.949  1.00  0.00     0.028 A 
HETATM    2  C7  UNL     1      16.505 -35.806   1.740  1.00  0.00     0.030 A 
HETATM    3  C8  UNL     1      15.153 -35.952   1.530  1.00  0.00     0.019 A 
HETATM    4  C9  UNL     1      14.321 -36.397   2.533  1.00  0.00     0.032 A 
HETATM    5  C16 UNL     1      14.884 -36.691   3.752  1.00  0.00     0.019 A 
HETATM    6  C17 UNL     1      16.262 -36.537   3.946  1.00  0.00     0.030 A 
ENDROOT
BRANCH   1   7
HETATM    7  N5  UNL     1      18.498 -35.944   3.176  1.00  0.00    -0.384 N 
ATOM      8  H5  UNL     1      18.992 -35.097   2.898  1.00  0.00     0.160 HD
BRANCH   7   9
HETATM    9  C5  UNL     1      19.191 -37.043   3.820  1.00  0.00     0.178 C 
BRANCH   9  10
HETATM   10  C4  UNL     1      20.670 -36.866   3.748  1.00  0.00     0.043 A 
HETATM   11  N4  UNL     1      21.293 -35.881   4.421  1.00  0.00    -0.351 N 
HETATM   12  C3  UNL     1      22.625 -35.685   4.383  1.00  0.00     0.119 A 
ATOM     13  H4  UNL     1      20.727 -35.251   4.990  1.00  0.00     0.166 HD
HETATM   14  C2  UNL     1      23.261 -34.672   5.076  1.00  0.00     0.149 A 
HETATM   15  C19 UNL     1      23.352 -36.572   3.590  1.00  0.00     0.138 A 
HETATM   16  N2  UNL     1      24.601 -34.525   4.996  1.00  0.00    -0.317 N 
HETATM   17  N3  UNL     1      22.467 -33.798   5.868  1.00  0.00    -0.080 NA
HETATM   18  C1  UNL     1      25.312 -35.394   4.221  1.00  0.00     0.195 A 
ATOM     19  H2  UNL     1      25.073 -33.779   5.507  1.00  0.00     0.169 HD
HETATM   20  N1  UNL     1      26.715 -35.257   4.126  1.00  0.00    -0.063 NA
HETATM   21  N8  UNL     1      24.690 -36.379   3.548  1.00  0.00    -0.315 N 
ATOM     22  H8  UNL     1      25.253 -37.009   2.978  1.00  0.00     0.170 HD
HETATM   23  N7  UNL     1      22.751 -37.562   2.909  1.00  0.00    -0.348 N 
HETATM   24  C18 UNL     1      21.418 -37.732   2.968  1.00  0.00     0.116 A 
ATOM     25  H7  UNL     1      23.314 -38.194   2.339  1.00  0.00     0.167 HD
ENDBRANCH   9  10
ENDBRANCH   7   9
ENDBRANCH   1   7
BRANCH   4  26
HETATM   26  C10 UNL     1      12.893 -36.541   2.282  1.00  0.00     0.252 C 
HETATM   27  O1  UNL     1      12.524 -37.221   1.282  1.00  0.00    -0.268 OA
HETATM   28  N6  UNL     1      11.927 -35.945   3.121  1.00  0.00    -0.342 N 
ATOM     29  H6  UNL     1      12.227 -35.396   3.928  1.00  0.00     0.163 HD
BRANCH  28  30
HETATM   30  C11 UNL     1      10.489 -36.110   2.841  1.00  0.00     0.186 C 
BRANCH  30  31
HETATM   31  C12 UNL     1       9.795 -36.184   4.179  1.00  0.00     0.046 C 
BRANCH  31  32
HETATM   32  C13 UNL     1       9.550 -37.571   4.684  1.00  0.00     0.116 C 
BRANCH  32  33
HETATM   33  C14 UNL     1       9.479 -37.574   6.167  1.00  0.00     0.172 C 
HETATM   34  O2  UNL     1       8.664 -36.822   6.738  1.00  0.00    -0.648 OA
HETATM   35  O3  UNL     1      10.307 -38.402   6.895  1.00  0.00    -0.648 OA
ENDBRANCH  32  33
ENDBRANCH  31  32
ENDBRANCH  30  31
BRANCH  30  36
HETATM   36  C15 UNL     1      10.027 -34.989   1.994  1.00  0.00     0.196 C 
HETATM   37  O4  UNL     1       9.613 -33.893   2.499  1.00  0.00    -0.646 OA
HETATM   38  O5  UNL     1      10.040 -35.113   0.619  1.00  0.00    -0.646 OA
ENDBRANCH  30  36
ENDBRANCH  28  30
ENDBRANCH   4  26
TORSDOF 9
ENDMDL
