MODEL 12
REMARK VINA RESULT: -10.126136719      1.560      2.445
REMARK  9 active torsions:
REMARK  status: ('A' for Active; 'I' for Inactive)
REMARK    1  A    between atoms: C4_10  and  C5_11 
REMARK    2  A    between atoms: C5_11  and  N5_12 
REMARK    3  A    between atoms: N5_12  and  C6_14 
REMARK    4  A    between atoms: C9_17  and  C10_18 
REMARK       I    between atoms: C10_18  and  N6_20 
REMARK    5  A    between atoms: N6_20  and  C11_22 
REMARK    6  A    between atoms: C11_22  and  C12_23 
REMARK    7  A    between atoms: C11_22  and  C15_28 
REMARK    8  A    between atoms: C12_23  and  C13_24 
REMARK    9  A    between atoms: C13_24  and  C14_25 
ROOT
HETATM    1  C6  UNL     1      15.598 -36.319   3.530  1.00  0.00     0.028 A 
HETATM    2  C7  UNL     1      16.553 -35.340   3.358  1.00  0.00     0.030 A 
HETATM    3  C8  UNL     1      17.895 -35.574   3.553  1.00  0.00     0.019 A 
HETATM    4  C9  UNL     1      18.353 -36.816   3.935  1.00  0.00     0.032 A 
HETATM    5  C16 UNL     1      17.426 -37.814   4.114  1.00  0.00     0.019 A 
HETATM    6  C17 UNL     1      16.065 -37.557   3.912  1.00  0.00     0.030 A 
ENDROOT
BRANCH   1   7
HETATM    7  N5  UNL     1      14.209 -36.087   3.329  1.00  0.00    -0.384 N 
ATOM      8  H5  UNL     1      13.748 -35.265   3.718  1.00  0.00     0.160 HD
BRANCH   7   9
HETATM    9  C5  UNL     1      13.475 -37.064   2.549  1.00  0.00     0.178 C 
BRANCH   9  10
HETATM   10  C4  UNL     1      13.338 -36.631   1.129  1.00  0.00     0.043 A 
HETATM   11  N4  UNL     1      12.162 -36.207   0.634  1.00  0.00    -0.351 N 
HETATM   12  C3  UNL     1      11.995 -35.809  -0.642  1.00  0.00     0.119 A 
ATOM     13  H4  UNL     1      11.354 -36.186   1.257  1.00  0.00     0.166 HD
HETATM   14  C2  UNL     1      10.784 -35.375  -1.147  1.00  0.00     0.149 A 
HETATM   15  C19 UNL     1      13.128 -35.858  -1.452  1.00  0.00     0.138 A 
HETATM   16  N2  UNL     1      10.679 -34.989  -2.437  1.00  0.00    -0.317 N 
HETATM   17  N3  UNL     1       9.662 -35.346  -0.273  1.00  0.00    -0.080 NA
HETATM   18  C1  UNL     1      11.788 -35.037  -3.229  1.00  0.00     0.195 A 
ATOM     19  H2  UNL     1       9.786 -34.668  -2.812  1.00  0.00     0.169 HD
HETATM   20  N1  UNL     1      11.699 -34.637  -4.581  1.00  0.00    -0.063 NA
HETATM   21  N8  UNL     1      12.966 -35.461  -2.735  1.00  0.00    -0.315 N 
ATOM     22  H8  UNL     1      13.774 -35.484  -3.356  1.00  0.00     0.170 HD
HETATM   23  N7  UNL     1      14.314 -36.279  -0.979  1.00  0.00    -0.348 N 
HETATM   24  C18 UNL     1      14.448 -36.670   0.301  1.00  0.00     0.116 A 
ATOM     25  H7  UNL     1      15.123 -36.302  -1.600  1.00  0.00     0.167 HD
ENDBRANCH   9  10
ENDBRANCH   7   9
ENDBRANCH   1   7
BRANCH   4  26
HETATM   26  C10 UNL     1      19.779 -37.035   4.134  1.00  0.00     0.252 C 
HETATM   27  O1  UNL     1      20.178 -37.395   5.279  1.00  0.00    -0.268 OA
HETATM   28  N6  UNL     1      20.712 -36.856   3.090  1.00  0.00    -0.342 N 
ATOM     29  H6  UNL     1      20.388 -36.566   2.166  1.00  0.00     0.163 HD
BRANCH  28  30
HETATM   30  C11 UNL     1      22.149 -37.087   3.324  1.00  0.00     0.186 C 
BRANCH  30  31
HETATM   31  C12 UNL     1      22.371 -38.575   3.203  1.00  0.00     0.046 C 
BRANCH  31  32
HETATM   32  C13 UNL     1      23.796 -38.984   3.002  1.00  0.00     0.116 C 
BRANCH  32  33
HETATM   33  C14 UNL     1      23.952 -39.684   1.702  1.00  0.00     0.172 C 
HETATM   34  O2  UNL     1      23.578 -40.869   1.601  1.00  0.00    -0.648 OA
HETATM   35  O3  UNL     1      24.502 -39.022   0.624  1.00  0.00    -0.648 OA
ENDBRANCH  32  33
ENDBRANCH  31  32
ENDBRANCH  30  31
BRANCH  30  36
HETATM   36  C15 UNL     1      22.934 -36.290   2.355  1.00  0.00     0.196 C 
HETATM   37  O4  UNL     1      22.667 -36.300   1.107  1.00  0.00    -0.646 OA
HETATM   38  O5  UNL     1      23.982 -35.508   2.796  1.00  0.00    -0.646 OA
ENDBRANCH  30  36
ENDBRANCH  28  30
ENDBRANCH   4  26
TORSDOF 9
ENDMDL
