MODEL 4
REMARK VINA RESULT: -10.505789834      5.130     10.735
REMARK  9 active torsions:
REMARK  status: ('A' for Active; 'I' for Inactive)
REMARK    1  A    between atoms: C4_10  and  C5_11 
REMARK    2  A    between atoms: C5_11  and  N5_12 
REMARK    3  A    between atoms: N5_12  and  C6_14 
REMARK    4  A    between atoms: C9_17  and  C10_18 
REMARK       I    between atoms: C10_18  and  N6_20 
REMARK    5  A    between atoms: N6_20  and  C11_22 
REMARK    6  A    between atoms: C11_22  and  C12_23 
REMARK    7  A    between atoms: C11_22  and  C15_28 
REMARK    8  A    between atoms: C12_23  and  C13_24 
REMARK    9  A    between atoms: C13_24  and  C14_25 
ROOT
HETATM    1  C6  UNL     1      16.897 -36.105   2.727  1.00  0.00     0.028 A 
HETATM    2  C7  UNL     1      16.012 -36.392   3.744  1.00  0.00     0.030 A 
HETATM    3  C8  UNL     1      14.657 -36.511   3.534  1.00  0.00     0.019 A 
HETATM    4  C9  UNL     1      14.115 -36.347   2.278  1.00  0.00     0.032 A 
HETATM    5  C16 UNL     1      14.971 -36.061   1.241  1.00  0.00     0.019 A 
HETATM    6  C17 UNL     1      16.346 -35.943   1.476  1.00  0.00     0.030 A 
ENDROOT
BRANCH   1   7
HETATM    7  N5  UNL     1      18.299 -35.982   2.935  1.00  0.00    -0.384 N 
ATOM      8  H5  UNL     1      18.928 -35.738   2.170  1.00  0.00     0.160 HD
BRANCH   7   9
HETATM    9  C5  UNL     1      18.799 -36.217   4.275  1.00  0.00     0.178 C 
BRANCH   9  10
HETATM   10  C4  UNL     1      20.005 -37.095   4.256  1.00  0.00     0.043 A 
HETATM   11  N4  UNL     1      20.920 -37.009   3.275  1.00  0.00    -0.351 N 
HETATM   12  C3  UNL     1      22.021 -37.783   3.218  1.00  0.00     0.119 A 
ATOM     13  H4  UNL     1      20.773 -36.323   2.534  1.00  0.00     0.166 HD
HETATM   14  C2  UNL     1      22.959 -37.692   2.208  1.00  0.00     0.149 A 
HETATM   15  C19 UNL     1      22.175 -38.705   4.253  1.00  0.00     0.138 A 
HETATM   16  N2  UNL     1      24.044 -38.498   2.206  1.00  0.00    -0.317 N 
HETATM   17  N3  UNL     1      22.750 -36.733   1.179  1.00  0.00    -0.080 NA
HETATM   18  C1  UNL     1      24.194 -39.399   3.218  1.00  0.00     0.195 A 
ATOM     19  H2  UNL     1      24.738 -38.432   1.461  1.00  0.00     0.169 HD
HETATM   20  N1  UNL     1      25.322 -40.250   3.234  1.00  0.00    -0.063 NA
HETATM   21  N8  UNL     1      23.278 -39.486   4.201  1.00  0.00    -0.315 N 
ATOM     22  H8  UNL     1      23.423 -40.172   4.941  1.00  0.00     0.170 HD
HETATM   23  N7  UNL     1      21.273 -38.809   5.243  1.00  0.00    -0.348 N 
HETATM   24  C18 UNL     1      20.183 -38.020   5.271  1.00  0.00     0.116 A 
ATOM     25  H7  UNL     1      21.416 -39.494   5.985  1.00  0.00     0.167 HD
ENDBRANCH   9  10
ENDBRANCH   7   9
ENDBRANCH   1   7
BRANCH   4  26
HETATM   26  C10 UNL     1      12.678 -36.479   2.084  1.00  0.00     0.252 C 
HETATM   27  O1  UNL     1      12.264 -37.166   1.106  1.00  0.00    -0.268 OA
HETATM   28  N6  UNL     1      11.751 -35.866   2.954  1.00  0.00    -0.342 N 
ATOM     29  H6  UNL     1      12.086 -35.312   3.742  1.00  0.00     0.163 HD
BRANCH  28  30
HETATM   30  C11 UNL     1      10.301 -36.019   2.730  1.00  0.00     0.186 C 
BRANCH  30  31
HETATM   31  C12 UNL     1       9.664 -36.125   4.095  1.00  0.00     0.046 C 
BRANCH  31  32
HETATM   32  C13 UNL     1       9.509 -37.521   4.609  1.00  0.00     0.116 C 
BRANCH  32  33
HETATM   33  C14 UNL     1       9.453 -37.520   6.092  1.00  0.00     0.172 C 
HETATM   34  O2  UNL     1       8.674 -36.737   6.671  1.00  0.00    -0.648 OA
HETATM   35  O3  UNL     1      10.256 -38.379   6.813  1.00  0.00    -0.648 OA
ENDBRANCH  32  33
ENDBRANCH  31  32
ENDBRANCH  30  31
BRANCH  30  36
HETATM   36  C15 UNL     1       9.808 -34.875   1.932  1.00  0.00     0.196 C 
HETATM   37  O4  UNL     1       9.367 -33.813   2.485  1.00  0.00    -0.646 OA
HETATM   38  O5  UNL     1       9.821 -34.940   0.553  1.00  0.00    -0.646 OA
ENDBRANCH  30  36
ENDBRANCH  28  30
ENDBRANCH   4  26
TORSDOF 9
ENDMDL
