MODEL 6
REMARK VINA RESULT: -10.385296767      5.350     10.935
REMARK  9 active torsions:
REMARK  status: ('A' for Active; 'I' for Inactive)
REMARK    1  A    between atoms: C4_10  and  C5_11 
REMARK    2  A    between atoms: C5_11  and  N5_12 
REMARK    3  A    between atoms: N5_12  and  C6_14 
REMARK    4  A    between atoms: C9_17  and  C10_18 
REMARK       I    between atoms: C10_18  and  N6_20 
REMARK    5  A    between atoms: N6_20  and  C11_22 
REMARK    6  A    between atoms: C11_22  and  C12_23 
REMARK    7  A    between atoms: C11_22  and  C15_28 
REMARK    8  A    between atoms: C12_23  and  C13_24 
REMARK    9  A    between atoms: C13_24  and  C14_25 
ROOT
HETATM    1  C6  UNL     1      17.087 -36.061   3.265  1.00  0.00     0.028 A 
HETATM    2  C7  UNL     1      16.166 -36.515   4.185  1.00  0.00     0.030 A 
HETATM    3  C8  UNL     1      14.830 -36.656   3.885  1.00  0.00     0.019 A 
HETATM    4  C9  UNL     1      14.345 -36.345   2.634  1.00  0.00     0.032 A 
HETATM    5  C16 UNL     1      15.238 -35.890   1.694  1.00  0.00     0.019 A 
HETATM    6  C17 UNL     1      16.593 -35.753   2.018  1.00  0.00     0.030 A 
ENDROOT
BRANCH   1   7
HETATM    7  N5  UNL     1      18.470 -35.914   3.565  1.00  0.00    -0.384 N 
ATOM      8  H5  UNL     1      18.829 -35.068   4.007  1.00  0.00     0.160 HD
BRANCH   7   9
HETATM    9  C5  UNL     1      19.349 -37.014   3.220  1.00  0.00     0.178 C 
BRANCH   9  10
HETATM   10  C4  UNL     1      19.968 -37.614   4.437  1.00  0.00     0.043 A 
HETATM   11  N4  UNL     1      19.241 -38.330   5.313  1.00  0.00    -0.351 N 
HETATM   12  C3  UNL     1      19.759 -38.887   6.425  1.00  0.00     0.119 A 
ATOM     13  H4  UNL     1      18.246 -38.456   5.128  1.00  0.00     0.166 HD
HETATM   14  C2  UNL     1      19.009 -39.622   7.323  1.00  0.00     0.149 A 
HETATM   15  C19 UNL     1      21.123 -38.684   6.633  1.00  0.00     0.138 A 
HETATM   16  N2  UNL     1      19.586 -40.156   8.422  1.00  0.00    -0.317 N 
HETATM   17  N3  UNL     1      17.623 -39.797   7.059  1.00  0.00    -0.080 NA
HETATM   18  C1  UNL     1      20.920 -39.957   8.625  1.00  0.00     0.195 A 
ATOM     19  H2  UNL     1      19.035 -40.698   9.087  1.00  0.00     0.169 HD
HETATM   20  N1  UNL     1      21.543 -40.508   9.768  1.00  0.00    -0.063 NA
HETATM   21  N8  UNL     1      21.648 -39.241   7.748  1.00  0.00    -0.315 N 
ATOM     22  H8  UNL     1      22.643 -39.112   7.933  1.00  0.00     0.170 HD
HETATM   23  N7  UNL     1      21.868 -37.972   5.771  1.00  0.00    -0.348 N 
HETATM   24  C18 UNL     1      21.320 -37.428   4.669  1.00  0.00     0.116 A 
ATOM     25  H7  UNL     1      22.863 -37.843   5.954  1.00  0.00     0.167 HD
ENDBRANCH   9  10
ENDBRANCH   7   9
ENDBRANCH   1   7
BRANCH   4  26
HETATM   26  C10 UNL     1      12.926 -36.504   2.344  1.00  0.00     0.252 C 
HETATM   27  O1  UNL     1      12.593 -37.169   1.321  1.00  0.00    -0.268 OA
HETATM   28  N6  UNL     1      11.931 -35.940   3.170  1.00  0.00    -0.342 N 
ATOM     29  H6  UNL     1      12.202 -35.404   3.995  1.00  0.00     0.163 HD
BRANCH  28  30
HETATM   30  C11 UNL     1      10.503 -36.119   2.849  1.00  0.00     0.186 C 
BRANCH  30  31
HETATM   31  C12 UNL     1       9.776 -36.231   4.168  1.00  0.00     0.046 C 
BRANCH  31  32
HETATM   32  C13 UNL     1       9.638 -37.625   4.693  1.00  0.00     0.116 C 
BRANCH  32  33
HETATM   33  C14 UNL     1       9.517 -37.607   6.173  1.00  0.00     0.172 C 
HETATM   34  O2  UNL     1       8.741 -36.791   6.710  1.00  0.00    -0.648 OA
HETATM   35  O3  UNL     1      10.255 -38.488   6.936  1.00  0.00    -0.648 OA
ENDBRANCH  32  33
ENDBRANCH  31  32
ENDBRANCH  30  31
BRANCH  30  36
HETATM   36  C15 UNL     1      10.046 -34.988   2.014  1.00  0.00     0.196 C 
HETATM   37  O4  UNL     1       9.647 -33.891   2.531  1.00  0.00    -0.646 OA
HETATM   38  O5  UNL     1      10.047 -35.102   0.638  1.00  0.00    -0.646 OA
ENDBRANCH  30  36
ENDBRANCH  28  30
ENDBRANCH   4  26
TORSDOF 9
ENDMDL
