MODEL 3
REMARK VINA RESULT: -10.638205097      0.805      1.770
REMARK  9 active torsions:
REMARK  status: ('A' for Active; 'I' for Inactive)
REMARK    1  A    between atoms: C4_10  and  C5_11 
REMARK    2  A    between atoms: C5_11  and  N5_12 
REMARK    3  A    between atoms: N5_12  and  C6_14 
REMARK    4  A    between atoms: C9_17  and  C10_18 
REMARK       I    between atoms: C10_18  and  N6_20 
REMARK    5  A    between atoms: N6_20  and  C11_22 
REMARK    6  A    between atoms: C11_22  and  C12_23 
REMARK    7  A    between atoms: C11_22  and  C15_28 
REMARK    8  A    between atoms: C12_23  and  C13_24 
REMARK    9  A    between atoms: C13_24  and  C14_25 
ROOT
HETATM    1  C6  UNL     1      16.612 -37.729   3.507  1.00  0.00     0.028 A 
HETATM    2  C7  UNL     1      17.279 -36.551   3.245  1.00  0.00     0.030 A 
HETATM    3  C8  UNL     1      18.564 -36.316   3.678  1.00  0.00     0.019 A 
HETATM    4  C9  UNL     1      19.255 -37.262   4.402  1.00  0.00     0.032 A 
HETATM    5  C16 UNL     1      18.619 -38.449   4.679  1.00  0.00     0.019 A 
HETATM    6  C17 UNL     1      17.312 -38.669   4.231  1.00  0.00     0.030 A 
ENDROOT
BRANCH   1   7
HETATM    7  N5  UNL     1      15.285 -37.981   3.063  1.00  0.00    -0.384 N 
ATOM      8  H5  UNL     1      15.006 -38.901   2.723  1.00  0.00     0.160 HD
BRANCH   7   9
HETATM    9  C5  UNL     1      14.344 -36.879   3.112  1.00  0.00     0.178 C 
BRANCH   9  10
HETATM   10  C4  UNL     1      13.868 -36.512   1.748  1.00  0.00     0.043 A 
HETATM   11  N4  UNL     1      12.585 -36.184   1.516  1.00  0.00    -0.351 N 
HETATM   12  C3  UNL     1      12.113 -35.848   0.299  1.00  0.00     0.119 A 
ATOM     13  H4  UNL     1      11.934 -36.190   2.302  1.00  0.00     0.166 HD
HETATM   14  C2  UNL     1      10.794 -35.512   0.066  1.00  0.00     0.149 A 
HETATM   15  C19 UNL     1      13.042 -35.856  -0.740  1.00  0.00     0.138 A 
HETATM   16  N2  UNL     1      10.380 -35.185  -1.178  1.00  0.00    -0.317 N 
HETATM   17  N3  UNL     1       9.891 -35.521   1.165  1.00  0.00    -0.080 NA
HETATM   18  C1  UNL     1      11.289 -35.192  -2.195  1.00  0.00     0.195 A 
ATOM     19  H2  UNL     1       9.406 -34.936  -1.353  1.00  0.00     0.169 HD
HETATM   20  N1  UNL     1      10.877 -34.852  -3.503  1.00  0.00    -0.063 NA
HETATM   21  N8  UNL     1      12.574 -35.520  -1.964  1.00  0.00    -0.315 N 
ATOM     22  H8  UNL     1      13.225 -35.516  -2.748  1.00  0.00     0.170 HD
HETATM   23  N7  UNL     1      14.329 -36.181  -0.532  1.00  0.00    -0.348 N 
HETATM   24  C18 UNL     1      14.768 -36.512   0.696  1.00  0.00     0.116 A 
ATOM     25  H7  UNL     1      14.982 -36.176  -1.316  1.00  0.00     0.167 HD
ENDBRANCH   9  10
ENDBRANCH   7   9
ENDBRANCH   1   7
BRANCH   4  26
HETATM   26  C10 UNL     1      20.614 -36.987   4.846  1.00  0.00     0.252 C 
HETATM   27  O1  UNL     1      21.106 -37.710   5.761  1.00  0.00    -0.268 OA
HETATM   28  N6  UNL     1      21.384 -35.946   4.285  1.00  0.00    -0.342 N 
ATOM     29  H6  UNL     1      20.986 -35.363   3.548  1.00  0.00     0.163 HD
BRANCH  28  30
HETATM   30  C11 UNL     1      22.758 -35.693   4.757  1.00  0.00     0.186 C 
BRANCH  30  31
HETATM   31  C12 UNL     1      23.655 -35.805   3.548  1.00  0.00     0.046 C 
BRANCH  31  32
HETATM   32  C13 UNL     1      23.974 -37.205   3.130  1.00  0.00     0.116 C 
BRANCH  32  33
HETATM   33  C14 UNL     1      23.121 -37.606   1.983  1.00  0.00     0.172 C 
HETATM   34  O2  UNL     1      22.541 -36.724   1.319  1.00  0.00    -0.648 OA
HETATM   35  O3  UNL     1      22.981 -38.940   1.661  1.00  0.00    -0.648 OA
ENDBRANCH  32  33
ENDBRANCH  31  32
ENDBRANCH  30  31
BRANCH  30  36
HETATM   36  C15 UNL     1      22.811 -34.370   5.415  1.00  0.00     0.196 C 
HETATM   37  O4  UNL     1      23.890 -33.915   5.923  1.00  0.00    -0.646 OA
HETATM   38  O5  UNL     1      21.673 -33.591   5.488  1.00  0.00    -0.646 OA
ENDBRANCH  30  36
ENDBRANCH  28  30
ENDBRANCH   4  26
TORSDOF 9
ENDMDL
