MODEL 19
REMARK VINA RESULT: -7.389085100      3.116      4.708
REMARK  6 active torsions:
REMARK  status: ('A' for Active; 'I' for Inactive)
REMARK    1  A    between atoms: C6_8  and  S1_9 
REMARK    2  A    between atoms: S1_9  and  C7_10 
REMARK    3  A    between atoms: C7_10  and  C8_11 
REMARK    4  A    between atoms: C8_11  and  C9_13 
REMARK    5  A    between atoms: C12_16  and  S2_17 
REMARK    6  A    between atoms: S2_17  and  N2_18 
ROOT
HETATM    1  C8  UNL     1      -3.303   3.598  10.330  1.00  0.00     0.169 C 
HETATM    2  O1  UNL     1      -4.185   3.693   9.424  1.00  0.00    -0.291 OA
ENDROOT
BRANCH   1   3
HETATM    3  C7  UNL     1      -1.991   4.187  10.047  1.00  0.00     0.166 C 
BRANCH   3   4
HETATM    4  S1  UNL     1      -0.753   2.908  10.540  1.00  0.00    -0.086 SA
BRANCH   4   5
HETATM    5  C6  UNL     1       0.830   3.744  10.447  1.00  0.00     0.145 A 
HETATM    6  N1  UNL     1       1.417   4.372  11.452  1.00  0.00    -0.341 N 
HETATM    7  C4  UNL     1       2.631   4.974  11.341  1.00  0.00     0.009 A 
ATOM      8  H1  UNL     1       0.937   4.407  12.352  1.00  0.00     0.167 HD
HETATM    9  C3  UNL     1       3.257   4.910  10.108  1.00  0.00     0.049 A 
HETATM   10  C5  UNL     1       3.306   5.676  12.454  1.00  0.00     0.068 C 
HETATM   11  C2  UNL     1       2.658   4.260   9.058  1.00  0.00     0.009 A 
HETATM   12  C1  UNL     1       3.249   4.129   7.699  1.00  0.00     0.068 C 
HETATM   13  N3  UNL     1       1.456   3.689   9.247  1.00  0.00    -0.341 N 
ATOM     14  H3  UNL     1       1.005   3.205   8.470  1.00  0.00     0.167 HD
ENDBRANCH   4   5
ENDBRANCH   3   4
ENDBRANCH   1   3
BRANCH   1  15
HETATM   15  C9  UNL     1      -3.586   2.938  11.580  1.00  0.00     0.012 A 
HETATM   16  C10 UNL     1      -3.712   1.585  11.663  1.00  0.00     0.017 A 
HETATM   17  C11 UNL     1      -3.971   0.934  12.864  1.00  0.00     0.028 A 
HETATM   18  C12 UNL     1      -4.103   1.681  14.006  1.00  0.00     0.101 A 
HETATM   19  C13 UNL     1      -3.984   3.045  13.971  1.00  0.00     0.058 A 
HETATM   20 CL1  UNL     1      -4.174   3.959  15.474  1.00  0.00    -0.083 Cl
HETATM   21  C14 UNL     1      -3.728   3.670  12.771  1.00  0.00     0.040 A 
BRANCH  18  22
HETATM   22  S2  UNL     1      -4.414   0.862  15.510  1.00  0.00     0.258 S 
HETATM   23  O2  UNL     1      -4.596  -0.616  15.306  1.00  0.00    -0.201 OA
HETATM   24  O3  UNL     1      -3.256   1.056  16.464  1.00  0.00    -0.201 OA
BRANCH  22  25
HETATM   25  N2  UNL     1      -5.840   1.533  16.207  1.00  0.00    -0.324 N 
ATOM     26  H22 UNL     1      -5.878   2.399  16.744  1.00  0.00     0.169 HD
ATOM     27  H21 UNL     1      -6.624   0.917  15.990  1.00  0.00     0.169 HD
ENDBRANCH  22  25
ENDBRANCH  18  22
ENDBRANCH   1  15
TORSDOF 6
ENDMDL
