MODEL 15
REMARK VINA RESULT: -7.449418716      2.264      4.239
REMARK  6 active torsions:
REMARK  status: ('A' for Active; 'I' for Inactive)
REMARK    1  A    between atoms: C6_8  and  S1_9 
REMARK    2  A    between atoms: S1_9  and  C7_10 
REMARK    3  A    between atoms: C7_10  and  C8_11 
REMARK    4  A    between atoms: C8_11  and  C9_13 
REMARK    5  A    between atoms: C12_16  and  S2_17 
REMARK    6  A    between atoms: S2_17  and  N2_18 
ROOT
HETATM    1  C8  UNL     1      -3.046   2.992  12.305  1.00  0.00     0.169 C 
HETATM    2  O1  UNL     1      -1.834   3.356  12.388  1.00  0.00    -0.291 OA
ENDROOT
BRANCH   1   3
HETATM    3  C7  UNL     1      -3.691   3.115  10.995  1.00  0.00     0.166 C 
BRANCH   3   4
HETATM    4  S1  UNL     1      -3.111   4.727  10.303  1.00  0.00    -0.086 SA
BRANCH   4   5
HETATM    5  C6  UNL     1      -4.431   5.882  10.666  1.00  0.00     0.145 A 
HETATM    6  N1  UNL     1      -4.659   7.006  10.007  1.00  0.00    -0.341 N 
HETATM    7  C4  UNL     1      -5.690   7.843  10.304  1.00  0.00     0.009 A 
ATOM      8  H1  UNL     1      -4.034   7.257   9.241  1.00  0.00     0.167 HD
HETATM    9  C3  UNL     1      -6.520   7.475  11.348  1.00  0.00     0.049 A 
HETATM   10  C5  UNL     1      -5.964   9.100   9.575  1.00  0.00     0.068 C 
HETATM   11  C2  UNL     1      -6.295   6.311  12.039  1.00  0.00     0.009 A 
HETATM   12  C1  UNL     1      -7.131   5.824  13.169  1.00  0.00     0.068 C 
HETATM   13  N3  UNL     1      -5.254   5.536  11.685  1.00  0.00    -0.341 N 
ATOM     14  H3  UNL     1      -5.081   4.669  12.195  1.00  0.00     0.167 HD
ENDBRANCH   4   5
ENDBRANCH   3   4
ENDBRANCH   1   3
BRANCH   1  15
HETATM   15  C9  UNL     1      -3.751   2.479  13.454  1.00  0.00     0.012 A 
HETATM   16  C10 UNL     1      -3.759   1.150  13.753  1.00  0.00     0.017 A 
HETATM   17  C11 UNL     1      -4.421   0.643  14.865  1.00  0.00     0.028 A 
HETATM   18  C12 UNL     1      -5.090   1.510  15.690  1.00  0.00     0.101 A 
HETATM   19  C13 UNL     1      -5.110   2.855  15.428  1.00  0.00     0.058 A 
HETATM   20 CL1  UNL     1      -5.997   3.926  16.521  1.00  0.00    -0.083 Cl
HETATM   21  C14 UNL     1      -4.447   3.337  14.322  1.00  0.00     0.040 A 
BRANCH  18  22
HETATM   22  S2  UNL     1      -5.908   0.873  17.087  1.00  0.00     0.258 S 
HETATM   23  O2  UNL     1      -5.658  -0.601  17.250  1.00  0.00    -0.201 OA
HETATM   24  O3  UNL     1      -5.421   1.563  18.342  1.00  0.00    -0.201 OA
BRANCH  22  25
HETATM   25  N2  UNL     1      -7.598   1.159  16.904  1.00  0.00    -0.324 N 
ATOM     26  H22 UNL     1      -8.109   1.103  16.024  1.00  0.00     0.169 HD
ATOM     27  H21 UNL     1      -7.985   1.391  17.819  1.00  0.00     0.169 HD
ENDBRANCH  22  25
ENDBRANCH  18  22
ENDBRANCH   1  15
TORSDOF 6
ENDMDL
