MODEL 12
REMARK VINA RESULT: -7.155223285      3.213      4.810
REMARK  6 active torsions:
REMARK  status: ('A' for Active; 'I' for Inactive)
REMARK    1  A    between atoms: N1_1  and  S1_4 
REMARK    2  A    between atoms: S1_4  and  C1_7 
REMARK    3  A    between atoms: C4_10  and  C5_11 
REMARK    4  A    between atoms: C5_11  and  C6_13 
REMARK    5  A    between atoms: C6_13  and  S2_14 
REMARK    6  A    between atoms: S2_14  and  C7_15 
ROOT
HETATM    1  C1  UNL     1      -5.305   2.147  15.603  1.00  0.00     0.101 A 
HETATM    2  C2  UNL     1      -4.519   1.843  14.512  1.00  0.00     0.028 A 
HETATM    3  C3  UNL     1      -4.151   2.817  13.602  1.00  0.00     0.017 A 
HETATM    4  C4  UNL     1      -4.550   4.124  13.741  1.00  0.00     0.012 A 
HETATM    5  C11 UNL     1      -5.334   4.435  14.827  1.00  0.00     0.040 A 
HETATM    6  C12 UNL     1      -5.702   3.459  15.738  1.00  0.00     0.058 A 
HETATM    7 CL1  UNL     1      -6.707   3.858  17.129  1.00  0.00    -0.083 Cl
ENDROOT
BRANCH   4   8
HETATM    8  C5  UNL     1      -4.146   5.156  12.758  1.00  0.00     0.169 C 
HETATM    9  O3  UNL     1      -4.976   5.995  12.334  1.00  0.00    -0.291 OA
BRANCH   8  10
HETATM   10  C6  UNL     1      -2.757   5.218  12.253  1.00  0.00     0.166 C 
BRANCH  10  11
HETATM   11  S2  UNL     1      -2.429   6.879  11.642  1.00  0.00    -0.086 SA
BRANCH  11  12
HETATM   12  C7  UNL     1      -1.800   7.902  12.966  1.00  0.00     0.144 A 
HETATM   13  N2  UNL     1      -1.031   8.957  12.620  1.00  0.00    -0.347 N 
HETATM   14  C8  UNL     1      -0.510   9.789  13.569  1.00  0.00     0.091 A 
ATOM     15  H2  UNL     1      -0.836   9.136  11.634  1.00  0.00     0.167 HD
HETATM   16  C9  UNL     1      -0.773   9.551  14.900  1.00  0.00     0.034 A 
HETATM   17  C10 UNL     1      -1.561   8.467  15.212  1.00  0.00     0.091 A 
HETATM   18  N3  UNL     1      -2.070   7.651  14.259  1.00  0.00    -0.347 N 
ATOM     19  H3  UNL     1      -2.651   6.854  14.519  1.00  0.00     0.167 HD
ENDBRANCH  11  12
ENDBRANCH  10  11
ENDBRANCH   8  10
ENDBRANCH   4   8
BRANCH   1  20
HETATM   20  S1  UNL     1      -5.779   0.915  16.766  1.00  0.00     0.258 S 
HETATM   21  O1  UNL     1      -5.334  -0.444  16.310  1.00  0.00    -0.201 OA
HETATM   22  O2  UNL     1      -5.202   1.246  18.116  1.00  0.00    -0.201 OA
BRANCH  20  23
HETATM   23  N1  UNL     1      -7.511   0.863  16.870  1.00  0.00    -0.324 N 
ATOM     24  H12 UNL     1      -8.144   0.538  16.140  1.00  0.00     0.169 HD
ATOM     25  H11 UNL     1      -7.759   1.218  17.793  1.00  0.00     0.169 HD
ENDBRANCH  20  23
ENDBRANCH   1  20
TORSDOF 6
ENDMDL
