MODEL 1
REMARK VINA RESULT: -7.871958397      0.000      0.000
REMARK  6 active torsions:
REMARK  status: ('A' for Active; 'I' for Inactive)
REMARK    1  A    between atoms: N1_1  and  S1_4 
REMARK    2  A    between atoms: S1_4  and  C1_7 
REMARK    3  A    between atoms: C4_10  and  C5_11 
REMARK    4  A    between atoms: C5_11  and  C6_13 
REMARK    5  A    between atoms: C6_13  and  S2_14 
REMARK    6  A    between atoms: S2_14  and  C7_15 
ROOT
HETATM    1  C1  UNL     1      -5.606   2.492  16.081  1.00  0.00     0.101 A 
HETATM    2  C2  UNL     1      -5.984   3.818  16.109  1.00  0.00     0.028 A 
HETATM    3  C3  UNL     1      -5.600   4.691  15.108  1.00  0.00     0.017 A 
HETATM    4  C4  UNL     1      -4.830   4.281  14.046  1.00  0.00     0.012 A 
HETATM    5  C11 UNL     1      -4.450   2.960  14.012  1.00  0.00     0.040 A 
HETATM    6  C12 UNL     1      -4.835   2.086  15.015  1.00  0.00     0.058 A 
HETATM    7 CL1  UNL     1      -4.348   0.394  14.971  1.00  0.00    -0.083 Cl
ENDROOT
BRANCH   4   8
HETATM    8  C5  UNL     1      -4.428   5.229  12.982  1.00  0.00     0.169 C 
HETATM    9  O3  UNL     1      -5.280   5.958  12.419  1.00  0.00    -0.291 OA
BRANCH   8  10
HETATM   10  C6  UNL     1      -3.015   5.336  12.557  1.00  0.00     0.166 C 
BRANCH  10  11
HETATM   11  S2  UNL     1      -2.835   4.596  10.927  1.00  0.00    -0.086 SA
BRANCH  11  12
HETATM   12  C7  UNL     1      -3.142   2.837  11.018  1.00  0.00     0.144 A 
HETATM   13  N2  UNL     1      -4.387   2.410  10.712  1.00  0.00    -0.347 N 
HETATM   14  C8  UNL     1      -4.705   1.083  10.757  1.00  0.00     0.091 A 
ATOM     15  H2  UNL     1      -5.099   3.089  10.443  1.00  0.00     0.167 HD
HETATM   16  C9  UNL     1      -3.745   0.165  11.118  1.00  0.00     0.034 A 
HETATM   17  C10 UNL     1      -2.489   0.639  11.423  1.00  0.00     0.091 A 
HETATM   18  N3  UNL     1      -2.189   1.959  11.374  1.00  0.00    -0.347 N 
ATOM     19  H3  UNL     1      -1.249   2.282  11.604  1.00  0.00     0.167 HD
ENDBRANCH  11  12
ENDBRANCH  10  11
ENDBRANCH   8  10
ENDBRANCH   4   8
BRANCH   1  20
HETATM   20  S1  UNL     1      -6.089   1.373  17.350  1.00  0.00     0.258 S 
HETATM   21  O1  UNL     1      -7.372   0.682  16.989  1.00  0.00    -0.201 OA
HETATM   22  O2  UNL     1      -4.988   0.375  17.588  1.00  0.00    -0.201 OA
BRANCH  20  23
HETATM   23  N1  UNL     1      -6.396   2.261  18.809  1.00  0.00    -0.324 N 
ATOM     24  H12 UNL     1      -6.084   2.001  19.745  1.00  0.00     0.169 HD
ATOM     25  H11 UNL     1      -6.942   3.080  18.542  1.00  0.00     0.169 HD
ENDBRANCH  20  23
ENDBRANCH   1  20
TORSDOF 6
ENDMDL
