MODEL 2
REMARK VINA RESULT: -7.720025312      1.235      1.600
REMARK  6 active torsions:
REMARK  status: ('A' for Active; 'I' for Inactive)
REMARK    1  A    between atoms: N1_1  and  S1_4 
REMARK    2  A    between atoms: S1_4  and  C1_7 
REMARK    3  A    between atoms: C4_10  and  C5_11 
REMARK    4  A    between atoms: C5_11  and  C6_13 
REMARK    5  A    between atoms: C6_13  and  S2_14 
REMARK    6  A    between atoms: S2_14  and  C7_15 
ROOT
HETATM    1  C1  UNL     1      -5.314   2.372  16.177  1.00  0.00     0.101 A 
HETATM    2  C2  UNL     1      -4.350   1.952  15.285  1.00  0.00     0.028 A 
HETATM    3  C3  UNL     1      -3.848   2.806  14.321  1.00  0.00     0.017 A 
HETATM    4  C4  UNL     1      -4.284   4.104  14.207  1.00  0.00     0.012 A 
HETATM    5  C11 UNL     1      -5.245   4.530  15.094  1.00  0.00     0.040 A 
HETATM    6  C12 UNL     1      -5.747   3.674  16.059  1.00  0.00     0.058 A 
HETATM    7 CL1  UNL     1      -6.979   4.220  17.194  1.00  0.00    -0.083 Cl
ENDROOT
BRANCH   4   8
HETATM    8  C5  UNL     1      -3.735   5.007  13.169  1.00  0.00     0.169 C 
HETATM    9  O3  UNL     1      -4.454   5.890  12.644  1.00  0.00    -0.291 OA
BRANCH   8  10
HETATM   10  C6  UNL     1      -2.328   4.886  12.728  1.00  0.00     0.166 C 
BRANCH  10  11
HETATM   11  S2  UNL     1      -2.292   4.189  11.069  1.00  0.00    -0.086 SA
BRANCH  11  12
HETATM   12  C7  UNL     1      -2.933   2.520  11.094  1.00  0.00     0.144 A 
HETATM   13  N2  UNL     1      -4.245   2.358  10.820  1.00  0.00    -0.347 N 
HETATM   14  C8  UNL     1      -4.815   1.116  10.819  1.00  0.00     0.091 A 
ATOM     15  H2  UNL     1      -4.820   3.174  10.611  1.00  0.00     0.167 HD
HETATM   16  C9  UNL     1      -4.040   0.013  11.100  1.00  0.00     0.034 A 
HETATM   17  C10 UNL     1      -2.708   0.219  11.374  1.00  0.00     0.091 A 
HETATM   18  N3  UNL     1      -2.158   1.457  11.371  1.00  0.00    -0.347 N 
ATOM     19  H3  UNL     1      -1.167   1.581  11.578  1.00  0.00     0.167 HD
ENDBRANCH  11  12
ENDBRANCH  10  11
ENDBRANCH   8  10
ENDBRANCH   4   8
BRANCH   1  20
HETATM   20  S1  UNL     1      -5.961   1.293  17.408  1.00  0.00     0.258 S 
HETATM   21  O1  UNL     1      -7.416   1.020  17.162  1.00  0.00    -0.201 OA
HETATM   22  O2  UNL     1      -5.168   0.014  17.425  1.00  0.00    -0.201 OA
BRANCH  20  23
HETATM   23  N1  UNL     1      -5.855   2.065  18.958  1.00  0.00    -0.324 N 
ATOM     24  H12 UNL     1      -6.575   2.059  19.680  1.00  0.00     0.169 HD
ATOM     25  H11 UNL     1      -4.941   2.517  18.997  1.00  0.00     0.169 HD
ENDBRANCH  20  23
ENDBRANCH   1  20
TORSDOF 6
ENDMDL
