MODEL 9
REMARK VINA RESULT: -7.188645346      3.571      4.476
REMARK  6 active torsions:
REMARK  status: ('A' for Active; 'I' for Inactive)
REMARK    1  A    between atoms: N1_1  and  S1_4 
REMARK    2  A    between atoms: S1_4  and  C1_7 
REMARK    3  A    between atoms: C4_10  and  C5_11 
REMARK    4  A    between atoms: C5_11  and  C6_13 
REMARK    5  A    between atoms: C6_13  and  S2_14 
REMARK    6  A    between atoms: S2_14  and  C7_15 
ROOT
HETATM    1  C1  UNL     1      -4.255   1.779  13.997  1.00  0.00     0.101 A 
HETATM    2  C2  UNL     1      -3.844   1.266  12.785  1.00  0.00     0.028 A 
HETATM    3  C3  UNL     1      -3.649   2.089  11.691  1.00  0.00     0.017 A 
HETATM    4  C4  UNL     1      -3.856   3.446  11.760  1.00  0.00     0.012 A 
HETATM    5  C11 UNL     1      -4.267   3.963  12.966  1.00  0.00     0.040 A 
HETATM    6  C12 UNL     1      -4.461   3.139  14.062  1.00  0.00     0.058 A 
HETATM    7 CL1  UNL     1      -4.988   3.802  15.606  1.00  0.00    -0.083 Cl
ENDROOT
BRANCH   4   8
HETATM    8  C5  UNL     1      -3.643   4.313  10.579  1.00  0.00     0.169 C 
HETATM    9  O3  UNL     1      -3.867   3.884   9.421  1.00  0.00    -0.291 OA
BRANCH   8  10
HETATM   10  C6  UNL     1      -3.159   5.702  10.737  1.00  0.00     0.166 C 
BRANCH  10  11
HETATM   11  S2  UNL     1      -4.576   6.808  10.835  1.00  0.00    -0.086 SA
BRANCH  11  12
HETATM   12  C7  UNL     1      -5.458   6.809   9.281  1.00  0.00     0.144 A 
HETATM   13  N2  UNL     1      -6.803   6.923   9.333  1.00  0.00    -0.347 N 
HETATM   14  C8  UNL     1      -7.553   6.931   8.191  1.00  0.00     0.091 A 
ATOM     15  H2  UNL     1      -7.266   7.004  10.238  1.00  0.00     0.167 HD
HETATM   16  C9  UNL     1      -6.929   6.823   6.968  1.00  0.00     0.034 A 
HETATM   17  C10 UNL     1      -5.558   6.709   6.956  1.00  0.00     0.091 A 
HETATM   18  N3  UNL     1      -4.829   6.702   8.097  1.00  0.00    -0.347 N 
ATOM     19  H3  UNL     1      -3.813   6.616   8.059  1.00  0.00     0.167 HD
ENDBRANCH  11  12
ENDBRANCH  10  11
ENDBRANCH   8  10
ENDBRANCH   4   8
BRANCH   1  20
HETATM   20  S1  UNL     1      -4.507   0.741  15.396  1.00  0.00     0.258 S 
HETATM   21  O1  UNL     1      -4.641  -0.694  14.974  1.00  0.00    -0.201 OA
HETATM   22  O2  UNL     1      -3.368   0.913  16.364  1.00  0.00    -0.201 OA
BRANCH  20  23
HETATM   23  N1  UNL     1      -5.999   1.173  16.169  1.00  0.00    -0.324 N 
ATOM     24  H12 UNL     1      -6.709   0.523  16.506  1.00  0.00     0.169 HD
ATOM     25  H11 UNL     1      -6.019   2.192  16.214  1.00  0.00     0.169 HD
ENDBRANCH  20  23
ENDBRANCH   1  20
TORSDOF 6
ENDMDL
