MODEL 13
REMARK VINA RESULT: -7.145830943      2.940      4.491
REMARK  6 active torsions:
REMARK  status: ('A' for Active; 'I' for Inactive)
REMARK    1  A    between atoms: N1_1  and  S1_4 
REMARK    2  A    between atoms: S1_4  and  C1_7 
REMARK    3  A    between atoms: C4_10  and  C5_11 
REMARK    4  A    between atoms: C5_11  and  C6_13 
REMARK    5  A    between atoms: C6_13  and  S2_14 
REMARK    6  A    between atoms: S2_14  and  C7_15 
ROOT
HETATM    1  C1  UNL     1      -5.540   2.503  15.918  1.00  0.00     0.101 A 
HETATM    2  C2  UNL     1      -5.877   3.840  15.960  1.00  0.00     0.028 A 
HETATM    3  C3  UNL     1      -5.505   4.702  14.946  1.00  0.00     0.017 A 
HETATM    4  C4  UNL     1      -4.785   4.271  13.857  1.00  0.00     0.012 A 
HETATM    5  C11 UNL     1      -4.445   2.940  13.810  1.00  0.00     0.040 A 
HETATM    6  C12 UNL     1      -4.819   2.076  14.826  1.00  0.00     0.058 A 
HETATM    7 CL1  UNL     1      -4.383   0.370  14.764  1.00  0.00    -0.083 Cl
ENDROOT
BRANCH   4   8
HETATM    8  C5  UNL     1      -4.395   5.208  12.779  1.00  0.00     0.169 C 
HETATM    9  O3  UNL     1      -5.245   5.962  12.247  1.00  0.00    -0.291 OA
BRANCH   8  10
HETATM   10  C6  UNL     1      -2.995   5.275  12.304  1.00  0.00     0.166 C 
BRANCH  10  11
HETATM   11  S2  UNL     1      -2.658   6.939  11.706  1.00  0.00    -0.086 SA
BRANCH  11  12
HETATM   12  C7  UNL     1      -1.955   7.928  13.018  1.00  0.00     0.144 A 
HETATM   13  N2  UNL     1      -1.259   9.029  12.658  1.00  0.00    -0.347 N 
HETATM   14  C8  UNL     1      -0.689   9.839  13.599  1.00  0.00     0.091 A 
ATOM     15  H2  UNL     1      -1.158   9.258  11.669  1.00  0.00     0.167 HD
HETATM   16  C9  UNL     1      -0.826   9.531  14.934  1.00  0.00     0.034 A 
HETATM   17  C10 UNL     1      -1.542   8.402  15.260  1.00  0.00     0.091 A 
HETATM   18  N3  UNL     1      -2.101   7.609  14.316  1.00  0.00    -0.347 N 
ATOM     19  H3  UNL     1      -2.627   6.778  14.587  1.00  0.00     0.167 HD
ENDBRANCH  11  12
ENDBRANCH  10  11
ENDBRANCH   8  10
ENDBRANCH   4   8
BRANCH   1  20
HETATM   20  S1  UNL     1      -6.008   1.397  17.204  1.00  0.00     0.258 S 
HETATM   21  O1  UNL     1      -7.292   0.698  16.860  1.00  0.00    -0.201 OA
HETATM   22  O2  UNL     1      -4.903   0.406  17.445  1.00  0.00    -0.201 OA
BRANCH  20  23
HETATM   23  N1  UNL     1      -6.307   2.301  18.655  1.00  0.00    -0.324 N 
ATOM     24  H12 UNL     1      -6.239   1.943  19.608  1.00  0.00     0.169 HD
ATOM     25  H11 UNL     1      -6.561   3.245  18.364  1.00  0.00     0.169 HD
ENDBRANCH  20  23
ENDBRANCH   1  20
TORSDOF 6
ENDMDL
