MODEL 18
REMARK VINA RESULT: -6.963641755      3.168      4.762
REMARK  6 active torsions:
REMARK  status: ('A' for Active; 'I' for Inactive)
REMARK    1  A    between atoms: N1_1  and  S1_4 
REMARK    2  A    between atoms: S1_4  and  C1_7 
REMARK    3  A    between atoms: C4_10  and  C5_11 
REMARK    4  A    between atoms: C5_11  and  C6_13 
REMARK    5  A    between atoms: C6_13  and  S2_14 
REMARK    6  A    between atoms: S2_14  and  C7_15 
ROOT
HETATM    1  C1  UNL     1      -5.287   1.762  15.688  1.00  0.00     0.101 A 
HETATM    2  C2  UNL     1      -4.495   1.048  14.812  1.00  0.00     0.028 A 
HETATM    3  C3  UNL     1      -3.836   1.677  13.772  1.00  0.00     0.017 A 
HETATM    4  C4  UNL     1      -3.940   3.031  13.562  1.00  0.00     0.012 A 
HETATM    5  C11 UNL     1      -4.728   3.748  14.431  1.00  0.00     0.040 A 
HETATM    6  C12 UNL     1      -5.387   3.118  15.473  1.00  0.00     0.058 A 
HETATM    7 CL1  UNL     1      -6.397   4.037  16.586  1.00  0.00    -0.083 Cl
ENDROOT
BRANCH   4   8
HETATM    8  C5  UNL     1      -3.227   3.688  12.443  1.00  0.00     0.169 C 
HETATM    9  O3  UNL     1      -3.478   3.378  11.254  1.00  0.00    -0.291 OA
BRANCH   8  10
HETATM   10  C6  UNL     1      -2.203   4.724  12.702  1.00  0.00     0.166 C 
BRANCH  10  11
HETATM   11  S2  UNL     1      -2.807   6.309  12.103  1.00  0.00    -0.086 SA
BRANCH  11  12
HETATM   12  C7  UNL     1      -2.093   7.637  13.063  1.00  0.00     0.144 A 
HETATM   13  N2  UNL     1      -2.121   7.511  14.408  1.00  0.00    -0.347 N 
HETATM   14  C8  UNL     1      -1.598   8.480  15.216  1.00  0.00     0.091 A 
ATOM     15  H2  UNL     1      -2.540   6.681  14.827  1.00  0.00     0.167 HD
HETATM   16  C9  UNL     1      -1.031   9.602  14.652  1.00  0.00     0.034 A 
HETATM   17  C10 UNL     1      -1.021   9.692  13.279  1.00  0.00     0.091 A 
HETATM   18  N3  UNL     1      -1.545   8.723  12.492  1.00  0.00    -0.347 N 
ATOM     19  H3  UNL     1      -1.523   8.816  11.476  1.00  0.00     0.167 HD
ENDBRANCH  11  12
ENDBRANCH  10  11
ENDBRANCH   8  10
ENDBRANCH   4   8
BRANCH   1  20
HETATM   20  S1  UNL     1      -6.130   0.972  17.015  1.00  0.00     0.258 S 
HETATM   21  O1  UNL     1      -7.617   1.068  16.830  1.00  0.00    -0.201 OA
HETATM   22  O2  UNL     1      -5.690  -0.464  17.110  1.00  0.00    -0.201 OA
BRANCH  20  23
HETATM   23  N1  UNL     1      -5.759   1.794  18.497  1.00  0.00    -0.324 N 
ATOM     24  H12 UNL     1      -5.042   1.522  19.170  1.00  0.00     0.169 HD
ATOM     25  H11 UNL     1      -6.395   2.590  18.556  1.00  0.00     0.169 HD
ENDBRANCH  20  23
ENDBRANCH   1  20
TORSDOF 6
ENDMDL
