MODEL 12
REMARK VINA RESULT: -7.483134395      3.110      5.908
REMARK  6 active torsions:
REMARK  status: ('A' for Active; 'I' for Inactive)
REMARK    1  A    between atoms: C6_8  and  S1_9 
REMARK    2  A    between atoms: S1_9  and  C7_10 
REMARK    3  A    between atoms: C7_10  and  C8_11 
REMARK    4  A    between atoms: C8_11  and  C9_13 
REMARK    5  A    between atoms: C12_16  and  S2_17 
REMARK    6  A    between atoms: S2_17  and  N2_18 
ROOT
HETATM    1  C8  UNL     1      10.917  -5.194   9.978  1.00  0.00     0.169 C 
HETATM    2  O1  UNL     1      10.462  -4.013  10.048  1.00  0.00    -0.291 OA
ENDROOT
BRANCH   1   3
HETATM    3  C7  UNL     1      11.169  -5.734   8.638  1.00  0.00     0.166 C 
BRANCH   3   4
HETATM    4  S1  UNL     1      12.823  -5.079   8.140  1.00  0.00    -0.086 SA
BRANCH   4   5
HETATM    5  C6  UNL     1      13.909  -6.504   8.178  1.00  0.00     0.145 A 
HETATM    6  N1  UNL     1      13.759  -7.553   8.970  1.00  0.00    -0.341 N 
HETATM    7  C4  UNL     1      14.598  -8.623   8.948  1.00  0.00     0.009 A 
ATOM      8  H1  UNL     1      12.979  -7.559   9.627  1.00  0.00     0.167 HD
HETATM    9  C3  UNL     1      15.646  -8.585   8.045  1.00  0.00     0.049 A 
HETATM   10  C5  UNL     1      14.443  -9.807   9.821  1.00  0.00     0.068 C 
HETATM   11  C2  UNL     1      15.812  -7.503   7.218  1.00  0.00     0.009 A 
HETATM   12  C1  UNL     1      16.900  -7.369   6.211  1.00  0.00     0.068 C 
HETATM   13  N3  UNL     1      14.941  -6.483   7.299  1.00  0.00    -0.341 N 
ATOM     14  H3  UNL     1      15.058  -5.675   6.687  1.00  0.00     0.167 HD
ENDBRANCH   4   5
ENDBRANCH   3   4
ENDBRANCH   1   3
BRANCH   1  15
HETATM   15  C9  UNL     1      11.176  -5.966  11.168  1.00  0.00     0.012 A 
HETATM   16  C10 UNL     1      11.295  -5.377  12.390  1.00  0.00     0.017 A 
HETATM   17  C11 UNL     1      11.529  -6.108  13.549  1.00  0.00     0.028 A 
HETATM   18  C12 UNL     1      11.644  -7.472  13.459  1.00  0.00     0.101 A 
HETATM   19  C13 UNL     1      11.533  -8.108  12.250  1.00  0.00     0.058 A 
HETATM   20 CL1  UNL     1      11.700  -9.868  12.192  1.00  0.00    -0.083 Cl
HETATM   21  C14 UNL     1      11.300  -7.364  11.115  1.00  0.00     0.040 A 
BRANCH  18  22
HETATM   22  S2  UNL     1      11.926  -8.386  14.912  1.00  0.00     0.258 S 
HETATM   23  O2  UNL     1      11.991  -7.494  16.121  1.00  0.00    -0.201 OA
HETATM   24  O3  UNL     1      10.807  -9.379  15.134  1.00  0.00    -0.201 OA
BRANCH  22  25
HETATM   25  N2  UNL     1      13.413  -9.239  14.737  1.00  0.00    -0.324 N 
ATOM     26  H22 UNL     1      14.238  -8.883  14.256  1.00  0.00     0.169 HD
ATOM     27  H21 UNL     1      13.319 -10.145  15.195  1.00  0.00     0.169 HD
ENDBRANCH  22  25
ENDBRANCH  18  22
ENDBRANCH   1  15
TORSDOF 6
ENDMDL
