MODEL 13
REMARK VINA RESULT: -7.450741072      3.177      5.844
REMARK  6 active torsions:
REMARK  status: ('A' for Active; 'I' for Inactive)
REMARK    1  A    between atoms: C6_8  and  S1_9 
REMARK    2  A    between atoms: S1_9  and  C7_10 
REMARK    3  A    between atoms: C7_10  and  C8_11 
REMARK    4  A    between atoms: C8_11  and  C9_13 
REMARK    5  A    between atoms: C12_16  and  S2_17 
REMARK    6  A    between atoms: S2_17  and  N2_18 
ROOT
HETATM    1  C8  UNL     1      10.821  -5.344   9.989  1.00  0.00     0.169 C 
HETATM    2  O1  UNL     1      10.250  -4.213  10.041  1.00  0.00    -0.291 OA
ENDROOT
BRANCH   1   3
HETATM    3  C7  UNL     1      11.177  -5.851   8.661  1.00  0.00     0.166 C 
BRANCH   3   4
HETATM    4  S1  UNL     1      12.763  -5.013   8.216  1.00  0.00    -0.086 SA
BRANCH   4   5
HETATM    5  C6  UNL     1      13.954  -6.342   8.060  1.00  0.00     0.145 A 
HETATM    6  N1  UNL     1      14.937  -6.381   7.176  1.00  0.00    -0.341 N 
HETATM    7  C4  UNL     1      15.833  -7.403   7.109  1.00  0.00     0.009 A 
ATOM      8  H1  UNL     1      15.028  -5.610   6.514  1.00  0.00     0.167 HD
HETATM    9  C3  UNL     1      15.684  -8.434   8.020  1.00  0.00     0.049 A 
HETATM   10  C5  UNL     1      16.942  -7.461   6.132  1.00  0.00     0.068 C 
HETATM   11  C2  UNL     1      14.668  -8.405   8.942  1.00  0.00     0.009 A 
HETATM   12  C1  UNL     1      14.426  -9.457   9.966  1.00  0.00     0.068 C 
HETATM   13  N3  UNL     1      13.822  -7.360   8.945  1.00  0.00    -0.341 N 
ATOM     14  H3  UNL     1      13.064  -7.332   9.629  1.00  0.00     0.167 HD
ENDBRANCH   4   5
ENDBRANCH   3   4
ENDBRANCH   1   3
BRANCH   1  15
HETATM   15  C9  UNL     1      11.105  -6.091  11.189  1.00  0.00     0.012 A 
HETATM   16  C10 UNL     1      11.256  -5.477  12.395  1.00  0.00     0.017 A 
HETATM   17  C11 UNL     1      11.515  -6.185  13.562  1.00  0.00     0.028 A 
HETATM   18  C12 UNL     1      11.623  -7.551  13.498  1.00  0.00     0.101 A 
HETATM   19  C13 UNL     1      11.480  -8.211  12.306  1.00  0.00     0.058 A 
HETATM   20 CL1  UNL     1      11.640  -9.973  12.281  1.00  0.00    -0.083 Cl
HETATM   21  C14 UNL     1      11.223  -7.491  11.161  1.00  0.00     0.040 A 
BRANCH  18  22
HETATM   22  S2  UNL     1      11.937  -8.435  14.963  1.00  0.00     0.258 S 
HETATM   23  O2  UNL     1      11.982  -7.525  16.159  1.00  0.00    -0.201 OA
HETATM   24  O3  UNL     1      10.847  -9.456  15.205  1.00  0.00    -0.201 OA
BRANCH  22  25
HETATM   25  N2  UNL     1      13.446  -9.249  14.794  1.00  0.00    -0.324 N 
ATOM     26  H22 UNL     1      14.240  -9.148  15.425  1.00  0.00     0.169 HD
ATOM     27  H21 UNL     1      13.402  -9.839  13.963  1.00  0.00     0.169 HD
ENDBRANCH  22  25
ENDBRANCH  18  22
ENDBRANCH   1  15
TORSDOF 6
ENDMDL
