MODEL 1
REMARK VINA RESULT: -8.008747693      0.000      0.000
REMARK  6 active torsions:
REMARK  status: ('A' for Active; 'I' for Inactive)
REMARK    1  A    between atoms: C6_8  and  S1_9 
REMARK    2  A    between atoms: S1_9  and  C7_10 
REMARK    3  A    between atoms: C7_10  and  C8_11 
REMARK    4  A    between atoms: C8_11  and  C9_13 
REMARK    5  A    between atoms: C12_16  and  S2_17 
REMARK    6  A    between atoms: S2_17  and  N2_18 
ROOT
HETATM    1  C8  UNL     1      11.290  -6.091  11.624  1.00  0.00     0.169 C 
HETATM    2  O1  UNL     1      11.658  -5.652  12.755  1.00  0.00    -0.291 OA
ENDROOT
BRANCH   1   3
HETATM    3  C7  UNL     1      10.606  -7.387  11.601  1.00  0.00     0.166 C 
BRANCH   3   4
HETATM    4  S1  UNL     1      11.908  -8.643  11.975  1.00  0.00    -0.086 SA
BRANCH   4   5
HETATM    5  C6  UNL     1      12.635  -9.036  10.386  1.00  0.00     0.145 A 
HETATM    6  N1  UNL     1      13.871  -8.739  10.022  1.00  0.00    -0.341 N 
HETATM    7  C4  UNL     1      14.388  -9.077   8.810  1.00  0.00     0.009 A 
ATOM      8  H1  UNL     1      14.464  -8.233  10.680  1.00  0.00     0.167 HD
HETATM    9  C3  UNL     1      13.560  -9.764   7.940  1.00  0.00     0.049 A 
HETATM   10  C5  UNL     1      15.770  -8.759   8.388  1.00  0.00     0.068 C 
HETATM   11  C2  UNL     1      12.275 -10.078   8.306  1.00  0.00     0.009 A 
HETATM   12  C1  UNL     1      11.310 -10.817   7.448  1.00  0.00     0.068 C 
HETATM   13  N3  UNL     1      11.836  -9.709   9.522  1.00  0.00    -0.341 N 
ATOM     14  H3  UNL     1      10.882  -9.940   9.800  1.00  0.00     0.167 HD
ENDBRANCH   4   5
ENDBRANCH   3   4
ENDBRANCH   1   3
BRANCH   1  15
HETATM   15  C9  UNL     1      11.535  -5.340  10.418  1.00  0.00     0.012 A 
HETATM   16  C10 UNL     1      10.850  -4.198  10.134  1.00  0.00     0.017 A 
HETATM   17  C11 UNL     1      11.085  -3.455   8.983  1.00  0.00     0.028 A 
HETATM   18  C12 UNL     1      12.042  -3.888   8.100  1.00  0.00     0.101 A 
HETATM   19  C13 UNL     1      12.756  -5.032   8.344  1.00  0.00     0.058 A 
HETATM   20 CL1  UNL     1      13.970  -5.548   7.166  1.00  0.00    -0.083 Cl
HETATM   21  C14 UNL     1      12.507  -5.752   9.490  1.00  0.00     0.040 A 
BRANCH  18  22
HETATM   22  S2  UNL     1      12.342  -2.950   6.666  1.00  0.00     0.258 S 
HETATM   23  O2  UNL     1      13.716  -2.339   6.683  1.00  0.00    -0.201 OA
HETATM   24  O3  UNL     1      12.244  -3.825   5.436  1.00  0.00    -0.201 OA
BRANCH  22  25
HETATM   25  N2  UNL     1      11.153  -1.706   6.572  1.00  0.00    -0.324 N 
ATOM     26  H22 UNL     1      10.188  -1.794   6.888  1.00  0.00     0.169 HD
ATOM     27  H21 UNL     1      11.583  -0.883   6.150  1.00  0.00     0.169 HD
ENDBRANCH  22  25
ENDBRANCH  18  22
ENDBRANCH   1  15
TORSDOF 6
ENDMDL
