MODEL 16
REMARK VINA RESULT: -7.004461370      2.739      3.626
REMARK  6 active torsions:
REMARK  status: ('A' for Active; 'I' for Inactive)
REMARK    1  A    between atoms: N1_1  and  S1_4 
REMARK    2  A    between atoms: S1_4  and  C1_7 
REMARK    3  A    between atoms: C4_10  and  C5_11 
REMARK    4  A    between atoms: C5_11  and  C6_13 
REMARK    5  A    between atoms: C6_13  and  S2_14 
REMARK    6  A    between atoms: S2_14  and  C7_15 
ROOT
HETATM    1  C1  UNL     1      -6.443  -3.506  17.012  1.00  0.00     0.101 A 
HETATM    2  C2  UNL     1      -6.414  -2.355  16.254  1.00  0.00     0.028 A 
HETATM    3  C3  UNL     1      -6.788  -1.137  16.790  1.00  0.00     0.017 A 
HETATM    4  C4  UNL     1      -7.204  -1.017  18.094  1.00  0.00     0.012 A 
HETATM    5  C11 UNL     1      -7.235  -2.162  18.856  1.00  0.00     0.040 A 
HETATM    6  C12 UNL     1      -6.860  -3.382  18.319  1.00  0.00     0.058 A 
HETATM    7 CL1  UNL     1      -6.901  -4.847  19.295  1.00  0.00    -0.083 Cl
ENDROOT
BRANCH   4   8
HETATM    8  C5  UNL     1      -7.601   0.295  18.653  1.00  0.00     0.169 C 
HETATM    9  O3  UNL     1      -7.639   1.316  17.925  1.00  0.00    -0.291 OA
BRANCH   8  10
HETATM   10  C6  UNL     1      -7.959   0.432  20.082  1.00  0.00     0.166 C 
BRANCH  10  11
HETATM   11  S2  UNL     1      -8.811   1.999  20.325  1.00  0.00    -0.086 SA
BRANCH  11  12
HETATM   12  C7  UNL     1     -10.454   1.914  19.628  1.00  0.00     0.144 A 
HETATM   13  N2  UNL     1     -10.591   2.244  18.325  1.00  0.00    -0.347 N 
HETATM   14  C8  UNL     1     -11.813   2.207  17.715  1.00  0.00     0.091 A 
ATOM     15  H2  UNL     1      -9.771   2.527  17.789  1.00  0.00     0.167 HD
HETATM   16  C9  UNL     1     -12.922   1.825  18.437  1.00  0.00     0.034 A 
HETATM   17  C10 UNL     1     -12.741   1.495  19.760  1.00  0.00     0.091 A 
HETATM   18  N3  UNL     1     -11.523   1.538  20.351  1.00  0.00    -0.347 N 
ATOM     19  H3  UNL     1     -11.419   1.288  21.335  1.00  0.00     0.167 HD
ENDBRANCH  11  12
ENDBRANCH  10  11
ENDBRANCH   8  10
ENDBRANCH   4   8
BRANCH   1  20
HETATM   20  S1  UNL     1      -5.969  -5.062  16.340  1.00  0.00     0.258 S 
HETATM   21  O1  UNL     1      -7.176  -5.916  16.080  1.00  0.00    -0.201 OA
HETATM   22  O2  UNL     1      -5.179  -4.847  15.078  1.00  0.00    -0.201 OA
BRANCH  20  23
HETATM   23  N1  UNL     1      -4.997  -5.914  17.498  1.00  0.00    -0.324 N 
ATOM     24  H12 UNL     1      -5.253  -6.779  17.972  1.00  0.00     0.169 HD
ATOM     25  H11 UNL     1      -4.135  -5.380  17.604  1.00  0.00     0.169 HD
ENDBRANCH  20  23
ENDBRANCH   1  20
TORSDOF 6
ENDMDL
