MODEL 17
REMARK VINA RESULT: -6.982610693      2.643      3.147
REMARK  6 active torsions:
REMARK  status: ('A' for Active; 'I' for Inactive)
REMARK    1  A    between atoms: N1_1  and  S1_4 
REMARK    2  A    between atoms: S1_4  and  C1_7 
REMARK    3  A    between atoms: C4_10  and  C5_11 
REMARK    4  A    between atoms: C5_11  and  C6_13 
REMARK    5  A    between atoms: C6_13  and  S2_14 
REMARK    6  A    between atoms: S2_14  and  C7_15 
ROOT
HETATM    1  C1  UNL     1      -6.522  -3.457  17.740  1.00  0.00     0.101 A 
HETATM    2  C2  UNL     1      -6.516  -2.204  17.162  1.00  0.00     0.028 A 
HETATM    3  C3  UNL     1      -6.896  -1.085  17.879  1.00  0.00     0.017 A 
HETATM    4  C4  UNL     1      -7.297  -1.168  19.191  1.00  0.00     0.012 A 
HETATM    5  C11 UNL     1      -7.306  -2.414  19.773  1.00  0.00     0.040 A 
HETATM    6  C12 UNL     1      -6.924  -3.534  19.054  1.00  0.00     0.058 A 
HETATM    7 CL1  UNL     1      -6.936  -5.130  19.801  1.00  0.00    -0.083 Cl
ENDROOT
BRANCH   4   8
HETATM    8  C5  UNL     1      -7.701   0.041  19.944  1.00  0.00     0.169 C 
HETATM    9  O3  UNL     1      -6.931   0.555  20.790  1.00  0.00    -0.291 OA
BRANCH   8  10
HETATM   10  C6  UNL     1      -9.022   0.667  19.719  1.00  0.00     0.166 C 
BRANCH  10  11
HETATM   11  S2  UNL     1      -8.848   1.982  18.502  1.00  0.00    -0.086 SA
BRANCH  11  12
HETATM   12  C7  UNL     1     -10.461   2.569  18.004  1.00  0.00     0.144 A 
HETATM   13  N2  UNL     1     -11.521   1.780  18.285  1.00  0.00    -0.347 N 
HETATM   14  C8  UNL     1     -12.788   2.154  17.939  1.00  0.00     0.091 A 
ATOM     15  H2  UNL     1     -11.373   0.891  18.764  1.00  0.00     0.167 HD
HETATM   16  C9  UNL     1     -12.990   3.353  17.293  1.00  0.00     0.034 A 
HETATM   17  C10 UNL     1     -11.885   4.129  17.024  1.00  0.00     0.091 A 
HETATM   18  N3  UNL     1     -10.635   3.744  17.374  1.00  0.00    -0.347 N 
ATOM     19  H3  UNL     1      -9.835   4.339  17.163  1.00  0.00     0.167 HD
ENDBRANCH  11  12
ENDBRANCH  10  11
ENDBRANCH   8  10
ENDBRANCH   4   8
BRANCH   1  20
HETATM   20  S1  UNL     1      -6.040  -4.888  16.836  1.00  0.00     0.258 S 
HETATM   21  O1  UNL     1      -5.087  -5.725  17.639  1.00  0.00    -0.201 OA
HETATM   22  O2  UNL     1      -7.261  -5.679  16.454  1.00  0.00    -0.201 OA
BRANCH  20  23
HETATM   23  N1  UNL     1      -5.189  -4.400  15.404  1.00  0.00    -0.324 N 
ATOM     24  H12 UNL     1      -4.585  -3.583  15.316  1.00  0.00     0.169 HD
ATOM     25  H11 UNL     1      -5.414  -5.086  14.683  1.00  0.00     0.169 HD
ENDBRANCH  20  23
ENDBRANCH   1  20
TORSDOF 6
ENDMDL
