MODEL 1
REMARK VINA RESULT: -9.843571386      0.000      0.000
REMARK  10 active torsions:
REMARK  status: ('A' for Active; 'I' for Inactive)
REMARK    1  A    between atoms: N5_13  and  C6_14 
REMARK    2  A    between atoms: C7_16  and  C8_17 
REMARK    3  A    between atoms: C8_17  and  O2_18 
REMARK    4  A    between atoms: O2_18  and  P1_19 
REMARK    5  A    between atoms: P1_19  and  O5_22 
REMARK    6  A    between atoms: O5_22  and  P2_23 
REMARK    7  A    between atoms: P2_23  and  O8_26 
REMARK    8  A    between atoms: O8_26  and  P3_27 
REMARK    9  A    between atoms: C9_31  and  O11_32 
REMARK   10  A    between atoms: C10_34  and  O12_35 
ROOT
HETATM    1  C6  UNL     1      17.353  49.356  -7.421  1.00  0.00     0.262 C 
HETATM    2  O1  UNL     1      18.627  49.157  -7.888  1.00  0.00    -0.353 OA
HETATM    3  C7  UNL     1      18.441  48.778  -9.211  1.00  0.00     0.180 C 
HETATM    4  C9  UNL     1      17.257  49.462  -9.752  1.00  0.00     0.182 C 
HETATM    5  C10 UNL     1      16.768  50.235  -8.548  1.00  0.00     0.198 C 
ENDROOT
BRANCH   3   6
HETATM    6  C8  UNL     1      19.700  48.980 -10.033  1.00  0.00     0.216 C 
BRANCH   6   7
HETATM    7  O2  UNL     1      19.356  49.807 -11.083  1.00  0.00    -0.287 OA
BRANCH   7   8
HETATM    8  P1  UNL     1      20.350  51.082 -11.295  1.00  0.00     0.417 P 
HETATM    9  O3  UNL     1      21.226  51.154 -12.764  1.00  0.00    -0.624 OA
HETATM   10  O4  UNL     1      20.539  52.285 -10.238  1.00  0.00    -0.624 OA
BRANCH   8  11
HETATM   11  O5  UNL     1      19.220  51.876 -12.018  1.00  0.00    -0.180 OA
BRANCH  11  12
HETATM   12  P2  UNL     1      18.766  53.306 -11.839  1.00  0.00     0.426 P 
HETATM   13  O6  UNL     1      18.594  53.387 -13.501  1.00  0.00    -0.624 OA
HETATM   14  O7  UNL     1      20.077  53.905 -11.133  1.00  0.00    -0.624 OA
BRANCH  12  15
HETATM   15  O8  UNL     1      17.418  52.851 -11.013  1.00  0.00    -0.191 OA
BRANCH  15  16
HETATM   16  P3  UNL     1      16.185  52.545 -11.996  1.00  0.00     0.358 P 
HETATM   17  O9  UNL     1      15.219  53.771 -12.484  1.00  0.00    -0.635 OA
HETATM   18  O10 UNL     1      15.204  52.024 -10.951  1.00  0.00    -0.635 OA
HETATM   19  S1  UNL     1      15.977  50.655 -12.942  1.00  0.00     0.013 SA
ENDBRANCH  15  16
ENDBRANCH  12  15
ENDBRANCH  11  12
ENDBRANCH   8  11
ENDBRANCH   7   8
ENDBRANCH   6   7
ENDBRANCH   3   6
BRANCH   4  20
HETATM   20  O11 UNL     1      16.245  48.548 -10.086  1.00  0.00    -0.390 OA
ATOM     21  H11 UNL     1      15.386  48.952 -10.050  1.00  0.00     0.210 HD
ENDBRANCH   4  20
BRANCH   1  22
HETATM   22  N5  UNL     1      17.221  50.027  -6.151  1.00  0.00    -0.297 N 
HETATM   23  C3  UNL     1      17.089  51.272  -5.861  1.00  0.00     0.142 A 
HETATM   24  N3  UNL     1      17.351  52.394  -6.585  1.00  0.00    -0.336 N 
HETATM   25  C4  UNL     1      16.955  51.421  -4.524  1.00  0.00     0.119 A 
HETATM   26  C2  UNL     1      17.467  53.579  -5.947  1.00  0.00     0.183 A 
ATOM     27  H3  UNL     1      17.458  52.341  -7.598  1.00  0.00     0.168 HD
HETATM   28  N2  UNL     1      17.339  53.724  -4.587  1.00  0.00    -0.339 N 
HETATM   29  C1  UNL     1      17.091  52.652  -3.855  1.00  0.00     0.148 A 
ATOM     30  H2  UNL     1      17.433  54.641  -4.150  1.00  0.00     0.167 HD
HETATM   31  N1  UNL     1      17.013  52.485  -2.445  1.00  0.00    -0.080 NA
HETATM   32  N4  UNL     1      16.936  50.186  -3.959  1.00  0.00    -0.346 N 
HETATM   33  C5  UNL     1      17.082  49.313  -5.018  1.00  0.00     0.188 A 
ATOM     34  H4  UNL     1      16.837  49.955  -2.970  1.00  0.00     0.167 HD
ENDBRANCH   1  22
BRANCH   5  35
HETATM   35  O12 UNL     1      15.396  50.316  -8.484  1.00  0.00    -0.388 OA
ATOM     36  H12 UNL     1      14.993  49.467  -8.342  1.00  0.00     0.210 HD
ENDBRANCH   5  35
TORSDOF 10
ENDMDL
