MODEL 2
REMARK VINA RESULT: -9.652542261      1.816      2.450
REMARK  10 active torsions:
REMARK  status: ('A' for Active; 'I' for Inactive)
REMARK    1  A    between atoms: N5_13  and  C6_14 
REMARK    2  A    between atoms: C7_16  and  C8_17 
REMARK    3  A    between atoms: C8_17  and  O2_18 
REMARK    4  A    between atoms: O2_18  and  P1_19 
REMARK    5  A    between atoms: P1_19  and  O5_22 
REMARK    6  A    between atoms: O5_22  and  P2_23 
REMARK    7  A    between atoms: P2_23  and  O8_26 
REMARK    8  A    between atoms: O8_26  and  P3_27 
REMARK    9  A    between atoms: C9_31  and  O11_32 
REMARK   10  A    between atoms: C10_34  and  O12_35 
ROOT
HETATM    1  C6  UNL     1      17.588  48.642  -6.129  1.00  0.00     0.262 C 
HETATM    2  O1  UNL     1      17.922  49.227  -7.323  1.00  0.00    -0.353 OA
HETATM    3  C7  UNL     1      17.863  48.180  -8.234  1.00  0.00     0.180 C 
HETATM    4  C9  UNL     1      16.813  47.236  -7.825  1.00  0.00     0.182 C 
HETATM    5  C10 UNL     1      16.322  47.857  -6.536  1.00  0.00     0.198 C 
ENDROOT
BRANCH   3   6
HETATM    6  C8  UNL     1      17.719  48.684  -9.658  1.00  0.00     0.216 C 
BRANCH   6   7
HETATM    7  O2  UNL     1      18.726  49.608  -9.852  1.00  0.00    -0.287 OA
BRANCH   7   8
HETATM    8  P1  UNL     1      20.166  48.964 -10.261  1.00  0.00     0.417 P 
HETATM    9  O3  UNL     1      20.152  47.659 -11.370  1.00  0.00    -0.624 OA
HETATM   10  O4  UNL     1      21.593  49.487  -9.723  1.00  0.00    -0.624 OA
BRANCH   8  11
HETATM   11  O5  UNL     1      20.269  49.911 -11.495  1.00  0.00    -0.180 OA
BRANCH  11  12
HETATM   12  P2  UNL     1      20.146  51.415 -11.582  1.00  0.00     0.426 P 
HETATM   13  O6  UNL     1      21.279  51.368 -12.812  1.00  0.00    -0.624 OA
HETATM   14  O7  UNL     1      20.591  51.795 -10.089  1.00  0.00    -0.624 OA
BRANCH  12  15
HETATM   15  O8  UNL     1      18.576  51.330 -12.068  1.00  0.00    -0.191 OA
BRANCH  15  16
HETATM   16  P3  UNL     1      17.907  52.784 -12.197  1.00  0.00     0.358 P 
HETATM   17  O9  UNL     1      16.418  52.933 -12.857  1.00  0.00    -0.635 OA
HETATM   18  O10 UNL     1      18.644  53.247 -13.450  1.00  0.00    -0.635 OA
HETATM   19  S1  UNL     1      18.758  54.474 -11.233  1.00  0.00     0.013 SA
ENDBRANCH  15  16
ENDBRANCH  12  15
ENDBRANCH  11  12
ENDBRANCH   8  11
ENDBRANCH   7   8
ENDBRANCH   6   7
ENDBRANCH   3   6
BRANCH   4  20
HETATM   20  O11 UNL     1      17.351  45.983  -7.491  1.00  0.00    -0.390 OA
ATOM     21  H11 UNL     1      17.973  45.687  -8.146  1.00  0.00     0.210 HD
ENDBRANCH   4  20
BRANCH   1  22
HETATM   22  N5  UNL     1      17.290  49.527  -5.030  1.00  0.00    -0.297 N 
HETATM   23  C3  UNL     1      17.053  50.790  -5.001  1.00  0.00     0.142 A 
HETATM   24  N3  UNL     1      17.317  51.773  -5.905  1.00  0.00    -0.336 N 
HETATM   25  C4  UNL     1      16.778  51.177  -3.735  1.00  0.00     0.119 A 
HETATM   26  C2  UNL     1      17.297  53.062  -5.502  1.00  0.00     0.183 A 
ATOM     27  H3  UNL     1      17.528  51.538  -6.874  1.00  0.00     0.168 HD
HETATM   28  N2  UNL     1      17.025  53.450  -4.212  1.00  0.00    -0.339 N 
HETATM   29  C1  UNL     1      16.771  52.519  -3.310  1.00  0.00     0.148 A 
ATOM     30  H2  UNL     1      17.019  54.437  -3.957  1.00  0.00     0.167 HD
HETATM   31  N1  UNL     1      16.563  52.615  -1.906  1.00  0.00    -0.080 NA
HETATM   32  N4  UNL     1      16.778  50.073  -2.943  1.00  0.00    -0.346 N 
HETATM   33  C5  UNL     1      17.082  49.031  -3.796  1.00  0.00     0.188 A 
ATOM     34  H4  UNL     1      16.595  50.025  -1.941  1.00  0.00     0.167 HD
ENDBRANCH   1  22
BRANCH   5  35
HETATM   35  O12 UNL     1      15.964  46.922  -5.592  1.00  0.00    -0.388 OA
ATOM     36  H12 UNL     1      15.802  47.315  -4.743  1.00  0.00     0.210 HD
ENDBRANCH   5  35
TORSDOF 10
ENDMDL
