MODEL 3
REMARK VINA RESULT: -9.642294845      2.504      3.362
REMARK  10 active torsions:
REMARK  status: ('A' for Active; 'I' for Inactive)
REMARK    1  A    between atoms: N5_13  and  C6_14 
REMARK    2  A    between atoms: C7_16  and  C8_17 
REMARK    3  A    between atoms: C8_17  and  O2_18 
REMARK    4  A    between atoms: O2_18  and  P1_19 
REMARK    5  A    between atoms: P1_19  and  O5_22 
REMARK    6  A    between atoms: O5_22  and  P2_23 
REMARK    7  A    between atoms: P2_23  and  O8_26 
REMARK    8  A    between atoms: O8_26  and  P3_27 
REMARK    9  A    between atoms: C9_31  and  O11_32 
REMARK   10  A    between atoms: C10_34  and  O12_35 
ROOT
HETATM    1  C6  UNL     1      16.467  48.483  -7.181  1.00  0.00     0.262 C 
HETATM    2  O1  UNL     1      17.262  47.986  -8.183  1.00  0.00    -0.353 OA
HETATM    3  C7  UNL     1      16.711  48.520  -9.341  1.00  0.00     0.180 C 
HETATM    4  C9  UNL     1      16.159  49.851  -9.049  1.00  0.00     0.182 C 
HETATM    5  C10 UNL     1      16.423  49.978  -7.565  1.00  0.00     0.198 C 
ENDROOT
BRANCH   3   6
HETATM    6  C8  UNL     1      17.699  48.499 -10.492  1.00  0.00     0.216 C 
BRANCH   6   7
HETATM    7  O2  UNL     1      18.662  49.444 -10.201  1.00  0.00    -0.287 OA
BRANCH   7   8
HETATM    8  P1  UNL     1      20.196  48.937 -10.421  1.00  0.00     0.417 P 
HETATM    9  O3  UNL     1      20.446  47.670 -11.545  1.00  0.00    -0.624 OA
HETATM   10  O4  UNL     1      21.485  49.564  -9.685  1.00  0.00    -0.624 OA
BRANCH   8  11
HETATM   11  O5  UNL     1      20.378  49.927 -11.613  1.00  0.00    -0.180 OA
BRANCH  11  12
HETATM   12  P2  UNL     1      20.250  51.431 -11.658  1.00  0.00     0.426 P 
HETATM   13  O6  UNL     1      21.394  51.424 -12.879  1.00  0.00    -0.624 OA
HETATM   14  O7  UNL     1      20.681  51.771 -10.151  1.00  0.00    -0.624 OA
BRANCH  12  15
HETATM   15  O8  UNL     1      18.685  51.355 -12.160  1.00  0.00    -0.191 OA
BRANCH  15  16
HETATM   16  P3  UNL     1      17.992  52.804 -12.192  1.00  0.00     0.358 P 
HETATM   17  O9  UNL     1      16.456  52.952 -12.732  1.00  0.00    -0.635 OA
HETATM   18  O10 UNL     1      18.626  53.314 -13.482  1.00  0.00    -0.635 OA
HETATM   19  S1  UNL     1      18.896  54.474 -11.242  1.00  0.00     0.013 SA
ENDBRANCH  15  16
ENDBRANCH  12  15
ENDBRANCH  11  12
ENDBRANCH   8  11
ENDBRANCH   7   8
ENDBRANCH   6   7
ENDBRANCH   3   6
BRANCH   4  20
HETATM   20  O11 UNL     1      14.766  49.877  -9.218  1.00  0.00    -0.390 OA
ATOM     21  H11 UNL     1      14.314  49.749  -8.392  1.00  0.00     0.210 HD
ENDBRANCH   4  20
BRANCH   1  22
HETATM   22  N5  UNL     1      16.950  48.333  -5.831  1.00  0.00    -0.297 N 
HETATM   23  C3  UNL     1      18.138  48.172  -5.369  1.00  0.00     0.142 A 
HETATM   24  N3  UNL     1      19.288  47.765  -5.975  1.00  0.00    -0.336 N 
HETATM   25  C4  UNL     1      18.105  48.124  -4.019  1.00  0.00     0.119 A 
HETATM   26  C2  UNL     1      20.318  47.336  -5.214  1.00  0.00     0.183 A 
ATOM     27  H3  UNL     1      19.369  47.783  -6.991  1.00  0.00     0.168 HD
HETATM   28  N2  UNL     1      20.276  47.282  -3.842  1.00  0.00    -0.339 N 
HETATM   29  C1  UNL     1      19.172  47.664  -3.225  1.00  0.00     0.148 A 
ATOM     30  H2  UNL     1      21.081  46.953  -3.309  1.00  0.00     0.167 HD
HETATM   31  N1  UNL     1      18.811  47.619  -1.850  1.00  0.00    -0.080 NA
HETATM   32  N4  UNL     1      16.825  48.336  -3.618  1.00  0.00    -0.346 N 
HETATM   33  C5  UNL     1      16.111  48.491  -4.790  1.00  0.00     0.188 A 
ATOM     34  H4  UNL     1      16.469  48.372  -2.662  1.00  0.00     0.167 HD
ENDBRANCH   1  22
BRANCH   5  35
HETATM   35  O12 UNL     1      15.427  50.656  -6.900  1.00  0.00    -0.388 OA
ATOM     36  H12 UNL     1      15.742  51.463  -6.511  1.00  0.00     0.210 HD
ENDBRANCH   5  35
TORSDOF 10
ENDMDL
