MODEL 3
REMARK VINA RESULT: -6.997214217      1.373      1.628
REMARK  8 active torsions:
REMARK  status: ('A' for Active; 'I' for Inactive)
REMARK    1  A    between atoms: O1_2  and  C2_3 
REMARK    2  A    between atoms: C2_3  and  N1_4 
REMARK       I    between atoms: N1_4  and  C3_6 
REMARK    3  A    between atoms: C3_6  and  C4_8 
REMARK    4  A    between atoms: C4_8  and  C5_9 
REMARK    5  A    between atoms: C10_17  and  C11_18 
REMARK    6  A    between atoms: C12_21  and  C13_22 
REMARK    7  A    between atoms: C13_22  and  O6_23 
REMARK    8  A    between atoms: O6_23  and  C14_24 
ROOT
HETATM    1  C2  UNL     1     -13.117   0.862  -9.228  1.00  0.00     0.250 A 
HETATM    2  C9  UNL     1     -12.641   1.954  -8.350  1.00  0.00     0.285 A 
HETATM    3  O3  UNL     1     -11.740   2.011  -7.460  1.00  0.00    -0.267 OA
HETATM    4  N2  UNL     1     -13.601   2.813  -8.947  1.00  0.00    -0.288 N 
HETATM    5  C10 UNL     1     -14.171   4.136  -9.020  1.00  0.00     0.121 C 
HETATM    6  C12 UNL     1     -15.496   4.328  -9.152  1.00  0.00    -0.013 C 
HETATM    7  C15 UNL     1     -16.521   3.270  -9.268  1.00  0.00     0.115 C 
HETATM    8  S2  UNL     1     -15.840   1.573  -9.020  1.00  0.00    -0.133 SA
HETATM    9  C16 UNL     1     -14.167   1.741  -9.774  1.00  0.00     0.221 A 
ENDROOT
BRANCH   1  10
HETATM   10  O1  UNL     1     -12.118   0.583 -10.167  1.00  0.00    -0.355 OA
HETATM   11  C1  UNL     1     -12.589   0.536 -11.466  1.00  0.00     0.205 C 
ENDBRANCH   1  10
BRANCH   1  12
HETATM   12  N1  UNL     1     -13.562  -0.349  -8.591  1.00  0.00    -0.319 N 
HETATM   13  C3  UNL     1     -12.604  -1.300  -8.153  1.00  0.00     0.225 C 
HETATM   14  O2  UNL     1     -11.355  -1.119  -8.315  1.00  0.00    -0.273 OA
ATOM     15  H1  UNL     1     -14.558  -0.523  -8.456  1.00  0.00     0.166 HD
BRANCH  13  16
HETATM   16  C4  UNL     1     -12.996  -2.554  -7.486  1.00  0.00     0.148 C 
BRANCH  16  17
HETATM   17  C5  UNL     1     -12.926  -2.367  -5.995  1.00  0.00    -0.009 A 
HETATM   18  C6  UNL     1     -13.871  -1.860  -5.147  1.00  0.00     0.015 A 
HETATM   19  C7  UNL     1     -13.565  -1.811  -3.843  1.00  0.00     0.008 A 
HETATM   20  C8  UNL     1     -12.334  -2.270  -3.459  1.00  0.00     0.050 A 
HETATM   21  S1  UNL     1     -11.639  -2.759  -4.942  1.00  0.00    -0.106 SA
ENDBRANCH  16  17
ENDBRANCH  13  16
ENDBRANCH   1  12
BRANCH   5  22
HETATM   22  C11 UNL     1     -13.193   5.213  -8.980  1.00  0.00     0.227 C 
HETATM   23  O4  UNL     1     -12.055   5.025  -9.528  1.00  0.00    -0.643 OA
HETATM   24  O5  UNL     1     -13.319   6.460  -8.418  1.00  0.00    -0.643 OA
ENDBRANCH   5  22
BRANCH   6  25
HETATM   25  C13 UNL     1     -16.019   5.710  -9.210  1.00  0.00     0.217 C 
BRANCH  25  26
HETATM   26  O6  UNL     1     -16.894   6.132  -8.240  1.00  0.00    -0.302 OA
BRANCH  26  27
HETATM   27  C14 UNL     1     -17.590   7.297  -8.084  1.00  0.00     0.372 C 
HETATM   28  N3  UNL     1     -18.989   7.395  -8.447  1.00  0.00    -0.032 NA
HETATM   29  O7  UNL     1     -17.050   8.330  -7.620  1.00  0.00    -0.242 OA
ENDBRANCH  26  27
ENDBRANCH  25  26
ENDBRANCH   6  25
TORSDOF 8
ENDMDL
