MODEL 10
REMARK VINA RESULT: -6.627070284      3.187      5.028
REMARK  8 active torsions:
REMARK  status: ('A' for Active; 'I' for Inactive)
REMARK    1  A    between atoms: O1_2  and  C2_3 
REMARK    2  A    between atoms: C2_3  and  N1_4 
REMARK       I    between atoms: N1_4  and  C3_6 
REMARK    3  A    between atoms: C3_6  and  C4_8 
REMARK    4  A    between atoms: C4_8  and  C5_9 
REMARK    5  A    between atoms: C10_17  and  C11_18 
REMARK    6  A    between atoms: C12_21  and  C13_22 
REMARK    7  A    between atoms: C13_22  and  O6_23 
REMARK    8  A    between atoms: O6_23  and  C14_24 
ROOT
HETATM    1  C2  UNL     1     -12.749   2.108 -10.136  1.00  0.00     0.250 A 
HETATM    2  C9  UNL     1     -14.105   2.285 -10.701  1.00  0.00     0.285 A 
HETATM    3  O3  UNL     1     -14.670   1.830 -11.740  1.00  0.00    -0.267 OA
HETATM    4  N2  UNL     1     -14.419   3.132  -9.604  1.00  0.00    -0.288 N 
HETATM    5  C10 UNL     1     -15.408   3.943  -8.939  1.00  0.00     0.121 C 
HETATM    6  C12 UNL     1     -15.091   5.124  -8.377  1.00  0.00    -0.013 C 
HETATM    7  C15 UNL     1     -13.745   5.731  -8.328  1.00  0.00     0.115 C 
HETATM    8  S2  UNL     1     -12.493   4.793  -9.308  1.00  0.00    -0.133 SA
HETATM    9  C16 UNL     1     -13.061   3.059  -9.053  1.00  0.00     0.221 A 
ENDROOT
BRANCH   1  10
HETATM   10  O1  UNL     1     -12.634   0.793  -9.669  1.00  0.00    -0.355 OA
HETATM   11  C1  UNL     1     -12.023   0.706  -8.431  1.00  0.00     0.205 C 
ENDBRANCH   1  10
BRANCH   1  12
HETATM   12  N1  UNL     1     -11.634   2.442 -10.981  1.00  0.00    -0.319 N 
HETATM   13  C3  UNL     1     -11.244   1.544 -12.009  1.00  0.00     0.225 C 
HETATM   14  O2  UNL     1     -11.847   0.440 -12.201  1.00  0.00    -0.273 OA
ATOM     15  H1  UNL     1     -11.127   3.317 -10.843  1.00  0.00     0.166 HD
BRANCH  13  16
HETATM   16  C4  UNL     1     -10.116   1.834 -12.912  1.00  0.00     0.148 C 
BRANCH  16  17
HETATM   17  C5  UNL     1      -9.061   2.599 -12.161  1.00  0.00    -0.009 A 
HETATM   18  C6  UNL     1      -8.771   3.934 -12.206  1.00  0.00     0.015 A 
HETATM   19  C7  UNL     1      -7.779   4.375 -11.419  1.00  0.00     0.008 A 
HETATM   20  C8  UNL     1      -7.133   3.460 -10.633  1.00  0.00     0.050 A 
HETATM   21  S1  UNL     1      -7.937   2.002 -11.020  1.00  0.00    -0.106 SA
ENDBRANCH  16  17
ENDBRANCH  13  16
ENDBRANCH   1  12
BRANCH   5  22
HETATM   22  C11 UNL     1     -16.738   3.355  -8.899  1.00  0.00     0.227 C 
HETATM   23  O4  UNL     1     -16.842   2.082  -8.864  1.00  0.00    -0.643 OA
HETATM   24  O5  UNL     1     -17.955   3.993  -8.889  1.00  0.00    -0.643 OA
ENDBRANCH   5  22
BRANCH   6  25
HETATM   25  C13 UNL     1     -16.154   5.914  -7.718  1.00  0.00     0.217 C 
BRANCH  25  26
HETATM   26  O6  UNL     1     -16.352   7.216  -8.105  1.00  0.00    -0.302 OA
BRANCH  26  27
HETATM   27  C14 UNL     1     -17.485   7.969  -8.229  1.00  0.00     0.372 C 
HETATM   28  N3  UNL     1     -17.720   9.126  -7.389  1.00  0.00    -0.032 NA
HETATM   29  O7  UNL     1     -18.371   7.692  -9.074  1.00  0.00    -0.242 OA
ENDBRANCH  26  27
ENDBRANCH  25  26
ENDBRANCH   6  25
TORSDOF 8
ENDMDL
