MODEL 12
REMARK VINA RESULT: -6.563808264      4.015      8.771
REMARK  8 active torsions:
REMARK  status: ('A' for Active; 'I' for Inactive)
REMARK    1  A    between atoms: O1_2  and  C2_3 
REMARK    2  A    between atoms: C2_3  and  N1_4 
REMARK       I    between atoms: N1_4  and  C3_6 
REMARK    3  A    between atoms: C3_6  and  C4_8 
REMARK    4  A    between atoms: C4_8  and  C5_9 
REMARK    5  A    between atoms: C10_17  and  C11_18 
REMARK    6  A    between atoms: C12_21  and  C13_22 
REMARK    7  A    between atoms: C13_22  and  O6_23 
REMARK    8  A    between atoms: O6_23  and  C14_24 
ROOT
HETATM    1  C2  UNL     1     -12.896  -0.504  -8.660  1.00  0.00     0.250 A 
HETATM    2  C9  UNL     1     -14.152  -0.638  -7.889  1.00  0.00     0.285 A 
HETATM    3  O3  UNL     1     -15.343  -0.266  -8.114  1.00  0.00    -0.267 OA
HETATM    4  N2  UNL     1     -13.424  -1.323  -6.880  1.00  0.00    -0.288 N 
HETATM    5  C10 UNL     1     -13.455  -2.005  -5.610  1.00  0.00     0.121 C 
HETATM    6  C12 UNL     1     -12.483  -1.838  -4.694  1.00  0.00    -0.013 C 
HETATM    7  C15 UNL     1     -11.278  -0.998  -4.849  1.00  0.00     0.115 C 
HETATM    8  S2  UNL     1     -11.291   0.008  -6.397  1.00  0.00    -0.133 SA
HETATM    9  C16 UNL     1     -12.140  -1.137  -7.564  1.00  0.00     0.221 A 
ENDROOT
BRANCH   1  10
HETATM   10  O1  UNL     1     -12.982  -1.327  -9.789  1.00  0.00    -0.355 OA
HETATM   11  C1  UNL     1     -11.836  -2.070 -10.010  1.00  0.00     0.205 C 
ENDBRANCH   1  10
BRANCH   1  12
HETATM   12  N1  UNL     1     -12.491   0.825  -9.035  1.00  0.00    -0.319 N 
HETATM   13  C3  UNL     1     -13.119   1.460 -10.138  1.00  0.00     0.225 C 
HETATM   14  O2  UNL     1     -14.028   0.885 -10.817  1.00  0.00    -0.273 OA
ATOM     15  H1  UNL     1     -11.759   1.306  -8.513  1.00  0.00     0.166 HD
BRANCH  13  16
HETATM   16  C4  UNL     1     -12.755   2.823 -10.564  1.00  0.00     0.148 C 
BRANCH  16  17
HETATM   17  C5  UNL     1     -13.516   3.823  -9.735  1.00  0.00    -0.009 A 
HETATM   18  C6  UNL     1     -13.056   4.948  -9.110  1.00  0.00     0.015 A 
HETATM   19  C7  UNL     1     -13.949   5.687  -8.437  1.00  0.00     0.008 A 
HETATM   20  C8  UNL     1     -15.251   5.261  -8.427  1.00  0.00     0.050 A 
HETATM   21  S1  UNL     1     -15.184   3.833  -9.363  1.00  0.00    -0.106 SA
ENDBRANCH  16  17
ENDBRANCH  13  16
ENDBRANCH   1  12
BRANCH   5  22
HETATM   22  C11 UNL     1     -14.589  -2.901  -5.437  1.00  0.00     0.227 C 
HETATM   23  O4  UNL     1     -15.715  -2.402  -5.100  1.00  0.00    -0.643 OA
HETATM   24  O5  UNL     1     -14.632  -4.265  -5.592  1.00  0.00    -0.643 OA
ENDBRANCH   5  22
BRANCH   6  25
HETATM   25  C13 UNL     1     -12.578  -2.559  -3.406  1.00  0.00     0.217 C 
BRANCH  25  26
HETATM   26  O6  UNL     1     -11.999  -3.798  -3.293  1.00  0.00    -0.302 OA
BRANCH  26  27
HETATM   27  C14 UNL     1     -12.477  -4.990  -2.828  1.00  0.00     0.372 C 
HETATM   28  N3  UNL     1     -12.844  -5.167  -1.438  1.00  0.00    -0.032 NA
HETATM   29  O7  UNL     1     -12.621  -5.982  -3.583  1.00  0.00    -0.242 OA
ENDBRANCH  26  27
ENDBRANCH  25  26
ENDBRANCH   6  25
TORSDOF 8
ENDMDL
