MODEL 5
REMARK VINA RESULT: -6.884702828      3.884      8.383
REMARK  8 active torsions:
REMARK  status: ('A' for Active; 'I' for Inactive)
REMARK    1  A    between atoms: O1_2  and  C2_3 
REMARK    2  A    between atoms: C2_3  and  N1_4 
REMARK       I    between atoms: N1_4  and  C3_6 
REMARK    3  A    between atoms: C3_6  and  C4_8 
REMARK    4  A    between atoms: C4_8  and  C5_9 
REMARK    5  A    between atoms: C10_17  and  C11_18 
REMARK    6  A    between atoms: C12_21  and  C13_22 
REMARK    7  A    between atoms: C13_22  and  O6_23 
REMARK    8  A    between atoms: O6_23  and  C14_24 
ROOT
HETATM    1  C2  UNL     1     -13.006  -0.325  -8.609  1.00  0.00     0.250 A 
HETATM    2  C9  UNL     1     -14.236  -0.494  -7.805  1.00  0.00     0.285 A 
HETATM    3  O3  UNL     1     -15.433  -0.110  -7.971  1.00  0.00    -0.267 OA
HETATM    4  N2  UNL     1     -13.479  -1.230  -6.855  1.00  0.00    -0.288 N 
HETATM    5  C10 UNL     1     -13.470  -1.974  -5.620  1.00  0.00     0.121 C 
HETATM    6  C12 UNL     1     -12.468  -1.855  -4.729  1.00  0.00    -0.013 C 
HETATM    7  C15 UNL     1     -11.266  -1.010  -4.882  1.00  0.00     0.115 C 
HETATM    8  S2  UNL     1     -11.326   0.072  -6.377  1.00  0.00    -0.133 SA
HETATM    9  C16 UNL     1     -12.216  -1.013  -7.571  1.00  0.00     0.221 A 
ENDROOT
BRANCH   1  10
HETATM   10  O1  UNL     1     -13.131  -1.091  -9.774  1.00  0.00    -0.355 OA
HETATM   11  C1  UNL     1     -12.018  -1.868 -10.037  1.00  0.00     0.205 C 
ENDBRANCH   1  10
BRANCH   1  12
HETATM   12  N1  UNL     1     -12.609   1.020  -8.931  1.00  0.00    -0.319 N 
HETATM   13  C3  UNL     1     -13.236   1.693 -10.011  1.00  0.00     0.225 C 
HETATM   14  O2  UNL     1     -14.138   1.138 -10.716  1.00  0.00    -0.273 OA
ATOM     15  H1  UNL     1     -11.882   1.486  -8.387  1.00  0.00     0.166 HD
BRANCH  13  16
HETATM   16  C4  UNL     1     -12.880   3.074 -10.383  1.00  0.00     0.148 C 
BRANCH  16  17
HETATM   17  C5  UNL     1     -13.699   4.036  -9.566  1.00  0.00    -0.009 A 
HETATM   18  C6  UNL     1     -13.296   5.164  -8.906  1.00  0.00     0.015 A 
HETATM   19  C7  UNL     1     -14.235   5.864  -8.254  1.00  0.00     0.008 A 
HETATM   20  C8  UNL     1     -15.522   5.399  -8.297  1.00  0.00     0.050 A 
HETATM   21  S1  UNL     1     -15.378   3.990  -9.253  1.00  0.00    -0.106 SA
ENDBRANCH  16  17
ENDBRANCH  13  16
ENDBRANCH   1  12
BRANCH   5  22
HETATM   22  C11 UNL     1     -14.601  -2.875  -5.454  1.00  0.00     0.227 C 
HETATM   23  O4  UNL     1     -15.727  -2.383  -5.106  1.00  0.00    -0.643 OA
HETATM   24  O5  UNL     1     -14.641  -4.237  -5.628  1.00  0.00    -0.643 OA
ENDBRANCH   5  22
BRANCH   6  25
HETATM   25  C13 UNL     1     -12.523  -2.638  -3.476  1.00  0.00     0.217 C 
BRANCH  25  26
HETATM   26  O6  UNL     1     -13.198  -2.121  -2.398  1.00  0.00    -0.302 OA
BRANCH  26  27
HETATM   27  C14 UNL     1     -13.200  -2.461  -1.075  1.00  0.00     0.372 C 
HETATM   28  N3  UNL     1     -13.072  -3.840  -0.649  1.00  0.00    -0.032 NA
HETATM   29  O7  UNL     1     -13.312  -1.596  -0.172  1.00  0.00    -0.242 OA
ENDBRANCH  26  27
ENDBRANCH  25  26
ENDBRANCH   6  25
TORSDOF 8
ENDMDL
