MODEL 1
REMARK VINA RESULT: -7.737532835      0.000      0.000
REMARK  8 active torsions:
REMARK  status: ('A' for Active; 'I' for Inactive)
REMARK    1  A    between atoms: O1_2  and  C2_3 
REMARK    2  A    between atoms: C2_3  and  N1_4 
REMARK       I    between atoms: N1_4  and  C3_6 
REMARK    3  A    between atoms: C3_6  and  C4_8 
REMARK    4  A    between atoms: C4_8  and  C5_9 
REMARK    5  A    between atoms: C10_17  and  C11_18 
REMARK    6  A    between atoms: C12_21  and  C13_22 
REMARK    7  A    between atoms: C13_22  and  O6_23 
REMARK    8  A    between atoms: O6_23  and  C14_24 
ROOT
HETATM    1  C2  UNL     1     -13.531   2.300  -9.658  1.00  0.00     0.250 A 
HETATM    2  C9  UNL     1     -13.029   3.121  -8.534  1.00  0.00     0.285 A 
HETATM    3  O3  UNL     1     -12.033   3.000  -7.759  1.00  0.00    -0.267 OA
HETATM    4  N2  UNL     1     -14.109   4.018  -8.745  1.00  0.00    -0.288 N 
HETATM    5  C10 UNL     1     -14.771   5.238  -8.352  1.00  0.00     0.121 C 
HETATM    6  C12 UNL     1     -16.113   5.326  -8.294  1.00  0.00    -0.013 C 
HETATM    7  C15 UNL     1     -17.071   4.254  -8.635  1.00  0.00     0.115 C 
HETATM    8  S2  UNL     1     -16.252   2.638  -8.988  1.00  0.00    -0.133 SA
HETATM    9  C16 UNL     1     -14.696   3.192  -9.806  1.00  0.00     0.221 A 
ENDROOT
BRANCH   1  10
HETATM   10  O1  UNL     1     -12.635   2.419 -10.727  1.00  0.00    -0.355 OA
HETATM   11  C1  UNL     1     -13.048   1.745 -11.862  1.00  0.00     0.205 C 
ENDBRANCH   1  10
BRANCH   1  12
HETATM   12  N1  UNL     1     -13.814   0.916  -9.388  1.00  0.00    -0.319 N 
HETATM   13  C3  UNL     1     -12.758   0.051  -9.000  1.00  0.00     0.225 C 
HETATM   14  O2  UNL     1     -11.558   0.461  -8.893  1.00  0.00    -0.273 OA
ATOM     15  H1  UNL     1     -14.766   0.559  -9.475  1.00  0.00     0.166 HD
BRANCH  13  16
HETATM   16  C4  UNL     1     -12.986  -1.374  -8.701  1.00  0.00     0.148 C 
BRANCH  16  17
HETATM   17  C5  UNL     1     -13.433  -1.516  -7.271  1.00  0.00    -0.009 A 
HETATM   18  C6  UNL     1     -14.688  -1.385  -6.746  1.00  0.00     0.015 A 
HETATM   19  C7  UNL     1     -14.826  -1.576  -5.427  1.00  0.00     0.008 A 
HETATM   20  C8  UNL     1     -13.705  -1.888  -4.706  1.00  0.00     0.050 A 
HETATM   21  S1  UNL     1     -12.485  -1.903  -5.903  1.00  0.00    -0.106 SA
ENDBRANCH  16  17
ENDBRANCH  13  16
ENDBRANCH   1  12
BRANCH   5  22
HETATM   22  C11 UNL     1     -13.872   6.346  -8.073  1.00  0.00     0.227 C 
HETATM   23  O4  UNL     1     -13.858   7.339  -8.877  1.00  0.00    -0.643 OA
HETATM   24  O5  UNL     1     -12.997   6.494  -7.023  1.00  0.00    -0.643 OA
ENDBRANCH   5  22
BRANCH   6  25
HETATM   25  C13 UNL     1     -16.731   6.602  -7.874  1.00  0.00     0.217 C 
BRANCH  25  26
HETATM   26  O6  UNL     1     -17.650   7.200  -8.700  1.00  0.00    -0.302 OA
BRANCH  26  27
HETATM   27  C14 UNL     1     -18.299   8.400  -8.625  1.00  0.00     0.372 C 
HETATM   28  N3  UNL     1     -19.476   8.674  -9.424  1.00  0.00    -0.032 NA
HETATM   29  O7  UNL     1     -17.906   9.316  -7.863  1.00  0.00    -0.242 OA
ENDBRANCH  26  27
ENDBRANCH  25  26
ENDBRANCH   6  25
TORSDOF 8
ENDMDL
