MODEL 1
REMARK VINA RESULT: -7.710823193      0.000      0.000
REMARK  6 active torsions:
REMARK  status: ('A' for Active; 'I' for Inactive)
REMARK    1  A    between atoms: N1_1  and  S1_4 
REMARK    2  A    between atoms: S1_4  and  C1_7 
REMARK    3  A    between atoms: C4_10  and  C5_11 
REMARK    4  A    between atoms: C5_11  and  C6_13 
REMARK    5  A    between atoms: C6_13  and  S2_14 
REMARK    6  A    between atoms: S2_14  and  C7_15 
ROOT
HETATM    1  C1  UNL     1      24.948   3.840   9.793  1.00  0.00     0.101 A 
HETATM    2  C2  UNL     1      24.528   4.365  10.997  1.00  0.00     0.028 A 
HETATM    3  C3  UNL     1      25.227   5.385  11.614  1.00  0.00     0.017 A 
HETATM    4  C4  UNL     1      26.366   5.919  11.062  1.00  0.00     0.012 A 
HETATM    5  C11 UNL     1      26.791   5.400   9.861  1.00  0.00     0.040 A 
HETATM    6  C12 UNL     1      26.090   4.378   9.243  1.00  0.00     0.058 A 
HETATM    7 CL1  UNL     1      26.635   3.713   7.706  1.00  0.00    -0.083 Cl
ENDROOT
BRANCH   4   8
HETATM    8  C5  UNL     1      27.104   7.012  11.735  1.00  0.00     0.169 C 
HETATM    9  O3  UNL     1      28.326   6.898  11.990  1.00  0.00    -0.291 OA
BRANCH   8  10
HETATM   10  C6  UNL     1      26.415   8.262  12.125  1.00  0.00     0.166 C 
BRANCH  10  11
HETATM   11  S2  UNL     1      26.413   8.397  13.919  1.00  0.00    -0.086 SA
BRANCH  11  12
HETATM   12  C7  UNL     1      25.314   7.175  14.622  1.00  0.00     0.144 A 
HETATM   13  N2  UNL     1      25.859   6.002  15.008  1.00  0.00    -0.347 N 
HETATM   14  C8  UNL     1      25.090   5.014  15.554  1.00  0.00     0.091 A 
ATOM     15  H2  UNL     1      26.861   5.850  14.891  1.00  0.00     0.167 HD
HETATM   16  C9  UNL     1      23.737   5.217  15.714  1.00  0.00     0.034 A 
HETATM   17  C10 UNL     1      23.219   6.426  15.309  1.00  0.00     0.091 A 
HETATM   18  N3  UNL     1      23.996   7.395  14.769  1.00  0.00    -0.347 N 
ATOM     19  H3  UNL     1      23.585   8.282  14.477  1.00  0.00     0.167 HD
ENDBRANCH  11  12
ENDBRANCH  10  11
ENDBRANCH   8  10
ENDBRANCH   4   8
BRANCH   1  20
HETATM   20  S1  UNL     1      24.065   2.541   8.999  1.00  0.00     0.258 S 
HETATM   21  O1  UNL     1      22.639   2.507   9.466  1.00  0.00    -0.201 OA
HETATM   22  O2  UNL     1      24.141   2.717   7.507  1.00  0.00    -0.201 OA
BRANCH  20  23
HETATM   23  N1  UNL     1      24.769   1.017   9.443  1.00  0.00    -0.324 N 
ATOM     24  H12 UNL     1      24.280   0.123   9.489  1.00  0.00     0.169 HD
ATOM     25  H11 UNL     1      25.753   1.198   9.643  1.00  0.00     0.169 HD
ENDBRANCH  20  23
ENDBRANCH   1  20
TORSDOF 6
ENDMDL
