MODEL 3
REMARK VINA RESULT: -7.648875676      3.686      5.155
REMARK  6 active torsions:
REMARK  status: ('A' for Active; 'I' for Inactive)
REMARK    1  A    between atoms: N1_1  and  S1_4 
REMARK    2  A    between atoms: S1_4  and  C1_7 
REMARK    3  A    between atoms: C4_10  and  C5_11 
REMARK    4  A    between atoms: C5_11  and  C6_13 
REMARK    5  A    between atoms: C6_13  and  S2_14 
REMARK    6  A    between atoms: S2_14  and  C7_15 
ROOT
HETATM    1  C1  UNL     1      25.194   4.165   9.958  1.00  0.00     0.101 A 
HETATM    2  C2  UNL     1      26.123   4.315   8.948  1.00  0.00     0.028 A 
HETATM    3  C3  UNL     1      27.283   5.040   9.148  1.00  0.00     0.017 A 
HETATM    4  C4  UNL     1      27.563   5.642  10.351  1.00  0.00     0.012 A 
HETATM    5  C11 UNL     1      26.641   5.496  11.361  1.00  0.00     0.040 A 
HETATM    6  C12 UNL     1      25.480   4.770  11.161  1.00  0.00     0.058 A 
HETATM    7 CL1  UNL     1      24.299   4.585  12.456  1.00  0.00    -0.083 Cl
ENDROOT
BRANCH   4   8
HETATM    8  C5  UNL     1      28.811   6.414  10.547  1.00  0.00     0.169 C 
HETATM    9  O3  UNL     1      29.268   6.610  11.699  1.00  0.00    -0.291 OA
BRANCH   8  10
HETATM   10  C6  UNL     1      29.546   6.972   9.391  1.00  0.00     0.166 C 
BRANCH  10  11
HETATM   11  S2  UNL     1      30.165   8.606   9.823  1.00  0.00    -0.086 SA
BRANCH  11  12
HETATM   12  C7  UNL     1      28.901   9.835   9.525  1.00  0.00     0.144 A 
HETATM   13  N2  UNL     1      29.267  11.132   9.614  1.00  0.00    -0.347 N 
HETATM   14  C8  UNL     1      28.363  12.134   9.402  1.00  0.00     0.091 A 
ATOM     15  H2  UNL     1      30.233  11.368   9.843  1.00  0.00     0.167 HD
HETATM   16  C9  UNL     1      27.059  11.818   9.091  1.00  0.00     0.034 A 
HETATM   17  C10 UNL     1      26.726  10.485   9.009  1.00  0.00     0.091 A 
HETATM   18  N3  UNL     1      27.634   9.504   9.223  1.00  0.00    -0.347 N 
ATOM     19  H3  UNL     1      27.359   8.524   9.155  1.00  0.00     0.167 HD
ENDBRANCH  11  12
ENDBRANCH  10  11
ENDBRANCH   8  10
ENDBRANCH   4   8
BRANCH   1  20
HETATM   20  S1  UNL     1      23.714   3.245   9.715  1.00  0.00     0.258 S 
HETATM   21  O1  UNL     1      23.691   2.035  10.602  1.00  0.00    -0.201 OA
HETATM   22  O2  UNL     1      22.523   4.127   9.976  1.00  0.00    -0.201 OA
BRANCH  20  23
HETATM   23  N1  UNL     1      23.663   2.665   8.080  1.00  0.00    -0.324 N 
ATOM     24  H12 UNL     1      23.687   3.242   7.239  1.00  0.00     0.169 HD
ATOM     25  H11 UNL     1      23.605   1.648   8.133  1.00  0.00     0.169 HD
ENDBRANCH  20  23
ENDBRANCH   1  20
TORSDOF 6
ENDMDL
