MODEL 6
REMARK VINA RESULT: -7.610717723      3.517      4.915
REMARK  6 active torsions:
REMARK  status: ('A' for Active; 'I' for Inactive)
REMARK    1  A    between atoms: N1_1  and  S1_4 
REMARK    2  A    between atoms: S1_4  and  C1_7 
REMARK    3  A    between atoms: C4_10  and  C5_11 
REMARK    4  A    between atoms: C5_11  and  C6_13 
REMARK    5  A    between atoms: C6_13  and  S2_14 
REMARK    6  A    between atoms: S2_14  and  C7_15 
ROOT
HETATM    1  C1  UNL     1      25.093   4.339  10.347  1.00  0.00     0.101 A 
HETATM    2  C2  UNL     1      25.693   5.072  11.349  1.00  0.00     0.028 A 
HETATM    3  C3  UNL     1      26.894   5.722  11.137  1.00  0.00     0.017 A 
HETATM    4  C4  UNL     1      27.543   5.668   9.927  1.00  0.00     0.012 A 
HETATM    5  C11 UNL     1      26.950   4.938   8.923  1.00  0.00     0.040 A 
HETATM    6  C12 UNL     1      25.746   4.288   9.136  1.00  0.00     0.058 A 
HETATM    7 CL1  UNL     1      24.988   3.353   7.849  1.00  0.00    -0.083 Cl
ENDROOT
BRANCH   4   8
HETATM    8  C5  UNL     1      28.829   6.371   9.716  1.00  0.00     0.169 C 
HETATM    9  O3  UNL     1      29.817   6.130  10.449  1.00  0.00    -0.291 OA
BRANCH   8  10
HETATM   10  C6  UNL     1      28.976   7.373   8.638  1.00  0.00     0.166 C 
BRANCH  10  11
HETATM   11  S2  UNL     1      29.803   8.828   9.299  1.00  0.00    -0.086 SA
BRANCH  11  12
HETATM   12  C7  UNL     1      28.623  10.152   9.521  1.00  0.00     0.144 A 
HETATM   13  N2  UNL     1      27.496   9.866  10.209  1.00  0.00    -0.347 N 
HETATM   14  C8  UNL     1      26.543  10.821  10.423  1.00  0.00     0.091 A 
ATOM     15  H2  UNL     1      27.354   8.924  10.573  1.00  0.00     0.167 HD
HETATM   16  C9  UNL     1      26.733  12.094   9.933  1.00  0.00     0.034 A 
HETATM   17  C10 UNL     1      27.894  12.345   9.239  1.00  0.00     0.091 A 
HETATM   18  N3  UNL     1      28.830  11.387   9.034  1.00  0.00    -0.347 N 
ATOM     19  H3  UNL     1      29.681  11.602   8.516  1.00  0.00     0.167 HD
ENDBRANCH  11  12
ENDBRANCH  10  11
ENDBRANCH   8  10
ENDBRANCH   4   8
BRANCH   1  20
HETATM   20  S1  UNL     1      23.564   3.507  10.606  1.00  0.00     0.258 S 
HETATM   21  O1  UNL     1      23.311   3.308  12.073  1.00  0.00    -0.201 OA
HETATM   22  O2  UNL     1      22.449   4.289   9.968  1.00  0.00    -0.201 OA
BRANCH  20  23
HETATM   23  N1  UNL     1      23.646   1.925   9.897  1.00  0.00    -0.324 N 
ATOM     24  H12 UNL     1      23.011   1.150  10.087  1.00  0.00     0.169 HD
ATOM     25  H11 UNL     1      24.446   1.931   9.263  1.00  0.00     0.169 HD
ENDBRANCH  20  23
ENDBRANCH   1  20
TORSDOF 6
ENDMDL
