MODEL 2
REMARK VINA RESULT: -7.696843266      0.033      1.025
REMARK  6 active torsions:
REMARK  status: ('A' for Active; 'I' for Inactive)
REMARK    1  A    between atoms: N1_1  and  S1_4 
REMARK    2  A    between atoms: S1_4  and  C1_7 
REMARK    3  A    between atoms: C4_10  and  C5_11 
REMARK    4  A    between atoms: C5_11  and  C6_13 
REMARK    5  A    between atoms: C6_13  and  S2_14 
REMARK    6  A    between atoms: S2_14  and  C7_15 
ROOT
HETATM    1  C1  UNL     1      24.944   3.835   9.793  1.00  0.00     0.101 A 
HETATM    2  C2  UNL     1      24.519   4.358  10.996  1.00  0.00     0.028 A 
HETATM    3  C3  UNL     1      25.214   5.378  11.616  1.00  0.00     0.017 A 
HETATM    4  C4  UNL     1      26.354   5.916  11.068  1.00  0.00     0.012 A 
HETATM    5  C11 UNL     1      26.783   5.398   9.868  1.00  0.00     0.040 A 
HETATM    6  C12 UNL     1      26.086   4.376   9.247  1.00  0.00     0.058 A 
HETATM    7 CL1  UNL     1      26.637   3.714   7.710  1.00  0.00    -0.083 Cl
ENDROOT
BRANCH   4   8
HETATM    8  C5  UNL     1      27.087   7.009  11.745  1.00  0.00     0.169 C 
HETATM    9  O3  UNL     1      28.308   6.893  12.011  1.00  0.00    -0.291 OA
BRANCH   8  10
HETATM   10  C6  UNL     1      26.397   8.261  12.125  1.00  0.00     0.166 C 
BRANCH  10  11
HETATM   11  S2  UNL     1      26.392   8.407  13.919  1.00  0.00    -0.086 SA
BRANCH  11  12
HETATM   12  C7  UNL     1      25.381   7.118  14.633  1.00  0.00     0.144 A 
HETATM   13  N2  UNL     1      24.059   7.367  14.760  1.00  0.00    -0.347 N 
HETATM   14  C8  UNL     1      23.217   6.435  15.296  1.00  0.00     0.091 A 
ATOM     15  H2  UNL     1      23.685   8.264  14.452  1.00  0.00     0.167 HD
HETATM   16  C9  UNL     1      23.720   5.223  15.713  1.00  0.00     0.034 A 
HETATM   17  C10 UNL     1      25.071   5.007  15.566  1.00  0.00     0.091 A 
HETATM   18  N3  UNL     1      25.894   5.941  15.033  1.00  0.00    -0.347 N 
ATOM     19  H3  UNL     1      26.892   5.754  14.936  1.00  0.00     0.167 HD
ENDBRANCH  11  12
ENDBRANCH  10  11
ENDBRANCH   8  10
ENDBRANCH   4   8
BRANCH   1  20
HETATM   20  S1  UNL     1      24.066   2.535   8.995  1.00  0.00     0.258 S 
HETATM   21  O1  UNL     1      22.636   2.503   9.451  1.00  0.00    -0.201 OA
HETATM   22  O2  UNL     1      24.152   2.709   7.503  1.00  0.00    -0.201 OA
BRANCH  20  23
HETATM   23  N1  UNL     1      24.766   1.012   9.445  1.00  0.00    -0.324 N 
ATOM     24  H12 UNL     1      24.729   0.588  10.371  1.00  0.00     0.169 HD
ATOM     25  H11 UNL     1      25.212   0.637   8.608  1.00  0.00     0.169 HD
ENDBRANCH  20  23
ENDBRANCH   1  20
TORSDOF 6
ENDMDL
