MODEL 5
REMARK VINA RESULT: -7.611632397      1.148      1.539
REMARK  6 active torsions:
REMARK  status: ('A' for Active; 'I' for Inactive)
REMARK    1  A    between atoms: N1_1  and  S1_4 
REMARK    2  A    between atoms: S1_4  and  C1_7 
REMARK    3  A    between atoms: C4_10  and  C5_11 
REMARK    4  A    between atoms: C5_11  and  C6_13 
REMARK    5  A    between atoms: C6_13  and  S2_14 
REMARK    6  A    between atoms: S2_14  and  C7_15 
ROOT
HETATM    1  C1  UNL     1      25.138   3.875   9.703  1.00  0.00     0.101 A 
HETATM    2  C2  UNL     1      26.270   4.449   9.163  1.00  0.00     0.028 A 
HETATM    3  C3  UNL     1      26.950   5.450   9.831  1.00  0.00     0.017 A 
HETATM    4  C4  UNL     1      26.533   5.918  11.054  1.00  0.00     0.012 A 
HETATM    5  C11 UNL     1      25.405   5.349  11.597  1.00  0.00     0.040 A 
HETATM    6  C12 UNL     1      24.724   4.346  10.928  1.00  0.00     0.058 A 
HETATM    7 CL1  UNL     1      23.279   3.618  11.625  1.00  0.00    -0.083 Cl
ENDROOT
BRANCH   4   8
HETATM    8  C5  UNL     1      27.274   6.990  11.756  1.00  0.00     0.169 C 
HETATM    9  O3  UNL     1      28.510   6.896  11.946  1.00  0.00    -0.291 OA
BRANCH   8  10
HETATM   10  C6  UNL     1      26.573   8.196  12.249  1.00  0.00     0.166 C 
BRANCH  10  11
HETATM   11  S2  UNL     1      26.601   8.195  14.049  1.00  0.00    -0.086 SA
BRANCH  11  12
HETATM   12  C7  UNL     1      25.386   7.044  14.677  1.00  0.00     0.144 A 
HETATM   13  N2  UNL     1      25.828   5.824  15.053  1.00  0.00    -0.347 N 
HETATM   14  C8  UNL     1      24.965   4.885  15.544  1.00  0.00     0.091 A 
ATOM     15  H2  UNL     1      26.819   5.600  14.970  1.00  0.00     0.167 HD
HETATM   16  C9  UNL     1      23.626   5.185  15.658  1.00  0.00     0.034 A 
HETATM   17  C10 UNL     1      23.216   6.439  15.265  1.00  0.00     0.091 A 
HETATM   18  N3  UNL     1      24.084   7.359  14.780  1.00  0.00    -0.347 N 
ATOM     19  H3  UNL     1      23.752   8.281  14.497  1.00  0.00     0.167 HD
ENDBRANCH  11  12
ENDBRANCH  10  11
ENDBRANCH   8  10
ENDBRANCH   4   8
BRANCH   1  20
HETATM   20  S1  UNL     1      24.265   2.600   8.861  1.00  0.00     0.258 S 
HETATM   21  O1  UNL     1      22.788   2.721   9.103  1.00  0.00    -0.201 OA
HETATM   22  O2  UNL     1      24.576   2.660   7.390  1.00  0.00    -0.201 OA
BRANCH  20  23
HETATM   23  N1  UNL     1      24.749   1.059   9.497  1.00  0.00    -0.324 N 
ATOM     24  H12 UNL     1      25.598   0.551   9.252  1.00  0.00     0.169 HD
ATOM     25  H11 UNL     1      24.022   0.773  10.152  1.00  0.00     0.169 HD
ENDBRANCH  20  23
ENDBRANCH   1  20
TORSDOF 6
ENDMDL
