MODEL 8
REMARK VINA RESULT: -7.534544516      3.703      5.123
REMARK  6 active torsions:
REMARK  status: ('A' for Active; 'I' for Inactive)
REMARK    1  A    between atoms: N1_1  and  S1_4 
REMARK    2  A    between atoms: S1_4  and  C1_7 
REMARK    3  A    between atoms: C4_10  and  C5_11 
REMARK    4  A    between atoms: C5_11  and  C6_13 
REMARK    5  A    between atoms: C6_13  and  S2_14 
REMARK    6  A    between atoms: S2_14  and  C7_15 
ROOT
HETATM    1  C1  UNL     1      25.153   4.382  10.289  1.00  0.00     0.101 A 
HETATM    2  C2  UNL     1      25.759   5.133  11.274  1.00  0.00     0.028 A 
HETATM    3  C3  UNL     1      26.942   5.806  11.032  1.00  0.00     0.017 A 
HETATM    4  C4  UNL     1      27.566   5.758   9.809  1.00  0.00     0.012 A 
HETATM    5  C11 UNL     1      26.967   5.011   8.822  1.00  0.00     0.040 A 
HETATM    6  C12 UNL     1      25.782   4.337   9.064  1.00  0.00     0.058 A 
HETATM    7 CL1  UNL     1      25.016   3.379   7.800  1.00  0.00    -0.083 Cl
ENDROOT
BRANCH   4   8
HETATM    8  C5  UNL     1      28.832   6.486   9.567  1.00  0.00     0.169 C 
HETATM    9  O3  UNL     1      29.464   6.333   8.494  1.00  0.00    -0.291 OA
BRANCH   8  10
HETATM   10  C6  UNL     1      29.382   7.408  10.584  1.00  0.00     0.166 C 
BRANCH  10  11
HETATM   11  S2  UNL     1      30.141   8.813   9.754  1.00  0.00    -0.086 SA
BRANCH  11  12
HETATM   12  C7  UNL     1      28.924  10.095   9.490  1.00  0.00     0.144 A 
HETATM   13  N2  UNL     1      29.347  11.376   9.568  1.00  0.00    -0.347 N 
HETATM   14  C8  UNL     1      28.482  12.415   9.379  1.00  0.00     0.091 A 
ATOM     15  H2  UNL     1      30.328  11.569   9.770  1.00  0.00     0.167 HD
HETATM   16  C9  UNL     1      27.157  12.156   9.105  1.00  0.00     0.034 A 
HETATM   17  C10 UNL     1      26.765  10.839   9.034  1.00  0.00     0.091 A 
HETATM   18  N3  UNL     1      27.635   9.819   9.223  1.00  0.00    -0.347 N 
ATOM     19  H3  UNL     1      27.316   8.852   9.164  1.00  0.00     0.167 HD
ENDBRANCH  11  12
ENDBRANCH  10  11
ENDBRANCH   8  10
ENDBRANCH   4   8
BRANCH   1  20
HETATM   20  S1  UNL     1      23.648   3.520  10.585  1.00  0.00     0.258 S 
HETATM   21  O1  UNL     1      23.421   3.342  12.059  1.00  0.00    -0.201 OA
HETATM   22  O2  UNL     1      22.506   4.266   9.951  1.00  0.00    -0.201 OA
BRANCH  20  23
HETATM   23  N1  UNL     1      23.756   1.929   9.902  1.00  0.00    -0.324 N 
ATOM     24  H12 UNL     1      22.986   1.398   9.496  1.00  0.00     0.169 HD
ATOM     25  H11 UNL     1      24.730   1.639   9.990  1.00  0.00     0.169 HD
ENDBRANCH  20  23
ENDBRANCH   1  20
TORSDOF 6
ENDMDL
