MODEL 1
REMARK VINA RESULT: -6.907008567      0.000      0.000
REMARK  6 active torsions:
REMARK  status: ('A' for Active; 'I' for Inactive)
REMARK    1  A    between atoms: N1_2  and  O1_3 
REMARK       I    between atoms: N1_2  and  C2_5 
REMARK    2  A    between atoms: C2_5  and  C3_7 
REMARK    3  A    between atoms: C3_7  and  S1_8 
REMARK    4  A    between atoms: S1_8  and  C4_9 
REMARK    5  A    between atoms: C4_9  and  C5_10 
REMARK    6  A    between atoms: C4_9  and  P1_16 
ROOT
HETATM    1  C4  UNL     1      15.093  21.274  34.684  1.00  0.00     0.210 C 
ENDROOT
BRANCH   1   2
HETATM    2  S1  UNL     1      15.016  20.784  36.423  1.00  0.00    -0.136 SA
BRANCH   2   3
HETATM    3  C3  UNL     1      15.739  22.048  37.508  1.00  0.00     0.180 C 
BRANCH   3   4
HETATM    4  C2  UNL     1      15.509  21.638  38.931  1.00  0.00     0.252 C 
HETATM    5  N1  UNL     1      16.436  21.805  39.957  1.00  0.00    -0.233 N 
HETATM    6  C1  UNL     1      16.043  21.356  41.294  1.00  0.00     0.188 C 
HETATM    7  O2  UNL     1      14.373  21.120  39.142  1.00  0.00    -0.270 OA
BRANCH   5   8
HETATM    8  O1  UNL     1      17.646  22.364  39.784  1.00  0.00    -0.285 OA
ATOM      9  H1  UNL     1      17.701  23.258  39.468  1.00  0.00     0.245 HD
ENDBRANCH   5   8
ENDBRANCH   3   4
ENDBRANCH   2   3
ENDBRANCH   1   2
BRANCH   1  10
HETATM   10  C5  UNL     1      15.221  20.046  33.851  1.00  0.00    -0.031 A 
HETATM   11  C6  UNL     1      15.673  18.870  34.462  1.00  0.00     0.009 A 
HETATM   12  C7  UNL     1      15.832  17.685  33.791  1.00  0.00     0.001 A 
HETATM   13  C8  UNL     1      15.519  17.687  32.435  1.00  0.00     0.000 A 
HETATM   14  C9  UNL     1      15.075  18.827  31.818  1.00  0.00     0.001 A 
HETATM   15  C10 UNL     1      14.925  20.010  32.531  1.00  0.00     0.009 A 
ENDBRANCH   1  10
BRANCH   1  16
HETATM   16  P1  UNL     1      13.665  22.222  34.178  1.00  0.00     0.278 P 
HETATM   17  O3  UNL     1      12.461  21.363  33.992  1.00  0.00    -0.639 OA
HETATM   18  O4  UNL     1      13.970  23.040  32.718  1.00  0.00    -0.639 OA
HETATM   19  O5  UNL     1      13.322  23.343  35.402  1.00  0.00    -0.639 OA
ENDBRANCH   1  16
TORSDOF 6
ENDMDL
