MODEL 3
REMARK VINA RESULT: -6.849677821      1.731      2.522
REMARK  6 active torsions:
REMARK  status: ('A' for Active; 'I' for Inactive)
REMARK    1  A    between atoms: N1_2  and  O1_3 
REMARK       I    between atoms: N1_2  and  C2_5 
REMARK    2  A    between atoms: C2_5  and  C3_7 
REMARK    3  A    between atoms: C3_7  and  S1_8 
REMARK    4  A    between atoms: S1_8  and  C4_9 
REMARK    5  A    between atoms: C4_9  and  C5_10 
REMARK    6  A    between atoms: C4_9  and  P1_16 
ROOT
HETATM    1  C4  UNL     1      14.815  21.704  32.918  1.00  0.00     0.210 C 
ENDROOT
BRANCH   1   2
HETATM    2  S1  UNL     1      15.567  22.722  34.211  1.00  0.00    -0.136 SA
BRANCH   2   3
HETATM    3  C3  UNL     1      14.401  23.059  35.561  1.00  0.00     0.180 C 
BRANCH   3   4
HETATM    4  C2  UNL     1      15.068  22.716  36.859  1.00  0.00     0.252 C 
HETATM    5  N1  UNL     1      14.621  21.732  37.737  1.00  0.00    -0.233 N 
HETATM    6  C1  UNL     1      15.400  21.520  38.958  1.00  0.00     0.188 C 
HETATM    7  O2  UNL     1      16.104  23.402  37.104  1.00  0.00    -0.270 OA
BRANCH   5   8
HETATM    8  O1  UNL     1      13.538  20.969  37.511  1.00  0.00    -0.285 OA
ATOM      9  H1  UNL     1      12.716  21.388  37.287  1.00  0.00     0.245 HD
ENDBRANCH   5   8
ENDBRANCH   3   4
ENDBRANCH   2   3
ENDBRANCH   1   2
BRANCH   1  10
HETATM   10  C5  UNL     1      15.097  20.272  33.218  1.00  0.00    -0.031 A 
HETATM   11  C6  UNL     1      14.959  19.336  32.186  1.00  0.00     0.009 A 
HETATM   12  C7  UNL     1      15.189  17.995  32.350  1.00  0.00     0.001 A 
HETATM   13  C8  UNL     1      15.575  17.577  33.620  1.00  0.00     0.000 A 
HETATM   14  C9  UNL     1      15.715  18.477  34.643  1.00  0.00     0.001 A 
HETATM   15  C10 UNL     1      15.475  19.830  34.439  1.00  0.00     0.009 A 
ENDBRANCH   1  10
BRANCH   1  16
HETATM   16  P1  UNL     1      13.054  21.974  32.776  1.00  0.00     0.278 P 
HETATM   17  O3  UNL     1      12.300  21.350  33.901  1.00  0.00    -0.639 OA
HETATM   18  O4  UNL     1      12.461  21.336  31.315  1.00  0.00    -0.639 OA
HETATM   19  O5  UNL     1      12.775  23.645  32.825  1.00  0.00    -0.639 OA
ENDBRANCH   1  16
TORSDOF 6
ENDMDL
