MODEL 2
REMARK VINA RESULT: -6.873243830      2.381      2.847
REMARK  6 active torsions:
REMARK  status: ('A' for Active; 'I' for Inactive)
REMARK    1  A    between atoms: N1_2  and  O1_3 
REMARK       I    between atoms: N1_2  and  C2_5 
REMARK    2  A    between atoms: C2_5  and  C3_7 
REMARK    3  A    between atoms: C3_7  and  S1_8 
REMARK    4  A    between atoms: S1_8  and  C4_9 
REMARK    5  A    between atoms: C4_9  and  C5_10 
REMARK    6  A    between atoms: C4_9  and  P1_16 
ROOT
HETATM    1  C4  UNL     1      12.991  22.613  34.731  1.00  0.00     0.210 C 
ENDROOT
BRANCH   1   2
HETATM    2  S1  UNL     1      14.173  21.671  35.724  1.00  0.00    -0.136 SA
BRANCH   2   3
HETATM    3  C3  UNL     1      15.261  22.763  36.685  1.00  0.00     0.180 C 
BRANCH   3   4
HETATM    4  C2  UNL     1      14.985  22.542  38.142  1.00  0.00     0.252 C 
HETATM    5  N1  UNL     1      15.758  21.736  38.974  1.00  0.00    -0.233 N 
HETATM    6  C1  UNL     1      15.351  21.639  40.377  1.00  0.00     0.188 C 
HETATM    7  O2  UNL     1      13.973  23.166  38.576  1.00  0.00    -0.270 OA
BRANCH   5   8
HETATM    8  O1  UNL     1      16.848  21.068  38.562  1.00  0.00    -0.285 OA
ATOM      9  H1  UNL     1      17.084  21.090  37.642  1.00  0.00     0.245 HD
ENDBRANCH   5   8
ENDBRANCH   3   4
ENDBRANCH   2   3
ENDBRANCH   1   2
BRANCH   1  10
HETATM   10  C5  UNL     1      13.043  22.109  33.329  1.00  0.00    -0.031 A 
HETATM   11  C6  UNL     1      13.816  20.975  33.057  1.00  0.00     0.009 A 
HETATM   12  C7  UNL     1      13.938  20.429  31.805  1.00  0.00     0.001 A 
HETATM   13  C8  UNL     1      13.246  21.060  30.777  1.00  0.00     0.000 A 
HETATM   14  C9  UNL     1      12.483  22.172  31.023  1.00  0.00     0.001 A 
HETATM   15  C10 UNL     1      12.382  22.696  32.305  1.00  0.00     0.009 A 
ENDBRANCH   1  10
BRANCH   1  16
HETATM   16  P1  UNL     1      11.325  22.504  35.368  1.00  0.00     0.278 P 
HETATM   17  O3  UNL     1      10.551  21.405  34.725  1.00  0.00    -0.639 OA
HETATM   18  O4  UNL     1      10.488  23.965  35.122  1.00  0.00    -0.639 OA
HETATM   19  O5  UNL     1      11.421  22.173  37.028  1.00  0.00    -0.639 OA
ENDBRANCH   1  16
TORSDOF 6
ENDMDL
