MODEL 2
REMARK VINA RESULT: -7.388462098      0.012      1.041
REMARK  6 active torsions:
REMARK  status: ('A' for Active; 'I' for Inactive)
REMARK    1  A    between atoms: N1_1  and  S1_4 
REMARK    2  A    between atoms: S1_4  and  C1_7 
REMARK    3  A    between atoms: C5_11  and  C6_12 
REMARK    4  A    between atoms: C6_12  and  C7_14 
REMARK    5  A    between atoms: C7_14  and  S2_15 
REMARK    6  A    between atoms: S2_15  and  C8_16 
ROOT
HETATM    1  C1  UNL     1      -4.391  17.618  -4.853  1.00  0.00     0.080 A 
HETATM    2  C2  UNL     1      -5.050  18.158  -5.936  1.00  0.00     0.025 A 
HETATM    3  C3  UNL     1      -5.544  19.449  -5.799  1.00  0.00     0.002 A 
HETATM    4  C4  UNL     1      -5.385  20.163  -4.629  1.00  0.00     0.015 A 
HETATM    5  C5  UNL     1      -4.726  19.623  -3.544  1.00  0.00     0.012 A 
HETATM    6  C12 UNL     1      -4.233  18.336  -3.681  1.00  0.00     0.040 A 
ENDROOT
BRANCH   5   7
HETATM    7  C6  UNL     1      -4.567  20.367  -2.285  1.00  0.00     0.169 C 
HETATM    8  O3  UNL     1      -5.239  20.012  -1.304  1.00  0.00    -0.291 OA
BRANCH   7   9
HETATM    9  C7  UNL     1      -3.625  21.517  -2.196  1.00  0.00     0.166 C 
BRANCH   9  10
HETATM   10  S2  UNL     1      -2.034  20.943  -1.588  1.00  0.00    -0.086 SA
BRANCH  10  11
HETATM   11  C8  UNL     1      -1.123  20.194  -2.928  1.00  0.00     0.144 A 
HETATM   12  N2  UNL     1      -0.130  19.307  -2.684  1.00  0.00    -0.347 N 
HETATM   13  C9  UNL     1       0.581  18.715  -3.669  1.00  0.00     0.091 A 
ATOM     14  H2  UNL     1       0.091  19.075  -1.716  1.00  0.00     0.167 HD
HETATM   15  C10 UNL     1       0.309  19.005  -4.990  1.00  0.00     0.034 A 
HETATM   16  C11 UNL     1      -0.708  19.914  -5.236  1.00  0.00     0.091 A 
HETATM   17  N3  UNL     1      -1.383  20.473  -4.219  1.00  0.00    -0.347 N 
ATOM     18  H3  UNL     1      -2.126  21.139  -4.433  1.00  0.00     0.167 HD
ENDBRANCH  10  11
ENDBRANCH   9  10
ENDBRANCH   7   9
ENDBRANCH   5   7
BRANCH   1  19
HETATM   19  S1  UNL     1      -3.771  15.989  -4.997  1.00  0.00     0.256 S 
HETATM   20  O1  UNL     1      -4.132  15.245  -3.752  1.00  0.00    -0.201 OA
HETATM   21  O2  UNL     1      -2.255  16.002  -5.085  1.00  0.00    -0.201 OA
BRANCH  19  22
HETATM   22  N1  UNL     1      -4.359  15.239  -6.436  1.00  0.00    -0.324 N 
ATOM     23  H12 UNL     1      -4.974  14.426  -6.417  1.00  0.00     0.169 HD
ATOM     24  H11 UNL     1      -4.030  15.690  -7.290  1.00  0.00     0.169 HD
ENDBRANCH  19  22
ENDBRANCH   1  19
TORSDOF 6
ENDMDL
