MODEL 3
REMARK VINA RESULT: -7.288618786      1.041      1.207
REMARK  6 active torsions:
REMARK  status: ('A' for Active; 'I' for Inactive)
REMARK    1  A    between atoms: N1_1  and  S1_4 
REMARK    2  A    between atoms: S1_4  and  C1_7 
REMARK    3  A    between atoms: C5_11  and  C6_12 
REMARK    4  A    between atoms: C6_12  and  C7_14 
REMARK    5  A    between atoms: C7_14  and  S2_15 
REMARK    6  A    between atoms: S2_15  and  C8_16 
ROOT
HETATM    1  C1  UNL     1      -4.378  17.684  -4.804  1.00  0.00     0.080 A 
HETATM    2  C2  UNL     1      -4.991  18.203  -5.924  1.00  0.00     0.025 A 
HETATM    3  C3  UNL     1      -5.624  19.433  -5.789  1.00  0.00     0.002 A 
HETATM    4  C4  UNL     1      -5.639  20.108  -4.586  1.00  0.00     0.015 A 
HETATM    5  C5  UNL     1      -5.025  19.590  -3.465  1.00  0.00     0.012 A 
HETATM    6  C12 UNL     1      -4.395  18.364  -3.599  1.00  0.00     0.040 A 
ENDROOT
BRANCH   5   7
HETATM    7  C6  UNL     1      -5.052  20.292  -2.172  1.00  0.00     0.169 C 
HETATM    8  O3  UNL     1      -6.139  20.728  -1.763  1.00  0.00    -0.291 OA
BRANCH   7   9
HETATM    9  C7  UNL     1      -3.804  20.474  -1.381  1.00  0.00     0.166 C 
BRANCH   9  10
HETATM   10  S2  UNL     1      -2.674  21.543  -2.281  1.00  0.00    -0.086 SA
BRANCH  10  11
HETATM   11  C8  UNL     1      -1.465  20.545  -3.134  1.00  0.00     0.144 A 
HETATM   12  N2  UNL     1      -1.481  20.432  -4.483  1.00  0.00    -0.347 N 
HETATM   13  C9  UNL     1      -0.582  19.690  -5.167  1.00  0.00     0.091 A 
ATOM     14  H2  UNL     1      -2.203  20.928  -5.006  1.00  0.00     0.167 HD
HETATM   15  C10 UNL     1       0.407  19.007  -4.492  1.00  0.00     0.034 A 
HETATM   16  C11 UNL     1       0.422  19.125  -3.111  1.00  0.00     0.091 A 
HETATM   17  N3  UNL     1      -0.496  19.875  -2.482  1.00  0.00    -0.347 N 
ATOM     18  H3  UNL     1      -0.459  19.941  -1.464  1.00  0.00     0.167 HD
ENDBRANCH  10  11
ENDBRANCH   9  10
ENDBRANCH   7   9
ENDBRANCH   5   7
BRANCH   1  19
HETATM   19  S1  UNL     1      -3.586  16.131  -4.946  1.00  0.00     0.256 S 
HETATM   20  O1  UNL     1      -3.949  15.547  -6.273  1.00  0.00    -0.201 OA
HETATM   21  O2  UNL     1      -4.096  15.173  -3.883  1.00  0.00    -0.201 OA
BRANCH  19  22
HETATM   22  N1  UNL     1      -1.884  16.292  -4.712  1.00  0.00    -0.324 N 
ATOM     23  H12 UNL     1      -1.311  15.541  -4.328  1.00  0.00     0.169 HD
ATOM     24  H11 UNL     1      -1.521  17.202  -4.996  1.00  0.00     0.169 HD
ENDBRANCH  19  22
ENDBRANCH   1  19
TORSDOF 6
ENDMDL
