MODEL 1
REMARK VINA RESULT: -7.393299843      0.000      0.000
REMARK  6 active torsions:
REMARK  status: ('A' for Active; 'I' for Inactive)
REMARK    1  A    between atoms: N1_1  and  S1_4 
REMARK    2  A    between atoms: S1_4  and  C1_7 
REMARK    3  A    between atoms: C5_11  and  C6_12 
REMARK    4  A    between atoms: C6_12  and  C7_14 
REMARK    5  A    between atoms: C7_14  and  S2_15 
REMARK    6  A    between atoms: S2_15  and  C8_16 
ROOT
HETATM    1  C1  UNL     1      -4.389  17.617  -4.854  1.00  0.00     0.080 A 
HETATM    2  C2  UNL     1      -5.051  18.156  -5.936  1.00  0.00     0.025 A 
HETATM    3  C3  UNL     1      -5.544  19.448  -5.799  1.00  0.00     0.002 A 
HETATM    4  C4  UNL     1      -5.380  20.163  -4.630  1.00  0.00     0.015 A 
HETATM    5  C5  UNL     1      -4.718  19.624  -3.547  1.00  0.00     0.012 A 
HETATM    6  C12 UNL     1      -4.226  18.336  -3.683  1.00  0.00     0.040 A 
ENDROOT
BRANCH   5   7
HETATM    7  C6  UNL     1      -4.554  20.370  -2.289  1.00  0.00     0.169 C 
HETATM    8  O3  UNL     1      -5.222  20.016  -1.306  1.00  0.00    -0.291 OA
BRANCH   7   9
HETATM    9  C7  UNL     1      -3.612  21.520  -2.205  1.00  0.00     0.166 C 
BRANCH   9  10
HETATM   10  S2  UNL     1      -2.025  20.951  -1.583  1.00  0.00    -0.086 SA
BRANCH  10  11
HETATM   11  C8  UNL     1      -1.108  20.186  -2.909  1.00  0.00     0.144 A 
HETATM   12  N2  UNL     1      -1.379  20.478  -4.203  1.00  0.00    -0.347 N 
HETATM   13  C9  UNL     1      -0.705  19.925  -5.236  1.00  0.00     0.091 A 
ATOM     14  H2  UNL     1      -2.123  21.145  -4.407  1.00  0.00     0.167 HD
HETATM   15  C10 UNL     1       0.307  19.019  -4.995  1.00  0.00     0.034 A 
HETATM   16  C11 UNL     1       0.583  18.722  -3.670  1.00  0.00     0.091 A 
HETATM   17  N3  UNL     1      -0.118  19.302  -2.682  1.00  0.00    -0.347 N 
ATOM     18  H3  UNL     1       0.109  19.062  -1.717  1.00  0.00     0.167 HD
ENDBRANCH  10  11
ENDBRANCH   9  10
ENDBRANCH   7   9
ENDBRANCH   5   7
BRANCH   1  19
HETATM   19  S1  UNL     1      -3.770  15.987  -4.998  1.00  0.00     0.256 S 
HETATM   20  O1  UNL     1      -4.130  15.244  -3.752  1.00  0.00    -0.201 OA
HETATM   21  O2  UNL     1      -2.254  15.999  -5.088  1.00  0.00    -0.201 OA
BRANCH  19  22
HETATM   22  N1  UNL     1      -4.360  15.237  -6.436  1.00  0.00    -0.324 N 
ATOM     23  H12 UNL     1      -4.045  14.317  -6.741  1.00  0.00     0.169 HD
ATOM     24  H11 UNL     1      -5.044  15.805  -6.937  1.00  0.00     0.169 HD
ENDBRANCH  19  22
ENDBRANCH   1  19
TORSDOF 6
ENDMDL
