MODEL 4
REMARK VINA RESULT: -6.678251166      0.760      1.662
REMARK  7 active torsions:
REMARK  status: ('A' for Active; 'I' for Inactive)
REMARK    1  A    between atoms: C2_2  and  C3_3 
REMARK    2  A    between atoms: C3_3  and  C4_4 
REMARK    3  A    between atoms: C3_3  and  O1_6 
REMARK    4  A    between atoms: O1_6  and  C6_7 
REMARK    5  A    between atoms: C8_9  and  C9_10 
REMARK    6  A    between atoms: C11_14  and  N1_15 
REMARK    7  A    between atoms: C12_19  and  N2_20 
REMARK       I    between atoms: N2_20  and  C13_22 
ROOT
HETATM    1  C6  UNL     1     -24.501 -20.055 -11.371  1.00  0.00     0.151 C 
HETATM    2  C7  UNL     1     -24.182 -20.703 -10.012  1.00  0.00     0.079 C 
HETATM    3  C8  UNL     1     -22.937 -20.174  -9.417  1.00  0.00     0.019 C 
HETATM    4  C10 UNL     1     -22.237 -19.159  -9.882  1.00  0.00     0.021 C 
HETATM    5  C11 UNL     1     -22.688 -18.453 -11.101  1.00  0.00     0.232 C 
HETATM    6  C12 UNL     1     -24.202 -18.604 -11.170  1.00  0.00     0.147 C 
ENDROOT
BRANCH   1   7
HETATM    7  O1  UNL     1     -25.816 -20.282 -11.588  1.00  0.00    -0.378 OA
BRANCH   7   8
HETATM    8  C3  UNL     1     -26.557 -20.870 -10.613  1.00  0.00     0.121 C 
BRANCH   8   9
HETATM    9  C2  UNL     1     -27.729 -19.932 -10.190  1.00  0.00     0.027 C 
HETATM   10  C1  UNL     1     -28.316 -19.410 -11.495  1.00  0.00     0.007 C 
ENDBRANCH   8   9
BRANCH   8  11
HETATM   11  C4  UNL     1     -27.157 -22.190 -10.836  1.00  0.00     0.027 C 
HETATM   12  C5  UNL     1     -26.874 -22.790 -12.192  1.00  0.00     0.007 C 
ENDBRANCH   8  11
ENDBRANCH   7   8
ENDBRANCH   1   7
BRANCH   6  13
HETATM   13  N2  UNL     1     -24.797 -17.693 -12.083  1.00  0.00    -0.352 N 
HETATM   14  C13 UNL     1     -25.798 -16.748 -11.665  1.00  0.00     0.214 C 
HETATM   15  C14 UNL     1     -26.387 -15.821 -12.637  1.00  0.00     0.117 C 
HETATM   16  O4  UNL     1     -26.106 -16.786 -10.447  1.00  0.00    -0.274 OA
ATOM     17  H2  UNL     1     -24.507 -17.710 -13.061  1.00  0.00     0.163 HD
ENDBRANCH   6  13
BRANCH   3  18
HETATM   18  C9  UNL     1     -22.434 -20.820  -8.214  1.00  0.00     0.205 C 
HETATM   19  O2  UNL     1     -22.504 -20.280  -7.076  1.00  0.00    -0.644 OA
HETATM   20  O3  UNL     1     -21.853 -22.063  -8.290  1.00  0.00    -0.644 OA
ENDBRANCH   3  18
BRANCH   5  21
HETATM   21  N1  UNL     1     -22.353 -17.036 -11.018  1.00  0.00    -0.070 N 
ATOM     22  H13 UNL     1     -22.645 -16.627 -10.131  1.00  0.00     0.275 HD
ATOM     23  H12 UNL     1     -21.347 -16.887 -10.930  1.00  0.00     0.275 HD
ATOM     24  H11 UNL     1     -22.742 -16.533 -11.816  1.00  0.00     0.275 HD
ENDBRANCH   5  21
TORSDOF 7
ENDMDL
