MODEL 12
REMARK VINA RESULT: -6.065231650      3.042      5.214
REMARK  7 active torsions:
REMARK  status: ('A' for Active; 'I' for Inactive)
REMARK    1  A    between atoms: C2_2  and  C3_3 
REMARK    2  A    between atoms: C3_3  and  C4_4 
REMARK    3  A    between atoms: C3_3  and  O1_6 
REMARK    4  A    between atoms: O1_6  and  C6_7 
REMARK    5  A    between atoms: C8_9  and  C9_10 
REMARK    6  A    between atoms: C11_14  and  N1_15 
REMARK    7  A    between atoms: C12_19  and  N2_20 
REMARK       I    between atoms: N2_20  and  C13_22 
ROOT
HETATM    1  C6  UNL     1     -25.117 -19.089 -10.256  1.00  0.00     0.151 C 
HETATM    2  C7  UNL     1     -25.455 -19.603 -11.667  1.00  0.00     0.079 C 
HETATM    3  C8  UNL     1     -25.780 -21.044 -11.676  1.00  0.00     0.019 C 
HETATM    4  C10 UNL     1     -25.929 -21.803 -10.609  1.00  0.00     0.021 C 
HETATM    5  C11 UNL     1     -25.766 -21.215  -9.262  1.00  0.00     0.232 C 
HETATM    6  C12 UNL     1     -26.131 -19.740  -9.372  1.00  0.00     0.147 C 
ENDROOT
BRANCH   1   7
HETATM    7  O1  UNL     1     -25.267 -17.747 -10.307  1.00  0.00    -0.378 OA
BRANCH   7   8
HETATM    8  C3  UNL     1     -24.787 -17.066 -11.379  1.00  0.00     0.121 C 
BRANCH   8   9
HETATM    9  C2  UNL     1     -25.695 -15.835 -11.685  1.00  0.00     0.027 C 
HETATM   10  C1  UNL     1     -26.322 -16.127 -13.042  1.00  0.00     0.007 C 
ENDBRANCH   8   9
BRANCH   8  11
HETATM   11  C4  UNL     1     -23.409 -16.561 -11.378  1.00  0.00     0.027 C 
HETATM   12  C5  UNL     1     -22.490 -17.234 -12.367  1.00  0.00     0.007 C 
ENDBRANCH   8  11
ENDBRANCH   7   8
ENDBRANCH   1   7
BRANCH   6  13
HETATM   13  N2  UNL     1     -26.355 -19.141  -8.103  1.00  0.00    -0.352 N 
HETATM   14  C13 UNL     1     -27.561 -18.410  -7.814  1.00  0.00     0.214 C 
HETATM   15  C14 UNL     1     -27.758 -17.809  -6.491  1.00  0.00     0.117 C 
HETATM   16  O4  UNL     1     -28.392 -18.340  -8.754  1.00  0.00    -0.274 OA
ATOM     17  H2  UNL     1     -25.643 -19.231  -7.378  1.00  0.00     0.163 HD
ENDBRANCH   6  13
BRANCH   3  18
HETATM   18  C9  UNL     1     -25.956 -21.690 -12.968  1.00  0.00     0.205 C 
HETATM   19  O2  UNL     1     -26.106 -21.037 -14.037  1.00  0.00    -0.644 OA
HETATM   20  O3  UNL     1     -25.965 -23.061 -13.059  1.00  0.00    -0.644 OA
ENDBRANCH   3  18
BRANCH   5  21
HETATM   21  N1  UNL     1     -26.668 -21.861  -8.315  1.00  0.00    -0.070 N 
ATOM     22  H13 UNL     1     -26.198 -22.096  -7.441  1.00  0.00     0.275 HD
ATOM     23  H12 UNL     1     -27.360 -21.210  -7.944  1.00  0.00     0.275 HD
ATOM     24  H11 UNL     1     -27.105 -22.677  -8.744  1.00  0.00     0.275 HD
ENDBRANCH   5  21
TORSDOF 7
ENDMDL
