MODEL 5
REMARK VINA RESULT: -6.621160013      2.287      4.613
REMARK  7 active torsions:
REMARK  status: ('A' for Active; 'I' for Inactive)
REMARK    1  A    between atoms: C2_2  and  C3_3 
REMARK    2  A    between atoms: C3_3  and  C4_4 
REMARK    3  A    between atoms: C3_3  and  O1_6 
REMARK    4  A    between atoms: O1_6  and  C6_7 
REMARK    5  A    between atoms: C8_9  and  C9_10 
REMARK    6  A    between atoms: C11_14  and  N1_15 
REMARK    7  A    between atoms: C12_19  and  N2_20 
REMARK       I    between atoms: N2_20  and  C13_22 
ROOT
HETATM    1  C6  UNL     1     -25.288 -18.289 -10.483  1.00  0.00     0.151 C 
HETATM    2  C7  UNL     1     -25.822 -18.326 -11.926  1.00  0.00     0.079 C 
HETATM    3  C8  UNL     1     -24.769 -18.038 -12.921  1.00  0.00     0.019 C 
HETATM    4  C10 UNL     1     -23.482 -17.914 -12.662  1.00  0.00     0.021 C 
HETATM    5  C11 UNL     1     -22.997 -18.065 -11.273  1.00  0.00     0.232 C 
HETATM    6  C12 UNL     1     -23.971 -18.991 -10.557  1.00  0.00     0.147 C 
ENDROOT
BRANCH   1   7
HETATM    7  O1  UNL     1     -26.190 -18.967  -9.739  1.00  0.00    -0.378 OA
BRANCH   7   8
HETATM    8  C3  UNL     1     -27.167 -19.674 -10.364  1.00  0.00     0.121 C 
BRANCH   8   9
HETATM    9  C2  UNL     1     -27.058 -21.185  -9.993  1.00  0.00     0.027 C 
HETATM   10  C1  UNL     1     -26.884 -21.912 -11.321  1.00  0.00     0.007 C 
ENDBRANCH   8   9
BRANCH   8  11
HETATM   11  C4  UNL     1     -28.577 -19.313 -10.172  1.00  0.00     0.027 C 
HETATM   12  C5  UNL     1     -29.318 -18.974 -11.442  1.00  0.00     0.007 C 
ENDBRANCH   8  11
ENDBRANCH   7   8
ENDBRANCH   1   7
BRANCH   6  13
HETATM   13  N2  UNL     1     -23.444 -19.496  -9.339  1.00  0.00    -0.352 N 
HETATM   14  C13 UNL     1     -23.234 -20.905  -9.131  1.00  0.00     0.214 C 
HETATM   15  C14 UNL     1     -22.684 -21.388  -7.860  1.00  0.00     0.117 C 
HETATM   16  O4  UNL     1     -23.549 -21.649 -10.094  1.00  0.00    -0.274 OA
ATOM     17  H2  UNL     1     -23.207 -18.844  -8.591  1.00  0.00     0.163 HD
ENDBRANCH   6  13
BRANCH   3  18
HETATM   18  C9  UNL     1     -25.174 -17.877 -14.310  1.00  0.00     0.205 C 
HETATM   19  O2  UNL     1     -25.463 -16.754 -14.805  1.00  0.00    -0.644 OA
HETATM   20  O3  UNL     1     -25.257 -18.972 -15.136  1.00  0.00    -0.644 OA
ENDBRANCH   3  18
BRANCH   5  21
HETATM   21  N1  UNL     1     -21.669 -18.670 -11.265  1.00  0.00    -0.070 N 
ATOM     22  H13 UNL     1     -21.487 -19.200 -12.117  1.00  0.00     0.275 HD
ATOM     23  H12 UNL     1     -20.932 -17.971 -11.361  1.00  0.00     0.275 HD
ATOM     24  H11 UNL     1     -21.545 -19.240 -10.428  1.00  0.00     0.275 HD
ENDBRANCH   5  21
TORSDOF 7
ENDMDL
