MODEL 4
REMARK VINA RESULT: -7.078323751      1.972      6.592
REMARK  10 active torsions:
REMARK  status: ('A' for Active; 'I' for Inactive)
REMARK    1  A    between atoms: C2_2  and  C3_3 
REMARK    2  A    between atoms: C3_3  and  C4_4 
REMARK    3  A    between atoms: C3_3  and  O1_6 
REMARK    4  A    between atoms: O1_6  and  C6_7 
REMARK    5  A    between atoms: C8_9  and  C9_10 
REMARK    6  A    between atoms: C11_14  and  N1_15 
REMARK    7  A    between atoms: C13_17  and  C14_18 
REMARK    8  A    between atoms: C14_18  and  O4_19 
REMARK    9  A    between atoms: C14_18  and  C15_21 
REMARK   10  A    between atoms: C17_27  and  N4_28 
REMARK       I    between atoms: N4_28  and  C18_30 
ROOT
HETATM    1  C6  UNL     1     204.050  73.305-126.481  1.00  0.00     0.151 C 
HETATM    2  C7  UNL     1     203.136  72.145-126.779  1.00  0.00     0.079 C 
HETATM    3  C8  UNL     1     203.902  70.906-127.055  1.00  0.00     0.019 C 
HETATM    4  C10 UNL     1     205.211  70.785-126.902  1.00  0.00     0.016 C 
HETATM    5  C11 UNL     1     206.035  71.925-126.427  1.00  0.00     0.157 C 
HETATM    6  C17 UNL     1     205.142  72.763-125.545  1.00  0.00     0.142 C 
ENDROOT
BRANCH   5   7
HETATM    7  N1  UNL     1     207.215  71.479-125.733  1.00  0.00    -0.277 N 
HETATM    8  C12 UNL     1     207.289  70.601-124.722  1.00  0.00     0.141 A 
HETATM    9  C13 UNL     1     208.617  70.472-124.365  1.00  0.00     0.073 A 
HETATM   10  N2  UNL     1     209.302  71.285-125.179  1.00  0.00    -0.286 N 
HETATM   11  N3  UNL     1     208.436  71.876-125.990  1.00  0.00    -0.240 N 
ATOM     12  H2  UNL     1     210.312  71.424-125.177  1.00  0.00     0.188 HD
ATOM     13  H3  UNL     1     208.686  72.549-126.715  1.00  0.00     0.208 HD
BRANCH   9  14
HETATM   14  C14 UNL     1     209.186  69.599-123.282  1.00  0.00     0.170 C 
BRANCH  14  15
HETATM   15  O4  UNL     1     210.504  69.966-123.046  1.00  0.00    -0.389 OA
ATOM     16  H4  UNL     1     210.791  69.587-122.223  1.00  0.00     0.210 HD
ENDBRANCH  14  15
BRANCH  14  17
HETATM   17  C15 UNL     1     209.101  68.173-123.818  1.00  0.00     0.033 C 
HETATM   18  C16 UNL     1     208.108  67.352-123.029  1.00  0.00     0.008 C 
ENDBRANCH  14  17
ENDBRANCH   9  14
ENDBRANCH   5   7
BRANCH   6  19
HETATM   19  N4  UNL     1     205.837  73.800-124.857  1.00  0.00    -0.352 N 
HETATM   20  C18 UNL     1     205.917  73.780-123.437  1.00  0.00     0.214 C 
HETATM   21  C19 UNL     1     206.637  74.847-122.668  1.00  0.00     0.117 C 
HETATM   22  O5  UNL     1     205.383  72.855-122.742  1.00  0.00    -0.274 OA
ATOM     23  H4  UNL     1     206.277  74.556-125.383  1.00  0.00     0.163 HD
ENDBRANCH   6  19
BRANCH   3  24
HETATM   24  C9  UNL     1     203.128  69.738-127.531  1.00  0.00     0.205 C 
HETATM   25  O2  UNL     1     203.469  69.074-128.539  1.00  0.00    -0.644 OA
HETATM   26  O3  UNL     1     201.976  69.343-126.854  1.00  0.00    -0.644 OA
ENDBRANCH   3  24
BRANCH   1  27
HETATM   27  O1  UNL     1     203.389  74.354-125.858  1.00  0.00    -0.378 OA
BRANCH  27  28
HETATM   28  C3  UNL     1     203.429  75.539-126.548  1.00  0.00     0.121 C 
BRANCH  28  29
HETATM   29  C2  UNL     1     201.996  76.016-126.742  1.00  0.00     0.027 C 
HETATM   30  C1  UNL     1     201.667  76.197-128.185  1.00  0.00     0.007 C 
ENDBRANCH  28  29
BRANCH  28  31
HETATM   31  C4  UNL     1     204.130  76.640-125.778  1.00  0.00     0.027 C 
HETATM   32  C5  UNL     1     203.129  77.513-125.058  1.00  0.00     0.007 C 
ENDBRANCH  28  31
ENDBRANCH  27  28
ENDBRANCH   1  27
TORSDOF 10
ENDMDL
