MODEL 8
REMARK VINA RESULT: -6.693688174      2.925      6.021
REMARK  10 active torsions:
REMARK  status: ('A' for Active; 'I' for Inactive)
REMARK    1  A    between atoms: C2_2  and  C3_3 
REMARK    2  A    between atoms: C3_3  and  C4_4 
REMARK    3  A    between atoms: C3_3  and  O1_6 
REMARK    4  A    between atoms: O1_6  and  C6_7 
REMARK    5  A    between atoms: C8_9  and  C9_10 
REMARK    6  A    between atoms: C11_14  and  N1_15 
REMARK    7  A    between atoms: C13_17  and  C14_18 
REMARK    8  A    between atoms: C14_18  and  O4_19 
REMARK    9  A    between atoms: C14_18  and  C15_21 
REMARK   10  A    between atoms: C17_27  and  N4_28 
REMARK       I    between atoms: N4_28  and  C18_30 
ROOT
HETATM    1  C6  UNL     1     203.495  71.320-128.911  1.00  0.00     0.151 C 
HETATM    2  C7  UNL     1     203.535  69.905-128.396  1.00  0.00     0.079 C 
HETATM    3  C8  UNL     1     204.641  69.709-127.428  1.00  0.00     0.019 C 
HETATM    4  C10 UNL     1     205.398  70.683-126.950  1.00  0.00     0.016 C 
HETATM    5  C11 UNL     1     205.186  72.093-127.365  1.00  0.00     0.157 C 
HETATM    6  C17 UNL     1     203.719  72.229-127.692  1.00  0.00     0.142 C 
ENDROOT
BRANCH   5   7
HETATM    7  N1  UNL     1     205.599  73.019-126.343  1.00  0.00    -0.277 N 
HETATM    8  C12 UNL     1     205.344  72.957-125.028  1.00  0.00     0.141 A 
HETATM    9  C13 UNL     1     205.933  74.053-124.426  1.00  0.00     0.073 A 
HETATM   10  N2  UNL     1     206.527  74.742-125.409  1.00  0.00    -0.286 N 
HETATM   11  N3  UNL     1     206.310  74.099-126.548  1.00  0.00    -0.240 N 
ATOM     12  H2  UNL     1     207.052  75.609-125.300  1.00  0.00     0.188 HD
ATOM     13  H3  UNL     1     206.652  74.404-127.460  1.00  0.00     0.208 HD
BRANCH   9  14
HETATM   14  C14 UNL     1     205.914  74.406-122.966  1.00  0.00     0.170 C 
BRANCH  14  15
HETATM   15  O4  UNL     1     204.709  75.026-122.662  1.00  0.00    -0.389 OA
ATOM     16  H4  UNL     1     204.743  75.931-122.948  1.00  0.00     0.210 HD
ENDBRANCH  14  15
BRANCH  14  17
HETATM   17  C15 UNL     1     207.088  75.358-122.760  1.00  0.00     0.033 C 
HETATM   18  C16 UNL     1     208.339  74.605-122.372  1.00  0.00     0.008 C 
ENDBRANCH  14  17
ENDBRANCH   9  14
ENDBRANCH   5   7
BRANCH   6  19
HETATM   19  N4  UNL     1     203.314  73.574-127.930  1.00  0.00    -0.352 N 
HETATM   20  C18 UNL     1     202.258  74.144-127.167  1.00  0.00     0.214 C 
HETATM   21  C19 UNL     1     201.796  75.554-127.379  1.00  0.00     0.117 C 
HETATM   22  O5  UNL     1     201.648  73.488-126.260  1.00  0.00    -0.274 OA
ATOM     23  H4  UNL     1     203.782  74.128-128.648  1.00  0.00     0.163 HD
ENDBRANCH   6  19
BRANCH   3  24
HETATM   24  C9  UNL     1     204.894  68.322-126.981  1.00  0.00     0.205 C 
HETATM   25  O2  UNL     1     206.031  67.795-127.045  1.00  0.00    -0.644 OA
HETATM   26  O3  UNL     1     203.852  67.554-126.467  1.00  0.00    -0.644 OA
ENDBRANCH   3  24
BRANCH   1  27
HETATM   27  O1  UNL     1     202.280  71.635-129.503  1.00  0.00    -0.378 OA
BRANCH  27  28
HETATM   28  C3  UNL     1     202.323  71.732-130.870  1.00  0.00     0.121 C 
BRANCH  28  29
HETATM   29  C2  UNL     1     201.372  70.692-131.444  1.00  0.00     0.027 C 
HETATM   30  C1  UNL     1     202.109  69.527-132.013  1.00  0.00     0.007 C 
ENDBRANCH  28  29
BRANCH  28  31
HETATM   31  C4  UNL     1     201.826  73.071-131.377  1.00  0.00     0.027 C 
HETATM   32  C5  UNL     1     200.682  73.575-130.528  1.00  0.00     0.007 C 
ENDBRANCH  28  31
ENDBRANCH  27  28
ENDBRANCH   1  27
TORSDOF 10
ENDMDL
