MODEL 2
REMARK VINA RESULT: -7.598181735      1.038      1.258
REMARK  10 active torsions:
REMARK  status: ('A' for Active; 'I' for Inactive)
REMARK    1  A    between atoms: C2_2  and  C3_3 
REMARK    2  A    between atoms: C3_3  and  C4_4 
REMARK    3  A    between atoms: C3_3  and  O1_6 
REMARK    4  A    between atoms: O1_6  and  C6_7 
REMARK    5  A    between atoms: C8_9  and  C9_10 
REMARK    6  A    between atoms: C11_14  and  N1_15 
REMARK    7  A    between atoms: C13_17  and  C14_18 
REMARK    8  A    between atoms: C14_18  and  O4_19 
REMARK    9  A    between atoms: C14_18  and  C15_21 
REMARK   10  A    between atoms: C17_27  and  N4_28 
REMARK       I    between atoms: N4_28  and  C18_30 
ROOT
HETATM    1  C6  UNL     1     206.331  70.023-124.555  1.00  0.00     0.151 C 
HETATM    2  C7  UNL     1     205.807  69.441-125.841  1.00  0.00     0.079 C 
HETATM    3  C8  UNL     1     204.613  70.175-126.324  1.00  0.00     0.019 C 
HETATM    4  C10 UNL     1     204.157  71.297-125.789  1.00  0.00     0.016 C 
HETATM    5  C11 UNL     1     204.834  71.921-124.624  1.00  0.00     0.157 C 
HETATM    6  C17 UNL     1     206.294  71.550-124.726  1.00  0.00     0.142 C 
ENDROOT
BRANCH   5   7
HETATM    7  N1  UNL     1     204.640  73.346-124.594  1.00  0.00    -0.277 N 
HETATM    8  C12 UNL     1     204.488  74.176-125.636  1.00  0.00     0.141 A 
HETATM    9  C13 UNL     1     204.331  75.457-125.144  1.00  0.00     0.073 A 
HETATM   10  N2  UNL     1     204.395  75.353-123.810  1.00  0.00    -0.286 N 
HETATM   11  N3  UNL     1     204.581  74.076-123.508  1.00  0.00    -0.240 N 
ATOM     12  H2  UNL     1     204.316  76.122-123.145  1.00  0.00     0.188 HD
ATOM     13  H3  UNL     1     204.666  73.711-122.559  1.00  0.00     0.208 HD
BRANCH   9  14
HETATM   14  C14 UNL     1     204.129  76.717-125.938  1.00  0.00     0.170 C 
BRANCH  14  15
HETATM   15  O4  UNL     1     203.887  77.771-125.066  1.00  0.00    -0.389 OA
ATOM     16  H4  UNL     1     203.724  78.560-125.569  1.00  0.00     0.210 HD
ENDBRANCH  14  15
BRANCH  14  17
HETATM   17  C15 UNL     1     202.917  76.452-126.826  1.00  0.00     0.033 C 
HETATM   18  C16 UNL     1     201.630  76.762-126.100  1.00  0.00     0.008 C 
ENDBRANCH  14  17
ENDBRANCH   9  14
ENDBRANCH   5   7
BRANCH   6  19
HETATM   19  N4  UNL     1     207.117  72.227-123.780  1.00  0.00    -0.352 N 
HETATM   20  C18 UNL     1     208.001  73.254-124.216  1.00  0.00     0.214 C 
HETATM   21  C19 UNL     1     208.886  73.996-123.260  1.00  0.00     0.117 C 
HETATM   22  O5  UNL     1     208.087  73.599-125.439  1.00  0.00    -0.274 OA
ATOM     23  H4  UNL     1     207.073  71.977-122.793  1.00  0.00     0.163 HD
ENDBRANCH   6  19
BRANCH   3  24
HETATM   24  C9  UNL     1     203.901  69.596-127.484  1.00  0.00     0.205 C 
HETATM   25  O2  UNL     1     203.716  70.238-128.546  1.00  0.00    -0.644 OA
HETATM   26  O3  UNL     1     203.409  68.294-127.420  1.00  0.00    -0.644 OA
ENDBRANCH   3  24
BRANCH   1  27
HETATM   27  O1  UNL     1     207.632  69.623-124.283  1.00  0.00    -0.378 OA
BRANCH  27  28
HETATM   28  C3  UNL     1     208.274  69.024-125.337  1.00  0.00     0.121 C 
BRANCH  28  29
HETATM   29  C2  UNL     1     209.421  69.930-125.762  1.00  0.00     0.027 C 
HETATM   30  C1  UNL     1     209.139  70.602-127.064  1.00  0.00     0.007 C 
ENDBRANCH  28  29
BRANCH  28  31
HETATM   31  C4  UNL     1     208.910  67.702-124.959  1.00  0.00     0.027 C 
HETATM   32  C5  UNL     1     208.673  67.390-123.500  1.00  0.00     0.007 C 
ENDBRANCH  28  31
ENDBRANCH  27  28
ENDBRANCH   1  27
TORSDOF 10
ENDMDL
