MODEL 9
REMARK VINA RESULT: -6.649271888      1.979      2.446
REMARK  10 active torsions:
REMARK  status: ('A' for Active; 'I' for Inactive)
REMARK    1  A    between atoms: C2_2  and  C3_3 
REMARK    2  A    between atoms: C3_3  and  C4_4 
REMARK    3  A    between atoms: C3_3  and  O1_6 
REMARK    4  A    between atoms: O1_6  and  C6_7 
REMARK    5  A    between atoms: C8_9  and  C9_10 
REMARK    6  A    between atoms: C11_14  and  N1_15 
REMARK    7  A    between atoms: C13_17  and  C14_18 
REMARK    8  A    between atoms: C14_18  and  O4_19 
REMARK    9  A    between atoms: C14_18  and  C15_21 
REMARK   10  A    between atoms: C17_27  and  N4_28 
REMARK       I    between atoms: N4_28  and  C18_30 
ROOT
HETATM    1  C6  UNL     1     206.761  70.338-124.816  1.00  0.00     0.151 C 
HETATM    2  C7  UNL     1     207.180  69.789-126.155  1.00  0.00     0.079 C 
HETATM    3  C8  UNL     1     206.591  70.569-127.270  1.00  0.00     0.019 C 
HETATM    4  C10 UNL     1     205.915  71.697-127.120  1.00  0.00     0.016 C 
HETATM    5  C11 UNL     1     205.692  72.283-125.774  1.00  0.00     0.157 C 
HETATM    6  C17 UNL     1     206.867  71.867-124.923  1.00  0.00     0.142 C 
ENDROOT
BRANCH   5   7
HETATM    7  N1  UNL     1     205.547  73.714-125.832  1.00  0.00    -0.277 N 
HETATM    8  C12 UNL     1     204.455  74.440-125.554  1.00  0.00     0.141 A 
HETATM    9  C13 UNL     1     204.768  75.773-125.743  1.00  0.00     0.073 A 
HETATM   10  N2  UNL     1     206.048  75.802-126.134  1.00  0.00    -0.286 N 
HETATM   11  N3  UNL     1     206.491  74.553-126.179  1.00  0.00    -0.240 N 
ATOM     12  H2  UNL     1     206.588  76.638-126.358  1.00  0.00     0.188 HD
ATOM     13  H3  UNL     1     207.437  74.283-126.447  1.00  0.00     0.208 HD
BRANCH   9  14
HETATM   14  C14 UNL     1     203.860  76.955-125.552  1.00  0.00     0.170 C 
BRANCH  14  15
HETATM   15  O4  UNL     1     203.250  76.865-124.307  1.00  0.00    -0.389 OA
ATOM     16  H4  UNL     1     203.894  77.038-123.631  1.00  0.00     0.210 HD
ENDBRANCH  14  15
BRANCH  14  17
HETATM   17  C15 UNL     1     202.831  76.867-126.675  1.00  0.00     0.033 C 
HETATM   18  C16 UNL     1     201.427  76.799-126.123  1.00  0.00     0.008 C 
ENDBRANCH  14  17
ENDBRANCH   9  14
ENDBRANCH   5   7
BRANCH   6  19
HETATM   19  N4  UNL     1     206.898  72.505-123.649  1.00  0.00    -0.352 N 
HETATM   20  C18 UNL     1     207.838  73.542-123.398  1.00  0.00     0.214 C 
HETATM   21  C19 UNL     1     207.910  74.244-122.075  1.00  0.00     0.117 C 
HETATM   22  O5  UNL     1     208.669  73.931-124.281  1.00  0.00    -0.274 OA
ATOM     23  H4  UNL     1     206.245  72.219-122.919  1.00  0.00     0.163 HD
ENDBRANCH   6  19
BRANCH   3  24
HETATM   24  C9  UNL     1     206.785  70.028-128.633  1.00  0.00     0.205 C 
HETATM   25  O2  UNL     1     206.555  68.827-128.916  1.00  0.00    -0.644 OA
HETATM   26  O3  UNL     1     207.237  70.859-129.655  1.00  0.00    -0.644 OA
ENDBRANCH   3  24
BRANCH   1  27
HETATM   27  O1  UNL     1     207.573  69.892-123.782  1.00  0.00    -0.378 OA
BRANCH  27  28
HETATM   28  C3  UNL     1     208.822  69.486-124.177  1.00  0.00     0.121 C 
BRANCH  28  29
HETATM   29  C2  UNL     1     209.847  70.339-123.441  1.00  0.00     0.027 C 
HETATM   30  C1  UNL     1     210.647  71.173-124.383  1.00  0.00     0.007 C 
ENDBRANCH  28  29
BRANCH  28  31
HETATM   31  C4  UNL     1     209.121  68.053-123.787  1.00  0.00     0.027 C 
HETATM   32  C5  UNL     1     208.012  67.487-122.930  1.00  0.00     0.007 C 
ENDBRANCH  28  31
ENDBRANCH  27  28
ENDBRANCH   1  27
TORSDOF 10
ENDMDL
