MODEL 1
REMARK VINA RESULT: -7.783366296      0.000      0.000
REMARK  10 active torsions:
REMARK  status: ('A' for Active; 'I' for Inactive)
REMARK    1  A    between atoms: C2_2  and  C3_3 
REMARK    2  A    between atoms: C3_3  and  C4_4 
REMARK    3  A    between atoms: C3_3  and  O1_6 
REMARK    4  A    between atoms: O1_6  and  C6_7 
REMARK    5  A    between atoms: C8_9  and  C9_10 
REMARK    6  A    between atoms: C11_14  and  N1_15 
REMARK    7  A    between atoms: C13_17  and  C14_18 
REMARK    8  A    between atoms: C14_18  and  O4_19 
REMARK    9  A    between atoms: C14_18  and  C15_21 
REMARK   10  A    between atoms: C17_27  and  N4_28 
REMARK       I    between atoms: N4_28  and  C18_30 
ROOT
HETATM    1  C6  UNL     1     206.086  69.885-125.182  1.00  0.00     0.151 C 
HETATM    2  C7  UNL     1     205.345  69.433-126.413  1.00  0.00     0.079 C 
HETATM    3  C8  UNL     1     204.130  70.251-126.646  1.00  0.00     0.019 C 
HETATM    4  C10 UNL     1     203.817  71.339-125.961  1.00  0.00     0.016 C 
HETATM    5  C11 UNL     1     204.693  71.837-124.870  1.00  0.00     0.157 C 
HETATM    6  C17 UNL     1     206.100  71.421-125.226  1.00  0.00     0.142 C 
ENDROOT
BRANCH   5   7
HETATM    7  N1  UNL     1     204.577  73.261-124.700  1.00  0.00    -0.277 N 
HETATM    8  C12 UNL     1     204.485  74.197-125.656  1.00  0.00     0.141 A 
HETATM    9  C13 UNL     1     204.392  75.430-125.039  1.00  0.00     0.073 A 
HETATM   10  N2  UNL     1     204.433  75.191-123.722  1.00  0.00    -0.286 N 
HETATM   11  N3  UNL     1     204.544  73.882-123.548  1.00  0.00    -0.240 N 
ATOM     12  H2  UNL     1     204.387  75.893-122.984  1.00  0.00     0.188 HD
ATOM     13  H3  UNL     1     204.596  73.420-122.639  1.00  0.00     0.208 HD
BRANCH   9  14
HETATM   14  C14 UNL     1     204.270  76.771-125.705  1.00  0.00     0.170 C 
BRANCH  14  15
HETATM   15  O4  UNL     1     205.229  77.629-125.182  1.00  0.00    -0.389 OA
ATOM     16  H4  UNL     1     205.666  78.081-125.894  1.00  0.00     0.210 HD
ENDBRANCH  14  15
BRANCH  14  17
HETATM   17  C15 UNL     1     202.862  77.262-125.384  1.00  0.00     0.033 C 
HETATM   18  C16 UNL     1     201.865  76.761-126.401  1.00  0.00     0.008 C 
ENDBRANCH  14  17
ENDBRANCH   9  14
ENDBRANCH   5   7
BRANCH   6  19
HETATM   19  N4  UNL     1     207.090  71.985-124.369  1.00  0.00    -0.352 N 
HETATM   20  C18 UNL     1     208.049  72.893-124.896  1.00  0.00     0.214 C 
HETATM   21  C19 UNL     1     209.110  73.513-124.036  1.00  0.00     0.117 C 
HETATM   22  O5  UNL     1     208.060  73.230-126.124  1.00  0.00    -0.274 OA
ATOM     23  H4  UNL     1     207.109  71.738-123.380  1.00  0.00     0.163 HD
ENDBRANCH   6  19
BRANCH   3  24
HETATM   24  C9  UNL     1     203.222  69.798-127.723  1.00  0.00     0.205 C 
HETATM   25  O2  UNL     1     202.565  70.602-128.427  1.00  0.00    -0.644 OA
HETATM   26  O3  UNL     1     203.075  68.438-127.985  1.00  0.00    -0.644 OA
ENDBRANCH   3  24
BRANCH   1  27
HETATM   27  O1  UNL     1     207.391  69.415-125.146  1.00  0.00    -0.378 OA
BRANCH  27  28
HETATM   28  C3  UNL     1     207.621  68.447-124.202  1.00  0.00     0.121 C 
BRANCH  28  29
HETATM   29  C2  UNL     1     208.680  67.500-124.748  1.00  0.00     0.027 C 
HETATM   30  C1  UNL     1     208.851  67.656-126.222  1.00  0.00     0.007 C 
ENDBRANCH  28  29
BRANCH  28  31
HETATM   31  C4  UNL     1     208.192  69.009-122.916  1.00  0.00     0.027 C 
HETATM   32  C5  UNL     1     209.486  69.742-123.179  1.00  0.00     0.007 C 
ENDBRANCH  28  31
ENDBRANCH  27  28
ENDBRANCH   1  27
TORSDOF 10
ENDMDL
