MODEL 11
REMARK VINA RESULT: -6.626704285      3.539      4.503
REMARK  10 active torsions:
REMARK  status: ('A' for Active; 'I' for Inactive)
REMARK    1  A    between atoms: C2_2  and  C3_3 
REMARK    2  A    between atoms: C3_3  and  C4_4 
REMARK    3  A    between atoms: C3_3  and  O1_6 
REMARK    4  A    between atoms: O1_6  and  C6_7 
REMARK    5  A    between atoms: C8_9  and  C9_10 
REMARK    6  A    between atoms: C11_14  and  N1_15 
REMARK    7  A    between atoms: C13_17  and  C14_18 
REMARK    8  A    between atoms: C14_18  and  O4_19 
REMARK    9  A    between atoms: C14_18  and  C15_21 
REMARK   10  A    between atoms: C17_27  and  N4_28 
REMARK       I    between atoms: N4_28  and  C18_30 
ROOT
HETATM    1  C6  UNL     1     207.493  69.069-127.567  1.00  0.00     0.151 C 
HETATM    2  C7  UNL     1     206.063  69.235-128.011  1.00  0.00     0.079 C 
HETATM    3  C8  UNL     1     205.128  69.192-126.861  1.00  0.00     0.019 C 
HETATM    4  C10 UNL     1     205.503  69.173-125.592  1.00  0.00     0.016 C 
HETATM    5  C11 UNL     1     206.939  69.193-125.216  1.00  0.00     0.157 C 
HETATM    6  C17 UNL     1     207.659  69.940-126.313  1.00  0.00     0.142 C 
ENDROOT
BRANCH   5   7
HETATM    7  N1  UNL     1     207.145  69.797-123.926  1.00  0.00    -0.277 N 
HETATM    8  C12 UNL     1     206.973  71.081-123.584  1.00  0.00     0.141 A 
HETATM    9  C13 UNL     1     207.287  71.213-122.245  1.00  0.00     0.073 A 
HETATM   10  N2  UNL     1     207.641  69.992-121.824  1.00  0.00    -0.286 N 
HETATM   11  N3  UNL     1     207.547  69.162-122.853  1.00  0.00    -0.240 N 
ATOM     12  H2  UNL     1     207.933  69.745-120.879  1.00  0.00     0.188 HD
ATOM     13  H3  UNL     1     207.759  68.164-122.815  1.00  0.00     0.208 HD
BRANCH   9  14
HETATM   14  C14 UNL     1     207.242  72.469-121.421  1.00  0.00     0.170 C 
BRANCH  14  15
HETATM   15  O4  UNL     1     206.352  72.294-120.370  1.00  0.00    -0.389 OA
ATOM     16  H4  UNL     1     206.716  72.682-119.584  1.00  0.00     0.210 HD
ENDBRANCH  14  15
BRANCH  14  17
HETATM   17  C15 UNL     1     206.764  73.565-122.369  1.00  0.00     0.033 C 
HETATM   18  C16 UNL     1     207.658  74.779-122.294  1.00  0.00     0.008 C 
ENDBRANCH  14  17
ENDBRANCH   9  14
ENDBRANCH   5   7
BRANCH   6  19
HETATM   19  N4  UNL     1     209.025  70.210-126.010  1.00  0.00    -0.352 N 
HETATM   20  C18 UNL     1     209.538  71.529-126.159  1.00  0.00     0.214 C 
HETATM   21  C19 UNL     1     210.968  71.863-125.854  1.00  0.00     0.117 C 
HETATM   22  O5  UNL     1     208.812  72.496-126.558  1.00  0.00    -0.274 OA
ATOM     23  H4  UNL     1     209.635  69.459-125.687  1.00  0.00     0.163 HD
ENDBRANCH   6  19
BRANCH   3  24
HETATM   24  C9  UNL     1     203.683  69.171-127.180  1.00  0.00     0.205 C 
HETATM   25  O2  UNL     1     203.180  68.316-127.948  1.00  0.00    -0.644 OA
HETATM   26  O3  UNL     1     202.832  70.122-126.622  1.00  0.00    -0.644 OA
ENDBRANCH   3  24
BRANCH   1  27
HETATM   27  O1  UNL     1     208.399  69.477-128.535  1.00  0.00    -0.378 OA
BRANCH  27  28
HETATM   28  C3  UNL     1     209.107  68.457-129.116  1.00  0.00     0.121 C 
BRANCH  28  29
HETATM   29  C2  UNL     1     210.432  69.025-129.605  1.00  0.00     0.027 C 
HETATM   30  C1  UNL     1     210.412  70.516-129.644  1.00  0.00     0.007 C 
ENDBRANCH  28  29
BRANCH  28  31
HETATM   31  C4  UNL     1     209.465  67.360-128.135  1.00  0.00     0.027 C 
HETATM   32  C5  UNL     1     210.964  67.194-128.038  1.00  0.00     0.007 C 
ENDBRANCH  28  31
ENDBRANCH  27  28
ENDBRANCH   1  27
TORSDOF 10
ENDMDL
