MODEL 4
REMARK VINA RESULT: -7.227717375      1.721      5.750
REMARK  2 active torsions:
REMARK  status: ('A' for Active; 'I' for Inactive)
REMARK    1  A    between atoms: N1_5  and  C3_6 
REMARK    2  A    between atoms: C3_6  and  C4_7 
ROOT
HETATM    1  O1  UNL     1      -1.024 -27.031  54.693  1.00  0.00    -0.281 OA
HETATM    2  C1  UNL     1      -0.838 -26.882  53.464  1.00  0.00     0.252 A 
HETATM    3  C2  UNL     1      -0.403 -27.903  52.518  1.00  0.00     0.299 A 
HETATM    4  O2  UNL     1      -0.137 -29.122  52.778  1.00  0.00    -0.263 OA
HETATM    5  N1  UNL     1      -0.343 -27.246  51.258  1.00  0.00    -0.306 N 
HETATM    6  C10 UNL     1      -0.720 -25.877  51.396  1.00  0.00     0.052 A 
HETATM    7  C11 UNL     1      -0.815 -24.846  50.461  1.00  0.00     0.031 A 
HETATM    8  C12 UNL     1      -1.208 -23.578  50.830  1.00  0.00     0.002 A 
HETATM    9  C13 UNL     1      -1.502 -23.377  52.163  1.00  0.00     0.001 A 
HETATM   10  C14 UNL     1      -1.420 -24.362  53.098  1.00  0.00     0.018 A 
HETATM   11  C15 UNL     1      -1.019 -25.638  52.700  1.00  0.00     0.047 A 
ENDROOT
BRANCH   5  12
HETATM   12  C3  UNL     1       0.036 -27.837  50.018  1.00  0.00     0.171 C 
BRANCH  12  13
HETATM   13  C4  UNL     1       1.487 -27.797  49.752  1.00  0.00    -0.040 A 
HETATM   14  C5  UNL     1       2.261 -27.012  50.586  1.00  0.00     0.009 A 
HETATM   15  C6  UNL     1       3.626 -26.893  50.439  1.00  0.00     0.001 A 
HETATM   16  C7  UNL     1       4.272 -27.573  49.428  1.00  0.00     0.000 A 
HETATM   17  C8  UNL     1       3.490 -28.353  48.601  1.00  0.00     0.001 A 
HETATM   18  C9  UNL     1       2.122 -28.470  48.750  1.00  0.00     0.009 A 
ENDBRANCH  12  13
ENDBRANCH   5  12
TORSDOF 2
ENDMDL
