MODEL 1
REMARK VINA RESULT: -9.331010787      0.000      0.000
REMARK  2 active torsions:
REMARK  status: ('A' for Active; 'I' for Inactive)
REMARK    1  A    between atoms: N1_5  and  C3_6 
REMARK    2  A    between atoms: C3_6  and  C4_7 
ROOT
HETATM    1  O1  UNL     1       0.733 -29.601  47.711  1.00  0.00    -0.281 OA
HETATM    2  C1  UNL     1       1.221 -28.876  48.608  1.00  0.00     0.252 A 
HETATM    3  C2  UNL     1       0.512 -28.302  49.747  1.00  0.00     0.299 A 
HETATM    4  O2  UNL     1      -0.724 -28.439  50.025  1.00  0.00    -0.263 OA
HETATM    5  N1  UNL     1       1.493 -27.568  50.468  1.00  0.00    -0.306 N 
HETATM    6  C10 UNL     1       2.760 -27.669  49.821  1.00  0.00     0.052 A 
HETATM    7  C11 UNL     1       4.008 -27.131  50.142  1.00  0.00     0.031 A 
HETATM    8  C12 UNL     1       5.114 -27.367  49.355  1.00  0.00     0.002 A 
HETATM    9  C13 UNL     1       4.931 -28.158  48.239  1.00  0.00     0.001 A 
HETATM   10  C14 UNL     1       3.728 -28.696  47.900  1.00  0.00     0.018 A 
HETATM   11  C15 UNL     1       2.622 -28.442  48.713  1.00  0.00     0.047 A 
ENDROOT
BRANCH   5  12
HETATM   12  C3  UNL     1       1.277 -26.826  51.664  1.00  0.00     0.171 C 
BRANCH  12  13
HETATM   13  C4  UNL     1       0.052 -26.002  51.649  1.00  0.00    -0.040 A 
HETATM   14  C5  UNL     1      -0.767 -26.069  52.761  1.00  0.00     0.009 A 
HETATM   15  C6  UNL     1      -1.937 -25.348  52.866  1.00  0.00     0.001 A 
HETATM   16  C7  UNL     1      -2.331 -24.519  51.836  1.00  0.00     0.000 A 
HETATM   17  C8  UNL     1      -1.506 -24.461  50.731  1.00  0.00     0.001 A 
HETATM   18  C9  UNL     1      -0.334 -25.185  50.628  1.00  0.00     0.009 A 
ENDBRANCH  12  13
ENDBRANCH   5  12
TORSDOF 2
ENDMDL
