MODEL 3
REMARK VINA RESULT: -8.837223627      1.585      5.870
REMARK  2 active torsions:
REMARK  status: ('A' for Active; 'I' for Inactive)
REMARK    1  A    between atoms: N1_5  and  C3_6 
REMARK    2  A    between atoms: C3_6  and  C4_7 
ROOT
HETATM    1  O1  UNL     1      -0.868 -27.954  54.354  1.00  0.00    -0.281 OA
HETATM    2  C1  UNL     1      -0.756 -27.461  53.208  1.00  0.00     0.252 A 
HETATM    3  C2  UNL     1      -0.293 -28.147  52.007  1.00  0.00     0.299 A 
HETATM    4  O2  UNL     1       0.076 -29.363  51.914  1.00  0.00    -0.263 OA
HETATM    5  N1  UNL     1      -0.345 -27.170  50.974  1.00  0.00    -0.306 N 
HETATM    6  C10 UNL     1      -0.816 -25.927  51.493  1.00  0.00     0.052 A 
HETATM    7  C11 UNL     1      -1.034 -24.693  50.879  1.00  0.00     0.031 A 
HETATM    8  C12 UNL     1      -1.503 -23.611  51.593  1.00  0.00     0.002 A 
HETATM    9  C13 UNL     1      -1.745 -23.805  52.938  1.00  0.00     0.001 A 
HETATM   10  C14 UNL     1      -1.542 -24.996  53.563  1.00  0.00     0.018 A 
HETATM   11  C15 UNL     1      -1.067 -26.077  52.819  1.00  0.00     0.047 A 
ENDROOT
BRANCH   5  12
HETATM   12  C3  UNL     1       0.015 -27.367  49.610  1.00  0.00     0.171 C 
BRANCH  12  13
HETATM   13  C4  UNL     1       1.452 -27.629  49.399  1.00  0.00    -0.040 A 
HETATM   14  C5  UNL     1       1.787 -28.617  48.492  1.00  0.00     0.009 A 
HETATM   15  C6  UNL     1       3.092 -28.954  48.209  1.00  0.00     0.001 A 
HETATM   16  C7  UNL     1       4.127 -28.296  48.840  1.00  0.00     0.000 A 
HETATM   17  C8  UNL     1       3.781 -27.311  49.743  1.00  0.00     0.001 A 
HETATM   18  C9  UNL     1       2.471 -26.976  50.026  1.00  0.00     0.009 A 
ENDBRANCH  12  13
ENDBRANCH   5  12
TORSDOF 2
ENDMDL
