MODEL 8
REMARK VINA RESULT: -6.752674701      1.859      5.809
REMARK  2 active torsions:
REMARK  status: ('A' for Active; 'I' for Inactive)
REMARK    1  A    between atoms: N1_5  and  C3_6 
REMARK    2  A    between atoms: C3_6  and  C4_7 
ROOT
HETATM    1  O1  UNL     1      -1.597 -23.741  51.373  1.00  0.00    -0.281 OA
HETATM    2  C1  UNL     1      -1.050 -24.866  51.321  1.00  0.00     0.252 A 
HETATM    3  C2  UNL     1      -0.424 -25.478  50.154  1.00  0.00     0.299 A 
HETATM    4  O2  UNL     1      -0.325 -24.974  48.988  1.00  0.00    -0.263 OA
HETATM    5  N1  UNL     1       0.047 -26.743  50.601  1.00  0.00    -0.306 N 
HETATM    6  C10 UNL     1      -0.264 -26.926  51.981  1.00  0.00     0.052 A 
HETATM    7  C11 UNL     1      -0.013 -27.987  52.853  1.00  0.00     0.031 A 
HETATM    8  C12 UNL     1      -0.414 -27.943  54.170  1.00  0.00     0.002 A 
HETATM    9  C13 UNL     1      -1.074 -26.804  54.586  1.00  0.00     0.001 A 
HETATM   10  C14 UNL     1      -1.333 -25.754  53.761  1.00  0.00     0.018 A 
HETATM   11  C15 UNL     1      -0.917 -25.823  52.430  1.00  0.00     0.047 A 
ENDROOT
BRANCH   5  12
HETATM   12  C3  UNL     1       0.732 -27.712  49.814  1.00  0.00     0.171 C 
BRANCH  12  13
HETATM   13  C4  UNL     1       2.182 -27.468  49.688  1.00  0.00    -0.040 A 
HETATM   14  C5  UNL     1       2.905 -28.348  48.904  1.00  0.00     0.009 A 
HETATM   15  C6  UNL     1       4.263 -28.226  48.709  1.00  0.00     0.001 A 
HETATM   16  C7  UNL     1       4.956 -27.194  49.307  1.00  0.00     0.000 A 
HETATM   17  C8  UNL     1       4.225 -26.321  50.087  1.00  0.00     0.001 A 
HETATM   18  C9  UNL     1       2.863 -26.446  50.282  1.00  0.00     0.009 A 
ENDBRANCH  12  13
ENDBRANCH   5  12
TORSDOF 2
ENDMDL
