MODEL 2
REMARK VINA RESULT: -9.046673397      0.162      1.115
REMARK  2 active torsions:
REMARK  status: ('A' for Active; 'I' for Inactive)
REMARK    1  A    between atoms: N1_5  and  C3_6 
REMARK    2  A    between atoms: C3_6  and  C4_7 
ROOT
HETATM    1  O1  UNL     1       0.750 -29.583  47.675  1.00  0.00    -0.281 OA
HETATM    2  C1  UNL     1       1.237 -28.881  48.591  1.00  0.00     0.252 A 
HETATM    3  C2  UNL     1       0.528 -28.344  49.748  1.00  0.00     0.299 A 
HETATM    4  O2  UNL     1      -0.706 -28.496  50.027  1.00  0.00    -0.263 OA
HETATM    5  N1  UNL     1       1.507 -27.624  50.485  1.00  0.00    -0.306 N 
HETATM    6  C10 UNL     1       2.773 -27.698  49.832  1.00  0.00     0.052 A 
HETATM    7  C11 UNL     1       4.018 -27.162  50.163  1.00  0.00     0.031 A 
HETATM    8  C12 UNL     1       5.123 -27.368  49.366  1.00  0.00     0.002 A 
HETATM    9  C13 UNL     1       4.941 -28.128  48.228  1.00  0.00     0.001 A 
HETATM   10  C14 UNL     1       3.740 -28.665  47.879  1.00  0.00     0.018 A 
HETATM   11  C15 UNL     1       2.636 -28.441  48.703  1.00  0.00     0.047 A 
ENDROOT
BRANCH   5  12
HETATM   12  C3  UNL     1       1.292 -26.917  51.704  1.00  0.00     0.171 C 
BRANCH  12  13
HETATM   13  C4  UNL     1       0.076 -26.081  51.707  1.00  0.00    -0.040 A 
HETATM   14  C5  UNL     1      -0.129 -25.260  50.614  1.00  0.00     0.009 A 
HETATM   15  C6  UNL     1      -1.225 -24.434  50.500  1.00  0.00     0.001 A 
HETATM   16  C7  UNL     1      -2.173 -24.404  51.502  1.00  0.00     0.000 A 
HETATM   17  C8  UNL     1      -1.959 -25.227  52.589  1.00  0.00     0.001 A 
HETATM   18  C9  UNL     1      -0.858 -26.054  52.700  1.00  0.00     0.009 A 
ENDBRANCH  12  13
ENDBRANCH   5  12
TORSDOF 2
ENDMDL
