MODEL 5
REMARK VINA RESULT: -5.090585963      8.893     10.149
REMARK  0 active torsions:
REMARK  status: ('A' for Active; 'I' for Inactive)
ROOT
HETATM    1  C1  UNL     1       9.456 -31.093  42.802  1.00  0.00     0.048 C 
HETATM    2  C2  UNL     1       8.838 -29.762  43.024  1.00  0.00    -0.060 A 
HETATM    3  C3  UNL     1       7.859 -29.637  43.994  1.00  0.00     0.028 A 
HETATM    4  C4  UNL     1       7.269 -28.409  44.219  1.00  0.00     0.039 A 
HETATM    5 BR1  UNL     1       5.936 -28.257  45.544  1.00  0.00    -0.049 Br
HETATM    6  C5  UNL     1       7.615 -27.270  43.508  1.00  0.00     0.067 A 
HETATM    7  C6  UNL     1       8.593 -27.416  42.547  1.00  0.00     0.048 A 
HETATM    8  C7  UNL     1       9.200 -28.648  42.306  1.00  0.00     0.024 A 
HETATM    9  C8  UNL     1       8.776 -26.090  41.947  1.00  0.00     0.252 A 
HETATM   10  O1  UNL     1       9.581 -25.804  41.029  1.00  0.00    -0.281 OA
HETATM   11  C9  UNL     1       7.868 -25.145  42.588  1.00  0.00     0.297 A 
HETATM   12  O2  UNL     1       7.738 -23.918  42.341  1.00  0.00    -0.264 OA
HETATM   13  N1  UNL     1       7.160 -25.911  43.556  1.00  0.00    -0.318 N 
ATOM     14  H1  UNL     1       6.441 -25.551  44.184  1.00  0.00     0.169 HD
ENDROOT
TORSDOF 0
ENDMDL
