MODEL 12
REMARK VINA RESULT: -4.614840910      8.912     10.271
REMARK  0 active torsions:
REMARK  status: ('A' for Active; 'I' for Inactive)
ROOT
HETATM    1  C1  UNL     1       5.772 -28.323  46.102  1.00  0.00     0.048 C 
HETATM    2  C2  UNL     1       6.701 -28.052  44.977  1.00  0.00    -0.060 A 
HETATM    3  C3  UNL     1       7.398 -29.109  44.420  1.00  0.00     0.028 A 
HETATM    4  C4  UNL     1       8.267 -28.882  43.372  1.00  0.00     0.039 A 
HETATM    5 BR1  UNL     1       9.209 -30.335  42.625  1.00  0.00    -0.049 Br
HETATM    6  C5  UNL     1       8.482 -27.621  42.837  1.00  0.00     0.067 A 
HETATM    7  C6  UNL     1       7.778 -26.581  43.405  1.00  0.00     0.048 A 
HETATM    8  C7  UNL     1       6.895 -26.792  44.464  1.00  0.00     0.024 A 
HETATM    9  C8  UNL     1       8.173 -25.372  42.675  1.00  0.00     0.252 A 
HETATM   10  O1  UNL     1       7.752 -24.211  42.892  1.00  0.00    -0.281 OA
HETATM   11  C9  UNL     1       9.143 -25.732  41.646  1.00  0.00     0.297 A 
HETATM   12  O2  UNL     1       9.708 -24.966  40.823  1.00  0.00    -0.264 OA
HETATM   13  N1  UNL     1       9.314 -27.139  41.773  1.00  0.00    -0.318 N 
ATOM     14  H1  UNL     1       9.930 -27.714  41.198  1.00  0.00     0.169 HD
ENDROOT
TORSDOF 0
ENDMDL
