MODEL 8
REMARK VINA RESULT: -4.976521679      2.305      4.048
REMARK  0 active torsions:
REMARK  status: ('A' for Active; 'I' for Inactive)
ROOT
HETATM    1  C1  UNL     1      -1.638 -26.449  51.283  1.00  0.00     0.048 C 
HETATM    2  C2  UNL     1      -0.479 -26.915  50.482  1.00  0.00    -0.060 A 
HETATM    3  C3  UNL     1       0.794 -26.539  50.872  1.00  0.00     0.028 A 
HETATM    4  C4  UNL     1       1.888 -26.961  50.143  1.00  0.00     0.039 A 
HETATM    5 BR1  UNL     1       3.616 -26.437  50.688  1.00  0.00    -0.049 Br
HETATM    6  C5  UNL     1       1.773 -27.760  49.016  1.00  0.00     0.067 A 
HETATM    7  C6  UNL     1       0.498 -28.125  48.645  1.00  0.00     0.048 A 
HETATM    8  C7  UNL     1      -0.619 -27.708  49.369  1.00  0.00     0.024 A 
HETATM    9  C8  UNL     1       0.642 -28.956  47.444  1.00  0.00     0.252 A 
HETATM   10  O1  UNL     1      -0.294 -29.484  46.799  1.00  0.00    -0.281 OA
HETATM   11  C9  UNL     1       2.058 -29.073  47.113  1.00  0.00     0.297 A 
HETATM   12  O2  UNL     1       2.572 -29.704  46.153  1.00  0.00    -0.264 OA
HETATM   13  N1  UNL     1       2.736 -28.317  48.111  1.00  0.00    -0.318 N 
ATOM     14  H1  UNL     1       3.747 -28.192  48.172  1.00  0.00     0.169 HD
ENDROOT
TORSDOF 0
ENDMDL
