MODEL 4
REMARK VINA RESULT: -5.715411216      2.586      3.379
REMARK  0 active torsions:
REMARK  status: ('A' for Active; 'I' for Inactive)
ROOT
HETATM    1  C1  UNL     1       5.826 -28.466  46.842  1.00  0.00     0.048 C 
HETATM    2  C2  UNL     1       4.479 -28.315  47.448  1.00  0.00    -0.060 A 
HETATM    3  C3  UNL     1       3.400 -28.923  46.832  1.00  0.00     0.028 A 
HETATM    4  C4  UNL     1       2.138 -28.797  47.377  1.00  0.00     0.039 A 
HETATM    5 BR1  UNL     1       0.678 -29.633  46.524  1.00  0.00    -0.049 Br
HETATM    6  C5  UNL     1       1.891 -28.076  48.536  1.00  0.00     0.067 A 
HETATM    7  C6  UNL     1       2.979 -27.478  49.134  1.00  0.00     0.048 A 
HETATM    8  C7  UNL     1       4.261 -27.595  48.598  1.00  0.00     0.024 A 
HETATM    9  C8  UNL     1       2.465 -26.788  50.322  1.00  0.00     0.252 A 
HETATM   10  O1  UNL     1       3.146 -26.122  51.137  1.00  0.00    -0.281 OA
HETATM   11  C9  UNL     1       1.024 -26.998  50.409  1.00  0.00     0.297 A 
HETATM   12  O2  UNL     1       0.237 -26.562  51.289  1.00  0.00    -0.264 OA
HETATM   13  N1  UNL     1       0.698 -27.804  49.283  1.00  0.00    -0.318 N 
ATOM     14  H1  UNL     1      -0.237 -28.136  49.044  1.00  0.00     0.169 HD
ENDROOT
TORSDOF 0
ENDMDL
