MODEL 5
REMARK VINA RESULT: -8.587117178      4.008      6.812
REMARK  7 active torsions:
REMARK  status: ('A' for Active; 'I' for Inactive)
REMARK    1  A    between atoms: N1_2  and  C2_4 
REMARK    2  A    between atoms: C9_19  and  C10_20 
REMARK    3  A    between atoms: C10_20  and  C11_21 
REMARK    4  A    between atoms: C11_21  and  C12_22 
REMARK    5  A    between atoms: C13_24  and  O3_25 
REMARK    6  A    between atoms: C15_27  and  O4_28 
REMARK    7  A    between atoms: C16_30  and  O5_31 
ROOT
HETATM    1  C2  UNL     1      99.779  14.674  19.148  1.00  0.00     0.678 A 
HETATM    2  N2  UNL     1      99.195  13.716  19.870  1.00  0.00    -0.190 N 
ATOM      3  H2  UNL     1      99.579  13.297  20.717  1.00  0.00     0.184 HD
HETATM    4  C3  UNL     1      98.008  13.386  19.299  1.00  0.00     0.078 A 
HETATM    5  C4  UNL     1      97.021  12.489  19.609  1.00  0.00     0.052 A 
HETATM    6  C5  UNL     1      95.905  12.391  18.805  1.00  0.00     0.062 A 
HETATM    7  C6  UNL     1      94.903  11.495  19.110  1.00  0.00     0.260 A 
HETATM    8  O1  UNL     1      95.009  10.748  20.140  1.00  0.00    -0.267 OA
HETATM    9  N3  UNL     1      93.826  11.429  18.310  1.00  0.00    -0.297 N 
ATOM     10  H3  UNL     1      93.085  10.765  18.536  1.00  0.00     0.171 HD
HETATM   11  C7  UNL     1      93.689  12.203  17.222  1.00  0.00     0.195 A 
HETATM   12  N4  UNL     1      92.543  12.110  16.396  1.00  0.00    -0.063 NA
HETATM   13  N5  UNL     1      94.692  13.076  16.945  1.00  0.00    -0.329 N 
ATOM     14  H5  UNL     1      94.597  13.668  16.121  1.00  0.00     0.168 HD
HETATM   15  C8  UNL     1      95.786  13.204  17.680  1.00  0.00     0.059 A 
HETATM   16  C9  UNL     1      96.770  14.112  17.353  1.00  0.00    -0.001 A 
HETATM   17  C18 UNL     1      97.870  14.183  18.180  1.00  0.00     0.085 A 
HETATM   18  N6  UNL     1      98.969  14.960  18.114  1.00  0.00    -0.189 N 
ATOM     19  H6  UNL     1      99.156  15.657  17.392  1.00  0.00     0.184 HD
ENDROOT
BRANCH  16  20
HETATM   20  C10 UNL     1      96.671  14.959  16.160  1.00  0.00     0.046 C 
BRANCH  20  21
HETATM   21  C11 UNL     1      96.556  16.380  16.596  1.00  0.00     0.039 C 
BRANCH  21  22
HETATM   22  C12 UNL     1      95.512  17.173  15.841  1.00  0.00     0.156 C 
HETATM   23  O2  UNL     1      94.794  16.349  14.986  1.00  0.00    -0.351 OA
HETATM   24  C13 UNL     1      93.467  16.413  15.284  1.00  0.00     0.290 C 
HETATM   25  C15 UNL     1      93.312  17.016  16.643  1.00  0.00     0.204 C 
HETATM   26  C16 UNL     1      94.569  17.812  16.800  1.00  0.00     0.183 C 
BRANCH  24  27
HETATM   27  O3  UNL     1      92.913  15.139  15.190  1.00  0.00    -0.363 OA
HETATM   28  C14 UNL     1      93.077  14.602  13.914  1.00  0.00     0.204 C 
ENDBRANCH  24  27
BRANCH  25  29
HETATM   29  O4  UNL     1      92.158  17.782  16.646  1.00  0.00    -0.388 OA
ATOM     30  H4  UNL     1      91.412  17.193  16.637  1.00  0.00     0.210 HD
ENDBRANCH  25  29
BRANCH  26  31
HETATM   31  O5  UNL     1      94.448  19.145  16.510  1.00  0.00    -0.385 OA
HETATM   32  C17 UNL     1      95.442  19.962  16.943  1.00  0.00     0.202 C 
ENDBRANCH  26  31
ENDBRANCH  21  22
ENDBRANCH  20  21
ENDBRANCH  16  20
BRANCH   1  33
HETATM   33  N1  UNL     1     101.050  15.307  19.406  1.00  0.00    -0.230 N 
HETATM   34  C1  UNL     1     101.468  16.439  18.607  1.00  0.00     0.165 C 
ATOM     35  H1  UNL     1     101.652  14.957  20.150  1.00  0.00     0.177 HD
ENDBRANCH   1  33
TORSDOF 7
ENDMDL
