MODEL 20
REMARK VINA RESULT: -8.119740448      1.265      2.913
REMARK  7 active torsions:
REMARK  status: ('A' for Active; 'I' for Inactive)
REMARK    1  A    between atoms: N1_2  and  C2_4 
REMARK    2  A    between atoms: C9_19  and  C10_20 
REMARK    3  A    between atoms: C10_20  and  C11_21 
REMARK    4  A    between atoms: C11_21  and  C12_22 
REMARK    5  A    between atoms: C13_24  and  O3_25 
REMARK    6  A    between atoms: C15_27  and  O4_28 
REMARK    7  A    between atoms: C16_30  and  O5_31 
ROOT
HETATM    1  C2  UNL     1     102.654  16.915  17.545  1.00  0.00     0.678 A 
HETATM    2  N2  UNL     1     103.450  17.092  18.602  1.00  0.00    -0.190 N 
ATOM      3  H2  UNL     1     104.421  17.400  18.564  1.00  0.00     0.184 HD
HETATM    4  C3  UNL     1     102.761  16.799  19.734  1.00  0.00     0.078 A 
HETATM    5  C4  UNL     1     103.077  16.807  21.066  1.00  0.00     0.052 A 
HETATM    6  C5  UNL     1     102.127  16.445  21.999  1.00  0.00     0.062 A 
HETATM    7  C6  UNL     1     102.432  16.454  23.343  1.00  0.00     0.260 A 
HETATM    8  O1  UNL     1     103.600  16.794  23.728  1.00  0.00    -0.267 OA
HETATM    9  N3  UNL     1     101.482  16.102  24.226  1.00  0.00    -0.297 N 
ATOM     10  H3  UNL     1     101.709  16.108  25.221  1.00  0.00     0.171 HD
HETATM   11  C7  UNL     1     100.246  15.741  23.848  1.00  0.00     0.195 A 
HETATM   12  N4  UNL     1      99.265  15.374  24.801  1.00  0.00    -0.063 NA
HETATM   13  N5  UNL     1      99.974  15.741  22.517  1.00  0.00    -0.329 N 
ATOM     14  H5  UNL     1      99.038  15.468  22.220  1.00  0.00     0.168 HD
HETATM   15  C8  UNL     1     100.851  16.073  21.583  1.00  0.00     0.059 A 
HETATM   16  C9  UNL     1     100.516  16.059  20.245  1.00  0.00    -0.001 A 
HETATM   17  C18 UNL     1     101.491  16.427  19.342  1.00  0.00     0.085 A 
HETATM   18  N6  UNL     1     101.455  16.508  17.998  1.00  0.00    -0.189 N 
ATOM     19  H6  UNL     1     100.645  16.295  17.415  1.00  0.00     0.184 HD
ENDROOT
BRANCH  16  20
HETATM   20  C10 UNL     1      99.185  15.648  19.788  1.00  0.00     0.046 C 
BRANCH  20  21
HETATM   21  C11 UNL     1      99.066  15.959  18.335  1.00  0.00     0.039 C 
BRANCH  21  22
HETATM   22  C12 UNL     1      97.639  16.025  17.835  1.00  0.00     0.156 C 
HETATM   23  O2  UNL     1      97.563  16.772  16.669  1.00  0.00    -0.351 OA
HETATM   24  C13 UNL     1      97.030  16.019  15.667  1.00  0.00     0.290 C 
HETATM   25  C15 UNL     1      97.094  14.579  16.068  1.00  0.00     0.204 C 
HETATM   26  C16 UNL     1      97.133  14.651  17.562  1.00  0.00     0.183 C 
BRANCH  24  27
HETATM   27  O3  UNL     1      97.710  16.281  14.481  1.00  0.00    -0.363 OA
HETATM   28  C14 UNL     1      98.190  17.589  14.445  1.00  0.00     0.204 C 
ENDBRANCH  24  27
BRANCH  25  29
HETATM   29  O4  UNL     1      95.971  13.942  15.566  1.00  0.00    -0.388 OA
ATOM     30  H4  UNL     1      96.259  13.256  14.976  1.00  0.00     0.210 HD
ENDBRANCH  25  29
BRANCH  26  31
HETATM   31  O5  UNL     1      95.925  14.473  18.180  1.00  0.00    -0.385 OA
HETATM   32  C17 UNL     1      95.783  13.358  18.943  1.00  0.00     0.202 C 
ENDBRANCH  26  31
ENDBRANCH  21  22
ENDBRANCH  20  21
ENDBRANCH  16  20
BRANCH   1  33
HETATM   33  N1  UNL     1     102.991  17.115  16.157  1.00  0.00    -0.230 N 
HETATM   34  C1  UNL     1     101.941  17.279  15.174  1.00  0.00     0.165 C 
ATOM     35  H1  UNL     1     103.969  17.142  15.868  1.00  0.00     0.177 HD
ENDBRANCH   1  33
TORSDOF 7
ENDMDL
