MODEL 2
REMARK VINA RESULT: -9.064521051      1.450      2.530
REMARK  7 active torsions:
REMARK  status: ('A' for Active; 'I' for Inactive)
REMARK    1  A    between atoms: N1_2  and  C2_4 
REMARK    2  A    between atoms: C9_19  and  C10_20 
REMARK    3  A    between atoms: C10_20  and  C11_21 
REMARK    4  A    between atoms: C11_21  and  C12_22 
REMARK    5  A    between atoms: C13_24  and  O3_25 
REMARK    6  A    between atoms: C15_27  and  O4_28 
REMARK    7  A    between atoms: C16_30  and  O5_31 
ROOT
HETATM    1  C2  UNL     1     101.155  16.773  15.997  1.00  0.00     0.678 A 
HETATM    2  N2  UNL     1     102.229  16.992  16.758  1.00  0.00    -0.190 N 
ATOM      3  H2  UNL     1     103.139  17.301  16.420  1.00  0.00     0.184 HD
HETATM    4  C3  UNL     1     101.917  16.736  18.055  1.00  0.00     0.078 A 
HETATM    5  C4  UNL     1     102.619  16.793  19.229  1.00  0.00     0.052 A 
HETATM    6  C5  UNL     1     102.000  16.462  20.416  1.00  0.00     0.062 A 
HETATM    7  C6  UNL     1     102.694  16.520  21.604  1.00  0.00     0.260 A 
HETATM    8  O1  UNL     1     103.920  16.878  21.609  1.00  0.00    -0.267 OA
HETATM    9  N3  UNL     1     102.060  16.197  22.744  1.00  0.00    -0.297 N 
ATOM     10  H3  UNL     1     102.576  16.240  23.624  1.00  0.00     0.171 HD
HETATM   11  C7  UNL     1     100.772  15.818  22.768  1.00  0.00     0.195 A 
HETATM   12  N4  UNL     1     100.130  15.482  23.984  1.00  0.00    -0.063 NA
HETATM   13  N5  UNL     1     100.113  15.769  21.582  1.00  0.00    -0.329 N 
ATOM     14  H5  UNL     1      99.134  15.482  21.590  1.00  0.00     0.168 HD
HETATM   15  C8  UNL     1     100.663  16.070  20.416  1.00  0.00     0.059 A 
HETATM   16  C9  UNL     1      99.941  16.007  19.243  1.00  0.00    -0.001 A 
HETATM   17  C18 UNL     1     100.593  16.346  18.076  1.00  0.00     0.085 A 
HETATM   18  N6  UNL     1     100.153  16.379  16.804  1.00  0.00    -0.189 N 
ATOM     19  H6  UNL     1      99.209  16.141  16.499  1.00  0.00     0.184 HD
ENDROOT
BRANCH  16  20
HETATM   20  C10 UNL     1      98.540  15.575  19.222  1.00  0.00     0.046 C 
BRANCH  20  21
HETATM   21  C11 UNL     1      98.496  14.128  18.867  1.00  0.00     0.039 C 
BRANCH  21  22
HETATM   22  C12 UNL     1      97.169  13.462  19.164  1.00  0.00     0.156 C 
HETATM   23  O2  UNL     1      96.159  14.407  19.268  1.00  0.00    -0.351 OA
HETATM   24  C13 UNL     1      95.177  14.140  18.363  1.00  0.00     0.290 C 
HETATM   25  C15 UNL     1      95.717  13.191  17.340  1.00  0.00     0.204 C 
HETATM   26  C16 UNL     1      96.827  12.507  18.074  1.00  0.00     0.183 C 
BRANCH  24  27
HETATM   27  O3  UNL     1      94.725  15.334  17.808  1.00  0.00    -0.363 OA
HETATM   28  C14 UNL     1      95.573  15.781  16.795  1.00  0.00     0.204 C 
ENDBRANCH  24  27
BRANCH  25  29
HETATM   29  O4  UNL     1      94.691  12.343  16.956  1.00  0.00    -0.388 OA
ATOM     30  H4  UNL     1      94.901  11.995  16.097  1.00  0.00     0.210 HD
ENDBRANCH  25  29
BRANCH  26  31
HETATM   31  O5  UNL     1      96.500  11.291  18.611  1.00  0.00    -0.385 OA
HETATM   32  C17 UNL     1      96.671  11.144  19.950  1.00  0.00     0.202 C 
ENDBRANCH  26  31
ENDBRANCH  21  22
ENDBRANCH  20  21
ENDBRANCH  16  20
BRANCH   1  33
HETATM   33  N1  UNL     1     101.055  16.925  14.566  1.00  0.00    -0.230 N 
HETATM   34  C1  UNL     1     100.475  15.867  13.766  1.00  0.00     0.165 C 
ATOM     35  H1  UNL     1     101.393  17.776  14.118  1.00  0.00     0.177 HD
ENDBRANCH   1  33
TORSDOF 7
ENDMDL
