MODEL 8
REMARK VINA RESULT: -8.480014335      2.599      5.335
REMARK  7 active torsions:
REMARK  status: ('A' for Active; 'I' for Inactive)
REMARK    1  A    between atoms: N1_2  and  C2_4 
REMARK    2  A    between atoms: C9_19  and  C10_20 
REMARK    3  A    between atoms: C10_20  and  C11_21 
REMARK    4  A    between atoms: C11_21  and  C12_22 
REMARK    5  A    between atoms: C13_24  and  O3_25 
REMARK    6  A    between atoms: C15_27  and  O4_28 
REMARK    7  A    between atoms: C16_30  and  O5_31 
ROOT
HETATM    1  C2  UNL     1     102.758  16.398  20.119  1.00  0.00     0.678 A 
HETATM    2  N2  UNL     1     103.067  16.829  18.894  1.00  0.00    -0.190 N 
ATOM      3  H2  UNL     1     103.980  17.178  18.604  1.00  0.00     0.184 HD
HETATM    4  C3  UNL     1     101.974  16.729  18.096  1.00  0.00     0.078 A 
HETATM    5  C4  UNL     1     101.728  17.022  16.781  1.00  0.00     0.052 A 
HETATM    6  C5  UNL     1     100.474  16.801  16.251  1.00  0.00     0.062 A 
HETATM    7  C6  UNL     1     100.216  17.087  14.929  1.00  0.00     0.260 A 
HETATM    8  O1  UNL     1     101.140  17.565  14.189  1.00  0.00    -0.267 OA
HETATM    9  N3  UNL     1      98.985  16.854  14.442  1.00  0.00    -0.297 N 
ATOM     10  H3  UNL     1      98.795  17.067  13.462  1.00  0.00     0.171 HD
HETATM   11  C7  UNL     1      97.996  16.352  15.197  1.00  0.00     0.195 A 
HETATM   12  N4  UNL     1      96.708  16.118  14.658  1.00  0.00    -0.063 NA
HETATM   13  N5  UNL     1      98.278  16.080  16.497  1.00  0.00    -0.329 N 
ATOM     14  H5  UNL     1      97.533  15.699  17.079  1.00  0.00     0.168 HD
HETATM   15  C8  UNL     1      99.462  16.280  17.055  1.00  0.00     0.059 A 
HETATM   16  C9  UNL     1      99.692  15.980  18.381  1.00  0.00    -0.001 A 
HETATM   17  C18 UNL     1     100.958  16.214  18.875  1.00  0.00     0.085 A 
HETATM   18  N6  UNL     1     101.467  16.021  20.108  1.00  0.00    -0.189 N 
ATOM     19  H6  UNL     1     100.955  15.647  20.907  1.00  0.00     0.184 HD
ENDROOT
BRANCH  16  20
HETATM   20  C10 UNL     1      98.633  15.453  19.247  1.00  0.00     0.046 C 
BRANCH  20  21
HETATM   21  C11 UNL     1      98.550  13.978  19.051  1.00  0.00     0.039 C 
BRANCH  21  22
HETATM   22  C12 UNL     1      97.143  13.425  19.129  1.00  0.00     0.156 C 
HETATM   23  O2  UNL     1      96.211  14.452  19.115  1.00  0.00    -0.351 OA
HETATM   24  C13 UNL     1      95.355  14.290  18.068  1.00  0.00     0.290 C 
HETATM   25  C15 UNL     1      95.959  13.318  17.105  1.00  0.00     0.204 C 
HETATM   26  C16 UNL     1      96.888  12.525  17.970  1.00  0.00     0.183 C 
BRANCH  24  27
HETATM   27  O3  UNL     1      95.092  15.530  17.492  1.00  0.00    -0.363 OA
HETATM   28  C14 UNL     1      93.723  15.784  17.428  1.00  0.00     0.204 C 
ENDBRANCH  24  27
BRANCH  25  29
HETATM   29  O4  UNL     1      94.935  12.571  16.548  1.00  0.00    -0.388 OA
ATOM     30  H4  UNL     1      94.559  13.071  15.833  1.00  0.00     0.210 HD
ENDBRANCH  25  29
BRANCH  26  31
HETATM   31  O5  UNL     1      96.384  11.332  18.415  1.00  0.00    -0.385 OA
HETATM   32  C17 UNL     1      96.414  11.112  19.754  1.00  0.00     0.202 C 
ENDBRANCH  26  31
ENDBRANCH  21  22
ENDBRANCH  20  21
ENDBRANCH  16  20
BRANCH   1  33
HETATM   33  N1  UNL     1     103.630  16.335  21.266  1.00  0.00    -0.230 N 
HETATM   34  C1  UNL     1     103.075  16.113  22.585  1.00  0.00     0.165 C 
ATOM     35  H1  UNL     1     104.637  16.448  21.149  1.00  0.00     0.177 HD
ENDBRANCH   1  33
TORSDOF 7
ENDMDL
