MODEL 7
REMARK VINA RESULT: -8.507356564      2.764      5.511
REMARK  7 active torsions:
REMARK  status: ('A' for Active; 'I' for Inactive)
REMARK    1  A    between atoms: N1_2  and  C2_4 
REMARK    2  A    between atoms: C9_19  and  C10_20 
REMARK    3  A    between atoms: C10_20  and  C11_21 
REMARK    4  A    between atoms: C11_21  and  C12_22 
REMARK    5  A    between atoms: C13_24  and  O3_25 
REMARK    6  A    between atoms: C15_27  and  O4_28 
REMARK    7  A    between atoms: C16_30  and  O5_31 
ROOT
HETATM    1  C2  UNL     1      97.793  13.195  19.352  1.00  0.00     0.678 A 
HETATM    2  N2  UNL     1      98.867  13.684  19.975  1.00  0.00    -0.190 N 
ATOM      3  H2  UNL     1      99.159  13.445  20.922  1.00  0.00     0.184 HD
HETATM    4  C3  UNL     1      99.507  14.551  19.150  1.00  0.00     0.078 A 
HETATM    5  C4  UNL     1     100.634  15.320  19.271  1.00  0.00     0.052 A 
HETATM    6  C5  UNL     1     101.035  16.119  18.220  1.00  0.00     0.062 A 
HETATM    7  C6  UNL     1     102.169  16.893  18.328  1.00  0.00     0.260 A 
HETATM    8  O1  UNL     1     102.851  16.877  19.407  1.00  0.00    -0.267 OA
HETATM    9  N3  UNL     1     102.536  17.656  17.284  1.00  0.00    -0.297 N 
ATOM     10  H3  UNL     1     103.376  18.230  17.365  1.00  0.00     0.171 HD
HETATM   11  C7  UNL     1     101.838  17.691  16.138  1.00  0.00     0.195 A 
HETATM   12  N4  UNL     1     102.248  18.505  15.054  1.00  0.00    -0.063 NA
HETATM   13  N5  UNL     1     100.724  16.918  16.060  1.00  0.00    -0.329 N 
ATOM     14  H5  UNL     1     100.187  16.938  15.194  1.00  0.00     0.168 HD
HETATM   15  C8  UNL     1     100.293  16.140  17.041  1.00  0.00     0.059 A 
HETATM   16  C9  UNL     1      99.156  15.372  16.903  1.00  0.00    -0.001 A 
HETATM   17  C18 UNL     1      98.787  14.586  17.973  1.00  0.00     0.085 A 
HETATM   18  N6  UNL     1      97.744  13.747  18.126  1.00  0.00    -0.189 N 
ATOM     19  H6  UNL     1      97.029  13.559  17.422  1.00  0.00     0.184 HD
ENDROOT
BRANCH  16  20
HETATM   20  C10 UNL     1      98.352  15.400  15.678  1.00  0.00     0.046 C 
BRANCH  20  21
HETATM   21  C11 UNL     1      97.254  16.392  15.854  1.00  0.00     0.039 C 
BRANCH  21  22
HETATM   22  C12 UNL     1      95.870  15.830  15.607  1.00  0.00     0.156 C 
HETATM   23  O2  UNL     1      95.619  14.759  16.453  1.00  0.00    -0.351 OA
HETATM   24  C13 UNL     1      94.508  15.007  17.201  1.00  0.00     0.290 C 
HETATM   25  C15 UNL     1      94.206  16.470  17.133  1.00  0.00     0.204 C 
HETATM   26  C16 UNL     1      94.845  16.884  15.845  1.00  0.00     0.183 C 
BRANCH  24  27
HETATM   27  O3  UNL     1      94.720  14.558  18.501  1.00  0.00    -0.363 OA
HETATM   28  C14 UNL     1      93.627  13.833  18.976  1.00  0.00     0.204 C 
ENDBRANCH  24  27
BRANCH  25  29
HETATM   29  O4  UNL     1      92.829  16.627  17.152  1.00  0.00    -0.388 OA
ATOM     30  H4  UNL     1      92.441  15.888  16.697  1.00  0.00     0.210 HD
ENDBRANCH  25  29
BRANCH  26  31
HETATM   31  O5  UNL     1      93.995  16.951  14.775  1.00  0.00    -0.385 OA
HETATM   32  C17 UNL     1      94.505  17.431  13.612  1.00  0.00     0.202 C 
ENDBRANCH  26  31
ENDBRANCH  21  22
ENDBRANCH  20  21
ENDBRANCH  16  20
BRANCH   1  33
HETATM   33  N1  UNL     1      96.840  12.246  19.872  1.00  0.00    -0.230 N 
HETATM   34  C1  UNL     1      96.312  11.207  19.013  1.00  0.00     0.165 C 
ATOM     35  H1  UNL     1      96.538  12.307  20.844  1.00  0.00     0.177 HD
ENDBRANCH   1  33
TORSDOF 7
ENDMDL
