MODEL 10
REMARK VINA RESULT: -7.928941545      2.078      7.656
REMARK  10 active torsions:
REMARK  status: ('A' for Active; 'I' for Inactive)
REMARK    1  A    between atoms: C2_2  and  C4_4 
REMARK    2  A    between atoms: C4_4  and  C5_5 
REMARK    3  A    between atoms: C5_5  and  N1_6 
REMARK    4  A    between atoms: C5_5  and  C16_25 
REMARK       I    between atoms: N1_6  and  C6_8 
REMARK    5  A    between atoms: C6_8  and  C7_10 
REMARK    6  A    between atoms: C7_10  and  O2_11 
REMARK    7  A    between atoms: C7_10  and  C8_13 
REMARK    8  A    between atoms: C8_13  and  N2_14 
REMARK    9  A    between atoms: C8_13  and  C9_18 
REMARK   10  A    between atoms: C9_18  and  C10_19 
ROOT
HETATM    1  C7  UNL     1     -12.437  37.852  40.463  1.00  0.00     0.240 C 
ENDROOT
BRANCH   1   2
HETATM    2  C6  UNL     1     -13.002  38.793  41.450  1.00  0.00     0.249 C 
HETATM    3  N1  UNL     1     -12.249  39.628  42.286  1.00  0.00    -0.344 N 
ATOM      4  H1  UNL     1     -11.233  39.584  42.207  1.00  0.00     0.163 HD
HETATM    5  O1  UNL     1     -14.254  38.851  41.551  1.00  0.00    -0.271 OA
BRANCH   3   6
HETATM    6  C5  UNL     1     -12.815  40.559  43.263  1.00  0.00     0.185 C 
BRANCH   6   7
HETATM    7  C4  UNL     1     -11.884  40.760  44.394  1.00  0.00     0.040 C 
BRANCH   7   8
HETATM    8  C2  UNL     1     -12.432  40.992  45.745  1.00  0.00    -0.020 C 
HETATM    9  C1  UNL     1     -13.510  40.010  46.162  1.00  0.00     0.009 C 
HETATM   10  C3  UNL     1     -12.751  42.379  46.144  1.00  0.00     0.009 C 
ENDBRANCH   7   8
ENDBRANCH   6   7
BRANCH   6  11
HETATM   11  C16 UNL     1     -13.311  41.721  42.553  1.00  0.00     0.196 C 
HETATM   12  O3  UNL     1     -14.200  42.456  43.117  1.00  0.00    -0.646 OA
HETATM   13  O4  UNL     1     -12.927  42.150  41.306  1.00  0.00    -0.646 OA
ENDBRANCH   6  11
ENDBRANCH   3   6
ENDBRANCH   1   2
BRANCH   1  14
HETATM   14  O2  UNL     1     -13.092  36.636  40.506  1.00  0.00    -0.384 OA
ATOM     15  H2  UNL     1     -13.266  36.312  39.630  1.00  0.00     0.210 HD
ENDBRANCH   1  14
BRANCH   1  16
HETATM   16  C8  UNL     1     -12.282  38.427  39.101  1.00  0.00     0.225 C 
BRANCH  16  17
HETATM   17  N2  UNL     1     -12.669  39.819  39.016  1.00  0.00    -0.072 N 
ATOM     18  H23 UNL     1     -12.027  40.336  38.415  1.00  0.00     0.274 HD
ATOM     19  H22 UNL     1     -13.528  39.923  38.475  1.00  0.00     0.274 HD
ATOM     20  H21 UNL     1     -12.758  40.272  39.925  1.00  0.00     0.274 HD
ENDBRANCH  16  17
BRANCH  16  21
HETATM   21  C9  UNL     1     -13.006  37.568  38.098  1.00  0.00     0.074 C 
BRANCH  21  22
HETATM   22  C10 UNL     1     -12.249  37.261  36.880  1.00  0.00    -0.056 A 
HETATM   23  C11 UNL     1     -12.103  38.149  35.838  1.00  0.00     0.007 A 
HETATM   24  C12 UNL     1     -11.397  37.872  34.696  1.00  0.00     0.001 A 
HETATM   25  C13 UNL     1     -10.787  36.661  34.547  1.00  0.00     0.000 A 
HETATM   26  C14 UNL     1     -10.906  35.739  35.569  1.00  0.00     0.001 A 
HETATM   27  C15 UNL     1     -11.623  36.033  36.713  1.00  0.00     0.007 A 
ENDBRANCH  21  22
ENDBRANCH  16  21
ENDBRANCH   1  16
TORSDOF 10
ENDMDL
