MODEL 2
REMARK VINA RESULT: -9.537206329      0.021      1.001
REMARK  10 active torsions:
REMARK  status: ('A' for Active; 'I' for Inactive)
REMARK    1  A    between atoms: C2_2  and  C4_4 
REMARK    2  A    between atoms: C4_4  and  C5_5 
REMARK    3  A    between atoms: C5_5  and  N1_6 
REMARK    4  A    between atoms: C5_5  and  C16_25 
REMARK       I    between atoms: N1_6  and  C6_8 
REMARK    5  A    between atoms: C6_8  and  C7_10 
REMARK    6  A    between atoms: C7_10  and  O2_11 
REMARK    7  A    between atoms: C7_10  and  C8_13 
REMARK    8  A    between atoms: C8_13  and  N2_14 
REMARK    9  A    between atoms: C8_13  and  C9_18 
REMARK   10  A    between atoms: C9_18  and  C10_19 
ROOT
HETATM    1  C7  UNL     1     -10.715  37.639  42.694  1.00  0.00     0.240 C 
ENDROOT
BRANCH   1   2
HETATM    2  C6  UNL     1     -11.099  37.898  41.293  1.00  0.00     0.249 C 
HETATM    3  N1  UNL     1     -12.292  37.470  40.695  1.00  0.00    -0.344 N 
ATOM      4  H1  UNL     1     -12.946  36.938  41.271  1.00  0.00     0.163 HD
HETATM    5  O1  UNL     1     -10.298  38.553  40.579  1.00  0.00    -0.271 OA
BRANCH   3   6
HETATM    6  C5  UNL     1     -12.668  37.730  39.305  1.00  0.00     0.185 C 
BRANCH   6   7
HETATM    7  C4  UNL     1     -12.268  36.603  38.435  1.00  0.00     0.040 C 
BRANCH   7   8
HETATM    8  C2  UNL     1     -11.247  36.825  37.393  1.00  0.00    -0.020 C 
HETATM    9  C1  UNL     1     -10.990  38.283  37.066  1.00  0.00     0.009 C 
HETATM   10  C3  UNL     1     -11.284  35.976  36.183  1.00  0.00     0.009 C 
ENDBRANCH   7   8
ENDBRANCH   6   7
BRANCH   6  11
HETATM   11  C16 UNL     1     -14.047  38.175  39.279  1.00  0.00     0.196 C 
HETATM   12  O3  UNL     1     -14.532  38.744  40.322  1.00  0.00    -0.646 OA
HETATM   13  O4  UNL     1     -14.930  38.058  38.233  1.00  0.00    -0.646 OA
ENDBRANCH   6  11
ENDBRANCH   3   6
ENDBRANCH   1   2
BRANCH   1  14
HETATM   14  O2  UNL     1      -9.563  36.878  42.758  1.00  0.00    -0.384 OA
ATOM     15  H2  UNL     1      -9.507  36.416  43.586  1.00  0.00     0.210 HD
ENDBRANCH   1  14
BRANCH   1  16
HETATM   16  C8  UNL     1     -10.709  38.851  43.553  1.00  0.00     0.225 C 
BRANCH  16  17
HETATM   17  N2  UNL     1      -9.584  38.906  44.463  1.00  0.00    -0.072 N 
ATOM     18  H23 UNL     1      -8.716  39.075  43.955  1.00  0.00     0.274 HD
ATOM     19  H22 UNL     1      -9.618  39.755  45.028  1.00  0.00     0.274 HD
ATOM     20  H21 UNL     1      -9.501  38.081  45.056  1.00  0.00     0.274 HD
ENDBRANCH  16  17
BRANCH  16  21
HETATM   21  C9  UNL     1     -12.029  38.981  44.265  1.00  0.00     0.074 C 
BRANCH  21  22
HETATM   22  C10 UNL     1     -12.514  40.354  44.432  1.00  0.00    -0.056 A 
HETATM   23  C11 UNL     1     -13.037  41.100  43.400  1.00  0.00     0.007 A 
HETATM   24  C12 UNL     1     -13.493  42.385  43.545  1.00  0.00     0.001 A 
HETATM   25  C13 UNL     1     -13.447  42.993  44.766  1.00  0.00     0.000 A 
HETATM   26  C14 UNL     1     -12.930  42.280  45.831  1.00  0.00     0.001 A 
HETATM   27  C15 UNL     1     -12.473  40.986  45.667  1.00  0.00     0.007 A 
ENDBRANCH  21  22
ENDBRANCH  16  21
ENDBRANCH   1  16
TORSDOF 10
ENDMDL
