MODEL 1
REMARK VINA RESULT: -9.545770116      0.000      0.000
REMARK  10 active torsions:
REMARK  status: ('A' for Active; 'I' for Inactive)
REMARK    1  A    between atoms: C2_2  and  C4_4 
REMARK    2  A    between atoms: C4_4  and  C5_5 
REMARK    3  A    between atoms: C5_5  and  N1_6 
REMARK    4  A    between atoms: C5_5  and  C16_25 
REMARK       I    between atoms: N1_6  and  C6_8 
REMARK    5  A    between atoms: C6_8  and  C7_10 
REMARK    6  A    between atoms: C7_10  and  O2_11 
REMARK    7  A    between atoms: C7_10  and  C8_13 
REMARK    8  A    between atoms: C8_13  and  N2_14 
REMARK    9  A    between atoms: C8_13  and  C9_18 
REMARK   10  A    between atoms: C9_18  and  C10_19 
ROOT
HETATM    1  C7  UNL     1     -10.707  37.629  42.696  1.00  0.00     0.240 C 
ENDROOT
BRANCH   1   2
HETATM    2  C6  UNL     1     -11.090  37.888  41.294  1.00  0.00     0.249 C 
HETATM    3  N1  UNL     1     -12.282  37.459  40.696  1.00  0.00    -0.344 N 
ATOM      4  H1  UNL     1     -12.936  36.927  41.270  1.00  0.00     0.163 HD
HETATM    5  O1  UNL     1     -10.288  38.543  40.581  1.00  0.00    -0.271 OA
BRANCH   3   6
HETATM    6  C5  UNL     1     -12.656  37.719  39.305  1.00  0.00     0.185 C 
BRANCH   6   7
HETATM    7  C4  UNL     1     -12.253  36.593  38.436  1.00  0.00     0.040 C 
BRANCH   7   8
HETATM    8  C2  UNL     1     -11.246  36.822  37.381  1.00  0.00    -0.020 C 
HETATM    9  C1  UNL     1     -10.986  38.283  37.069  1.00  0.00     0.009 C 
HETATM   10  C3  UNL     1     -11.306  35.990  36.161  1.00  0.00     0.009 C 
ENDBRANCH   7   8
ENDBRANCH   6   7
BRANCH   6  11
HETATM   11  C16 UNL     1     -14.036  38.160  39.277  1.00  0.00     0.196 C 
HETATM   12  O3  UNL     1     -14.522  38.733  40.319  1.00  0.00    -0.646 OA
HETATM   13  O4  UNL     1     -14.918  38.039  38.232  1.00  0.00    -0.646 OA
ENDBRANCH   6  11
ENDBRANCH   3   6
ENDBRANCH   1   2
BRANCH   1  14
HETATM   14  O2  UNL     1      -9.553  36.871  42.762  1.00  0.00    -0.384 OA
ATOM     15  H2  UNL     1      -9.587  36.263  43.491  1.00  0.00     0.210 HD
ENDBRANCH   1  14
BRANCH   1  16
HETATM   16  C8  UNL     1     -10.704  38.841  43.555  1.00  0.00     0.225 C 
BRANCH  16  17
HETATM   17  N2  UNL     1      -9.578  38.902  44.463  1.00  0.00    -0.072 N 
ATOM     18  H23 UNL     1      -9.875  39.217  45.386  1.00  0.00     0.274 HD
ATOM     19  H22 UNL     1      -9.254  37.964  44.700  1.00  0.00     0.274 HD
ATOM     20  H21 UNL     1      -8.808  39.473  44.117  1.00  0.00     0.274 HD
ENDBRANCH  16  17
BRANCH  16  21
HETATM   21  C9  UNL     1     -12.024  38.964  44.271  1.00  0.00     0.074 C 
BRANCH  21  22
HETATM   22  C10 UNL     1     -12.507  40.336  44.454  1.00  0.00    -0.056 A 
HETATM   23  C11 UNL     1     -12.469  40.995  45.662  1.00  0.00     0.007 A 
HETATM   24  C12 UNL     1     -12.918  42.278  45.843  1.00  0.00     0.001 A 
HETATM   25  C13 UNL     1     -13.436  42.976  44.792  1.00  0.00     0.000 A 
HETATM   26  C14 UNL     1     -13.493  42.353  43.559  1.00  0.00     0.001 A 
HETATM   27  C15 UNL     1     -13.038  41.059  43.394  1.00  0.00     0.007 A 
ENDBRANCH  21  22
ENDBRANCH  16  21
ENDBRANCH   1  16
TORSDOF 10
ENDMDL
