MODEL 15
REMARK VINA RESULT: -7.713745206      2.213      7.327
REMARK  10 active torsions:
REMARK  status: ('A' for Active; 'I' for Inactive)
REMARK    1  A    between atoms: C2_2  and  C4_4 
REMARK    2  A    between atoms: C4_4  and  C5_5 
REMARK    3  A    between atoms: C5_5  and  N1_6 
REMARK    4  A    between atoms: C5_5  and  C16_25 
REMARK       I    between atoms: N1_6  and  C6_8 
REMARK    5  A    between atoms: C6_8  and  C7_10 
REMARK    6  A    between atoms: C7_10  and  O2_11 
REMARK    7  A    between atoms: C7_10  and  C8_13 
REMARK    8  A    between atoms: C8_13  and  N2_14 
REMARK    9  A    between atoms: C8_13  and  C9_18 
REMARK   10  A    between atoms: C9_18  and  C10_19 
ROOT
HETATM    1  C7  UNL     1     -12.709  37.996  40.280  1.00  0.00     0.240 C 
ENDROOT
BRANCH   1   2
HETATM    2  C6  UNL     1     -13.198  38.890  41.348  1.00  0.00     0.249 C 
HETATM    3  N1  UNL     1     -12.383  39.682  42.168  1.00  0.00    -0.344 N 
ATOM      4  H1  UNL     1     -11.374  39.639  42.017  1.00  0.00     0.163 HD
HETATM    5  O1  UNL     1     -14.438  38.947  41.540  1.00  0.00    -0.271 OA
BRANCH   3   6
HETATM    6  C5  UNL     1     -12.874  40.567  43.225  1.00  0.00     0.185 C 
BRANCH   6   7
HETATM    7  C4  UNL     1     -11.916  40.617  44.351  1.00  0.00     0.040 C 
BRANCH   7   8
HETATM    8  C2  UNL     1     -12.419  40.880  45.713  1.00  0.00    -0.020 C 
HETATM    9  C1  UNL     1     -13.536  39.956  46.158  1.00  0.00     0.009 C 
HETATM   10  C3  UNL     1     -12.657  42.282  46.115  1.00  0.00     0.009 C 
ENDBRANCH   7   8
ENDBRANCH   6   7
BRANCH   6  11
HETATM   11  C16 UNL     1     -13.302  41.811  42.619  1.00  0.00     0.196 C 
HETATM   12  O3  UNL     1     -14.296  42.439  43.134  1.00  0.00    -0.646 OA
HETATM   13  O4  UNL     1     -12.749  42.425  41.521  1.00  0.00    -0.646 OA
ENDBRANCH   6  11
ENDBRANCH   3   6
ENDBRANCH   1   2
BRANCH   1  14
HETATM   14  O2  UNL     1     -13.026  36.679  40.554  1.00  0.00    -0.384 OA
ATOM     15  H2  UNL     1     -12.797  36.116  39.823  1.00  0.00     0.210 HD
ENDBRANCH   1  14
BRANCH   1  16
HETATM   16  C8  UNL     1     -13.057  38.448  38.908  1.00  0.00     0.225 C 
BRANCH  16  17
HETATM   17  N2  UNL     1     -14.454  38.264  38.578  1.00  0.00    -0.072 N 
ATOM     18  H23 UNL     1     -14.563  37.566  37.843  1.00  0.00     0.274 HD
ATOM     19  H22 UNL     1     -14.945  37.790  39.336  1.00  0.00     0.274 HD
ATOM     20  H21 UNL     1     -14.929  39.131  38.327  1.00  0.00     0.274 HD
ENDBRANCH  16  17
BRANCH  16  21
HETATM   21  C9  UNL     1     -12.141  37.795  37.907  1.00  0.00     0.074 C 
BRANCH  21  22
HETATM   22  C10 UNL     1     -11.561  38.701  36.911  1.00  0.00    -0.056 A 
HETATM   23  C11 UNL     1     -10.485  38.364  36.120  1.00  0.00     0.007 A 
HETATM   24  C12 UNL     1      -9.935  39.203  35.186  1.00  0.00     0.001 A 
HETATM   25  C13 UNL     1     -10.457  40.449  34.995  1.00  0.00     0.000 A 
HETATM   26  C14 UNL     1     -11.538  40.829  35.767  1.00  0.00     0.001 A 
HETATM   27  C15 UNL     1     -12.080  39.972  36.706  1.00  0.00     0.007 A 
ENDBRANCH  21  22
ENDBRANCH  16  21
ENDBRANCH   1  16
TORSDOF 10
ENDMDL
