MODEL 3
REMARK VINA RESULT: -9.233396470      0.853      1.080
REMARK  10 active torsions:
REMARK  status: ('A' for Active; 'I' for Inactive)
REMARK    1  A    between atoms: C2_2  and  C4_4 
REMARK    2  A    between atoms: C4_4  and  C5_5 
REMARK    3  A    between atoms: C5_5  and  N1_6 
REMARK    4  A    between atoms: C5_5  and  C16_25 
REMARK       I    between atoms: N1_6  and  C6_8 
REMARK    5  A    between atoms: C6_8  and  C7_10 
REMARK    6  A    between atoms: C7_10  and  O2_11 
REMARK    7  A    between atoms: C7_10  and  C8_13 
REMARK    8  A    between atoms: C8_13  and  N2_14 
REMARK    9  A    between atoms: C8_13  and  C9_18 
REMARK   10  A    between atoms: C9_18  and  C10_19 
ROOT
HETATM    1  C7  UNL     1     -10.717  37.696  42.710  1.00  0.00     0.240 C 
ENDROOT
BRANCH   1   2
HETATM    2  C6  UNL     1     -11.262  38.005  41.374  1.00  0.00     0.249 C 
HETATM    3  N1  UNL     1     -12.617  37.932  41.023  1.00  0.00    -0.344 N 
ATOM      4  H1  UNL     1     -13.278  37.643  41.745  1.00  0.00     0.163 HD
HETATM    5  O1  UNL     1     -10.453  38.362  40.481  1.00  0.00    -0.271 OA
BRANCH   3   6
HETATM    6  C5  UNL     1     -13.152  38.241  39.696  1.00  0.00     0.185 C 
BRANCH   6   7
HETATM    7  C4  UNL     1     -13.455  36.999  38.953  1.00  0.00     0.040 C 
BRANCH   7   8
HETATM    8  C2  UNL     1     -12.834  36.781  37.632  1.00  0.00    -0.020 C 
HETATM    9  C1  UNL     1     -11.566  35.949  37.664  1.00  0.00     0.009 C 
HETATM   10  C3  UNL     1     -12.728  37.930  36.708  1.00  0.00     0.009 C 
ENDBRANCH   7   8
ENDBRANCH   6   7
BRANCH   6  11
HETATM   11  C16 UNL     1     -14.194  39.237  39.843  1.00  0.00     0.196 C 
HETATM   12  O3  UNL     1     -14.884  39.253  40.925  1.00  0.00    -0.646 OA
HETATM   13  O4  UNL     1     -14.544  40.203  38.931  1.00  0.00    -0.646 OA
ENDBRANCH   6  11
ENDBRANCH   3   6
ENDBRANCH   1   2
BRANCH   1  14
HETATM   14  O2  UNL     1      -9.548  36.966  42.611  1.00  0.00    -0.384 OA
ATOM     15  H2  UNL     1      -9.733  36.045  42.465  1.00  0.00     0.210 HD
ENDBRANCH   1  14
BRANCH   1  16
HETATM   16  C8  UNL     1     -10.642  38.869  43.618  1.00  0.00     0.225 C 
BRANCH  16  17
HETATM   17  N2  UNL     1      -9.475  38.861  44.475  1.00  0.00    -0.072 N 
ATOM     18  H23 UNL     1      -9.737  38.666  45.441  1.00  0.00     0.274 HD
ATOM     19  H22 UNL     1      -8.895  38.043  44.288  1.00  0.00     0.274 HD
ATOM     20  H21 UNL     1      -8.922  39.716  44.416  1.00  0.00     0.274 HD
ENDBRANCH  16  17
BRANCH  16  21
HETATM   21  C9  UNL     1     -11.924  38.996  44.399  1.00  0.00     0.074 C 
BRANCH  21  22
HETATM   22  C10 UNL     1     -12.461  40.356  44.498  1.00  0.00    -0.056 A 
HETATM   23  C11 UNL     1     -12.493  41.071  45.674  1.00  0.00     0.007 A 
HETATM   24  C12 UNL     1     -12.992  42.344  45.777  1.00  0.00     0.001 A 
HETATM   25  C13 UNL     1     -13.491  42.974  44.674  1.00  0.00     0.000 A 
HETATM   26  C14 UNL     1     -13.478  42.294  43.472  1.00  0.00     0.001 A 
HETATM   27  C15 UNL     1     -12.973  41.010  43.385  1.00  0.00     0.007 A 
ENDBRANCH  21  22
ENDBRANCH  16  21
ENDBRANCH   1  16
TORSDOF 10
ENDMDL
