MODEL 11
REMARK VINA RESULT: -7.827795077      2.730      6.765
REMARK  10 active torsions:
REMARK  status: ('A' for Active; 'I' for Inactive)
REMARK    1  A    between atoms: C2_2  and  C4_4 
REMARK    2  A    between atoms: C4_4  and  C5_5 
REMARK    3  A    between atoms: C5_5  and  N1_6 
REMARK    4  A    between atoms: C5_5  and  C16_25 
REMARK       I    between atoms: N1_6  and  C6_8 
REMARK    5  A    between atoms: C6_8  and  C7_10 
REMARK    6  A    between atoms: C7_10  and  O2_11 
REMARK    7  A    between atoms: C7_10  and  C8_13 
REMARK    8  A    between atoms: C8_13  and  N2_14 
REMARK    9  A    between atoms: C8_13  and  C9_18 
REMARK   10  A    between atoms: C9_18  and  C10_19 
ROOT
HETATM    1  C7  UNL     1     -12.868  38.027  40.250  1.00  0.00     0.240 C 
ENDROOT
BRANCH   1   2
HETATM    2  C6  UNL     1     -13.309  38.900  41.354  1.00  0.00     0.249 C 
HETATM    3  N1  UNL     1     -12.469  39.734  42.104  1.00  0.00    -0.344 N 
ATOM      4  H1  UNL     1     -11.476  39.740  41.869  1.00  0.00     0.163 HD
HETATM    5  O1  UNL     1     -14.531  38.898  41.648  1.00  0.00    -0.271 OA
BRANCH   3   6
HETATM    6  C5  UNL     1     -12.913  40.598  43.198  1.00  0.00     0.185 C 
BRANCH   6   7
HETATM    7  C4  UNL     1     -11.936  40.579  44.308  1.00  0.00     0.040 C 
BRANCH   7   8
HETATM    8  C2  UNL     1     -12.409  40.810  45.687  1.00  0.00    -0.020 C 
HETATM    9  C1  UNL     1     -13.535  39.895  46.127  1.00  0.00     0.009 C 
HETATM   10  C3  UNL     1     -12.612  42.205  46.134  1.00  0.00     0.009 C 
ENDBRANCH   7   8
ENDBRANCH   6   7
BRANCH   6  11
HETATM   11  C16 UNL     1     -13.309  41.876  42.641  1.00  0.00     0.196 C 
HETATM   12  O3  UNL     1     -14.299  42.499  43.169  1.00  0.00    -0.646 OA
HETATM   13  O4  UNL     1     -12.730  42.525  41.579  1.00  0.00    -0.646 OA
ENDBRANCH   6  11
ENDBRANCH   3   6
ENDBRANCH   1   2
BRANCH   1  14
HETATM   14  O2  UNL     1     -13.004  36.694  40.588  1.00  0.00    -0.384 OA
ATOM     15  H2  UNL     1     -12.714  36.538  41.479  1.00  0.00     0.210 HD
ENDBRANCH   1  14
BRANCH   1  16
HETATM   16  C8  UNL     1     -13.434  38.394  38.926  1.00  0.00     0.225 C 
BRANCH  16  17
HETATM   17  N2  UNL     1     -14.312  37.383  38.375  1.00  0.00    -0.072 N 
ATOM     18  H23 UNL     1     -14.618  36.735  39.101  1.00  0.00     0.274 HD
ATOM     19  H22 UNL     1     -15.212  37.787  38.118  1.00  0.00     0.274 HD
ATOM     20  H21 UNL     1     -13.905  36.877  37.588  1.00  0.00     0.274 HD
ENDBRANCH  16  17
BRANCH  16  21
HETATM   21  C9  UNL     1     -12.324  38.767  37.979  1.00  0.00     0.074 C 
BRANCH  21  22
HETATM   22  C10 UNL     1     -12.301  40.175  37.571  1.00  0.00    -0.056 A 
HETATM   23  C11 UNL     1     -12.775  41.197  38.361  1.00  0.00     0.007 A 
HETATM   24  C12 UNL     1     -12.758  42.517  37.990  1.00  0.00     0.001 A 
HETATM   25  C13 UNL     1     -12.247  42.879  36.777  1.00  0.00     0.000 A 
HETATM   26  C14 UNL     1     -11.759  41.884  35.951  1.00  0.00     0.001 A 
HETATM   27  C15 UNL     1     -11.786  40.558  36.340  1.00  0.00     0.007 A 
ENDBRANCH  21  22
ENDBRANCH  16  21
ENDBRANCH   1  16
TORSDOF 10
ENDMDL
