MODEL 4
REMARK VINA RESULT: -9.225943999      0.839      1.464
REMARK  10 active torsions:
REMARK  status: ('A' for Active; 'I' for Inactive)
REMARK    1  A    between atoms: C2_2  and  C4_4 
REMARK    2  A    between atoms: C4_4  and  C5_5 
REMARK    3  A    between atoms: C5_5  and  N1_6 
REMARK    4  A    between atoms: C5_5  and  C16_25 
REMARK       I    between atoms: N1_6  and  C6_8 
REMARK    5  A    between atoms: C6_8  and  C7_10 
REMARK    6  A    between atoms: C7_10  and  O2_11 
REMARK    7  A    between atoms: C7_10  and  C8_13 
REMARK    8  A    between atoms: C8_13  and  N2_14 
REMARK    9  A    between atoms: C8_13  and  C9_18 
REMARK   10  A    between atoms: C9_18  and  C10_19 
ROOT
HETATM    1  C7  UNL     1     -10.718  37.689  42.712  1.00  0.00     0.240 C 
ENDROOT
BRANCH   1   2
HETATM    2  C6  UNL     1     -11.266  37.997  41.378  1.00  0.00     0.249 C 
HETATM    3  N1  UNL     1     -12.620  37.908  41.026  1.00  0.00    -0.344 N 
ATOM      4  H1  UNL     1     -13.278  37.607  41.745  1.00  0.00     0.163 HD
HETATM    5  O1  UNL     1     -10.461  38.368  40.487  1.00  0.00    -0.271 OA
BRANCH   3   6
HETATM    6  C5  UNL     1     -13.158  38.216  39.700  1.00  0.00     0.185 C 
BRANCH   6   7
HETATM    7  C4  UNL     1     -13.454  36.974  38.955  1.00  0.00     0.040 C 
BRANCH   7   8
HETATM    8  C2  UNL     1     -12.835  36.763  37.632  1.00  0.00    -0.020 C 
HETATM    9  C1  UNL     1     -11.573  35.922  37.656  1.00  0.00     0.009 C 
HETATM   10  C3  UNL     1     -12.722  37.919  36.718  1.00  0.00     0.009 C 
ENDBRANCH   7   8
ENDBRANCH   6   7
BRANCH   6  11
HETATM   11  C16 UNL     1     -14.206  39.205  39.850  1.00  0.00     0.196 C 
HETATM   12  O3  UNL     1     -14.821  39.288  40.974  1.00  0.00    -0.646 OA
HETATM   13  O4  UNL     1     -14.636  40.100  38.900  1.00  0.00    -0.646 OA
ENDBRANCH   6  11
ENDBRANCH   3   6
ENDBRANCH   1   2
BRANCH   1  14
HETATM   14  O2  UNL     1      -9.551  36.955  42.610  1.00  0.00    -0.384 OA
ATOM     15  H2  UNL     1      -9.508  36.289  43.287  1.00  0.00     0.210 HD
ENDBRANCH   1  14
BRANCH   1  16
HETATM   16  C8  UNL     1     -10.637  38.863  43.619  1.00  0.00     0.225 C 
BRANCH  16  17
HETATM   17  N2  UNL     1      -9.472  38.849  44.478  1.00  0.00    -0.072 N 
ATOM     18  H23 UNL     1      -9.515  38.068  45.132  1.00  0.00     0.274 HD
ATOM     19  H22 UNL     1      -8.638  38.584  43.952  1.00  0.00     0.274 HD
ATOM     20  H21 UNL     1      -9.322  39.727  44.974  1.00  0.00     0.274 HD
ENDBRANCH  16  17
BRANCH  16  21
HETATM   21  C9  UNL     1     -11.920  39.000  44.396  1.00  0.00     0.074 C 
BRANCH  21  22
HETATM   22  C10 UNL     1     -12.455  40.362  44.478  1.00  0.00    -0.056 A 
HETATM   23  C11 UNL     1     -12.929  41.054  43.386  1.00  0.00     0.007 A 
HETATM   24  C12 UNL     1     -13.432  42.328  43.452  1.00  0.00     0.001 A 
HETATM   25  C13 UNL     1     -13.487  42.980  44.650  1.00  0.00     0.000 A 
HETATM   26  C14 UNL     1     -13.022  42.322  45.773  1.00  0.00     0.001 A 
HETATM   27  C15 UNL     1     -12.516  41.039  45.689  1.00  0.00     0.007 A 
ENDBRANCH  21  22
ENDBRANCH  16  21
ENDBRANCH   1  16
TORSDOF 10
ENDMDL
