MODEL 6
REMARK VINA RESULT: -8.905034954      0.990      1.179
REMARK  10 active torsions:
REMARK  status: ('A' for Active; 'I' for Inactive)
REMARK    1  A    between atoms: C2_2  and  C4_4 
REMARK    2  A    between atoms: C4_4  and  C5_5 
REMARK    3  A    between atoms: C5_5  and  N1_6 
REMARK    4  A    between atoms: C5_5  and  C16_25 
REMARK       I    between atoms: N1_6  and  C6_8 
REMARK    5  A    between atoms: C6_8  and  C7_10 
REMARK    6  A    between atoms: C7_10  and  O2_11 
REMARK    7  A    between atoms: C7_10  and  C8_13 
REMARK    8  A    between atoms: C8_13  and  N2_14 
REMARK    9  A    between atoms: C8_13  and  C9_18 
REMARK   10  A    between atoms: C9_18  and  C10_19 
ROOT
HETATM    1  C7  UNL     1     -10.971  37.842  42.592  1.00  0.00     0.240 C 
ENDROOT
BRANCH   1   2
HETATM    2  C6  UNL     1     -11.514  38.190  41.264  1.00  0.00     0.249 C 
HETATM    3  N1  UNL     1     -11.654  37.295  40.195  1.00  0.00    -0.344 N 
ATOM      4  H1  UNL     1     -11.358  36.330  40.343  1.00  0.00     0.163 HD
HETATM    5  O1  UNL     1     -11.881  39.377  41.076  1.00  0.00    -0.271 OA
BRANCH   3   6
HETATM    6  C5  UNL     1     -12.194  37.646  38.880  1.00  0.00     0.185 C 
BRANCH   6   7
HETATM    7  C4  UNL     1     -11.196  37.388  37.820  1.00  0.00     0.040 C 
BRANCH   7   8
HETATM    8  C2  UNL     1     -10.819  38.483  36.905  1.00  0.00    -0.020 C 
HETATM    9  C1  UNL     1     -11.850  39.590  36.793  1.00  0.00     0.009 C 
HETATM   10  C3  UNL     1     -10.228  38.132  35.596  1.00  0.00     0.009 C 
ENDBRANCH   7   8
ENDBRANCH   6   7
BRANCH   6  11
HETATM   11  C16 UNL     1     -13.511  37.056  38.755  1.00  0.00     0.196 C 
HETATM   12  O3  UNL     1     -13.784  36.002  39.435  1.00  0.00    -0.646 OA
HETATM   13  O4  UNL     1     -14.544  37.506  37.969  1.00  0.00    -0.646 OA
ENDBRANCH   6  11
ENDBRANCH   3   6
ENDBRANCH   1   2
BRANCH   1  14
HETATM   14  O2  UNL     1      -9.819  37.089  42.473  1.00  0.00    -0.384 OA
ATOM     15  H2  UNL     1      -9.725  36.493  43.208  1.00  0.00     0.210 HD
ENDBRANCH   1  14
BRANCH   1  16
HETATM   16  C8  UNL     1     -10.867  38.995  43.523  1.00  0.00     0.225 C 
BRANCH  16  17
HETATM   17  N2  UNL     1      -9.689  38.953  44.363  1.00  0.00    -0.072 N 
ATOM     18  H23 UNL     1      -9.948  38.827  45.342  1.00  0.00     0.274 HD
ATOM     19  H22 UNL     1      -9.169  38.088  44.213  1.00  0.00     0.274 HD
ATOM     20  H21 UNL     1      -9.081  39.764  44.252  1.00  0.00     0.274 HD
ENDBRANCH  16  17
BRANCH  16  21
HETATM   21  C9  UNL     1     -12.137  39.124  44.323  1.00  0.00     0.074 C 
BRANCH  21  22
HETATM   22  C10 UNL     1     -12.584  40.500  44.563  1.00  0.00    -0.056 A 
HETATM   23  C11 UNL     1     -12.463  41.131  45.780  1.00  0.00     0.007 A 
HETATM   24  C12 UNL     1     -12.877  42.417  46.015  1.00  0.00     0.001 A 
HETATM   25  C13 UNL     1     -13.444  43.146  45.011  1.00  0.00     0.000 A 
HETATM   26  C14 UNL     1     -13.586  42.552  43.771  1.00  0.00     0.001 A 
HETATM   27  C15 UNL     1     -13.164  41.254  43.552  1.00  0.00     0.007 A 
ENDBRANCH  21  22
ENDBRANCH  16  21
ENDBRANCH   1  16
TORSDOF 10
ENDMDL
