MODEL 13
REMARK VINA RESULT: -8.299499963      2.962      7.818
REMARK  9 active torsions:
REMARK  status: ('A' for Active; 'I' for Inactive)
REMARK    1  A    between atoms: O1_1  and  C1_3 
REMARK    2  A    between atoms: C2_4  and  C3_5 
REMARK    3  A    between atoms: C3_5  and  O2_6 
REMARK    4  A    between atoms: O2_6  and  P1_7 
REMARK    5  A    between atoms: C4_12  and  N1_13 
REMARK    6  A    between atoms: C7_18  and  N3_19 
REMARK    7  A    between atoms: N3_19  and  C8_21 
REMARK    8  A    between atoms: C8_21  and  C9_22 
REMARK    9  A    between atoms: C15_33  and  O8_34 
ROOT
HETATM    1  N1  UNL     1       5.358  -3.273  39.491  1.00  0.00    -0.297 N 
HETATM    2  C5  UNL     1       4.631  -2.445  40.260  1.00  0.00     0.188 A 
HETATM    3  N2  UNL     1       4.502  -1.252  39.593  1.00  0.00    -0.346 N 
ATOM      4  H2  UNL     1       3.997  -0.434  39.934  1.00  0.00     0.167 HD
HETATM    5  C6  UNL     1       5.145  -1.336  38.424  1.00  0.00     0.122 A 
HETATM    6  C7  UNL     1       5.327  -0.451  37.390  1.00  0.00     0.133 A 
HETATM    7  N4  UNL     1       6.048  -0.843  36.322  1.00  0.00    -0.337 N 
ATOM      8  H4  UNL     1       6.191  -0.195  35.548  1.00  0.00     0.168 HD
HETATM    9  C13 UNL     1       6.582  -2.079  36.261  1.00  0.00     0.183 A 
HETATM   10  N5  UNL     1       6.390  -2.927  37.266  1.00  0.00    -0.336 N 
ATOM     11  H5  UNL     1       6.792  -3.862  37.197  1.00  0.00     0.168 HD
HETATM   12  C14 UNL     1       5.679  -2.605  38.382  1.00  0.00     0.142 A 
ENDROOT
BRANCH   1  13
HETATM   13  C4  UNL     1       5.676  -4.671  39.650  1.00  0.00     0.262 C 
HETATM   14  O6  UNL     1       4.360  -5.239  39.770  1.00  0.00    -0.353 OA
HETATM   15  C2  UNL     1       4.452  -6.058  40.815  1.00  0.00     0.180 C 
HETATM   16  C1  UNL     1       5.291  -5.320  41.843  1.00  0.00     0.182 C 
HETATM   17  C15 UNL     1       6.440  -4.900  40.897  1.00  0.00     0.198 C 
BRANCH  15  18
HETATM   18  C3  UNL     1       3.270  -6.752  41.356  1.00  0.00     0.217 C 
BRANCH  18  19
HETATM   19  O2  UNL     1       2.825  -5.977  42.453  1.00  0.00    -0.280 OA
BRANCH  19  20
HETATM   20  P1  UNL     1       1.309  -5.378  42.119  1.00  0.00     0.422 P 
HETATM   21  O3  UNL     1       1.972  -3.957  42.094  1.00  0.00    -0.617 OA
HETATM   22  O4  UNL     1       0.984  -5.384  40.480  1.00  0.00    -0.617 OA
HETATM   23  O5  UNL     1       0.703  -6.727  42.343  1.00  0.00    -0.617 OA
ENDBRANCH  19  20
ENDBRANCH  18  19
ENDBRANCH  15  18
BRANCH  16  24
HETATM   24  O1  UNL     1       5.749  -6.213  42.820  1.00  0.00    -0.390 OA
ATOM     25  H1  UNL     1       6.682  -6.101  42.953  1.00  0.00     0.210 HD
ENDBRANCH  16  24
BRANCH  17  26
HETATM   26  O8  UNL     1       7.223  -6.072  40.738  1.00  0.00    -0.388 OA
ATOM     27  H8  UNL     1       8.068  -5.760  40.437  1.00  0.00     0.210 HD
ENDBRANCH  17  26
ENDBRANCH   1  13
BRANCH   6  28
HETATM   28  N3  UNL     1       4.811   0.863  37.422  1.00  0.00    -0.368 N 
ATOM     29  H3  UNL     1       5.236   1.573  38.018  1.00  0.00     0.161 HD
BRANCH  28  30
HETATM   30  C8  UNL     1       3.678   1.183  36.601  1.00  0.00     0.186 C 
BRANCH  30  31
HETATM   31  C9  UNL     1       2.585   1.605  37.509  1.00  0.00     0.070 A 
HETATM   32  C10 UNL     1       2.154   0.900  38.584  1.00  0.00     0.036 A 
HETATM   33  C11 UNL     1       1.119   1.651  39.141  1.00  0.00     0.027 A 
HETATM   34  C12 UNL     1       1.021   2.783  38.319  1.00  0.00     0.142 A 
HETATM   35  O7  UNL     1       1.906   2.702  37.375  1.00  0.00    -0.325 OA
ENDBRANCH  30  31
ENDBRANCH  28  30
ENDBRANCH   6  28
TORSDOF 9
ENDMDL
