MODEL 14
REMARK VINA RESULT: -8.292456100      2.971      4.013
REMARK  9 active torsions:
REMARK  status: ('A' for Active; 'I' for Inactive)
REMARK    1  A    between atoms: O1_1  and  C1_3 
REMARK    2  A    between atoms: C2_4  and  C3_5 
REMARK    3  A    between atoms: C3_5  and  O2_6 
REMARK    4  A    between atoms: O2_6  and  P1_7 
REMARK    5  A    between atoms: C4_12  and  N1_13 
REMARK    6  A    between atoms: C7_18  and  N3_19 
REMARK    7  A    between atoms: N3_19  and  C8_21 
REMARK    8  A    between atoms: C8_21  and  C9_22 
REMARK    9  A    between atoms: C15_33  and  O8_34 
ROOT
HETATM    1  N1  UNL     1       4.488  -3.471  40.355  1.00  0.00    -0.297 N 
HETATM    2  C5  UNL     1       4.739  -4.656  39.774  1.00  0.00     0.188 A 
HETATM    3  N2  UNL     1       3.683  -5.491  40.041  1.00  0.00    -0.346 N 
ATOM      4  H2  UNL     1       3.597  -6.457  39.724  1.00  0.00     0.167 HD
HETATM    5  C6  UNL     1       2.787  -4.834  40.784  1.00  0.00     0.122 A 
HETATM    6  C7  UNL     1       1.572  -5.189  41.316  1.00  0.00     0.133 A 
HETATM    7  N4  UNL     1       0.892  -4.280  42.041  1.00  0.00    -0.337 N 
ATOM      8  H4  UNL     1      -0.010  -4.531  42.443  1.00  0.00     0.168 HD
HETATM    9  C13 UNL     1       1.388  -3.043  42.243  1.00  0.00     0.183 A 
HETATM   10  N5  UNL     1       2.561  -2.711  41.713  1.00  0.00    -0.336 N 
ATOM     11  H5  UNL     1       2.915  -1.767  41.867  1.00  0.00     0.168 HD
HETATM   12  C14 UNL     1       3.311  -3.575  40.975  1.00  0.00     0.142 A 
ENDROOT
BRANCH   1  13
HETATM   13  C4  UNL     1       5.194  -2.216  40.281  1.00  0.00     0.262 C 
HETATM   14  O6  UNL     1       4.156  -1.295  40.661  1.00  0.00    -0.353 OA
HETATM   15  C2  UNL     1       4.232  -0.324  39.755  1.00  0.00     0.180 C 
HETATM   16  C1  UNL     1       4.478  -1.019  38.428  1.00  0.00     0.182 C 
HETATM   17  C15 UNL     1       5.632  -1.936  38.894  1.00  0.00     0.198 C 
BRANCH  15  18
HETATM   18  C3  UNL     1       3.245   0.770  39.713  1.00  0.00     0.217 C 
BRANCH  18  19
HETATM   19  O2  UNL     1       2.536   0.616  38.498  1.00  0.00    -0.280 OA
BRANCH  19  20
HETATM   20  P1  UNL     1       1.909   2.089  38.042  1.00  0.00     0.422 P 
HETATM   21  O3  UNL     1       3.157   2.230  37.103  1.00  0.00    -0.617 OA
HETATM   22  O4  UNL     1       0.827   1.940  36.777  1.00  0.00    -0.617 OA
HETATM   23  O5  UNL     1       0.847   1.984  39.090  1.00  0.00    -0.617 OA
ENDBRANCH  19  20
ENDBRANCH  18  19
ENDBRANCH  15  18
BRANCH  16  24
HETATM   24  O1  UNL     1       4.928  -0.094  37.477  1.00  0.00    -0.390 OA
ATOM     25  H1  UNL     1       4.625   0.778  37.700  1.00  0.00     0.210 HD
ENDBRANCH  16  24
BRANCH  17  26
HETATM   26  O8  UNL     1       6.769  -1.090  38.943  1.00  0.00    -0.388 OA
ATOM     27  H8  UNL     1       7.339  -1.487  39.591  1.00  0.00     0.210 HD
ENDBRANCH  17  26
ENDBRANCH   1  13
BRANCH   6  28
HETATM   28  N3  UNL     1       1.026  -6.481  41.155  1.00  0.00    -0.368 N 
ATOM     29  H3  UNL     1       1.622  -7.307  41.215  1.00  0.00     0.161 HD
BRANCH  28  30
HETATM   30  C8  UNL     1      -0.382  -6.613  40.905  1.00  0.00     0.186 C 
BRANCH  30  31
HETATM   31  C9  UNL     1      -0.578  -6.503  39.441  1.00  0.00     0.070 A 
HETATM   32  C10 UNL     1       0.387  -6.711  38.511  1.00  0.00     0.036 A 
HETATM   33  C11 UNL     1      -0.223  -6.497  37.275  1.00  0.00     0.027 A 
HETATM   34  C12 UNL     1      -1.551  -6.168  37.588  1.00  0.00     0.142 A 
HETATM   35  O7  UNL     1      -1.702  -6.186  38.875  1.00  0.00    -0.325 OA
ENDBRANCH  30  31
ENDBRANCH  28  30
ENDBRANCH   6  28
TORSDOF 9
ENDMDL
