MODEL 12
REMARK VINA RESULT: -8.370281156      3.164      8.789
REMARK  9 active torsions:
REMARK  status: ('A' for Active; 'I' for Inactive)
REMARK    1  A    between atoms: O1_1  and  C1_3 
REMARK    2  A    between atoms: C2_4  and  C3_5 
REMARK    3  A    between atoms: C3_5  and  O2_6 
REMARK    4  A    between atoms: O2_6  and  P1_7 
REMARK    5  A    between atoms: C4_12  and  N1_13 
REMARK    6  A    between atoms: C7_18  and  N3_19 
REMARK    7  A    between atoms: N3_19  and  C8_21 
REMARK    8  A    between atoms: C8_21  and  C9_22 
REMARK    9  A    between atoms: C15_33  and  O8_34 
ROOT
HETATM    1  N1  UNL     1       5.251  -3.458  39.486  1.00  0.00    -0.297 N 
HETATM    2  C5  UNL     1       4.477  -2.679  40.259  1.00  0.00     0.188 A 
HETATM    3  N2  UNL     1       4.372  -1.452  39.654  1.00  0.00    -0.346 N 
ATOM      4  H2  UNL     1       3.842  -0.658  40.012  1.00  0.00     0.167 HD
HETATM    5  C6  UNL     1       5.076  -1.467  38.518  1.00  0.00     0.122 A 
HETATM    6  C7  UNL     1       5.303  -0.524  37.545  1.00  0.00     0.133 A 
HETATM    7  N4  UNL     1       6.082  -0.852  36.496  1.00  0.00    -0.337 N 
ATOM      8  H4  UNL     1       6.260  -0.161  35.768  1.00  0.00     0.168 HD
HETATM    9  C13 UNL     1       6.631  -2.078  36.395  1.00  0.00     0.183 A 
HETATM   10  N5  UNL     1       6.395  -2.983  37.341  1.00  0.00    -0.336 N 
ATOM     11  H5  UNL     1       6.809  -3.910  37.242  1.00  0.00     0.168 HD
HETATM   12  C14 UNL     1       5.624  -2.727  38.434  1.00  0.00     0.142 A 
ENDROOT
BRANCH   1  13
HETATM   13  C4  UNL     1       5.575  -4.861  39.584  1.00  0.00     0.262 C 
HETATM   14  O6  UNL     1       4.521  -5.324  40.447  1.00  0.00    -0.353 OA
HETATM   15  C2  UNL     1       5.145  -6.072  41.353  1.00  0.00     0.180 C 
HETATM   16  C1  UNL     1       6.423  -5.326  41.692  1.00  0.00     0.182 C 
HETATM   17  C15 UNL     1       6.887  -5.056  40.242  1.00  0.00     0.198 C 
BRANCH  15  18
HETATM   18  C3  UNL     1       4.429  -6.642  42.508  1.00  0.00     0.217 C 
BRANCH  18  19
HETATM   19  O2  UNL     1       4.846  -7.991  42.605  1.00  0.00    -0.280 OA
BRANCH  19  20
HETATM   20  P1  UNL     1       5.163  -8.350  44.199  1.00  0.00     0.422 P 
HETATM   21  O3  UNL     1       6.028  -9.545  43.666  1.00  0.00    -0.617 OA
HETATM   22  O4  UNL     1       6.480  -7.502  44.779  1.00  0.00    -0.617 OA
HETATM   23  O5  UNL     1       4.177  -7.319  44.649  1.00  0.00    -0.617 OA
ENDBRANCH  19  20
ENDBRANCH  18  19
ENDBRANCH  15  18
BRANCH  16  24
HETATM   24  O1  UNL     1       7.317  -6.178  42.353  1.00  0.00    -0.390 OA
ATOM     25  H1  UNL     1       7.592  -5.789  43.175  1.00  0.00     0.210 HD
ENDBRANCH  16  24
BRANCH  17  26
HETATM   26  O8  UNL     1       7.433  -6.288  39.802  1.00  0.00    -0.388 OA
ATOM     27  H8  UNL     1       6.714  -6.907  39.862  1.00  0.00     0.210 HD
ENDBRANCH  17  26
ENDBRANCH   1  13
BRANCH   6  28
HETATM   28  N3  UNL     1       4.774   0.782  37.622  1.00  0.00    -0.368 N 
ATOM     29  H3  UNL     1       5.144   1.453  38.295  1.00  0.00     0.161 HD
BRANCH  28  30
HETATM   30  C8  UNL     1       3.705   1.150  36.737  1.00  0.00     0.186 C 
BRANCH  30  31
HETATM   31  C9  UNL     1       2.575   1.605  37.581  1.00  0.00     0.070 A 
HETATM   32  C10 UNL     1       2.104   0.946  38.669  1.00  0.00     0.036 A 
HETATM   33  C11 UNL     1       1.045   1.714  39.150  1.00  0.00     0.027 A 
HETATM   34  C12 UNL     1       0.974   2.808  38.275  1.00  0.00     0.142 A 
HETATM   35  O7  UNL     1       1.896   2.691  37.372  1.00  0.00    -0.325 OA
ENDBRANCH  30  31
ENDBRANCH  28  30
ENDBRANCH   6  28
TORSDOF 9
ENDMDL
