MODEL 11
REMARK VINA RESULT: -8.372769286      1.574      2.377
REMARK  9 active torsions:
REMARK  status: ('A' for Active; 'I' for Inactive)
REMARK    1  A    between atoms: O1_1  and  C1_3 
REMARK    2  A    between atoms: C2_4  and  C3_5 
REMARK    3  A    between atoms: C3_5  and  O2_6 
REMARK    4  A    between atoms: O2_6  and  P1_7 
REMARK    5  A    between atoms: C4_12  and  N1_13 
REMARK    6  A    between atoms: C7_18  and  N3_19 
REMARK    7  A    between atoms: N3_19  and  C8_21 
REMARK    8  A    between atoms: C8_21  and  C9_22 
REMARK    9  A    between atoms: C15_33  and  O8_34 
ROOT
HETATM    1  N1  UNL     1       4.804  -2.645  39.876  1.00  0.00    -0.297 N 
HETATM    2  C5  UNL     1       3.546  -2.413  40.286  1.00  0.00     0.188 A 
HETATM    3  N2  UNL     1       3.160  -3.462  41.084  1.00  0.00    -0.346 N 
ATOM      4  H2  UNL     1       2.253  -3.556  41.540  1.00  0.00     0.167 HD
HETATM    5  C6  UNL     1       4.166  -4.338  41.165  1.00  0.00     0.122 A 
HETATM    6  C7  UNL     1       4.314  -5.535  41.822  1.00  0.00     0.133 A 
HETATM    7  N4  UNL     1       5.479  -6.200  41.700  1.00  0.00    -0.337 N 
ATOM      8  H4  UNL     1       5.601  -7.091  42.181  1.00  0.00     0.168 HD
HETATM    9  C13 UNL     1       6.486  -5.706  40.953  1.00  0.00     0.183 A 
HETATM   10  N5  UNL     1       6.331  -4.541  40.331  1.00  0.00    -0.336 N 
ATOM     11  H5  UNL     1       7.107  -4.178  39.778  1.00  0.00     0.168 HD
HETATM   12  C14 UNL     1       5.183  -3.813  40.398  1.00  0.00     0.142 A 
ENDROOT
BRANCH   1  13
HETATM   13  C4  UNL     1       5.723  -1.814  39.137  1.00  0.00     0.262 C 
HETATM   14  O6  UNL     1       5.013  -0.563  39.127  1.00  0.00    -0.353 OA
HETATM   15  C2  UNL     1       5.087  -0.155  37.863  1.00  0.00     0.180 C 
HETATM   16  C1  UNL     1       4.878  -1.399  37.018  1.00  0.00     0.182 C 
HETATM   17  C15 UNL     1       5.888  -2.311  37.752  1.00  0.00     0.198 C 
BRANCH  15  18
HETATM   18  C3  UNL     1       4.368   1.044  37.397  1.00  0.00     0.217 C 
BRANCH  18  19
HETATM   19  O2  UNL     1       3.572   1.474  38.486  1.00  0.00    -0.280 OA
BRANCH  19  20
HETATM   20  P1  UNL     1       2.007   1.693  37.963  1.00  0.00     0.422 P 
HETATM   21  O3  UNL     1       1.590   1.649  39.475  1.00  0.00    -0.617 OA
HETATM   22  O4  UNL     1       1.631   3.311  37.785  1.00  0.00    -0.617 OA
HETATM   23  O5  UNL     1       2.438   1.536  36.540  1.00  0.00    -0.617 OA
ENDBRANCH  19  20
ENDBRANCH  18  19
ENDBRANCH  15  18
BRANCH  16  24
HETATM   24  O1  UNL     1       5.287  -1.159  35.700  1.00  0.00    -0.390 OA
ATOM     25  H1  UNL     1       6.018  -1.723  35.477  1.00  0.00     0.210 HD
ENDBRANCH  16  24
BRANCH  17  26
HETATM   26  O8  UNL     1       7.159  -1.900  37.274  1.00  0.00    -0.388 OA
ATOM     27  H8  UNL     1       7.751  -2.047  38.003  1.00  0.00     0.210 HD
ENDBRANCH  17  26
ENDBRANCH   1  13
BRANCH   6  28
HETATM   28  N3  UNL     1       3.278  -6.106  42.593  1.00  0.00    -0.368 N 
ATOM     29  H3  UNL     1       2.957  -5.651  43.448  1.00  0.00     0.161 HD
BRANCH  28  30
HETATM   30  C8  UNL     1       2.685  -7.336  42.153  1.00  0.00     0.186 C 
BRANCH  30  31
HETATM   31  C9  UNL     1       3.203  -8.411  43.032  1.00  0.00     0.070 A 
HETATM   32  C10 UNL     1       2.468  -9.080  43.955  1.00  0.00     0.036 A 
HETATM   33  C11 UNL     1       3.343  -9.986  44.553  1.00  0.00     0.027 A 
HETATM   34  C12 UNL     1       4.571  -9.771  43.910  1.00  0.00     0.142 A 
HETATM   35  O7  UNL     1       4.430  -8.833  43.027  1.00  0.00    -0.325 OA
ENDBRANCH  30  31
ENDBRANCH  28  30
ENDBRANCH   6  28
TORSDOF 9
ENDMDL
