MODEL 10
REMARK VINA RESULT: -8.442889258      1.225      2.063
REMARK  9 active torsions:
REMARK  status: ('A' for Active; 'I' for Inactive)
REMARK    1  A    between atoms: O1_1  and  C1_3 
REMARK    2  A    between atoms: C2_4  and  C3_5 
REMARK    3  A    between atoms: C3_5  and  O2_6 
REMARK    4  A    between atoms: O2_6  and  P1_7 
REMARK    5  A    between atoms: C4_12  and  N1_13 
REMARK    6  A    between atoms: C7_18  and  N3_19 
REMARK    7  A    between atoms: N3_19  and  C8_21 
REMARK    8  A    between atoms: C8_21  and  C9_22 
REMARK    9  A    between atoms: C15_33  and  O8_34 
ROOT
HETATM    1  N1  UNL     1       4.024  -2.203  40.444  1.00  0.00    -0.297 N 
HETATM    2  C5  UNL     1       2.758  -2.200  40.890  1.00  0.00     0.188 A 
HETATM    3  N2  UNL     1       2.489  -3.442  41.411  1.00  0.00    -0.346 N 
ATOM      4  H2  UNL     1       1.604  -3.731  41.826  1.00  0.00     0.167 HD
HETATM    5  C6  UNL     1       3.577  -4.209  41.285  1.00  0.00     0.122 A 
HETATM    6  C7  UNL     1       3.851  -5.508  41.636  1.00  0.00     0.133 A 
HETATM    7  N4  UNL     1       5.072  -6.008  41.364  1.00  0.00    -0.337 N 
ATOM      8  H4  UNL     1       5.287  -6.971  41.618  1.00  0.00     0.168 HD
HETATM    9  C13 UNL     1       6.013  -5.253  40.763  1.00  0.00     0.183 A 
HETATM   10  N5  UNL     1       5.735  -3.994  40.438  1.00  0.00    -0.336 N 
ATOM     11  H5  UNL     1       6.463  -3.435  39.993  1.00  0.00     0.168 HD
HETATM   12  C14 UNL     1       4.523  -3.419  40.672  1.00  0.00     0.142 A 
ENDROOT
BRANCH   1  13
HETATM   13  C4  UNL     1       4.846  -1.134  39.931  1.00  0.00     0.262 C 
HETATM   14  O6  UNL     1       3.846  -0.150  39.612  1.00  0.00    -0.353 OA
HETATM   15  C2  UNL     1       4.174   0.266  38.392  1.00  0.00     0.180 C 
HETATM   16  C1  UNL     1       4.590  -0.980  37.631  1.00  0.00     0.182 C 
HETATM   17  C15 UNL     1       5.551  -1.553  38.699  1.00  0.00     0.198 C 
BRANCH  15  18
HETATM   18  C3  UNL     1       3.317   1.200  37.640  1.00  0.00     0.217 C 
BRANCH  18  19
HETATM   19  O2  UNL     1       2.862   2.159  38.576  1.00  0.00    -0.280 OA
BRANCH  19  20
HETATM   20  P1  UNL     1       1.238   2.431  38.332  1.00  0.00     0.422 P 
HETATM   21  O3  UNL     1       1.630   3.905  37.967  1.00  0.00    -0.617 OA
HETATM   22  O4  UNL     1       0.769   2.045  36.775  1.00  0.00    -0.617 OA
HETATM   23  O5  UNL     1       0.909   1.075  38.871  1.00  0.00    -0.617 OA
ENDBRANCH  19  20
ENDBRANCH  18  19
ENDBRANCH  15  18
BRANCH  16  24
HETATM   24  O1  UNL     1       5.289  -0.624  36.470  1.00  0.00    -0.390 OA
ATOM     25  H1  UNL     1       5.207  -1.309  35.817  1.00  0.00     0.210 HD
ENDBRANCH  16  24
BRANCH  17  26
HETATM   26  O8  UNL     1       6.735  -0.781  38.571  1.00  0.00    -0.388 OA
ATOM     27  H8  UNL     1       7.277  -1.048  39.304  1.00  0.00     0.210 HD
ENDBRANCH  17  26
ENDBRANCH   1  13
BRANCH   6  28
HETATM   28  N3  UNL     1       2.889  -6.346  42.241  1.00  0.00    -0.368 N 
ATOM     29  H3  UNL     1       1.958  -5.992  42.461  1.00  0.00     0.161 HD
BRANCH  28  30
HETATM   30  C8  UNL     1       3.243  -7.704  42.542  1.00  0.00     0.186 C 
BRANCH  30  31
HETATM   31  C9  UNL     1       4.006  -7.685  43.813  1.00  0.00     0.070 A 
HETATM   32  C10 UNL     1       3.456  -7.565  45.046  1.00  0.00     0.036 A 
HETATM   33  C11 UNL     1       4.524  -7.585  45.943  1.00  0.00     0.027 A 
HETATM   34  C12 UNL     1       5.662  -7.723  45.135  1.00  0.00     0.142 A 
HETATM   35  O7  UNL     1       5.298  -7.775  43.892  1.00  0.00    -0.325 OA
ENDBRANCH  30  31
ENDBRANCH  28  30
ENDBRANCH   6  28
TORSDOF 9
ENDMDL
