MODEL 4
REMARK VINA RESULT: -8.746677224      1.426      2.332
REMARK  9 active torsions:
REMARK  status: ('A' for Active; 'I' for Inactive)
REMARK    1  A    between atoms: O1_1  and  C1_3 
REMARK    2  A    between atoms: C2_4  and  C3_5 
REMARK    3  A    between atoms: C3_5  and  O2_6 
REMARK    4  A    between atoms: O2_6  and  P1_7 
REMARK    5  A    between atoms: C4_12  and  N1_13 
REMARK    6  A    between atoms: C7_18  and  N3_19 
REMARK    7  A    between atoms: N3_19  and  C8_21 
REMARK    8  A    between atoms: C8_21  and  C9_22 
REMARK    9  A    between atoms: C15_33  and  O8_34 
ROOT
HETATM    1  N1  UNL     1       4.813  -2.624  39.939  1.00  0.00    -0.297 N 
HETATM    2  C5  UNL     1       3.572  -2.353  40.376  1.00  0.00     0.188 A 
HETATM    3  N2  UNL     1       3.173  -3.387  41.185  1.00  0.00    -0.346 N 
ATOM      4  H2  UNL     1       2.274  -3.452  41.662  1.00  0.00     0.167 HD
HETATM    5  C6  UNL     1       4.153  -4.293  41.247  1.00  0.00     0.122 A 
HETATM    6  C7  UNL     1       4.279  -5.492  41.905  1.00  0.00     0.133 A 
HETATM    7  N4  UNL     1       5.420  -6.193  41.759  1.00  0.00    -0.337 N 
ATOM      8  H4  UNL     1       5.525  -7.085  42.240  1.00  0.00     0.168 HD
HETATM    9  C13 UNL     1       6.424  -5.732  40.987  1.00  0.00     0.183 A 
HETATM   10  N5  UNL     1       6.291  -4.565  40.365  1.00  0.00    -0.336 N 
ATOM     11  H5  UNL     1       7.066  -4.227  39.794  1.00  0.00     0.168 HD
HETATM   12  C14 UNL     1       5.167  -3.801  40.456  1.00  0.00     0.142 A 
ENDROOT
BRANCH   1  13
HETATM   13  C4  UNL     1       5.740  -1.824  39.176  1.00  0.00     0.262 C 
HETATM   14  O6  UNL     1       5.049  -0.563  39.142  1.00  0.00    -0.353 OA
HETATM   15  C2  UNL     1       5.121  -0.185  37.868  1.00  0.00     0.180 C 
HETATM   16  C1  UNL     1       4.889  -1.444  37.052  1.00  0.00     0.182 C 
HETATM   17  C15 UNL     1       5.890  -2.354  37.802  1.00  0.00     0.198 C 
BRANCH  15  18
HETATM   18  C3  UNL     1       4.418   1.015  37.379  1.00  0.00     0.217 C 
BRANCH  18  19
HETATM   19  O2  UNL     1       3.655   1.497  38.470  1.00  0.00    -0.280 OA
BRANCH  19  20
HETATM   20  P1  UNL     1       2.067   1.656  37.997  1.00  0.00     0.422 P 
HETATM   21  O3  UNL     1       1.699   1.581  39.520  1.00  0.00    -0.617 OA
HETATM   22  O4  UNL     1       1.620   3.259  37.847  1.00  0.00    -0.617 OA
HETATM   23  O5  UNL     1       2.461   1.530  36.560  1.00  0.00    -0.617 OA
ENDBRANCH  19  20
ENDBRANCH  18  19
ENDBRANCH  15  18
BRANCH  16  24
HETATM   24  O1  UNL     1       5.295  -1.240  35.727  1.00  0.00    -0.390 OA
ATOM     25  H1  UNL     1       5.561  -0.337  35.603  1.00  0.00     0.210 HD
ENDBRANCH  16  24
BRANCH  17  26
HETATM   26  O8  UNL     1       7.164  -1.973  37.308  1.00  0.00    -0.388 OA
ATOM     27  H8  UNL     1       7.783  -2.486  37.814  1.00  0.00     0.210 HD
ENDBRANCH  17  26
ENDBRANCH   1  13
BRANCH   6  28
HETATM   28  N3  UNL     1       3.244  -6.029  42.701  1.00  0.00    -0.368 N 
ATOM     29  H3  UNL     1       2.476  -5.439  43.020  1.00  0.00     0.161 HD
BRANCH  28  30
HETATM   30  C8  UNL     1       3.291  -7.419  43.054  1.00  0.00     0.186 C 
BRANCH  30  31
HETATM   31  C9  UNL     1       3.994  -7.516  44.355  1.00  0.00     0.070 A 
HETATM   32  C10 UNL     1       3.392  -7.451  45.569  1.00  0.00     0.036 A 
HETATM   33  C11 UNL     1       4.415  -7.576  46.508  1.00  0.00     0.027 A 
HETATM   34  C12 UNL     1       5.583  -7.712  45.744  1.00  0.00     0.142 A 
HETATM   35  O7  UNL     1       5.276  -7.669  44.486  1.00  0.00    -0.325 OA
ENDBRANCH  30  31
ENDBRANCH  28  30
ENDBRANCH   6  28
TORSDOF 9
ENDMDL
