MODEL 3
REMARK VINA RESULT: -8.541475770      1.913      2.275
REMARK  5 active torsions:
REMARK  status: ('A' for Active; 'I' for Inactive)
REMARK    1  A    between atoms: C1_2  and  C2_4 
REMARK    2  A    between atoms: C2_4  and  C3_5 
REMARK    3  A    between atoms: N2_8  and  C4_9 
REMARK    4  A    between atoms: C4_9  and  C5_10 
REMARK    5  A    between atoms: C8_15  and  C9_16 
ROOT
HETATM    1  C3  UNL     1      -3.967  12.612   0.047  1.00  0.00     0.047 A 
HETATM    2  N1  UNL     1      -5.022  13.252   0.574  1.00  0.00    -0.298 N 
ATOM      3  H1  UNL     1      -5.646  12.735   1.194  1.00  0.00     0.187 HD
HETATM    4  N2  UNL     1      -5.292  14.544   0.320  1.00  0.00    -0.251 N 
HETATM    5  C13 UNL     1      -4.545  15.305  -0.475  1.00  0.00     0.273 A 
HETATM    6  O3  UNL     1      -4.761  16.497  -0.734  1.00  0.00    -0.266 OA
HETATM    7  C14 UNL     1      -3.424  14.683  -1.055  1.00  0.00     0.046 A 
HETATM    8  C15 UNL     1      -2.577  15.379  -1.897  1.00  0.00     0.018 A 
HETATM    9  C16 UNL     1      -1.487  14.744  -2.451  1.00  0.00     0.001 A 
HETATM   10  C17 UNL     1      -1.236  13.407  -2.168  1.00  0.00     0.001 A 
HETATM   11  C18 UNL     1      -2.070  12.701  -1.334  1.00  0.00     0.014 A 
HETATM   12  C19 UNL     1      -3.153  13.354  -0.790  1.00  0.00     0.004 A 
ENDROOT
BRANCH   4  13
HETATM   13  C4  UNL     1      -6.447  15.063   0.973  1.00  0.00     0.217 C 
BRANCH  13  14
HETATM   14  C5  UNL     1      -7.627  14.187   0.718  1.00  0.00     0.072 A 
HETATM   15  N3  UNL     1      -8.057  13.174   1.427  1.00  0.00    -0.351 N 
HETATM   16  C6  UNL     1      -9.102  12.492   1.063  1.00  0.00     0.051 A 
ATOM     17  H3  UNL     1      -7.563  12.916   2.281  1.00  0.00     0.166 HD
HETATM   18  C7  UNL     1      -9.656  11.391   1.753  1.00  0.00     0.047 A 
HETATM   19  C12 UNL     1      -9.730  12.878  -0.093  1.00  0.00     0.033 A 
HETATM   20  C8  UNL     1     -10.775  10.774   1.244  1.00  0.00     0.050 A 
HETATM   21  C10 UNL     1     -11.407  11.153   0.085  1.00  0.00     0.017 A 
HETATM   22  C11 UNL     1     -10.867  12.227  -0.588  1.00  0.00     0.022 A 
HETATM   23  S1  UNL     1      -8.763  14.214  -0.581  1.00  0.00    -0.073 SA
BRANCH  20  24
HETATM   24  C9  UNL     1     -11.331   9.616   2.032  1.00  0.00     0.417 C 
HETATM   25  F1  UNL     1     -12.268   8.990   1.239  1.00  0.00    -0.166 F 
HETATM   26  F2  UNL     1     -11.923  10.089   3.173  1.00  0.00    -0.166 F 
HETATM   27  F3  UNL     1     -10.281   8.729   2.315  1.00  0.00    -0.166 F 
ENDBRANCH  20  24
ENDBRANCH  13  14
ENDBRANCH   4  13
BRANCH   1  28
HETATM   28  C2  UNL     1      -3.686  11.194   0.348  1.00  0.00     0.172 C 
BRANCH  28  29
HETATM   29  C1  UNL     1      -4.747  10.584   1.190  1.00  0.00     0.178 C 
HETATM   30  O1  UNL     1      -4.391  10.031   2.265  1.00  0.00    -0.648 OA
HETATM   31  O2  UNL     1      -6.055  10.651   0.768  1.00  0.00    -0.648 OA
ENDBRANCH  28  29
ENDBRANCH   1  28
TORSDOF 5
ENDMDL
