MODEL 1
REMARK VINA RESULT: -8.683064458      0.000      0.000
REMARK  5 active torsions:
REMARK  status: ('A' for Active; 'I' for Inactive)
REMARK    1  A    between atoms: C1_2  and  C2_4 
REMARK    2  A    between atoms: C2_4  and  C3_5 
REMARK    3  A    between atoms: N2_8  and  C4_9 
REMARK    4  A    between atoms: C4_9  and  C5_10 
REMARK    5  A    between atoms: C8_15  and  C9_16 
ROOT
HETATM    1  C3  UNL     1      -2.630  12.965  -0.399  1.00  0.00     0.047 A 
HETATM    2  N1  UNL     1      -3.461  13.321   0.592  1.00  0.00    -0.298 N 
ATOM      3  H1  UNL     1      -3.485  12.751   1.437  1.00  0.00     0.187 HD
HETATM    4  N2  UNL     1      -4.263  14.399   0.520  1.00  0.00    -0.251 N 
HETATM    5  C13 UNL     1      -4.308  15.206  -0.536  1.00  0.00     0.273 A 
HETATM    6  O3  UNL     1      -5.033  16.206  -0.641  1.00  0.00    -0.266 OA
HETATM    7  C14 UNL     1      -3.456  14.878  -1.606  1.00  0.00     0.046 A 
HETATM    8  C15 UNL     1      -3.421  15.648  -2.753  1.00  0.00     0.018 A 
HETATM    9  C16 UNL     1      -2.576  15.302  -3.785  1.00  0.00     0.001 A 
HETATM   10  C17 UNL     1      -1.760  14.183  -3.678  1.00  0.00     0.001 A 
HETATM   11  C18 UNL     1      -1.785  13.406  -2.545  1.00  0.00     0.014 A 
HETATM   12  C19 UNL     1      -2.635  13.769  -1.525  1.00  0.00     0.004 A 
ENDROOT
BRANCH   4  13
HETATM   13  C4  UNL     1      -5.071  14.632   1.669  1.00  0.00     0.217 C 
BRANCH  13  14
HETATM   14  C5  UNL     1      -6.378  13.927   1.538  1.00  0.00     0.072 A 
HETATM   15  N3  UNL     1      -6.738  12.778   2.053  1.00  0.00    -0.351 N 
HETATM   16  C6  UNL     1      -7.920  12.282   1.833  1.00  0.00     0.051 A 
ATOM     17  H3  UNL     1      -6.080  12.263   2.637  1.00  0.00     0.166 HD
HETATM   18  C7  UNL     1      -8.415  11.061   2.341  1.00  0.00     0.047 A 
HETATM   19  C12 UNL     1      -8.768  13.012   1.041  1.00  0.00     0.033 A 
HETATM   20  C8  UNL     1      -9.696  10.672   2.025  1.00  0.00     0.050 A 
HETATM   21  C10 UNL     1     -10.549  11.396   1.230  1.00  0.00     0.017 A 
HETATM   22  C11 UNL     1     -10.067  12.588   0.733  1.00  0.00     0.022 A 
HETATM   23  S1  UNL     1      -7.795  14.380   0.664  1.00  0.00    -0.073 SA
BRANCH  20  24
HETATM   24  C9  UNL     1     -10.175   9.369   2.611  1.00  0.00     0.417 C 
HETATM   25  F1  UNL     1     -11.186   9.664   3.500  1.00  0.00    -0.166 F 
HETATM   26  F2  UNL     1      -9.139   8.758   3.265  1.00  0.00    -0.166 F 
HETATM   27  F3  UNL     1     -10.677   8.575   1.569  1.00  0.00    -0.166 F 
ENDBRANCH  20  24
ENDBRANCH  13  14
ENDBRANCH   4  13
BRANCH   1  28
HETATM   28  C2  UNL     1      -1.752  11.782  -0.293  1.00  0.00     0.172 C 
BRANCH  28  29
HETATM   29  C1  UNL     1      -0.570  12.045   0.569  1.00  0.00     0.178 C 
HETATM   30  O1  UNL     1      -0.702  12.891   1.494  1.00  0.00    -0.648 OA
HETATM   31  O2  UNL     1       0.599  11.364   0.324  1.00  0.00    -0.648 OA
ENDBRANCH  28  29
ENDBRANCH   1  28
TORSDOF 5
ENDMDL
