MODEL 2
REMARK VINA RESULT: -8.546350056      3.351      5.378
REMARK  5 active torsions:
REMARK  status: ('A' for Active; 'I' for Inactive)
REMARK    1  A    between atoms: C1_2  and  C2_4 
REMARK    2  A    between atoms: C2_4  and  C3_5 
REMARK    3  A    between atoms: N2_8  and  C4_9 
REMARK    4  A    between atoms: C4_9  and  C5_10 
REMARK    5  A    between atoms: C8_15  and  C9_16 
ROOT
HETATM    1  C3  UNL     1      -7.329  16.524  -0.400  1.00  0.00     0.047 A 
HETATM    2  N1  UNL     1      -6.927  15.252  -0.535  1.00  0.00    -0.298 N 
ATOM      3  H1  UNL     1      -7.293  14.704  -1.314  1.00  0.00     0.187 HD
HETATM    4  N2  UNL     1      -6.063  14.666   0.313  1.00  0.00    -0.251 N 
HETATM    5  C13 UNL     1      -5.531  15.290   1.360  1.00  0.00     0.273 A 
HETATM    6  O3  UNL     1      -4.733  14.786   2.164  1.00  0.00    -0.266 OA
HETATM    7  C14 UNL     1      -5.919  16.629   1.549  1.00  0.00     0.046 A 
HETATM    8  C15 UNL     1      -5.426  17.374   2.604  1.00  0.00     0.018 A 
HETATM    9  C16 UNL     1      -5.824  18.683   2.764  1.00  0.00     0.001 A 
HETATM   10  C17 UNL     1      -6.719  19.258   1.869  1.00  0.00     0.001 A 
HETATM   11  C18 UNL     1      -7.218  18.530   0.816  1.00  0.00     0.014 A 
HETATM   12  C19 UNL     1      -6.807  17.224   0.673  1.00  0.00     0.004 A 
ENDROOT
BRANCH   4  13
HETATM   13  C4  UNL     1      -5.740  13.312   0.012  1.00  0.00     0.217 C 
BRANCH  13  14
HETATM   14  C5  UNL     1      -6.734  12.390   0.631  1.00  0.00     0.072 A 
HETATM   15  N3  UNL     1      -7.911  12.038   0.177  1.00  0.00    -0.351 N 
HETATM   16  C6  UNL     1      -8.678  11.229   0.846  1.00  0.00     0.051 A 
ATOM     17  H3  UNL     1      -8.233  12.406  -0.718  1.00  0.00     0.166 HD
HETATM   18  C7  UNL     1      -9.956  10.778   0.450  1.00  0.00     0.047 A 
HETATM   19  C12 UNL     1      -8.201  10.762   2.044  1.00  0.00     0.033 A 
HETATM   20  C8  UNL     1     -10.646   9.911   1.265  1.00  0.00     0.050 A 
HETATM   21  C10 UNL     1     -10.176   9.443   2.468  1.00  0.00     0.017 A 
HETATM   22  C11 UNL     1      -8.929   9.883   2.855  1.00  0.00     0.022 A 
HETATM   23  S1  UNL     1      -6.663  11.529   2.125  1.00  0.00    -0.073 SA
BRANCH  20  24
HETATM   24  C9  UNL     1     -11.996   9.451   0.782  1.00  0.00     0.417 C 
HETATM   25  F1  UNL     1     -12.674  10.563   0.332  1.00  0.00    -0.166 F 
HETATM   26  F2  UNL     1     -12.677   8.876   1.822  1.00  0.00    -0.166 F 
HETATM   27  F3  UNL     1     -11.803   8.552  -0.278  1.00  0.00    -0.166 F 
ENDBRANCH  20  24
ENDBRANCH  13  14
ENDBRANCH   4  13
BRANCH   1  28
HETATM   28  C2  UNL     1      -8.273  17.149  -1.350  1.00  0.00     0.172 C 
BRANCH  28  29
HETATM   29  C1  UNL     1      -7.830  16.984  -2.759  1.00  0.00     0.178 C 
HETATM   30  O1  UNL     1      -6.592  17.031  -2.989  1.00  0.00    -0.648 OA
HETATM   31  O2  UNL     1      -8.778  16.790  -3.737  1.00  0.00    -0.648 OA
ENDBRANCH  28  29
ENDBRANCH   1  28
TORSDOF 5
ENDMDL
