MODEL 1
REMARK VINA RESULT: -8.115432180      0.000      0.000
REMARK  4 active torsions:
REMARK  status: ('A' for Active; 'I' for Inactive)
REMARK    1  A    between atoms: O1_2  and  C2_3 
REMARK    2  A    between atoms: C8_9  and  C9_10 
REMARK    3  A    between atoms: C9_10  and  C10_11 
REMARK       I    between atoms: N1_16  and  C13_17 
REMARK    4  A    between atoms: C13_17  and  C14_19 
ROOT
HETATM    1  C2  UNL     1      20.193  12.541  60.578  1.00  0.00     0.069 A 
HETATM    2  C3  UNL     1      21.338  12.708  61.310  1.00  0.00     0.039 A 
HETATM    3  C4  UNL     1      21.509  12.096  62.547  1.00  0.00     0.034 A 
HETATM    4  C5  UNL     1      20.524  11.289  63.089  1.00  0.00     0.054 A 
HETATM    5  C6  UNL     1      19.373  11.110  62.372  1.00  0.00     0.006 A 
HETATM    6  C7  UNL     1      19.224  11.739  61.127  1.00  0.00     0.051 A 
HETATM    7  C8  UNL     1      18.510  10.270  63.108  1.00  0.00     0.006 A 
HETATM    8  C11 UNL     1      19.203   9.982  64.253  1.00  0.00     0.028 A 
HETATM    9  C12 UNL     1      18.643   9.111  65.345  1.00  0.00     0.070 C 
HETATM   10  N1  UNL     1      20.418  10.589  64.255  1.00  0.00    -0.281 N 
HETATM   11  C13 UNL     1      21.381  10.553  65.259  1.00  0.00     0.263 C 
HETATM   12  O4  UNL     1      21.114   9.898  66.338  1.00  0.00    -0.267 OA
ENDROOT
BRANCH  11  13
HETATM   13  C14 UNL     1      22.678  11.150  65.295  1.00  0.00     0.033 A 
HETATM   14  C15 UNL     1      22.910  12.388  65.822  1.00  0.00     0.018 A 
HETATM   15  C16 UNL     1      24.187  12.896  65.787  1.00  0.00     0.025 A 
HETATM   16  C17 UNL     1      25.228  12.189  65.239  1.00  0.00     0.034 A 
HETATM   17 CL1  UNL     1      26.845  12.876  65.210  1.00  0.00    -0.084 Cl
HETATM   18  C18 UNL     1      25.031  10.931  64.699  1.00  0.00     0.025 A 
HETATM   19  C19 UNL     1      23.744  10.440  64.742  1.00  0.00     0.018 A 
ENDBRANCH  11  13
BRANCH   7  20
HETATM   20  C9  UNL     1      17.194   9.967  62.565  1.00  0.00     0.098 C 
BRANCH  20  21
HETATM   21  C10 UNL     1      16.030  10.704  62.944  1.00  0.00     0.199 C 
HETATM   22  O2  UNL     1      16.064  11.765  63.593  1.00  0.00    -0.644 OA
HETATM   23  O3  UNL     1      14.762  10.224  62.579  1.00  0.00    -0.644 OA
ENDBRANCH  20  21
ENDBRANCH   7  20
BRANCH   1  24
HETATM   24  O1  UNL     1      20.091  13.167  59.378  1.00  0.00    -0.356 OA
HETATM   25  C1  UNL     1      20.605  12.779  58.145  1.00  0.00     0.210 C 
ENDBRANCH   1  24
TORSDOF 4
ENDMDL
