MODEL 2
REMARK VINA RESULT: -7.954669026      3.947      7.002
REMARK  4 active torsions:
REMARK  status: ('A' for Active; 'I' for Inactive)
REMARK    1  A    between atoms: O1_2  and  C2_3 
REMARK    2  A    between atoms: C8_9  and  C9_10 
REMARK    3  A    between atoms: C9_10  and  C10_11 
REMARK       I    between atoms: N1_16  and  C13_17 
REMARK    4  A    between atoms: C13_17  and  C14_19 
ROOT
HETATM    1  C2  UNL     1      21.860  16.315  64.052  1.00  0.00     0.069 A 
HETATM    2  C3  UNL     1      20.842  15.485  63.669  1.00  0.00     0.039 A 
HETATM    3  C4  UNL     1      20.970  14.101  63.719  1.00  0.00     0.034 A 
HETATM    4  C5  UNL     1      22.139  13.506  64.161  1.00  0.00     0.054 A 
HETATM    5  C6  UNL     1      23.168  14.319  64.548  1.00  0.00     0.006 A 
HETATM    6  C7  UNL     1      23.014  15.712  64.488  1.00  0.00     0.051 A 
HETATM    7  C8  UNL     1      24.255  13.512  64.947  1.00  0.00     0.006 A 
HETATM    8  C11 UNL     1      23.812  12.228  64.776  1.00  0.00     0.028 A 
HETATM    9  C12 UNL     1      24.667  11.026  65.073  1.00  0.00     0.070 C 
HETATM   10  N1  UNL     1      22.538  12.209  64.302  1.00  0.00    -0.281 N 
HETATM   11  C13 UNL     1      21.772  11.094  63.978  1.00  0.00     0.263 C 
HETATM   12  O4  UNL     1      22.308   9.927  64.104  1.00  0.00    -0.267 OA
ENDROOT
BRANCH  11  13
HETATM   13  C14 UNL     1      20.426  11.023  63.505  1.00  0.00     0.033 A 
HETATM   14  C15 UNL     1      20.096  11.152  62.187  1.00  0.00     0.018 A 
HETATM   15  C16 UNL     1      18.770  11.100  61.826  1.00  0.00     0.025 A 
HETATM   16  C17 UNL     1      17.777  10.921  62.757  1.00  0.00     0.034 A 
HETATM   17 CL1  UNL     1      16.095  10.865  62.256  1.00  0.00    -0.084 Cl
HETATM   18  C18 UNL     1      18.075  10.785  64.101  1.00  0.00     0.025 A 
HETATM   19  C19 UNL     1      19.409  10.841  64.443  1.00  0.00     0.018 A 
ENDBRANCH  11  13
BRANCH   7  20
HETATM   20  C9  UNL     1      25.491  14.155  65.364  1.00  0.00     0.098 C 
BRANCH  20  21
HETATM   21  C10 UNL     1      26.023  13.993  66.681  1.00  0.00     0.199 C 
HETATM   22  O2  UNL     1      27.238  14.025  66.945  1.00  0.00    -0.644 OA
HETATM   23  O3  UNL     1      25.146  13.779  67.756  1.00  0.00    -0.644 OA
ENDBRANCH  20  21
ENDBRANCH   7  20
BRANCH   1  24
HETATM   24  O1  UNL     1      21.668  17.657  63.979  1.00  0.00    -0.356 OA
HETATM   25  C1  UNL     1      22.422  18.679  64.548  1.00  0.00     0.210 C 
ENDBRANCH   1  24
TORSDOF 4
ENDMDL
