MODEL 15
REMARK VINA RESULT: -6.641754180      3.802      6.230
REMARK  4 active torsions:
REMARK  status: ('A' for Active; 'I' for Inactive)
REMARK    1  A    between atoms: O1_2  and  C2_3 
REMARK    2  A    between atoms: C8_9  and  C9_10 
REMARK    3  A    between atoms: C9_10  and  C10_11 
REMARK       I    between atoms: N1_16  and  C13_17 
REMARK    4  A    between atoms: C13_17  and  C14_19 
ROOT
HETATM    1  C2  UNL     1      20.653  13.032  58.257  1.00  0.00     0.069 A 
HETATM    2  C3  UNL     1      20.005  12.100  59.021  1.00  0.00     0.039 A 
HETATM    3  C4  UNL     1      19.959  12.198  60.408  1.00  0.00     0.034 A 
HETATM    4  C5  UNL     1      20.571  13.246  61.072  1.00  0.00     0.054 A 
HETATM    5  C6  UNL     1      21.224  14.187  60.326  1.00  0.00     0.006 A 
HETATM    6  C7  UNL     1      21.256  14.067  58.928  1.00  0.00     0.051 A 
HETATM    7  C8  UNL     1      21.779  15.149  61.196  1.00  0.00     0.006 A 
HETATM    8  C11 UNL     1      21.422  14.726  62.449  1.00  0.00     0.028 A 
HETATM    9  C12 UNL     1      21.820  15.462  63.700  1.00  0.00     0.070 C 
HETATM   10  N1  UNL     1      20.694  13.581  62.389  1.00  0.00    -0.281 N 
HETATM   11  C13 UNL     1      20.185  12.844  63.455  1.00  0.00     0.263 C 
HETATM   12  O4  UNL     1      20.437  13.250  64.653  1.00  0.00    -0.267 OA
ENDROOT
BRANCH  11  13
HETATM   13  C14 UNL     1      19.395  11.655  63.441  1.00  0.00     0.033 A 
HETATM   14  C15 UNL     1      19.926  10.409  63.621  1.00  0.00     0.018 A 
HETATM   15  C16 UNL     1      19.092   9.317  63.563  1.00  0.00     0.025 A 
HETATM   16  C17 UNL     1      17.746   9.451  63.330  1.00  0.00     0.034 A 
HETATM   17 CL1  UNL     1      16.716   8.030  63.258  1.00  0.00    -0.084 Cl
HETATM   18  C18 UNL     1      17.174  10.697  63.146  1.00  0.00     0.025 A 
HETATM   19  C19 UNL     1      18.025  11.778  63.206  1.00  0.00     0.018 A 
ENDBRANCH  11  13
BRANCH   7  20
HETATM   20  C9  UNL     1      22.565  16.236  60.634  1.00  0.00     0.098 C 
BRANCH  20  21
HETATM   21  C10 UNL     1      21.995  17.517  60.355  1.00  0.00     0.199 C 
HETATM   22  O2  UNL     1      21.702  17.909  59.212  1.00  0.00    -0.644 OA
HETATM   23  O3  UNL     1      21.745  18.405  61.414  1.00  0.00    -0.644 OA
ENDBRANCH  20  21
ENDBRANCH   7  20
BRANCH   1  24
HETATM   24  O1  UNL     1      20.658  12.877  56.908  1.00  0.00    -0.356 OA
HETATM   25  C1  UNL     1      20.647  11.701  56.165  1.00  0.00     0.210 C 
ENDBRANCH   1  24
TORSDOF 4
ENDMDL
