MODEL 13
REMARK VINA RESULT: -6.677920454      3.821      6.288
REMARK  4 active torsions:
REMARK  status: ('A' for Active; 'I' for Inactive)
REMARK    1  A    between atoms: O1_2  and  C2_3 
REMARK    2  A    between atoms: C8_9  and  C9_10 
REMARK    3  A    between atoms: C9_10  and  C10_11 
REMARK       I    between atoms: N1_16  and  C13_17 
REMARK    4  A    between atoms: C13_17  and  C14_19 
ROOT
HETATM    1  C2  UNL     1      20.510  13.056  57.722  1.00  0.00     0.069 A 
HETATM    2  C3  UNL     1      20.135  12.127  58.654  1.00  0.00     0.039 A 
HETATM    3  C4  UNL     1      19.990  12.457  59.997  1.00  0.00     0.034 A 
HETATM    4  C5  UNL     1      20.220  13.745  60.446  1.00  0.00     0.054 A 
HETATM    5  C6  UNL     1      20.596  14.688  59.530  1.00  0.00     0.006 A 
HETATM    6  C7  UNL     1      20.736  14.331  58.181  1.00  0.00     0.051 A 
HETATM    7  C8  UNL     1      20.787  15.916  60.199  1.00  0.00     0.006 A 
HETATM    8  C11 UNL     1      20.509  15.641  61.511  1.00  0.00     0.028 A 
HETATM    9  C12 UNL     1      20.600  16.679  62.597  1.00  0.00     0.070 C 
HETATM   10  N1  UNL     1      20.166  14.336  61.675  1.00  0.00    -0.281 N 
HETATM   11  C13 UNL     1      19.850  13.686  62.865  1.00  0.00     0.263 C 
HETATM   12  O4  UNL     1      19.904  14.362  63.962  1.00  0.00    -0.267 OA
ENDROOT
BRANCH  11  13
HETATM   13  C14 UNL     1      19.459  12.331  63.082  1.00  0.00     0.033 A 
HETATM   14  C15 UNL     1      20.354  11.334  63.350  1.00  0.00     0.018 A 
HETATM   15  C16 UNL     1      19.889  10.051  63.517  1.00  0.00     0.025 A 
HETATM   16  C17 UNL     1      18.554   9.751  63.421  1.00  0.00     0.034 A 
HETATM   17 CL1  UNL     1      18.001   8.098  63.636  1.00  0.00    -0.084 Cl
HETATM   18  C18 UNL     1      17.618  10.735  63.153  1.00  0.00     0.025 A 
HETATM   19  C19 UNL     1      18.103  12.014  62.988  1.00  0.00     0.018 A 
ENDBRANCH  11  13
BRANCH   7  20
HETATM   20  C9  UNL     1      21.234  17.071  59.435  1.00  0.00     0.098 C 
BRANCH  20  21
HETATM   21  C10 UNL     1      20.334  18.101  59.022  1.00  0.00     0.199 C 
HETATM   22  O2  UNL     1      20.631  18.993  58.208  1.00  0.00    -0.644 OA
HETATM   23  O3  UNL     1      19.035  18.134  59.554  1.00  0.00    -0.644 OA
ENDBRANCH  20  21
ENDBRANCH   7  20
BRANCH   1  24
HETATM   24  O1  UNL     1      20.632  12.667  56.428  1.00  0.00    -0.356 OA
HETATM   25  C1  UNL     1      20.588  11.382  55.894  1.00  0.00     0.210 C 
ENDBRANCH   1  24
TORSDOF 4
ENDMDL
