MODEL 3
REMARK VINA RESULT: -7.951037230      0.172      1.162
REMARK  4 active torsions:
REMARK  status: ('A' for Active; 'I' for Inactive)
REMARK    1  A    between atoms: O1_2  and  C2_3 
REMARK    2  A    between atoms: C8_9  and  C9_10 
REMARK    3  A    between atoms: C9_10  and  C10_11 
REMARK       I    between atoms: N1_16  and  C13_17 
REMARK    4  A    between atoms: C13_17  and  C14_19 
ROOT
HETATM    1  C2  UNL     1      20.166  12.530  60.455  1.00  0.00     0.069 A 
HETATM    2  C3  UNL     1      21.314  12.663  61.189  1.00  0.00     0.039 A 
HETATM    3  C4  UNL     1      21.473  12.030  62.417  1.00  0.00     0.034 A 
HETATM    4  C5  UNL     1      20.472  11.236  62.948  1.00  0.00     0.054 A 
HETATM    5  C6  UNL     1      19.317  11.091  62.230  1.00  0.00     0.006 A 
HETATM    6  C7  UNL     1      19.180  11.740  60.994  1.00  0.00     0.051 A 
HETATM    7  C8  UNL     1      18.437  10.258  62.954  1.00  0.00     0.006 A 
HETATM    8  C11 UNL     1      19.125   9.939  64.094  1.00  0.00     0.028 A 
HETATM    9  C12 UNL     1      18.548   9.065  65.175  1.00  0.00     0.070 C 
HETATM   10  N1  UNL     1      20.353  10.521  64.104  1.00  0.00    -0.281 N 
HETATM   11  C13 UNL     1      21.315  10.451  65.107  1.00  0.00     0.263 C 
HETATM   12  O4  UNL     1      21.035   9.787  66.176  1.00  0.00    -0.267 OA
ENDROOT
BRANCH  11  13
HETATM   13  C14 UNL     1      22.624  11.021  65.150  1.00  0.00     0.033 A 
HETATM   14  C15 UNL     1      23.727  10.385  64.655  1.00  0.00     0.018 A 
HETATM   15  C16 UNL     1      24.952  10.998  64.767  1.00  0.00     0.025 A 
HETATM   16  C17 UNL     1      25.091  12.227  65.360  1.00  0.00     0.034 A 
HETATM   17 CL1  UNL     1      26.676  12.974  65.488  1.00  0.00    -0.084 Cl
HETATM   18  C18 UNL     1      23.996  12.901  65.871  1.00  0.00     0.025 A 
HETATM   19  C19 UNL     1      22.777  12.271  65.751  1.00  0.00     0.018 A 
ENDBRANCH  11  13
BRANCH   7  20
HETATM   20  C9  UNL     1      17.116   9.989  62.408  1.00  0.00     0.098 C 
BRANCH  20  21
HETATM   21  C10 UNL     1      15.943  10.635  62.909  1.00  0.00     0.199 C 
HETATM   22  O2  UNL     1      14.785  10.256  62.660  1.00  0.00    -0.644 OA
HETATM   23  O3  UNL     1      16.078  11.767  63.729  1.00  0.00    -0.644 OA
ENDBRANCH  20  21
ENDBRANCH   7  20
BRANCH   1  24
HETATM   24  O1  UNL     1      20.076  13.175  59.265  1.00  0.00    -0.356 OA
HETATM   25  C1  UNL     1      20.557  12.780  58.020  1.00  0.00     0.210 C 
ENDBRANCH   1  24
TORSDOF 4
ENDMDL
