MODEL 7
REMARK VINA RESULT: -4.926867089      7.127      7.989
REMARK  3 active torsions:
REMARK  status: ('A' for Active; 'I' for Inactive)
REMARK    1  A    between atoms: N1_1  and  S1_4 
REMARK    2  A    between atoms: S1_4  and  C1_7 
REMARK    3  A    between atoms: C4_12  and  C5_13 
ROOT
HETATM    1  C1  UNL     1      22.390   5.946   9.939  1.00  0.00     0.105 A 
HETATM    2  C2  UNL     1      23.482   6.252  10.656  1.00  0.00     0.058 A 
HETATM    3  C3  UNL     1      23.581   5.721  11.913  1.00  0.00     0.077 A 
HETATM    4 CL1  UNL     1      24.869   5.919  13.109  1.00  0.00    -0.076 Cl
HETATM    5  S2  UNL     1      22.147   4.813  12.056  1.00  0.00    -0.070 SA
HETATM    6  C4  UNL     1      21.466   5.129  10.526  1.00  0.00     0.106 A 
ENDROOT
BRANCH   1   7
HETATM    7  S1  UNL     1      22.106   6.549   8.290  1.00  0.00     0.258 S 
HETATM    8  O1  UNL     1      20.819   7.338   8.297  1.00  0.00    -0.201 OA
HETATM    9  O2  UNL     1      23.254   7.422   7.870  1.00  0.00    -0.201 OA
BRANCH   7  10
HETATM   10  N1  UNL     1      22.013   5.251   7.162  1.00  0.00    -0.324 N 
ATOM     11  H12 UNL     1      22.711   4.510   7.088  1.00  0.00     0.169 HD
ATOM     12  H11 UNL     1      21.173   5.331   6.590  1.00  0.00     0.169 HD
ENDBRANCH   7  10
ENDBRANCH   1   7
BRANCH   6  13
HETATM   13  C5  UNL     1      20.191   4.628   9.996  1.00  0.00     0.218 C 
HETATM   14  O3  UNL     1      19.107   4.915  10.558  1.00  0.00    -0.643 OA
HETATM   15  O4  UNL     1      20.163   3.830   8.865  1.00  0.00    -0.643 OA
ENDBRANCH   6  13
TORSDOF 3
ENDMDL
