MODEL 1
REMARK VINA RESULT: -5.388544857      0.000      0.000
REMARK  3 active torsions:
REMARK  status: ('A' for Active; 'I' for Inactive)
REMARK    1  A    between atoms: N1_1  and  S1_4 
REMARK    2  A    between atoms: S1_4  and  C1_7 
REMARK    3  A    between atoms: C4_12  and  C5_13 
ROOT
HETATM    1  C1  UNL     1      24.228   8.032  16.078  1.00  0.00     0.105 A 
HETATM    2  C2  UNL     1      23.420   9.075  15.832  1.00  0.00     0.058 A 
HETATM    3  C3  UNL     1      22.782   9.643  16.900  1.00  0.00     0.077 A 
HETATM    4 CL1  UNL     1      21.662  11.012  16.931  1.00  0.00    -0.076 Cl
HETATM    5  S2  UNL     1      23.327   8.705  18.213  1.00  0.00    -0.070 SA
HETATM    6  C4  UNL     1      24.345   7.624  17.376  1.00  0.00     0.106 A 
ENDROOT
BRANCH   1   7
HETATM    7  S1  UNL     1      25.133   7.179  14.806  1.00  0.00     0.258 S 
HETATM    8  O1  UNL     1      24.718   7.752  13.472  1.00  0.00    -0.201 OA
HETATM    9  O2  UNL     1      26.607   7.372  15.023  1.00  0.00    -0.201 OA
BRANCH   7  10
HETATM   10  N1  UNL     1      24.827   5.485  14.858  1.00  0.00    -0.324 N 
ATOM     11  H12 UNL     1      24.072   5.027  14.348  1.00  0.00     0.169 HD
ATOM     12  H11 UNL     1      25.503   5.017  15.462  1.00  0.00     0.169 HD
ENDBRANCH   7  10
ENDBRANCH   1   7
BRANCH   6  13
HETATM   13  C5  UNL     1      25.142   6.529  17.944  1.00  0.00     0.218 C 
HETATM   14  O3  UNL     1      24.765   5.338  17.833  1.00  0.00    -0.643 OA
HETATM   15  O4  UNL     1      26.327   6.792  18.611  1.00  0.00    -0.643 OA
ENDBRANCH   6  13
TORSDOF 3
ENDMDL
