MODEL 5
REMARK VINA RESULT: -4.989807950      4.158      4.969
REMARK  3 active torsions:
REMARK  status: ('A' for Active; 'I' for Inactive)
REMARK    1  A    between atoms: N1_1  and  S1_4 
REMARK    2  A    between atoms: S1_4  and  C1_7 
REMARK    3  A    between atoms: C4_12  and  C5_13 
ROOT
HETATM    1  C1  UNL     1      23.428   6.143  13.450  1.00  0.00     0.105 A 
HETATM    2  C2  UNL     1      23.407   5.344  12.373  1.00  0.00     0.058 A 
HETATM    3  C3  UNL     1      22.204   5.161  11.748  1.00  0.00     0.077 A 
HETATM    4 CL1  UNL     1      21.824   4.186  10.322  1.00  0.00    -0.076 Cl
HETATM    5  S2  UNL     1      21.140   6.108  12.684  1.00  0.00    -0.070 SA
HETATM    6  C4  UNL     1      22.246   6.707  13.835  1.00  0.00     0.106 A 
ENDROOT
BRANCH   1   7
HETATM    7  S1  UNL     1      24.907   6.489  14.378  1.00  0.00     0.258 S 
HETATM    8  O1  UNL     1      26.063   5.809  13.685  1.00  0.00    -0.201 OA
HETATM    9  O2  UNL     1      25.129   7.974  14.434  1.00  0.00    -0.201 OA
BRANCH   7  10
HETATM   10  N1  UNL     1      24.764   5.934  16.002  1.00  0.00    -0.324 N 
ATOM     11  H12 UNL     1      23.873   5.763  16.469  1.00  0.00     0.169 HD
ATOM     12  H11 UNL     1      25.685   5.803  16.419  1.00  0.00     0.169 HD
ENDBRANCH   7  10
ENDBRANCH   1   7
BRANCH   6  13
HETATM   13  C5  UNL     1      21.961   7.611  14.958  1.00  0.00     0.218 C 
HETATM   14  O3  UNL     1      21.778   8.835  14.764  1.00  0.00    -0.643 OA
HETATM   15  O4  UNL     1      21.890   7.124  16.252  1.00  0.00    -0.643 OA
ENDBRANCH   6  13
TORSDOF 3
ENDMDL
