MODEL 2
REMARK VINA RESULT: -5.222617088      1.647      1.677
REMARK  3 active torsions:
REMARK  status: ('A' for Active; 'I' for Inactive)
REMARK    1  A    between atoms: N1_1  and  S1_4 
REMARK    2  A    between atoms: S1_4  and  C1_7 
REMARK    3  A    between atoms: C4_12  and  C5_13 
ROOT
HETATM    1  C1  UNL     1      23.543   7.095  15.176  1.00  0.00     0.105 A 
HETATM    2  C2  UNL     1      22.453   7.605  14.583  1.00  0.00     0.058 A 
HETATM    3  C3  UNL     1      21.449   8.059  15.393  1.00  0.00     0.077 A 
HETATM    4 CL1  UNL     1      19.896   8.781  14.948  1.00  0.00    -0.076 Cl
HETATM    5  S2  UNL     1      22.056   7.760  16.957  1.00  0.00    -0.070 SA
HETATM    6  C4  UNL     1      23.558   7.071  16.542  1.00  0.00     0.106 A 
ENDROOT
BRANCH   1   7
HETATM    7  S1  UNL     1      24.938   6.462  14.272  1.00  0.00     0.258 S 
HETATM    8  O1  UNL     1      24.695   6.711  12.803  1.00  0.00    -0.201 OA
HETATM    9  O2  UNL     1      26.188   7.163  14.724  1.00  0.00    -0.201 OA
BRANCH   7  10
HETATM   10  N1  UNL     1      25.161   4.781  14.572  1.00  0.00    -0.324 N 
ATOM     11  H12 UNL     1      25.057   4.348  15.490  1.00  0.00     0.169 HD
ATOM     12  H11 UNL     1      25.406   4.292  13.711  1.00  0.00     0.169 HD
ENDBRANCH   7  10
ENDBRANCH   1   7
BRANCH   6  13
HETATM   13  C5  UNL     1      24.597   6.580  17.457  1.00  0.00     0.218 C 
HETATM   14  O3  UNL     1      24.769   5.351  17.630  1.00  0.00    -0.643 OA
HETATM   15  O4  UNL     1      25.408   7.469  18.144  1.00  0.00    -0.643 OA
ENDBRANCH   6  13
TORSDOF 3
ENDMDL
