MODEL 18
REMARK VINA RESULT: -4.582913009      7.340      8.296
REMARK  3 active torsions:
REMARK  status: ('A' for Active; 'I' for Inactive)
REMARK    1  A    between atoms: N1_1  and  S1_4 
REMARK    2  A    between atoms: S1_4  and  C1_7 
REMARK    3  A    between atoms: C4_12  and  C5_13 
ROOT
HETATM    1  C1  UNL     1      22.474   6.182   9.663  1.00  0.00     0.105 A 
HETATM    2  C2  UNL     1      23.465   6.327  10.557  1.00  0.00     0.058 A 
HETATM    3  C3  UNL     1      23.356   5.641  11.735  1.00  0.00     0.077 A 
HETATM    4 CL1  UNL     1      24.466   5.606  13.112  1.00  0.00    -0.076 Cl
HETATM    5  S2  UNL     1      21.875   4.817  11.561  1.00  0.00    -0.070 SA
HETATM    6  C4  UNL     1      21.438   5.362  10.006  1.00  0.00     0.106 A 
ENDROOT
BRANCH   1   7
HETATM    7  S1  UNL     1      22.459   7.000   8.083  1.00  0.00     0.258 S 
HETATM    8  O1  UNL     1      23.747   7.775   7.946  1.00  0.00    -0.201 OA
HETATM    9  O2  UNL     1      22.344   5.976   6.989  1.00  0.00    -0.201 OA
BRANCH   7  10
HETATM   10  N1  UNL     1      21.102   8.051   7.942  1.00  0.00    -0.324 N 
ATOM     11  H12 UNL     1      20.987   8.735   7.194  1.00  0.00     0.169 HD
ATOM     12  H11 UNL     1      20.443   7.890   8.704  1.00  0.00     0.169 HD
ENDBRANCH   7  10
ENDBRANCH   1   7
BRANCH   6  13
HETATM   13  C5  UNL     1      20.229   5.014   9.247  1.00  0.00     0.218 C 
HETATM   14  O3  UNL     1      20.158   3.933   8.616  1.00  0.00    -0.643 OA
HETATM   15  O4  UNL     1      19.145   5.875   9.215  1.00  0.00    -0.643 OA
ENDBRANCH   6  13
TORSDOF 3
ENDMDL
