MODEL 1
REMARK VINA RESULT: -7.149579031      0.000      0.000
REMARK  5 active torsions:
REMARK  status: ('A' for Active; 'I' for Inactive)
REMARK    1  A    between atoms: C2_2  and  C3_3 
REMARK    2  A    between atoms: C3_3  and  S1_4 
REMARK    3  A    between atoms: S1_4  and  N1_7 
REMARK    4  A    between atoms: N1_7  and  C4_9 
REMARK    5  A    between atoms: C9_14  and  C10_15 
ROOT
HETATM    1  C4  UNL     1      78.696   6.379  26.062  1.00  0.00     0.059 A 
HETATM    2  C5  UNL     1      78.145   7.076  27.124  1.00  0.00     0.031 A 
HETATM    3  C6  UNL     1      78.429   6.708  28.420  1.00  0.00     0.002 A 
HETATM    4  C7  UNL     1      79.270   5.633  28.613  1.00  0.00     0.001 A 
HETATM    5  C8  UNL     1      79.820   4.937  27.561  1.00  0.00     0.021 A 
HETATM    6  C9  UNL     1      79.535   5.307  26.238  1.00  0.00     0.068 A 
ENDROOT
BRANCH   1   7
HETATM    7  N1  UNL     1      78.360   6.764  24.734  1.00  0.00    -0.284 N 
ATOM      8  H1  UNL     1      78.836   7.557  24.307  1.00  0.00     0.178 HD
BRANCH   7   9
HETATM    9  S1  UNL     1      77.174   5.920  23.844  1.00  0.00     0.231 S 
HETATM   10  O1  UNL     1      76.636   4.806  24.689  1.00  0.00    -0.206 OA
HETATM   11  O2  UNL     1      77.783   5.220  22.636  1.00  0.00    -0.206 OA
BRANCH   9  12
HETATM   12  C3  UNL     1      75.826   6.929  23.349  1.00  0.00     0.163 C 
BRANCH  12  13
HETATM   13  C2  UNL     1      74.751   6.210  22.605  1.00  0.00     0.012 C 
HETATM   14  C1  UNL     1      73.788   7.082  21.888  1.00  0.00     0.006 C 
ENDBRANCH  12  13
ENDBRANCH   9  12
ENDBRANCH   7   9
ENDBRANCH   1   7
BRANCH   6  15
HETATM   15  C10 UNL     1      80.156   4.557  25.161  1.00  0.00     0.211 C 
HETATM   16  O3  UNL     1      81.061   5.069  24.433  1.00  0.00    -0.644 OA
HETATM   17  O4  UNL     1      79.817   3.255  24.853  1.00  0.00    -0.644 OA
ENDBRANCH   6  15
TORSDOF 5
ENDMDL
