MODEL 11
REMARK VINA RESULT: -6.182159439      3.132      4.277
REMARK  5 active torsions:
REMARK  status: ('A' for Active; 'I' for Inactive)
REMARK    1  A    between atoms: C2_2  and  C3_3 
REMARK    2  A    between atoms: C3_3  and  S1_4 
REMARK    3  A    between atoms: S1_4  and  N1_7 
REMARK    4  A    between atoms: N1_7  and  C4_9 
REMARK    5  A    between atoms: C9_14  and  C10_15 
ROOT
HETATM    1  C4  UNL     1      79.088   7.408  27.905  1.00  0.00     0.059 A 
HETATM    2  C5  UNL     1      80.011   8.216  27.264  1.00  0.00     0.031 A 
HETATM    3  C6  UNL     1      80.753   9.129  27.979  1.00  0.00     0.002 A 
HETATM    4  C7  UNL     1      80.541   9.203  29.339  1.00  0.00     0.001 A 
HETATM    5  C8  UNL     1      79.625   8.402  29.982  1.00  0.00     0.021 A 
HETATM    6  C9  UNL     1      78.865   7.470  29.258  1.00  0.00     0.068 A 
ENDROOT
BRANCH   1   7
HETATM    7  N1  UNL     1      78.314   6.495  27.135  1.00  0.00    -0.284 N 
ATOM      8  H1  UNL     1      77.358   6.742  26.878  1.00  0.00     0.178 HD
BRANCH   7   9
HETATM    9  S1  UNL     1      78.956   4.997  26.632  1.00  0.00     0.231 S 
HETATM   10  O1  UNL     1      78.877   4.030  27.773  1.00  0.00    -0.206 OA
HETATM   11  O2  UNL     1      80.445   5.108  26.330  1.00  0.00    -0.206 OA
BRANCH   9  12
HETATM   12  C3  UNL     1      78.106   4.299  25.265  1.00  0.00     0.163 C 
BRANCH  12  13
HETATM   13  C2  UNL     1      76.906   5.066  24.821  1.00  0.00     0.012 C 
HETATM   14  C1  UNL     1      77.149   6.044  23.730  1.00  0.00     0.006 C 
ENDBRANCH  12  13
ENDBRANCH   9  12
ENDBRANCH   7   9
ENDBRANCH   1   7
BRANCH   6  15
HETATM   15  C10 UNL     1      77.927   6.632  29.983  1.00  0.00     0.211 C 
HETATM   16  O3  UNL     1      76.712   6.536  29.626  1.00  0.00    -0.644 OA
HETATM   17  O4  UNL     1      78.277   5.890  31.093  1.00  0.00    -0.644 OA
ENDBRANCH   6  15
TORSDOF 5
ENDMDL
