MODEL 2
REMARK VINA RESULT: -6.695605155      2.185      2.646
REMARK  5 active torsions:
REMARK  status: ('A' for Active; 'I' for Inactive)
REMARK    1  A    between atoms: C2_2  and  C3_3 
REMARK    2  A    between atoms: C3_3  and  S1_4 
REMARK    3  A    between atoms: S1_4  and  N1_7 
REMARK    4  A    between atoms: N1_7  and  C4_9 
REMARK    5  A    between atoms: C9_14  and  C10_15 
ROOT
HETATM    1  C4  UNL     1      80.045   6.695  26.223  1.00  0.00     0.059 A 
HETATM    2  C5  UNL     1      79.013   7.531  26.614  1.00  0.00     0.031 A 
HETATM    3  C6  UNL     1      79.187   8.410  27.659  1.00  0.00     0.002 A 
HETATM    4  C7  UNL     1      80.413   8.422  28.291  1.00  0.00     0.001 A 
HETATM    5  C8  UNL     1      81.442   7.593  27.906  1.00  0.00     0.021 A 
HETATM    6  C9  UNL     1      81.270   6.695  26.842  1.00  0.00     0.068 A 
ENDROOT
BRANCH   1   7
HETATM    7  N1  UNL     1      79.825   5.776  25.160  1.00  0.00    -0.284 N 
ATOM      8  H1  UNL     1      80.375   5.858  24.305  1.00  0.00     0.178 HD
BRANCH   7   9
HETATM    9  S1  UNL     1      78.658   4.539  25.290  1.00  0.00     0.231 S 
HETATM   10  O1  UNL     1      78.623   4.054  26.706  1.00  0.00    -0.206 OA
HETATM   11  O2  UNL     1      79.058   3.313  24.478  1.00  0.00    -0.206 OA
BRANCH   9  12
HETATM   12  C3  UNL     1      77.041   5.059  24.851  1.00  0.00     0.163 C 
BRANCH  12  13
HETATM   13  C2  UNL     1      76.993   6.156  23.841  1.00  0.00     0.012 C 
HETATM   14  C1  UNL     1      75.656   6.409  23.246  1.00  0.00     0.006 C 
ENDBRANCH  12  13
ENDBRANCH   9  12
ENDBRANCH   7   9
ENDBRANCH   1   7
BRANCH   6  15
HETATM   15  C10 UNL     1      82.392   5.857  26.458  1.00  0.00     0.211 C 
HETATM   16  O3  UNL     1      83.253   5.474  27.308  1.00  0.00    -0.644 OA
HETATM   17  O4  UNL     1      82.603   5.421  25.166  1.00  0.00    -0.644 OA
ENDBRANCH   6  15
TORSDOF 5
ENDMDL
