MODEL 12
REMARK VINA RESULT: -6.179311988      4.403      6.904
REMARK  5 active torsions:
REMARK  status: ('A' for Active; 'I' for Inactive)
REMARK    1  A    between atoms: C2_2  and  C3_3 
REMARK    2  A    between atoms: C3_3  and  S1_4 
REMARK    3  A    between atoms: S1_4  and  N1_7 
REMARK    4  A    between atoms: N1_7  and  C4_9 
REMARK    5  A    between atoms: C9_14  and  C10_15 
ROOT
HETATM    1  C4  UNL     1      80.618   6.031  28.990  1.00  0.00     0.059 A 
HETATM    2  C5  UNL     1      81.714   6.816  29.305  1.00  0.00     0.031 A 
HETATM    3  C6  UNL     1      82.311   7.597  28.341  1.00  0.00     0.002 A 
HETATM    4  C7  UNL     1      81.780   7.565  27.069  1.00  0.00     0.001 A 
HETATM    5  C8  UNL     1      80.690   6.787  26.751  1.00  0.00     0.021 A 
HETATM    6  C9  UNL     1      80.077   5.989  27.729  1.00  0.00     0.068 A 
ENDROOT
BRANCH   1   7
HETATM    7  N1  UNL     1      80.041   5.211  30.000  1.00  0.00    -0.284 N 
ATOM      8  H1  UNL     1      80.276   4.219  30.033  1.00  0.00     0.178 HD
BRANCH   7   9
HETATM    9  S1  UNL     1      78.965   5.857  31.154  1.00  0.00     0.231 S 
HETATM   10  O1  UNL     1      77.589   5.335  30.878  1.00  0.00    -0.206 OA
HETATM   11  O2  UNL     1      78.836   7.368  31.006  1.00  0.00    -0.206 OA
BRANCH   9  12
HETATM   12  C3  UNL     1      79.386   5.441  32.807  1.00  0.00     0.163 C 
BRANCH  12  13
HETATM   13  C2  UNL     1      80.122   4.152  32.955  1.00  0.00     0.012 C 
HETATM   14  C1  UNL     1      81.094   4.105  34.076  1.00  0.00     0.006 C 
ENDBRANCH  12  13
ENDBRANCH   9  12
ENDBRANCH   7   9
ENDBRANCH   1   7
BRANCH   6  15
HETATM   15  C10 UNL     1      78.917   5.203  27.351  1.00  0.00     0.211 C 
HETATM   16  O3  UNL     1      78.898   3.941  27.492  1.00  0.00    -0.644 OA
HETATM   17  O4  UNL     1      77.770   5.755  26.819  1.00  0.00    -0.644 OA
ENDBRANCH   6  15
TORSDOF 5
ENDMDL
