MODEL 3
REMARK VINA RESULT: -6.573013838      4.106      6.737
REMARK  5 active torsions:
REMARK  status: ('A' for Active; 'I' for Inactive)
REMARK    1  A    between atoms: C2_2  and  C3_3 
REMARK    2  A    between atoms: C3_3  and  S1_4 
REMARK    3  A    between atoms: S1_4  and  N1_7 
REMARK    4  A    between atoms: N1_7  and  C4_9 
REMARK    5  A    between atoms: C9_14  and  C10_15 
ROOT
HETATM    1  C4  UNL     1      79.679   6.509  28.976  1.00  0.00     0.059 A 
HETATM    2  C5  UNL     1      80.257   7.644  29.517  1.00  0.00     0.031 A 
HETATM    3  C6  UNL     1      80.278   8.823  28.805  1.00  0.00     0.002 A 
HETATM    4  C7  UNL     1      79.708   8.824  27.550  1.00  0.00     0.001 A 
HETATM    5  C8  UNL     1      79.131   7.698  27.007  1.00  0.00     0.021 A 
HETATM    6  C9  UNL     1      79.107   6.495  27.728  1.00  0.00     0.068 A 
ENDROOT
BRANCH   1   7
HETATM    7  N1  UNL     1      79.700   5.298  29.723  1.00  0.00    -0.284 N 
ATOM      8  H1  UNL     1      80.404   4.592  29.511  1.00  0.00     0.178 HD
BRANCH   7   9
HETATM    9  S1  UNL     1      78.569   5.009  30.967  1.00  0.00     0.231 S 
HETATM   10  O1  UNL     1      78.042   3.614  30.825  1.00  0.00    -0.206 OA
HETATM   11  O2  UNL     1      77.341   5.898  30.816  1.00  0.00    -0.206 OA
BRANCH   9  12
HETATM   12  C3  UNL     1      79.248   5.175  32.577  1.00  0.00     0.163 C 
BRANCH  12  13
HETATM   13  C2  UNL     1      80.141   4.055  32.994  1.00  0.00     0.012 C 
HETATM   14  C1  UNL     1      81.047   4.359  34.130  1.00  0.00     0.006 C 
ENDBRANCH  12  13
ENDBRANCH   9  12
ENDBRANCH   7   9
ENDBRANCH   1   7
BRANCH   6  15
HETATM   15  C10 UNL     1      78.468   5.340  27.123  1.00  0.00     0.211 C 
HETATM   16  O3  UNL     1      77.415   5.457  26.423  1.00  0.00    -0.644 OA
HETATM   17  O4  UNL     1      78.946   4.053  27.259  1.00  0.00    -0.644 OA
ENDBRANCH   6  15
TORSDOF 5
ENDMDL
