MODEL 3
REMARK VINA RESULT: -5.367982521      2.849      4.431
REMARK  3 active torsions:
REMARK  status: ('A' for Active; 'I' for Inactive)
REMARK    1  A    between atoms: C6_6  and  C7_7 
REMARK       I    between atoms: N1_10  and  C8_11 
REMARK    2  A    between atoms: C8_11  and  C9_13 
REMARK    3  A    between atoms: C9_13  and  C10_14 
ROOT
HETATM    1  C1  UNL     1      80.668   8.291  26.094  1.00  0.00     0.032 C 
HETATM    2  C2  UNL     1      80.501   7.702  27.427  1.00  0.00     0.084 C 
HETATM    3  C3  UNL     1      81.532   6.625  27.750  1.00  0.00     0.025 C 
HETATM    4  C4  UNL     1      81.320   5.949  29.046  1.00  0.00     0.004 C 
HETATM    5  C5  UNL     1      79.875   5.646  29.420  1.00  0.00     0.036 C 
HETATM    6  C6  UNL     1      79.136   6.950  29.238  1.00  0.00     0.188 C 
HETATM    7  N1  UNL     1      79.201   7.179  27.787  1.00  0.00    -0.333 N 
HETATM    8  C8  UNL     1      78.147   6.846  26.950  1.00  0.00     0.221 C 
HETATM    9  O3  UNL     1      77.107   6.300  27.481  1.00  0.00    -0.273 OA
ENDROOT
BRANCH   6  10
HETATM   10  C7  UNL     1      77.875   7.117  29.889  1.00  0.00     0.196 C 
HETATM   11  O1  UNL     1      77.304   8.278  29.881  1.00  0.00    -0.646 OA
HETATM   12  O2  UNL     1      77.127   6.165  30.561  1.00  0.00    -0.646 OA
ENDBRANCH   6  10
BRANCH   8  13
HETATM   13  C9  UNL     1      78.040   7.030  25.491  1.00  0.00     0.114 C 
BRANCH  13  14
HETATM   14  C10 UNL     1      77.815   5.695  24.775  1.00  0.00     0.095 C 
HETATM   15  S1  UNL     1      79.263   4.609  25.037  1.00  0.00    -0.097 SA
ENDBRANCH  13  14
ENDBRANCH   8  13
TORSDOF 3
ENDMDL
