MODEL 7
REMARK VINA RESULT: -5.140544572      2.879      4.279
REMARK  3 active torsions:
REMARK  status: ('A' for Active; 'I' for Inactive)
REMARK    1  A    between atoms: C6_6  and  C7_7 
REMARK       I    between atoms: N1_10  and  C8_11 
REMARK    2  A    between atoms: C8_11  and  C9_13 
REMARK    3  A    between atoms: C9_13  and  C10_14 
ROOT
HETATM    1  C1  UNL     1      82.252   6.289  30.155  1.00  0.00     0.032 C 
HETATM    2  C2  UNL     1      80.907   6.365  30.734  1.00  0.00     0.084 C 
HETATM    3  C3  UNL     1      80.661   5.348  31.844  1.00  0.00     0.025 C 
HETATM    4  C4  UNL     1      79.281   5.340  32.369  1.00  0.00     0.004 C 
HETATM    5  C5  UNL     1      78.169   5.514  31.342  1.00  0.00     0.036 C 
HETATM    6  C6  UNL     1      78.554   6.734  30.542  1.00  0.00     0.188 C 
HETATM    7  N1  UNL     1      79.771   6.309  29.837  1.00  0.00    -0.333 N 
HETATM    8  C8  UNL     1      79.735   5.866  28.523  1.00  0.00     0.221 C 
HETATM    9  O3  UNL     1      78.588   5.811  27.940  1.00  0.00    -0.273 OA
ENDROOT
BRANCH   6  10
HETATM   10  C7  UNL     1      77.541   7.404  29.788  1.00  0.00     0.196 C 
HETATM   11  O1  UNL     1      77.766   8.596  29.339  1.00  0.00    -0.646 OA
HETATM   12  O2  UNL     1      76.283   6.938  29.444  1.00  0.00    -0.646 OA
ENDBRANCH   6  10
BRANCH   8  13
HETATM   13  C9  UNL     1      80.857   5.432  27.671  1.00  0.00     0.114 C 
BRANCH  13  14
HETATM   14  C10 UNL     1      80.944   6.271  26.392  1.00  0.00     0.095 C 
HETATM   15  S1  UNL     1      80.542   5.227  24.946  1.00  0.00    -0.097 SA
ENDBRANCH  13  14
ENDBRANCH   8  13
TORSDOF 3
ENDMDL
