MODEL 5
REMARK VINA RESULT: -5.228296753      4.271      5.313
REMARK  3 active torsions:
REMARK  status: ('A' for Active; 'I' for Inactive)
REMARK    1  A    between atoms: C6_6  and  C7_7 
REMARK       I    between atoms: N1_10  and  C8_11 
REMARK    2  A    between atoms: C8_11  and  C9_13 
REMARK    3  A    between atoms: C9_13  and  C10_14 
ROOT
HETATM    1  C1  UNL     1      80.943   8.330  26.113  1.00  0.00     0.032 C 
HETATM    2  C2  UNL     1      79.532   7.939  26.193  1.00  0.00     0.084 C 
HETATM    3  C3  UNL     1      78.969   7.970  27.610  1.00  0.00     0.025 C 
HETATM    4  C4  UNL     1      77.580   7.482  27.725  1.00  0.00     0.004 C 
HETATM    5  C5  UNL     1      77.218   6.273  26.872  1.00  0.00     0.036 C 
HETATM    6  C6  UNL     1      77.672   6.621  25.476  1.00  0.00     0.188 C 
HETATM    7  N1  UNL     1      79.135   6.680  25.597  1.00  0.00    -0.333 N 
HETATM    8  C8  UNL     1      79.939   5.610  25.236  1.00  0.00     0.221 C 
HETATM    9  O3  UNL     1      79.360   4.540  24.810  1.00  0.00    -0.273 OA
ENDROOT
BRANCH   6  10
HETATM   10  C7  UNL     1      77.118   5.896  24.375  1.00  0.00     0.196 C 
HETATM   11  O1  UNL     1      76.241   4.972  24.599  1.00  0.00    -0.646 OA
HETATM   12  O2  UNL     1      77.393   6.048  23.026  1.00  0.00    -0.646 OA
ENDBRANCH   6  10
BRANCH   8  13
HETATM   13  C9  UNL     1      81.410   5.514  25.272  1.00  0.00     0.114 C 
BRANCH  13  14
HETATM   14  C10 UNL     1      81.927   4.485  24.261  1.00  0.00     0.095 C 
HETATM   15  S1  UNL     1      83.327   5.198  23.326  1.00  0.00    -0.097 SA
ENDBRANCH  13  14
ENDBRANCH   8  13
TORSDOF 3
ENDMDL
