MODEL 3
REMARK VINA RESULT: -6.023484960      1.866      2.844
REMARK  1 active torsions:
REMARK  status: ('A' for Active; 'I' for Inactive)
REMARK    1  A    between atoms: C8_8  and  C9_9 
ROOT
HETATM    1  C1  UNL     1      26.218   7.538  16.285  1.00  0.00     0.020 C 
HETATM    2  C2  UNL     1      24.750   7.561  15.989  1.00  0.00     0.011 C 
HETATM    3  C3  UNL     1      23.993   8.591  16.737  1.00  0.00     0.020 C 
HETATM    4  C4  UNL     1      24.498   7.629  14.470  1.00  0.00     0.055 C 
HETATM    5  C5  UNL     1      25.052   8.800  13.816  1.00  0.00     0.027 C 
HETATM    6  C6  UNL     1      23.008   7.470  14.449  1.00  0.00     0.024 C 
HETATM    7  C7  UNL     1      22.809   6.360  15.485  1.00  0.00     0.052 C 
HETATM    8  C8  UNL     1      24.146   6.156  16.133  1.00  0.00     0.166 C 
HETATM    9  O3  UNL     1      24.961   5.463  15.198  1.00  0.00    -0.297 OA
HETATM   10  C10 UNL     1      25.093   6.319  14.083  1.00  0.00     0.269 C 
HETATM   11  O4  UNL     1      25.612   6.028  12.977  1.00  0.00    -0.264 OA
ENDROOT
BRANCH   8  12
HETATM   12  C9  UNL     1      24.151   5.638  17.462  1.00  0.00     0.210 C 
HETATM   13  O1  UNL     1      25.032   4.794  17.829  1.00  0.00    -0.646 OA
HETATM   14  O2  UNL     1      23.225   6.020  18.388  1.00  0.00    -0.646 OA
ENDBRANCH   8  12
TORSDOF 1
ENDMDL
