MODEL 14
REMARK VINA RESULT: -5.497976679      2.129      3.347
REMARK  1 active torsions:
REMARK  status: ('A' for Active; 'I' for Inactive)
REMARK    1  A    between atoms: C8_8  and  C9_9 
ROOT
HETATM    1  C1  UNL     1      25.177   8.894  17.181  1.00  0.00     0.020 C 
HETATM    2  C2  UNL     1      24.270   7.907  16.514  1.00  0.00     0.011 C 
HETATM    3  C3  UNL     1      22.995   7.670  17.230  1.00  0.00     0.020 C 
HETATM    4  C4  UNL     1      24.056   8.273  15.031  1.00  0.00     0.055 C 
HETATM    5  C5  UNL     1      23.457   9.575  14.809  1.00  0.00     0.027 C 
HETATM    6  C6  UNL     1      23.282   7.072  14.580  1.00  0.00     0.024 C 
HETATM    7  C7  UNL     1      24.049   5.940  15.269  1.00  0.00     0.052 C 
HETATM    8  C8  UNL     1      25.023   6.606  16.194  1.00  0.00     0.166 C 
HETATM    9  O3  UNL     1      26.064   7.142  15.389  1.00  0.00    -0.297 OA
HETATM   10  C10 UNL     1      25.458   8.105  14.554  1.00  0.00     0.269 C 
HETATM   11  O4  UNL     1      25.999   8.705  13.592  1.00  0.00    -0.264 OA
ENDROOT
BRANCH   8  12
HETATM   12  C9  UNL     1      25.445   5.865  17.338  1.00  0.00     0.210 C 
HETATM   13  O1  UNL     1      24.821   4.815  17.699  1.00  0.00    -0.646 OA
HETATM   14  O2  UNL     1      26.522   6.244  18.085  1.00  0.00    -0.646 OA
ENDBRANCH   8  12
TORSDOF 1
ENDMDL
