MODEL 7
REMARK VINA RESULT: -5.853052351      1.696      2.556
REMARK  1 active torsions:
REMARK  status: ('A' for Active; 'I' for Inactive)
REMARK    1  A    between atoms: C8_8  and  C9_9 
ROOT
HETATM    1  C1  UNL     1      25.919   8.555  17.104  1.00  0.00     0.020 C 
HETATM    2  C2  UNL     1      24.592   7.863  17.055  1.00  0.00     0.011 C 
HETATM    3  C3  UNL     1      23.647   8.282  18.116  1.00  0.00     0.020 C 
HETATM    4  C4  UNL     1      23.976   7.953  15.645  1.00  0.00     0.055 C 
HETATM    5  C5  UNL     1      23.735   9.304  15.176  1.00  0.00     0.027 C 
HETATM    6  C6  UNL     1      22.784   7.065  15.828  1.00  0.00     0.024 C 
HETATM    7  C7  UNL     1      23.390   5.904  16.623  1.00  0.00     0.052 C 
HETATM    8  C8  UNL     1      24.777   6.339  16.992  1.00  0.00     0.166 C 
HETATM    9  O3  UNL     1      25.568   6.257  15.814  1.00  0.00    -0.297 OA
HETATM   10  C10 UNL     1      25.004   7.173  14.900  1.00  0.00     0.269 C 
HETATM   11  O4  UNL     1      25.312   7.303  13.689  1.00  0.00    -0.264 OA
ENDROOT
BRANCH   8  12
HETATM   12  C9  UNL     1      25.350   5.758  18.162  1.00  0.00     0.210 C 
HETATM   13  O1  UNL     1      24.644   5.050  18.951  1.00  0.00    -0.646 OA
HETATM   14  O2  UNL     1      26.664   5.934  18.485  1.00  0.00    -0.646 OA
ENDBRANCH   8  12
TORSDOF 1
ENDMDL
