MODEL 5
REMARK VINA RESULT: -9.677606976      1.568      6.852
REMARK  2 active torsions:
REMARK  status: ('A' for Active; 'I' for Inactive)
REMARK    1  A    between atoms: C3_4  and  C4_5 
REMARK    2  A    between atoms: C7_8  and  O2_9 
ROOT
HETATM    1  O1  UNL     1      -5.195  36.587  -7.635  1.00  0.00    -0.287 OA
HETATM    2  C1  UNL     1      -5.655  37.358  -8.492  1.00  0.00     0.187 A 
HETATM    3  C2  UNL     1      -5.786  37.005  -9.836  1.00  0.00     0.093 A 
HETATM    4  C3  UNL     1      -6.299  37.875 -10.769  1.00  0.00     0.090 A 
HETATM    5  O3  UNL     1      -6.662  39.064 -10.339  1.00  0.00    -0.309 OA
HETATM    6  C10 UNL     1      -6.558  39.444  -9.086  1.00  0.00     0.090 A 
HETATM    7  C11 UNL     1      -6.955  40.706  -8.685  1.00  0.00     0.038 A 
HETATM    8  C12 UNL     1      -6.852  41.117  -7.373  1.00  0.00     0.003 A 
HETATM    9  C13 UNL     1      -6.345  40.269  -6.426  1.00  0.00     0.001 A 
HETATM   10  C14 UNL     1      -5.936  39.000  -6.779  1.00  0.00     0.018 A 
HETATM   11  C15 UNL     1      -6.052  38.607  -8.113  1.00  0.00     0.048 A 
ENDROOT
BRANCH   4  12
HETATM   12  C4  UNL     1      -6.455  37.549 -12.189  1.00  0.00    -0.002 A 
HETATM   13  C5  UNL     1      -5.739  36.558 -12.811  1.00  0.00     0.017 A 
HETATM   14  C6  UNL     1      -5.907  36.264 -14.171  1.00  0.00     0.037 A 
HETATM   15  C7  UNL     1      -6.805  36.966 -14.936  1.00  0.00     0.065 A 
HETATM   16  C8  UNL     1      -7.535  37.970 -14.322  1.00  0.00     0.037 A 
HETATM   17  C9  UNL     1      -7.359  38.246 -12.983  1.00  0.00     0.017 A 
BRANCH  15  18
HETATM   18  O2  UNL     1      -7.003  36.707 -16.290  1.00  0.00    -0.361 OA
ATOM     19  H2  UNL     1      -6.962  35.832 -16.657  1.00  0.00     0.217 HD
ENDBRANCH  15  18
ENDBRANCH   4  12
TORSDOF 2
ENDMDL
