MODEL 9
REMARK VINA RESULT: -9.242943991      1.061      1.500
REMARK  2 active torsions:
REMARK  status: ('A' for Active; 'I' for Inactive)
REMARK    1  A    between atoms: C3_4  and  C4_5 
REMARK    2  A    between atoms: C7_8  and  O2_9 
ROOT
HETATM    1  O1  UNL     1      -7.295  37.321 -15.615  1.00  0.00    -0.287 OA
HETATM    2  C1  UNL     1      -6.671  37.014 -14.588  1.00  0.00     0.187 A 
HETATM    3  C2  UNL     1      -6.818  37.697 -13.379  1.00  0.00     0.093 A 
HETATM    4  C3  UNL     1      -6.117  37.339 -12.252  1.00  0.00     0.090 A 
HETATM    5  O3  UNL     1      -5.293  36.319 -12.362  1.00  0.00    -0.309 OA
HETATM    6  C10 UNL     1      -5.118  35.646 -13.476  1.00  0.00     0.090 A 
HETATM    7  C11 UNL     1      -4.239  34.581 -13.538  1.00  0.00     0.038 A 
HETATM    8  C12 UNL     1      -4.047  33.866 -14.701  1.00  0.00     0.003 A 
HETATM    9  C13 UNL     1      -4.734  34.202 -15.835  1.00  0.00     0.001 A 
HETATM   10  C14 UNL     1      -5.622  35.257 -15.821  1.00  0.00     0.018 A 
HETATM   11  C15 UNL     1      -5.800  35.965 -14.632  1.00  0.00     0.048 A 
ENDROOT
BRANCH   4  12
HETATM   12  C4  UNL     1      -6.239  38.025 -10.963  1.00  0.00    -0.002 A 
HETATM   13  C5  UNL     1      -7.435  38.487 -10.474  1.00  0.00     0.017 A 
HETATM   14  C6  UNL     1      -7.527  39.140  -9.237  1.00  0.00     0.037 A 
HETATM   15  C7  UNL     1      -6.410  39.342  -8.464  1.00  0.00     0.065 A 
HETATM   16  C8  UNL     1      -5.195  38.882  -8.946  1.00  0.00     0.037 A 
HETATM   17  C9  UNL     1      -5.123  38.241 -10.164  1.00  0.00     0.017 A 
BRANCH  15  18
HETATM   18  O2  UNL     1      -6.456  39.986  -7.230  1.00  0.00    -0.361 OA
ATOM     19  H2  UNL     1      -7.002  40.747  -7.068  1.00  0.00     0.217 HD
ENDBRANCH  15  18
ENDBRANCH   4  12
TORSDOF 2
ENDMDL
