MODEL 1
REMARK VINA RESULT: -11.117103675      0.000      0.000
REMARK  2 active torsions:
REMARK  status: ('A' for Active; 'I' for Inactive)
REMARK    1  A    between atoms: C3_4  and  C4_5 
REMARK    2  A    between atoms: C7_8  and  O2_9 
ROOT
HETATM    1  O1  UNL     1      -7.803  38.502 -15.054  1.00  0.00    -0.287 OA
HETATM    2  C1  UNL     1      -7.136  37.867 -14.223  1.00  0.00     0.187 A 
HETATM    3  C2  UNL     1      -7.161  38.148 -12.856  1.00  0.00     0.093 A 
HETATM    4  C3  UNL     1      -6.415  37.431 -11.951  1.00  0.00     0.090 A 
HETATM    5  O3  UNL     1      -5.668  36.461 -12.433  1.00  0.00    -0.309 OA
HETATM    6  C10 UNL     1      -5.608  36.157 -13.709  1.00  0.00     0.090 A 
HETATM    7  C11 UNL     1      -4.807  35.126 -14.163  1.00  0.00     0.038 A 
HETATM    8  C12 UNL     1      -4.735  34.797 -15.500  1.00  0.00     0.003 A 
HETATM    9  C13 UNL     1      -5.470  35.496 -16.419  1.00  0.00     0.001 A 
HETATM   10  C14 UNL     1      -6.285  36.533 -16.013  1.00  0.00     0.018 A 
HETATM   11  C15 UNL     1      -6.340  36.846 -14.654  1.00  0.00     0.048 A 
ENDROOT
BRANCH   4  12
HETATM   12  C4  UNL     1      -6.410  37.691 -10.510  1.00  0.00    -0.002 A 
HETATM   13  C5  UNL     1      -5.725  36.911  -9.612  1.00  0.00     0.017 A 
HETATM   14  C6  UNL     1      -5.735  37.180  -8.237  1.00  0.00     0.037 A 
HETATM   15  C7  UNL     1      -6.440  38.246  -7.735  1.00  0.00     0.065 A 
HETATM   16  C8  UNL     1      -7.137  39.042  -8.629  1.00  0.00     0.037 A 
HETATM   17  C9  UNL     1      -7.116  38.764  -9.978  1.00  0.00     0.017 A 
BRANCH  15  18
HETATM   18  O2  UNL     1      -6.478  38.549  -6.376  1.00  0.00    -0.361 OA
ATOM     19  H2  UNL     1      -5.694  38.711  -5.864  1.00  0.00     0.217 HD
ENDBRANCH  15  18
ENDBRANCH   4  12
TORSDOF 2
ENDMDL
