MODEL 2
REMARK VINA RESULT: -9.751071456      1.667      6.690
REMARK  2 active torsions:
REMARK  status: ('A' for Active; 'I' for Inactive)
REMARK    1  A    between atoms: C3_4  and  C4_5 
REMARK    2  A    between atoms: C7_8  and  O2_9 
ROOT
HETATM    1  O1  UNL     1      -4.475  39.170  -8.284  1.00  0.00    -0.287 OA
HETATM    2  C1  UNL     1      -5.424  38.625  -8.871  1.00  0.00     0.187 A 
HETATM    3  C2  UNL     1      -5.445  38.423 -10.252  1.00  0.00     0.093 A 
HETATM    4  C3  UNL     1      -6.506  37.816 -10.882  1.00  0.00     0.090 A 
HETATM    5  O3  UNL     1      -7.509  37.432 -10.122  1.00  0.00    -0.309 OA
HETATM    6  C10 UNL     1      -7.537  37.600  -8.819  1.00  0.00     0.090 A 
HETATM    7  C11 UNL     1      -8.616  37.178  -8.066  1.00  0.00     0.038 A 
HETATM    8  C12 UNL     1      -8.659  37.348  -6.699  1.00  0.00     0.003 A 
HETATM    9  C13 UNL     1      -7.614  37.948  -6.049  1.00  0.00     0.001 A 
HETATM   10  C14 UNL     1      -6.515  38.386  -6.759  1.00  0.00     0.018 A 
HETATM   11  C15 UNL     1      -6.496  38.202  -8.142  1.00  0.00     0.048 A 
ENDROOT
BRANCH   4  12
HETATM   12  C4  UNL     1      -6.572  37.583 -12.326  1.00  0.00    -0.002 A 
HETATM   13  C5  UNL     1      -5.848  36.604 -12.959  1.00  0.00     0.017 A 
HETATM   14  C6  UNL     1      -5.929  36.400 -14.343  1.00  0.00     0.037 A 
HETATM   15  C7  UNL     1      -6.744  37.183 -15.123  1.00  0.00     0.065 A 
HETATM   16  C8  UNL     1      -7.481  38.176 -14.498  1.00  0.00     0.037 A 
HETATM   17  C9  UNL     1      -7.391  38.363 -13.136  1.00  0.00     0.017 A 
BRANCH  15  18
HETATM   18  O2  UNL     1      -6.854  37.015 -16.501  1.00  0.00    -0.361 OA
ATOM     19  H2  UNL     1      -6.172  36.611 -17.024  1.00  0.00     0.217 HD
ENDBRANCH  15  18
ENDBRANCH   4  12
TORSDOF 2
ENDMDL
