MODEL 4
REMARK VINA RESULT: -9.703360450      1.678      6.781
REMARK  2 active torsions:
REMARK  status: ('A' for Active; 'I' for Inactive)
REMARK    1  A    between atoms: C3_4  and  C4_5 
REMARK    2  A    between atoms: C7_8  and  O2_9 
ROOT
HETATM    1  O1  UNL     1      -4.455  39.144  -8.314  1.00  0.00    -0.287 OA
HETATM    2  C1  UNL     1      -5.417  38.620  -8.896  1.00  0.00     0.187 A 
HETATM    3  C2  UNL     1      -5.458  38.437 -10.279  1.00  0.00     0.093 A 
HETATM    4  C3  UNL     1      -6.535  37.853 -10.904  1.00  0.00     0.090 A 
HETATM    5  O3  UNL     1      -7.535  37.474 -10.137  1.00  0.00    -0.309 OA
HETATM    6  C10 UNL     1      -7.545  37.625  -8.832  1.00  0.00     0.090 A 
HETATM    7  C11 UNL     1      -8.621  37.208  -8.072  1.00  0.00     0.038 A 
HETATM    8  C12 UNL     1      -8.645  37.361  -6.702  1.00  0.00     0.003 A 
HETATM    9  C13 UNL     1      -7.584  37.938  -6.058  1.00  0.00     0.001 A 
HETATM   10  C14 UNL     1      -6.488  38.369  -6.774  1.00  0.00     0.018 A 
HETATM   11  C15 UNL     1      -6.488  38.203  -8.160  1.00  0.00     0.048 A 
ENDROOT
BRANCH   4  12
HETATM   12  C4  UNL     1      -6.621  37.640 -12.351  1.00  0.00    -0.002 A 
HETATM   13  C5  UNL     1      -7.422  38.395 -13.170  1.00  0.00     0.017 A 
HETATM   14  C6  UNL     1      -7.487  38.172 -14.552  1.00  0.00     0.037 A 
HETATM   15  C7  UNL     1      -6.743  37.180 -15.140  1.00  0.00     0.065 A 
HETATM   16  C8  UNL     1      -5.930  36.409 -14.325  1.00  0.00     0.037 A 
HETATM   17  C9  UNL     1      -5.876  36.642 -12.968  1.00  0.00     0.017 A 
BRANCH  15  18
HETATM   18  O2  UNL     1      -6.778  36.924 -16.509  1.00  0.00    -0.361 OA
ATOM     19  H2  UNL     1      -5.994  36.763 -17.021  1.00  0.00     0.217 HD
ENDBRANCH  15  18
ENDBRANCH   4  12
TORSDOF 2
ENDMDL
