MODEL 4
REMARK VINA RESULT: -9.643619328      3.199      6.728
REMARK  1 active torsions:
REMARK  status: ('A' for Active; 'I' for Inactive)
REMARK    1  A    between atoms: C3_4  and  C4_5 
ROOT
HETATM    1  O1  UNL     1      -7.430  40.942  -9.121  1.00  0.00    -0.287 OA
HETATM    2  C1  UNL     1      -7.002  39.780  -9.278  1.00  0.00     0.187 A 
HETATM    3  C2  UNL     1      -6.858  39.158 -10.514  1.00  0.00     0.093 A 
HETATM    4  C3  UNL     1      -6.382  37.876 -10.625  1.00  0.00     0.090 A 
HETATM    5  O2  UNL     1      -6.057  37.239  -9.500  1.00  0.00    -0.309 OA
HETATM    6  C10 UNL     1      -6.170  37.770  -8.313  1.00  0.00     0.090 A 
HETATM    7  C11 UNL     1      -5.830  37.098  -7.155  1.00  0.00     0.038 A 
HETATM    8  C12 UNL     1      -5.956  37.672  -5.908  1.00  0.00     0.003 A 
HETATM    9  C13 UNL     1      -6.432  38.959  -5.771  1.00  0.00     0.001 A 
HETATM   10  C14 UNL     1      -6.776  39.642  -6.921  1.00  0.00     0.018 A 
HETATM   11  C15 UNL     1      -6.646  39.055  -8.167  1.00  0.00     0.048 A 
ENDROOT
BRANCH   4  12
HETATM   12  C4  UNL     1      -6.224  37.209 -11.909  1.00  0.00    -0.002 A 
HETATM   13  C5  UNL     1      -5.457  36.090 -12.087  1.00  0.00     0.015 A 
HETATM   14  C6  UNL     1      -5.336  35.483 -13.349  1.00  0.00     0.020 A 
HETATM   15  C7  UNL     1      -5.982  35.989 -14.451  1.00  0.00     0.011 A 
HETATM   16 BR1  UNL     1      -5.788  35.133 -16.141  1.00  0.00    -0.051 Br
HETATM   17  C8  UNL     1      -6.754  37.116 -14.274  1.00  0.00     0.020 A 
HETATM   18  C9  UNL     1      -6.873  37.709 -13.042  1.00  0.00     0.015 A 
ENDBRANCH   4  12
TORSDOF 1
ENDMDL
