MODEL 2
REMARK VINA RESULT: -11.460527796      0.151      1.115
REMARK  1 active torsions:
REMARK  status: ('A' for Active; 'I' for Inactive)
REMARK    1  A    between atoms: C3_4  and  C4_5 
ROOT
HETATM    1  O1  UNL     1      -8.050  38.599 -14.976  1.00  0.00    -0.287 OA
HETATM    2  C1  UNL     1      -7.415  37.925 -14.138  1.00  0.00     0.187 A 
HETATM    3  C2  UNL     1      -7.421  38.168 -12.769  1.00  0.00     0.093 A 
HETATM    4  C3  UNL     1      -6.702  37.392 -11.895  1.00  0.00     0.090 A 
HETATM    5  O2  UNL     1      -5.989  36.387 -12.406  1.00  0.00    -0.309 OA
HETATM    6  C10 UNL     1      -5.944  36.111 -13.680  1.00  0.00     0.090 A 
HETATM    7  C11 UNL     1      -5.201  35.067 -14.195  1.00  0.00     0.038 A 
HETATM    8  C12 UNL     1      -5.162  34.788 -15.544  1.00  0.00     0.003 A 
HETATM    9  C13 UNL     1      -5.877  35.554 -16.443  1.00  0.00     0.001 A 
HETATM   10  C14 UNL     1      -6.623  36.601 -15.940  1.00  0.00     0.018 A 
HETATM   11  C15 UNL     1      -6.655  36.872 -14.584  1.00  0.00     0.048 A 
ENDROOT
BRANCH   4  12
HETATM   12  C4  UNL     1      -6.698  37.630 -10.460  1.00  0.00    -0.002 A 
HETATM   13  C5  UNL     1      -6.303  36.695  -9.542  1.00  0.00     0.015 A 
HETATM   14  C6  UNL     1      -6.317  36.974  -8.165  1.00  0.00     0.020 A 
HETATM   15  C7  UNL     1      -6.728  38.195  -7.687  1.00  0.00     0.011 A 
HETATM   16 BR1  UNL     1      -6.731  38.527  -5.812  1.00  0.00    -0.051 Br
HETATM   17  C8  UNL     1      -7.126  39.137  -8.608  1.00  0.00     0.020 A 
HETATM   18  C9  UNL     1      -7.112  38.866  -9.953  1.00  0.00     0.015 A 
ENDBRANCH   4  12
TORSDOF 1
ENDMDL
