MODEL 5
REMARK VINA RESULT: -9.642722664      3.195      6.624
REMARK  1 active torsions:
REMARK  status: ('A' for Active; 'I' for Inactive)
REMARK    1  A    between atoms: C3_4  and  C4_5 
ROOT
HETATM    1  O1  UNL     1      -7.441  40.903  -9.133  1.00  0.00    -0.287 OA
HETATM    2  C1  UNL     1      -7.015  39.741  -9.301  1.00  0.00     0.187 A 
HETATM    3  C2  UNL     1      -6.875  39.129 -10.542  1.00  0.00     0.093 A 
HETATM    4  C3  UNL     1      -6.401  37.847 -10.665  1.00  0.00     0.090 A 
HETATM    5  O2  UNL     1      -6.073  37.201  -9.546  1.00  0.00    -0.309 OA
HETATM    6  C10 UNL     1      -6.182  37.722  -8.356  1.00  0.00     0.090 A 
HETATM    7  C11 UNL     1      -5.840  37.041  -7.204  1.00  0.00     0.038 A 
HETATM    8  C12 UNL     1      -5.961  37.604  -5.952  1.00  0.00     0.003 A 
HETATM    9  C13 UNL     1      -6.435  38.891  -5.803  1.00  0.00     0.001 A 
HETATM   10  C14 UNL     1      -6.782  39.583  -6.946  1.00  0.00     0.018 A 
HETATM   11  C15 UNL     1      -6.656  39.007  -8.197  1.00  0.00     0.048 A 
ENDROOT
BRANCH   4  12
HETATM   12  C4  UNL     1      -6.248  37.191 -11.955  1.00  0.00    -0.002 A 
HETATM   13  C5  UNL     1      -6.862  37.625 -13.099  1.00  0.00     0.015 A 
HETATM   14  C6  UNL     1      -6.682  36.956 -14.321  1.00  0.00     0.020 A 
HETATM   15  C7  UNL     1      -5.884  35.841 -14.416  1.00  0.00     0.011 A 
HETATM   16 BR1  UNL     1      -5.671  34.967 -16.094  1.00  0.00    -0.051 Br
HETATM   17  C8  UNL     1      -5.266  35.402 -13.266  1.00  0.00     0.020 A 
HETATM   18  C9  UNL     1      -5.440  36.056 -12.072  1.00  0.00     0.015 A 
ENDBRANCH   4  12
TORSDOF 1
ENDMDL
