MODEL 1
REMARK VINA RESULT: -11.579646654      0.000      0.000
REMARK  1 active torsions:
REMARK  status: ('A' for Active; 'I' for Inactive)
REMARK    1  A    between atoms: C3_4  and  C4_5 
ROOT
HETATM    1  O1  UNL     1      -8.015  38.604 -15.117  1.00  0.00    -0.287 OA
HETATM    2  C1  UNL     1      -7.409  37.941 -14.249  1.00  0.00     0.187 A 
HETATM    3  C2  UNL     1      -7.468  38.198 -12.883  1.00  0.00     0.093 A 
HETATM    4  C3  UNL     1      -6.779  37.435 -11.975  1.00  0.00     0.090 A 
HETATM    5  O2  UNL     1      -6.045  36.427 -12.447  1.00  0.00    -0.309 OA
HETATM    6  C10 UNL     1      -5.951  36.138 -13.716  1.00  0.00     0.090 A 
HETATM    7  C11 UNL     1      -5.185  35.091 -14.192  1.00  0.00     0.038 A 
HETATM    8  C12 UNL     1      -5.095  34.798 -15.535  1.00  0.00     0.003 A 
HETATM    9  C13 UNL     1      -5.778  35.551 -16.468  1.00  0.00     0.001 A 
HETATM   10  C14 UNL     1      -6.547  36.601 -16.005  1.00  0.00     0.018 A 
HETATM   11  C15 UNL     1      -6.630  36.886 -14.654  1.00  0.00     0.048 A 
ENDROOT
BRANCH   4  12
HETATM   12  C4  UNL     1      -6.830  37.689 -10.543  1.00  0.00    -0.002 A 
HETATM   13  C5  UNL     1      -7.365  38.824  -9.997  1.00  0.00     0.015 A 
HETATM   14  C6  UNL     1      -7.390  39.022  -8.606  1.00  0.00     0.020 A 
HETATM   15  C7  UNL     1      -6.877  38.085  -7.741  1.00  0.00     0.011 A 
HETATM   16 BR1  UNL     1      -6.932  38.399  -5.864  1.00  0.00    -0.051 Br
HETATM   17  C8  UNL     1      -6.338  36.943  -8.288  1.00  0.00     0.020 A 
HETATM   18  C9  UNL     1      -6.314  36.748  -9.646  1.00  0.00     0.015 A 
ENDBRANCH   4  12
TORSDOF 1
ENDMDL
