MODEL 6
REMARK VINA RESULT: -9.452829156      3.224      6.644
REMARK  1 active torsions:
REMARK  status: ('A' for Active; 'I' for Inactive)
REMARK    1  A    between atoms: C3_4  and  C4_5 
ROOT
HETATM    1  O1  UNL     1      -7.100  40.992  -9.002  1.00  0.00    -0.287 OA
HETATM    2  C1  UNL     1      -7.184  39.780  -9.290  1.00  0.00     0.187 A 
HETATM    3  C2  UNL     1      -6.870  39.245 -10.535  1.00  0.00     0.093 A 
HETATM    4  C3  UNL     1      -6.983  37.903 -10.793  1.00  0.00     0.090 A 
HETATM    5  O2  UNL     1      -7.405  37.117  -9.802  1.00  0.00    -0.309 OA
HETATM    6  C10 UNL     1      -7.714  37.561  -8.614  1.00  0.00     0.090 A 
HETATM    7  C11 UNL     1      -8.151  36.736  -7.596  1.00  0.00     0.038 A 
HETATM    8  C12 UNL     1      -8.474  37.218  -6.346  1.00  0.00     0.003 A 
HETATM    9  C13 UNL     1      -8.369  38.564  -6.062  1.00  0.00     0.001 A 
HETATM   10  C14 UNL     1      -7.934  39.400  -7.072  1.00  0.00     0.018 A 
HETATM   11  C15 UNL     1      -7.613  38.904  -8.322  1.00  0.00     0.048 A 
ENDROOT
BRANCH   4  12
HETATM   12  C4  UNL     1      -6.658  37.326 -12.089  1.00  0.00    -0.002 A 
HETATM   13  C5  UNL     1      -7.182  37.782 -13.269  1.00  0.00     0.015 A 
HETATM   14  C6  UNL     1      -6.837  37.190 -14.495  1.00  0.00     0.020 A 
HETATM   15  C7  UNL     1      -5.962  36.132 -14.559  1.00  0.00     0.011 A 
HETATM   16 BR1  UNL     1      -5.526  35.362 -16.245  1.00  0.00    -0.051 Br
HETATM   17  C8  UNL     1      -5.435  35.672 -13.373  1.00  0.00     0.020 A 
HETATM   18  C9  UNL     1      -5.771  36.249 -12.174  1.00  0.00     0.015 A 
ENDBRANCH   4  12
TORSDOF 1
ENDMDL
