MODEL 3
REMARK VINA RESULT: -9.042571620      1.483      2.003
REMARK  3 active torsions:
REMARK  status: ('A' for Active; 'I' for Inactive)
REMARK    1  A    between atoms: C5_5  and  C6_6 
REMARK    2  A    between atoms: C6_6  and  S1_7 
REMARK    3  A    between atoms: S1_7  and  C7_8 
ROOT
HETATM    1  C7  UNL     1     -23.402 -13.862  12.804  1.00  0.00     0.147 A 
HETATM    2  N1  UNL     1     -23.858 -13.778  14.057  1.00  0.00    -0.340 N 
ATOM      3  H1  UNL     1     -23.192 -13.585  14.806  1.00  0.00     0.168 HD
HETATM    4  C8  UNL     1     -25.157 -13.937  14.378  1.00  0.00     0.023 A 
HETATM    5  C9  UNL     1     -26.040 -14.196  13.353  1.00  0.00     0.033 A 
HETATM    6  C10 UNL     1     -25.577 -14.284  12.060  1.00  0.00     0.255 A 
HETATM    7  O1  UNL     1     -26.351 -14.519  11.094  1.00  0.00    -0.268 OA
HETATM    8  N2  UNL     1     -24.252 -14.115  11.800  1.00  0.00    -0.303 N 
ATOM      9  H2  UNL     1     -23.907 -14.180  10.843  1.00  0.00     0.171 HD
HETATM   10  C11 UNL     1     -27.413 -14.335  13.919  1.00  0.00     0.046 C 
HETATM   11  C12 UNL     1     -27.316 -13.568  15.221  1.00  0.00     0.011 C 
HETATM   12  C13 UNL     1     -25.921 -13.894  15.672  1.00  0.00     0.058 C 
ENDROOT
BRANCH   1  13
HETATM   13  S1  UNL     1     -21.679 -13.647  12.435  1.00  0.00    -0.089 SA
BRANCH  13  14
HETATM   14  C6  UNL     1     -21.051 -12.074  13.121  1.00  0.00     0.121 C 
BRANCH  14  15
HETATM   15  C5  UNL     1     -20.166 -11.475  12.099  1.00  0.00    -0.049 A 
HETATM   16  C4  UNL     1     -20.642 -10.860  10.959  1.00  0.00     0.008 A 
HETATM   17  C3  UNL     1     -19.771 -10.320  10.040  1.00  0.00     0.007 A 
HETATM   18  C2  UNL     1     -18.405 -10.361  10.203  1.00  0.00    -0.062 A 
HETATM   19  C1  UNL     1     -17.474  -9.774   9.203  1.00  0.00     0.048 C 
HETATM   20  C15 UNL     1     -17.933 -10.984  11.357  1.00  0.00     0.007 A 
HETATM   21  C14 UNL     1     -18.805 -11.530  12.284  1.00  0.00     0.008 A 
ENDBRANCH  14  15
ENDBRANCH  13  14
ENDBRANCH   1  13
TORSDOF 3
ENDMDL
