MODEL 6
REMARK VINA RESULT: -8.960501102      2.405      7.966
REMARK  3 active torsions:
REMARK  status: ('A' for Active; 'I' for Inactive)
REMARK    1  A    between atoms: C5_5  and  C6_6 
REMARK    2  A    between atoms: C6_6  and  S1_7 
REMARK    3  A    between atoms: S1_7  and  C7_8 
ROOT
HETATM    1  C7  UNL     1     -19.955 -11.999  12.429  1.00  0.00     0.147 A 
HETATM    2  N1  UNL     1     -18.648 -11.786  12.616  1.00  0.00    -0.340 N 
ATOM      3  H1  UNL     1     -18.211 -12.153  13.460  1.00  0.00     0.168 HD
HETATM    4  C8  UNL     1     -17.884 -11.106  11.738  1.00  0.00     0.023 A 
HETATM    5  C9  UNL     1     -18.494 -10.620  10.604  1.00  0.00     0.033 A 
HETATM    6  C10 UNL     1     -19.838 -10.836  10.405  1.00  0.00     0.255 A 
HETATM    7  O1  UNL     1     -20.434 -10.407   9.381  1.00  0.00    -0.268 OA
HETATM    8  N2  UNL     1     -20.557 -11.529  11.330  1.00  0.00    -0.303 N 
ATOM      9  H2  UNL     1     -21.554 -11.690  11.186  1.00  0.00     0.171 HD
HETATM   10  C11 UNL     1     -17.478  -9.908   9.774  1.00  0.00     0.046 C 
HETATM   11  C12 UNL     1     -16.176 -10.530  10.234  1.00  0.00     0.011 C 
HETATM   12  C13 UNL     1     -16.428 -10.732  11.701  1.00  0.00     0.058 C 
ENDROOT
BRANCH   1  13
HETATM   13  S1  UNL     1     -20.918 -12.898  13.618  1.00  0.00    -0.089 SA
BRANCH  13  14
HETATM   14  C6  UNL     1     -22.129 -13.991  12.792  1.00  0.00     0.121 C 
BRANCH  14  15
HETATM   15  C5  UNL     1     -23.412 -13.842  13.512  1.00  0.00    -0.049 A 
HETATM   16  C4  UNL     1     -23.515 -13.237  14.748  1.00  0.00     0.008 A 
HETATM   17  C3  UNL     1     -24.737 -13.126  15.373  1.00  0.00     0.007 A 
HETATM   18  C2  UNL     1     -25.900 -13.602  14.811  1.00  0.00    -0.062 A 
HETATM   19  C1  UNL     1     -27.214 -13.476  15.496  1.00  0.00     0.048 C 
HETATM   20  C15 UNL     1     -25.786 -14.211  13.563  1.00  0.00     0.007 A 
HETATM   21  C14 UNL     1     -24.559 -14.326  12.931  1.00  0.00     0.008 A 
ENDBRANCH  14  15
ENDBRANCH  13  14
ENDBRANCH   1  13
TORSDOF 3
ENDMDL
