MODEL 5
REMARK VINA RESULT: -8.967814459      2.410      7.996
REMARK  3 active torsions:
REMARK  status: ('A' for Active; 'I' for Inactive)
REMARK    1  A    between atoms: C5_5  and  C6_6 
REMARK    2  A    between atoms: C6_6  and  S1_7 
REMARK    3  A    between atoms: S1_7  and  C7_8 
ROOT
HETATM    1  C7  UNL     1     -19.963 -11.995  12.448  1.00  0.00     0.147 A 
HETATM    2  N1  UNL     1     -18.656 -11.788  12.638  1.00  0.00    -0.340 N 
ATOM      3  H1  UNL     1     -18.222 -12.160  13.483  1.00  0.00     0.168 HD
HETATM    4  C8  UNL     1     -17.886 -11.110  11.764  1.00  0.00     0.023 A 
HETATM    5  C9  UNL     1     -18.491 -10.617  10.630  1.00  0.00     0.033 A 
HETATM    6  C10 UNL     1     -19.837 -10.826  10.428  1.00  0.00     0.255 A 
HETATM    7  O1  UNL     1     -20.428 -10.392   9.404  1.00  0.00    -0.268 OA
HETATM    8  N2  UNL     1     -20.561 -11.518  11.349  1.00  0.00    -0.303 N 
ATOM      9  H2  UNL     1     -21.559 -11.674  11.202  1.00  0.00     0.171 HD
HETATM   10  C11 UNL     1     -17.471  -9.908   9.805  1.00  0.00     0.046 C 
HETATM   11  C12 UNL     1     -16.173 -10.538  10.266  1.00  0.00     0.011 C 
HETATM   12  C13 UNL     1     -16.428 -10.743  11.732  1.00  0.00     0.058 C 
ENDROOT
BRANCH   1  13
HETATM   13  S1  UNL     1     -20.934 -12.893  13.632  1.00  0.00    -0.089 SA
BRANCH  13  14
HETATM   14  C6  UNL     1     -22.088 -14.041  12.801  1.00  0.00     0.121 C 
BRANCH  14  15
HETATM   15  C5  UNL     1     -23.403 -13.890  13.461  1.00  0.00    -0.049 A 
HETATM   16  C4  UNL     1     -24.589 -14.276  12.871  1.00  0.00     0.008 A 
HETATM   17  C3  UNL     1     -25.785 -14.111  13.532  1.00  0.00     0.007 A 
HETATM   18  C2  UNL     1     -25.864 -13.563  14.793  1.00  0.00    -0.062 A 
HETATM   19  C1  UNL     1     -27.162 -13.391  15.497  1.00  0.00     0.048 C 
HETATM   20  C15 UNL     1     -24.661 -13.176  15.381  1.00  0.00     0.007 A 
HETATM   21  C14 UNL     1     -23.455 -13.340  14.719  1.00  0.00     0.008 A 
ENDBRANCH  14  15
ENDBRANCH  13  14
ENDBRANCH   1  13
TORSDOF 3
ENDMDL
