MODEL 1
REMARK VINA RESULT: -9.358918256      0.000      0.000
REMARK  3 active torsions:
REMARK  status: ('A' for Active; 'I' for Inactive)
REMARK    1  A    between atoms: C5_5  and  C6_6 
REMARK    2  A    between atoms: C6_6  and  S1_7 
REMARK    3  A    between atoms: S1_7  and  C7_8 
ROOT
HETATM    1  C7  UNL     1     -22.552 -13.173  12.477  1.00  0.00     0.147 A 
HETATM    2  N1  UNL     1     -23.231 -12.505  13.415  1.00  0.00    -0.340 N 
ATOM      3  H1  UNL     1     -23.019 -11.518  13.559  1.00  0.00     0.168 HD
HETATM    4  C8  UNL     1     -24.182 -13.078  14.179  1.00  0.00     0.023 A 
HETATM    5  C9  UNL     1     -24.453 -14.411  13.968  1.00  0.00     0.033 A 
HETATM    6  C10 UNL     1     -23.758 -15.105  13.004  1.00  0.00     0.255 A 
HETATM    7  O1  UNL     1     -23.975 -16.325  12.780  1.00  0.00    -0.268 OA
HETATM    8  N2  UNL     1     -22.808 -14.470  12.265  1.00  0.00    -0.303 N 
ATOM      9  H2  UNL     1     -22.290 -14.982  11.550  1.00  0.00     0.171 HD
HETATM   10  C11 UNL     1     -25.527 -14.842  14.909  1.00  0.00     0.046 C 
HETATM   11  C12 UNL     1     -26.224 -13.539  15.240  1.00  0.00     0.011 C 
HETATM   12  C13 UNL     1     -25.076 -12.572  15.278  1.00  0.00     0.058 C 
ENDROOT
BRANCH   1  13
HETATM   13  S1  UNL     1     -21.306 -12.373  11.498  1.00  0.00    -0.089 SA
BRANCH  13  14
HETATM   14  C6  UNL     1     -19.784 -12.094  12.470  1.00  0.00     0.121 C 
BRANCH  14  15
HETATM   15  C5  UNL     1     -18.876 -11.280  11.633  1.00  0.00    -0.049 A 
HETATM   16  C4  UNL     1     -17.522 -11.174  11.875  1.00  0.00     0.008 A 
HETATM   17  C3  UNL     1     -16.724 -10.400  11.063  1.00  0.00     0.007 A 
HETATM   18  C2  UNL     1     -17.222  -9.703   9.985  1.00  0.00    -0.062 A 
HETATM   19  C1  UNL     1     -16.350  -8.871   9.114  1.00  0.00     0.048 C 
HETATM   20  C15 UNL     1     -18.591  -9.816   9.747  1.00  0.00     0.007 A 
HETATM   21  C14 UNL     1     -19.398 -10.593  10.562  1.00  0.00     0.008 A 
ENDBRANCH  14  15
ENDBRANCH  13  14
ENDBRANCH   1  13
TORSDOF 3
ENDMDL
