MODEL 2
REMARK VINA RESULT: -9.173237886      1.070      1.535
REMARK  3 active torsions:
REMARK  status: ('A' for Active; 'I' for Inactive)
REMARK    1  A    between atoms: C5_5  and  C6_6 
REMARK    2  A    between atoms: C6_6  and  S1_7 
REMARK    3  A    between atoms: S1_7  and  C7_8 
ROOT
HETATM    1  C7  UNL     1     -22.665 -13.365  12.512  1.00  0.00     0.147 A 
HETATM    2  N1  UNL     1     -23.107 -13.069  13.738  1.00  0.00    -0.340 N 
ATOM      3  H1  UNL     1     -22.487 -12.562  14.370  1.00  0.00     0.168 HD
HETATM    4  C8  UNL     1     -24.334 -13.410  14.177  1.00  0.00     0.023 A 
HETATM    5  C9  UNL     1     -25.156 -14.093  13.309  1.00  0.00     0.033 A 
HETATM    6  C10 UNL     1     -24.707 -14.402  12.045  1.00  0.00     0.255 A 
HETATM    7  O1  UNL     1     -25.427 -15.026  11.221  1.00  0.00    -0.268 OA
HETATM    8  N2  UNL     1     -23.456 -14.031  11.660  1.00  0.00    -0.303 N 
ATOM      9  H2  UNL     1     -23.120 -14.259  10.724  1.00  0.00     0.171 HD
HETATM   10  C11 UNL     1     -26.455 -14.369  13.987  1.00  0.00     0.046 C 
HETATM   11  C12 UNL     1     -26.508 -13.300  15.058  1.00  0.00     0.011 C 
HETATM   12  C13 UNL     1     -25.068 -13.206  15.475  1.00  0.00     0.058 C 
ENDROOT
BRANCH   1  13
HETATM   13  S1  UNL     1     -21.037 -12.895  11.982  1.00  0.00    -0.089 SA
BRANCH  13  14
HETATM   14  C6  UNL     1     -21.075 -11.319  11.059  1.00  0.00     0.121 C 
BRANCH  14  15
HETATM   15  C5  UNL     1     -19.674 -10.873  10.900  1.00  0.00    -0.049 A 
HETATM   16  C4  UNL     1     -19.262 -10.033   9.886  1.00  0.00     0.008 A 
HETATM   17  C3  UNL     1     -17.943  -9.650   9.787  1.00  0.00     0.007 A 
HETATM   18  C2  UNL     1     -16.982 -10.075  10.675  1.00  0.00    -0.062 A 
HETATM   19  C1  UNL     1     -15.560  -9.655  10.558  1.00  0.00     0.048 C 
HETATM   20  C15 UNL     1     -17.407 -10.923  11.696  1.00  0.00     0.007 A 
HETATM   21  C14 UNL     1     -18.732 -11.312  11.800  1.00  0.00     0.008 A 
ENDBRANCH  14  15
ENDBRANCH  13  14
ENDBRANCH   1  13
TORSDOF 3
ENDMDL
