MODEL 4
REMARK VINA RESULT: -8.968733703      1.307      1.307
REMARK  3 active torsions:
REMARK  status: ('A' for Active; 'I' for Inactive)
REMARK    1  A    between atoms: C5_5  and  C6_6 
REMARK    2  A    between atoms: C6_6  and  S1_7 
REMARK    3  A    between atoms: S1_7  and  C7_8 
ROOT
HETATM    1  C7  UNL     1     -21.525 -13.379  13.933  1.00  0.00     0.147 A 
HETATM    2  N1  UNL     1     -22.616 -12.649  14.188  1.00  0.00    -0.340 N 
ATOM      3  H1  UNL     1     -22.599 -11.654  13.966  1.00  0.00     0.168 HD
HETATM    4  C8  UNL     1     -23.737 -13.170  14.726  1.00  0.00     0.023 A 
HETATM    5  C9  UNL     1     -23.739 -14.515  15.017  1.00  0.00     0.033 A 
HETATM    6  C10 UNL     1     -22.620 -15.272  14.757  1.00  0.00     0.255 A 
HETATM    7  O1  UNL     1     -22.581 -16.506  15.010  1.00  0.00    -0.268 OA
HETATM    8  N2  UNL     1     -21.517 -14.688  14.214  1.00  0.00    -0.303 N 
ATOM      9  H2  UNL     1     -20.686 -15.247  14.021  1.00  0.00     0.171 HD
HETATM   10  C11 UNL     1     -25.063 -14.883  15.598  1.00  0.00     0.046 C 
HETATM   11  C12 UNL     1     -25.973 -13.793  15.071  1.00  0.00     0.011 C 
HETATM   12  C13 UNL     1     -25.072 -12.591  15.105  1.00  0.00     0.058 C 
ENDROOT
BRANCH   1  13
HETATM   13  S1  UNL     1     -20.072 -12.644  13.226  1.00  0.00    -0.089 SA
BRANCH  13  14
HETATM   14  C6  UNL     1     -20.511 -11.433  11.930  1.00  0.00     0.121 C 
BRANCH  14  15
HETATM   15  C5  UNL     1     -19.245 -10.951  11.338  1.00  0.00    -0.049 A 
HETATM   16  C4  UNL     1     -18.008 -11.209  11.893  1.00  0.00     0.008 A 
HETATM   17  C3  UNL     1     -16.861 -10.734  11.298  1.00  0.00     0.007 A 
HETATM   18  C2  UNL     1     -16.883  -9.990  10.140  1.00  0.00    -0.062 A 
HETATM   19  C1  UNL     1     -15.637  -9.482   9.507  1.00  0.00     0.048 C 
HETATM   20  C15 UNL     1     -18.136  -9.734   9.587  1.00  0.00     0.007 A 
HETATM   21  C14 UNL     1     -19.293 -10.209  10.181  1.00  0.00     0.008 A 
ENDBRANCH  14  15
ENDBRANCH  13  14
ENDBRANCH   1  13
TORSDOF 3
ENDMDL
