MODEL 8
REMARK VINA RESULT: -8.861321545      5.603      9.563
REMARK  3 active torsions:
REMARK  status: ('A' for Active; 'I' for Inactive)
REMARK    1  A    between atoms: C5_5  and  C6_6 
REMARK    2  A    between atoms: C6_6  and  S1_7 
REMARK    3  A    between atoms: S1_7  and  C7_8 
ROOT
HETATM    1  C7  UNL     1     -14.896 -10.476   9.842  1.00  0.00     0.147 A 
HETATM    2  N1  UNL     1     -14.827 -11.798  10.025  1.00  0.00    -0.340 N 
ATOM      3  H1  UNL     1     -15.594 -12.263  10.511  1.00  0.00     0.168 HD
HETATM    4  C8  UNL     1     -13.790 -12.544   9.598  1.00  0.00     0.023 A 
HETATM    5  C9  UNL     1     -12.765 -11.897   8.944  1.00  0.00     0.033 A 
HETATM    6  C10 UNL     1     -12.829 -10.536   8.752  1.00  0.00     0.255 A 
HETATM    7  O1  UNL     1     -11.913  -9.907   8.159  1.00  0.00    -0.268 OA
HETATM    8  N2  UNL     1     -13.904  -9.837   9.208  1.00  0.00    -0.303 N 
ATOM      9  H2  UNL     1     -13.954  -8.828   9.068  1.00  0.00     0.171 HD
HETATM   10  C11 UNL     1     -11.728 -12.898   8.558  1.00  0.00     0.046 C 
HETATM   11  C12 UNL     1     -12.511 -14.194   8.524  1.00  0.00     0.011 C 
HETATM   12  C13 UNL     1     -13.466 -14.011   9.668  1.00  0.00     0.058 C 
ENDROOT
BRANCH   1  13
HETATM   13  S1  UNL     1     -16.284  -9.537  10.427  1.00  0.00    -0.089 SA
BRANCH  13  14
HETATM   14  C6  UNL     1     -17.784  -9.900   9.447  1.00  0.00     0.121 C 
BRANCH  14  15
HETATM   15  C5  UNL     1     -18.770 -10.504  10.368  1.00  0.00    -0.049 A 
HETATM   16  C4  UNL     1     -20.127 -10.512  10.118  1.00  0.00     0.008 A 
HETATM   17  C3  UNL     1     -21.001 -11.089  11.012  1.00  0.00     0.007 A 
HETATM   18  C2  UNL     1     -20.578 -11.679  12.182  1.00  0.00    -0.062 A 
HETATM   19  C1  UNL     1     -21.531 -12.299  13.140  1.00  0.00     0.048 C 
HETATM   20  C15 UNL     1     -19.206 -11.667  12.426  1.00  0.00     0.007 A 
HETATM   21  C14 UNL     1     -18.324 -11.087  11.530  1.00  0.00     0.008 A 
ENDBRANCH  14  15
ENDBRANCH  13  14
ENDBRANCH   1  13
TORSDOF 3
ENDMDL
