MODEL 7
REMARK VINA RESULT: -8.932743571      1.171      1.576
REMARK  3 active torsions:
REMARK  status: ('A' for Active; 'I' for Inactive)
REMARK    1  A    between atoms: C5_5  and  C6_6 
REMARK    2  A    between atoms: C6_6  and  S1_7 
REMARK    3  A    between atoms: S1_7  and  C7_8 
ROOT
HETATM    1  C7  UNL     1     -21.930 -13.459  13.911  1.00  0.00     0.147 A 
HETATM    2  N1  UNL     1     -22.942 -12.687  14.320  1.00  0.00    -0.340 N 
ATOM      3  H1  UNL     1     -22.860 -11.677  14.208  1.00  0.00     0.168 HD
HETATM    4  C8  UNL     1     -24.065 -13.184  14.875  1.00  0.00     0.023 A 
HETATM    5  C9  UNL     1     -24.156 -14.550  15.018  1.00  0.00     0.033 A 
HETATM    6  C10 UNL     1     -23.118 -15.351  14.599  1.00  0.00     0.255 A 
HETATM    7  O1  UNL     1     -23.161 -16.605  14.711  1.00  0.00    -0.268 OA
HETATM    8  N2  UNL     1     -22.008 -14.789  14.047  1.00  0.00    -0.303 N 
ATOM      9  H2  UNL     1     -21.237 -15.380  13.736  1.00  0.00     0.171 HD
HETATM   10  C11 UNL     1     -25.466 -14.886  15.646  1.00  0.00     0.046 C 
HETATM   11  C12 UNL     1     -26.318 -13.681  15.308  1.00  0.00     0.011 C 
HETATM   12  C13 UNL     1     -25.325 -12.559  15.409  1.00  0.00     0.058 C 
ENDROOT
BRANCH   1  13
HETATM   13  S1  UNL     1     -20.470 -12.754  13.188  1.00  0.00    -0.089 SA
BRANCH  13  14
HETATM   14  C6  UNL     1     -20.895 -11.624  11.817  1.00  0.00     0.121 C 
BRANCH  14  15
HETATM   15  C5  UNL     1     -19.626 -11.059  11.309  1.00  0.00    -0.049 A 
HETATM   16  C4  UNL     1     -19.552 -10.273  10.178  1.00  0.00     0.008 A 
HETATM   17  C3  UNL     1     -18.343  -9.773   9.750  1.00  0.00     0.007 A 
HETATM   18  C2  UNL     1     -17.163 -10.026  10.414  1.00  0.00    -0.062 A 
HETATM   19  C1  UNL     1     -15.862  -9.481   9.943  1.00  0.00     0.048 C 
HETATM   20  C15 UNL     1     -17.247 -10.820  11.555  1.00  0.00     0.007 A 
HETATM   21  C14 UNL     1     -18.462 -11.325  11.989  1.00  0.00     0.008 A 
ENDBRANCH  14  15
ENDBRANCH  13  14
ENDBRANCH   1  13
TORSDOF 3
ENDMDL
