MODEL 3
REMARK VINA RESULT: -7.870904768      2.068      8.987
REMARK  16 active torsions:
REMARK  status: ('A' for Active; 'I' for Inactive)
REMARK    1  A    between atoms: C8_8  and  O1_9 
REMARK    2  A    between atoms: O1_9  and  C9_10 
REMARK    3  A    between atoms: C9_10  and  C10_11 
REMARK       I    between atoms: C10_11  and  N1_13 
REMARK    4  A    between atoms: N1_13  and  C11_15 
REMARK    5  A    between atoms: C11_15  and  C12_16 
REMARK    6  A    between atoms: C11_15  and  C19_23 
REMARK    7  A    between atoms: C12_16  and  C13_17 
REMARK    8  A    between atoms: C19_23  and  O3_24 
REMARK    9  A    between atoms: C19_23  and  C20_26 
REMARK   10  A    between atoms: C20_26  and  C21_27 
REMARK   11  A    between atoms: C21_27  and  C22_28 
REMARK   12  A    between atoms: C21_27  and  N2_35 
REMARK   13  A    between atoms: C22_28  and  C23_29 
REMARK       I    between atoms: N2_35  and  C29_37 
REMARK   14  A    between atoms: C29_37  and  C30_39 
REMARK   15  A    between atoms: C30_39  and  C31_40 
REMARK   16  A    between atoms: C30_39  and  N3_43 
ROOT
HETATM    1  C19 UNL     1      -6.633  13.975   0.669  1.00  0.00     0.143 C 
ENDROOT
BRANCH   1   2
HETATM    2  C11 UNL     1      -7.749  14.486   1.586  1.00  0.00     0.117 C 
BRANCH   2   3
HETATM    3  N1  UNL     1      -7.588  14.172   2.952  1.00  0.00    -0.352 N 
HETATM    4  C10 UNL     1      -8.103  12.977   3.569  1.00  0.00     0.242 C 
HETATM    5  O2  UNL     1      -8.701  12.242   2.767  1.00  0.00    -0.271 OA
ATOM      6  H1  UNL     1      -7.077  14.831   3.538  1.00  0.00     0.163 HD
BRANCH   4   7
HETATM    7  C9  UNL     1      -7.882  12.759   5.008  1.00  0.00     0.278 C 
BRANCH   7   8
HETATM    8  O1  UNL     1      -8.652  13.348   5.932  1.00  0.00    -0.341 OA
BRANCH   8   9
HETATM    9  C8  UNL     1      -9.735  14.146   5.800  1.00  0.00     0.081 A 
HETATM   10  C2  UNL     1      -9.651  15.509   5.779  1.00  0.00    -0.028 A 
HETATM   11  C1  UNL     1      -8.317  16.182   5.834  1.00  0.00     0.051 C 
HETATM   12  C3  UNL     1     -10.745  16.362   5.652  1.00  0.00     0.009 A 
HETATM   13  C4  UNL     1     -11.997  15.745   5.540  1.00  0.00     0.001 A 
HETATM   14  C5  UNL     1     -12.109  14.370   5.556  1.00  0.00     0.009 A 
HETATM   15  C6  UNL     1     -11.012  13.575   5.683  1.00  0.00    -0.028 A 
HETATM   16  C7  UNL     1     -11.103  12.110   5.699  1.00  0.00     0.051 C 
ENDBRANCH   8   9
ENDBRANCH   7   8
ENDBRANCH   4   7
ENDBRANCH   2   3
BRANCH   2  17
HETATM   17  C12 UNL     1      -8.099  15.914   1.285  1.00  0.00     0.066 C 
BRANCH  17  18
HETATM   18  C13 UNL     1      -9.523  16.237   1.524  1.00  0.00    -0.056 A 
HETATM   19  C14 UNL     1      -9.980  17.531   1.570  1.00  0.00     0.007 A 
HETATM   20  C15 UNL     1     -11.311  17.799   1.785  1.00  0.00     0.001 A 
HETATM   21  C16 UNL     1     -12.181  16.730   1.953  1.00  0.00     0.000 A 
HETATM   22  C17 UNL     1     -11.747  15.421   1.911  1.00  0.00     0.001 A 
HETATM   23  C18 UNL     1     -10.392  15.185   1.692  1.00  0.00     0.007 A 
ENDBRANCH  17  18
ENDBRANCH   2  17
ENDBRANCH   1   2
BRANCH   1  24
HETATM   24  O3  UNL     1      -5.565  13.625   1.487  1.00  0.00    -0.393 OA
ATOM     25  H3  UNL     1      -5.273  14.421   1.917  1.00  0.00     0.210 HD
ENDBRANCH   1  24
BRANCH   1  26
HETATM   26  C20 UNL     1      -7.051  12.991  -0.321  1.00  0.00     0.059 C 
BRANCH  26  27
HETATM   27  C21 UNL     1      -7.597  13.456  -1.633  1.00  0.00     0.091 C 
BRANCH  27  28
HETATM   28  C22 UNL     1      -9.060  13.557  -1.753  1.00  0.00     0.063 C 
BRANCH  28  29
HETATM   29  C23 UNL     1      -9.655  14.893  -1.907  1.00  0.00    -0.056 A 
HETATM   30  C24 UNL     1      -8.888  16.025  -2.164  1.00  0.00     0.007 A 
HETATM   31  C25 UNL     1      -9.450  17.279  -2.282  1.00  0.00     0.001 A 
HETATM   32  C26 UNL     1     -10.815  17.424  -2.140  1.00  0.00     0.000 A 
HETATM   33  C27 UNL     1     -11.616  16.339  -1.887  1.00  0.00     0.001 A 
HETATM   34  C28 UNL     1     -11.028  15.115  -1.778  1.00  0.00     0.007 A 
ENDBRANCH  28  29
ENDBRANCH  27  28
BRANCH  27  35
HETATM   35  N2  UNL     1      -7.047  12.681  -2.745  1.00  0.00    -0.354 N 
HETATM   36  C29 UNL     1      -5.953  13.118  -3.542  1.00  0.00     0.241 C 
HETATM   37  O4  UNL     1      -5.448  14.266  -3.250  1.00  0.00    -0.271 OA
ATOM     38  H2  UNL     1      -7.471  11.779  -2.960  1.00  0.00     0.162 HD
BRANCH  36  39
HETATM   39  C30 UNL     1      -5.395  12.345  -4.648  1.00  0.00     0.184 C 
BRANCH  39  40
HETATM   40  C31 UNL     1      -6.417  11.823  -5.635  1.00  0.00     0.010 C 
HETATM   41  C32 UNL     1      -7.067  12.897  -6.458  1.00  0.00     0.012 C 
HETATM   42  C33 UNL     1      -5.951  10.630  -6.428  1.00  0.00     0.012 C 
ENDBRANCH  39  40
BRANCH  39  43
HETATM   43  N3  UNL     1      -4.507  11.322  -4.185  1.00  0.00    -0.320 N 
HETATM   44  C34 UNL     1      -4.703  10.430  -3.082  1.00  0.00     0.130 C 
HETATM   45  C35 UNL     1      -4.607   9.005  -3.571  1.00  0.00     0.040 C 
HETATM   46  C36 UNL     1      -3.347   8.746  -4.356  1.00  0.00     0.126 C 
HETATM   47  N4  UNL     1      -2.561   9.932  -4.603  1.00  0.00    -0.343 N 
HETATM   48  C37 UNL     1      -3.252  11.140  -4.890  1.00  0.00     0.319 C 
ATOM     49  H4  UNL     1      -1.542   9.904  -4.572  1.00  0.00     0.164 HD
HETATM   50  O5  UNL     1      -2.850  12.009  -5.680  1.00  0.00    -0.247 OA
ENDBRANCH  39  43
ENDBRANCH  36  39
ENDBRANCH  27  35
ENDBRANCH  26  27
ENDBRANCH   1  26
TORSDOF 16
ENDMDL
