MODEL 2
REMARK VINA RESULT: -8.263146463      2.281     10.101
REMARK  16 active torsions:
REMARK  status: ('A' for Active; 'I' for Inactive)
REMARK    1  A    between atoms: C8_8  and  O1_9 
REMARK    2  A    between atoms: O1_9  and  C9_10 
REMARK    3  A    between atoms: C9_10  and  C10_11 
REMARK       I    between atoms: C10_11  and  N1_13 
REMARK    4  A    between atoms: N1_13  and  C11_15 
REMARK    5  A    between atoms: C11_15  and  C12_16 
REMARK    6  A    between atoms: C11_15  and  C19_23 
REMARK    7  A    between atoms: C12_16  and  C13_17 
REMARK    8  A    between atoms: C19_23  and  O3_24 
REMARK    9  A    between atoms: C19_23  and  C20_26 
REMARK   10  A    between atoms: C20_26  and  C21_27 
REMARK   11  A    between atoms: C21_27  and  C22_28 
REMARK   12  A    between atoms: C21_27  and  N2_35 
REMARK   13  A    between atoms: C22_28  and  C23_29 
REMARK       I    between atoms: N2_35  and  C29_37 
REMARK   14  A    between atoms: C29_37  and  C30_39 
REMARK   15  A    between atoms: C30_39  and  C31_40 
REMARK   16  A    between atoms: C30_39  and  N3_43 
ROOT
HETATM    1  C19 UNL     1      -8.070  16.473   0.059  1.00  0.00     0.143 C 
ENDROOT
BRANCH   1   2
HETATM    2  C11 UNL     1      -8.575  16.146   1.469  1.00  0.00     0.117 C 
BRANCH   2   3
HETATM    3  N1  UNL     1      -9.965  15.928   1.567  1.00  0.00    -0.352 N 
HETATM    4  C10 UNL     1     -10.940  16.981   1.684  1.00  0.00     0.242 C 
HETATM    5  O2  UNL     1     -10.427  18.111   1.681  1.00  0.00    -0.271 OA
ATOM      6  H1  UNL     1     -10.301  14.965   1.555  1.00  0.00     0.163 HD
BRANCH   4   7
HETATM    7  C9  UNL     1     -12.367  16.633   1.789  1.00  0.00     0.278 C 
BRANCH   7   8
HETATM    8  O1  UNL     1     -13.011  16.669   2.962  1.00  0.00    -0.341 OA
BRANCH   8   9
HETATM    9  C8  UNL     1     -12.615  17.121   4.173  1.00  0.00     0.081 A 
HETATM   10  C2  UNL     1     -12.727  18.430   4.547  1.00  0.00    -0.028 A 
HETATM   11  C1  UNL     1     -13.369  19.422   3.631  1.00  0.00     0.051 C 
HETATM   12  C3  UNL     1     -12.323  18.932   5.782  1.00  0.00     0.009 A 
HETATM   13  C4  UNL     1     -11.773  18.003   6.674  1.00  0.00     0.001 A 
HETATM   14  C5  UNL     1     -11.651  16.675   6.322  1.00  0.00     0.009 A 
HETATM   15  C6  UNL     1     -12.059  16.229   5.103  1.00  0.00    -0.028 A 
HETATM   16  C7  UNL     1     -11.944  14.820   4.705  1.00  0.00     0.051 C 
ENDBRANCH   8   9
ENDBRANCH   7   8
ENDBRANCH   4   7
ENDBRANCH   2   3
BRANCH   2  17
HETATM   17  C12 UNL     1      -7.708  15.123   2.143  1.00  0.00     0.066 C 
BRANCH  17  18
HETATM   18  C13 UNL     1      -8.017  14.939   3.577  1.00  0.00    -0.056 A 
HETATM   19  C14 UNL     1      -8.027  15.989   4.462  1.00  0.00     0.007 A 
HETATM   20  C15 UNL     1      -8.327  15.789   5.788  1.00  0.00     0.001 A 
HETATM   21  C16 UNL     1      -8.619  14.499   6.211  1.00  0.00     0.000 A 
HETATM   22  C17 UNL     1      -8.616  13.427   5.342  1.00  0.00     0.001 A 
HETATM   23  C18 UNL     1      -8.308  13.665   4.006  1.00  0.00     0.007 A 
ENDBRANCH  17  18
ENDBRANCH   2  17
ENDBRANCH   1   2
BRANCH   1  24
HETATM   24  O3  UNL     1      -6.682  16.406   0.101  1.00  0.00    -0.393 OA
ATOM     25  H3  UNL     1      -6.357  16.973  -0.589  1.00  0.00     0.210 HD
ENDBRANCH   1  24
BRANCH   1  26
HETATM   26  C20 UNL     1      -8.730  15.744  -1.015  1.00  0.00     0.059 C 
BRANCH  26  27
HETATM   27  C21 UNL     1      -7.905  14.974  -1.996  1.00  0.00     0.091 C 
BRANCH  27  28
HETATM   28  C22 UNL     1      -8.535  14.633  -3.281  1.00  0.00     0.063 C 
BRANCH  28  29
HETATM   29  C23 UNL     1      -7.761  13.837  -4.245  1.00  0.00    -0.056 A 
HETATM   30  C24 UNL     1      -6.558  14.283  -4.784  1.00  0.00     0.007 A 
HETATM   31  C25 UNL     1      -5.851  13.544  -5.708  1.00  0.00     0.001 A 
HETATM   32  C26 UNL     1      -6.344  12.322  -6.117  1.00  0.00     0.000 A 
HETATM   33  C27 UNL     1      -7.525  11.836  -5.615  1.00  0.00     0.001 A 
HETATM   34  C28 UNL     1      -8.198  12.592  -4.704  1.00  0.00     0.007 A 
ENDBRANCH  28  29
ENDBRANCH  27  28
BRANCH  27  35
HETATM   35  N2  UNL     1      -7.322  13.780  -1.382  1.00  0.00    -0.354 N 
HETATM   36  C29 UNL     1      -5.931  13.624  -1.136  1.00  0.00     0.241 C 
HETATM   37  O4  UNL     1      -5.168  14.598  -1.491  1.00  0.00    -0.271 OA
ATOM     38  H2  UNL     1      -7.948  13.020  -1.117  1.00  0.00     0.162 HD
BRANCH  36  39
HETATM   39  C30 UNL     1      -5.344  12.438  -0.516  1.00  0.00     0.184 C 
BRANCH  39  40
HETATM   40  C31 UNL     1      -5.334  11.205  -1.394  1.00  0.00     0.010 C 
HETATM   41  C32 UNL     1      -4.972  11.484  -2.824  1.00  0.00     0.012 C 
HETATM   42  C33 UNL     1      -4.613  10.028  -0.790  1.00  0.00     0.012 C 
ENDBRANCH  39  40
BRANCH  39  43
HETATM   43  N3  UNL     1      -5.902  12.185   0.778  1.00  0.00    -0.320 N 
HETATM   44  C34 UNL     1      -7.177  11.607   1.082  1.00  0.00     0.130 C 
HETATM   45  C35 UNL     1      -6.977  10.387   1.947  1.00  0.00     0.040 C 
HETATM   46  C36 UNL     1      -6.125  10.669   3.157  1.00  0.00     0.126 C 
HETATM   47  N4  UNL     1      -5.558  11.997   3.174  1.00  0.00    -0.343 N 
HETATM   48  C37 UNL     1      -5.112  12.546   1.941  1.00  0.00     0.319 C 
ATOM     49  H4  UNL     1      -5.480  12.525   4.043  1.00  0.00     0.164 HD
HETATM   50  O5  UNL     1      -4.124  13.286   1.818  1.00  0.00    -0.247 OA
ENDBRANCH  39  43
ENDBRANCH  36  39
ENDBRANCH  27  35
ENDBRANCH  26  27
ENDBRANCH   1  26
TORSDOF 16
ENDMDL
