MODEL 1
REMARK VINA RESULT: -8.377569913      0.000      0.000
REMARK  16 active torsions:
REMARK  status: ('A' for Active; 'I' for Inactive)
REMARK    1  A    between atoms: C8_8  and  O1_9 
REMARK    2  A    between atoms: O1_9  and  C9_10 
REMARK    3  A    between atoms: C9_10  and  C10_11 
REMARK       I    between atoms: C10_11  and  N1_13 
REMARK    4  A    between atoms: N1_13  and  C11_15 
REMARK    5  A    between atoms: C11_15  and  C12_16 
REMARK    6  A    between atoms: C11_15  and  C19_23 
REMARK    7  A    between atoms: C12_16  and  C13_17 
REMARK    8  A    between atoms: C19_23  and  O3_24 
REMARK    9  A    between atoms: C19_23  and  C20_26 
REMARK   10  A    between atoms: C20_26  and  C21_27 
REMARK   11  A    between atoms: C21_27  and  C22_28 
REMARK   12  A    between atoms: C21_27  and  N2_35 
REMARK   13  A    between atoms: C22_28  and  C23_29 
REMARK       I    between atoms: N2_35  and  C29_37 
REMARK   14  A    between atoms: C29_37  and  C30_39 
REMARK   15  A    between atoms: C30_39  and  C31_40 
REMARK   16  A    between atoms: C30_39  and  N3_43 
ROOT
HETATM    1  C19 UNL     1      -5.505  13.768  -0.352  1.00  0.00     0.143 C 
ENDROOT
BRANCH   1   2
HETATM    2  C11 UNL     1      -5.792  13.291  -1.780  1.00  0.00     0.117 C 
BRANCH   2   3
HETATM    3  N1  UNL     1      -6.030  11.907  -1.909  1.00  0.00    -0.352 N 
HETATM    4  C10 UNL     1      -4.989  10.917  -2.006  1.00  0.00     0.242 C 
HETATM    5  O2  UNL     1      -3.851  11.410  -1.956  1.00  0.00    -0.271 OA
ATOM      6  H1  UNL     1      -6.998  11.587  -1.935  1.00  0.00     0.163 HD
BRANCH   4   7
HETATM    7  C9  UNL     1      -5.357   9.498  -2.147  1.00  0.00     0.278 C 
BRANCH   7   8
HETATM    8  O1  UNL     1      -5.258   8.863  -3.322  1.00  0.00    -0.341 OA
BRANCH   8   9
HETATM    9  C8  UNL     1      -4.786   9.284  -4.516  1.00  0.00     0.081 A 
HETATM   10  C2  UNL     1      -3.466   9.203  -4.860  1.00  0.00    -0.028 A 
HETATM   11  C1  UNL     1      -2.483   8.568  -3.929  1.00  0.00     0.051 C 
HETATM   12  C3  UNL     1      -2.943   9.634  -6.076  1.00  0.00     0.009 A 
HETATM   13  C4  UNL     1      -3.860  10.178  -6.983  1.00  0.00     0.001 A 
HETATM   14  C5  UNL     1      -5.199  10.270  -6.663  1.00  0.00     0.009 A 
HETATM   15  C6  UNL     1      -5.666   9.836  -5.460  1.00  0.00    -0.028 A 
HETATM   16  C7  UNL     1      -7.086   9.918  -5.095  1.00  0.00     0.051 C 
ENDBRANCH   8   9
ENDBRANCH   7   8
ENDBRANCH   4   7
ENDBRANCH   2   3
BRANCH   2  17
HETATM   17  C12 UNL     1      -6.778  14.186  -2.473  1.00  0.00     0.066 C 
BRANCH  17  18
HETATM   18  C13 UNL     1      -6.941  13.884  -3.912  1.00  0.00    -0.056 A 
HETATM   19  C14 UNL     1      -5.877  13.876  -4.780  1.00  0.00     0.007 A 
HETATM   20  C15 UNL     1      -6.058  13.583  -6.111  1.00  0.00     0.001 A 
HETATM   21  C16 UNL     1      -7.342  13.293  -6.554  1.00  0.00     0.000 A 
HETATM   22  C17 UNL     1      -8.427  13.294  -5.701  1.00  0.00     0.001 A 
HETATM   23  C18 UNL     1      -8.208  13.596  -4.360  1.00  0.00     0.007 A 
ENDBRANCH  17  18
ENDBRANCH   2  17
ENDBRANCH   1   2
BRANCH   1  24
HETATM   24  O3  UNL     1      -5.528  15.157  -0.376  1.00  0.00    -0.393 OA
ATOM     25  H3  UNL     1      -4.630  15.447  -0.488  1.00  0.00     0.210 HD
ENDBRANCH   1  24
BRANCH   1  26
HETATM   26  C20 UNL     1      -6.295  13.116   0.684  1.00  0.00     0.059 C 
BRANCH  26  27
HETATM   27  C21 UNL     1      -7.064  13.952   1.656  1.00  0.00     0.091 C 
BRANCH  27  28
HETATM   28  C22 UNL     1      -7.454  13.317   2.925  1.00  0.00     0.063 C 
BRANCH  28  29
HETATM   29  C23 UNL     1      -8.203  14.120   3.903  1.00  0.00    -0.056 A 
HETATM   30  C24 UNL     1      -7.693  15.293   4.451  1.00  0.00     0.007 A 
HETATM   31  C25 UNL     1      -8.390  16.027   5.388  1.00  0.00     0.001 A 
HETATM   32  C26 UNL     1      -9.632  15.592   5.800  1.00  0.00     0.000 A 
HETATM   33  C27 UNL     1     -10.181  14.443   5.289  1.00  0.00     0.001 A 
HETATM   34  C28 UNL     1      -9.466  13.742   4.366  1.00  0.00     0.007 A 
ENDBRANCH  28  29
ENDBRANCH  27  28
BRANCH  27  35
HETATM   35  N2  UNL     1      -8.225  14.577   1.022  1.00  0.00    -0.354 N 
HETATM   36  C29 UNL     1      -8.332  15.974   0.782  1.00  0.00     0.241 C 
HETATM   37  O4  UNL     1      -7.341  16.703   1.164  1.00  0.00    -0.271 OA
ATOM     38  H2  UNL     1      -8.999  13.977   0.737  1.00  0.00     0.162 HD
BRANCH  36  39
HETATM   39  C30 UNL     1      -9.484  16.602   0.142  1.00  0.00     0.184 C 
BRANCH  39  40
HETATM   40  C31 UNL     1     -10.744  16.618   0.981  1.00  0.00     0.010 C 
HETATM   41  C32 UNL     1     -10.497  16.885   2.438  1.00  0.00     0.012 C 
HETATM   42  C33 UNL     1     -11.869  17.422   0.385  1.00  0.00     0.012 C 
ENDBRANCH  39  40
BRANCH  39  43
HETATM   43  N3  UNL     1      -9.708  16.084  -1.173  1.00  0.00    -0.320 N 
HETATM   44  C34 UNL     1     -10.313  14.835  -1.529  1.00  0.00     0.130 C 
HETATM   45  C35 UNL     1     -11.496  15.093  -2.430  1.00  0.00     0.040 C 
HETATM   46  C36 UNL     1     -11.146  15.965  -3.608  1.00  0.00     0.126 C 
HETATM   47  N4  UNL     1      -9.802  16.491  -3.565  1.00  0.00    -0.343 N 
HETATM   48  C37 UNL     1      -9.283  16.890  -2.303  1.00  0.00     0.319 C 
ATOM     49  H4  UNL     1      -9.242  16.573  -4.413  1.00  0.00     0.164 HD
HETATM   50  O5  UNL     1      -8.519  17.851  -2.130  1.00  0.00    -0.247 OA
ENDBRANCH  39  43
ENDBRANCH  36  39
ENDBRANCH  27  35
ENDBRANCH  26  27
ENDBRANCH   1  26
TORSDOF 16
ENDMDL
