MODEL 10
REMARK VINA RESULT: -10.580378262      3.713      7.248
REMARK  3 active torsions:
REMARK  status: ('A' for Active; 'I' for Inactive)
REMARK    1  A    between atoms: C2_5  and  C3_6 
REMARK    2  A    between atoms: C6_9  and  C7_10 
REMARK    3  A    between atoms: C7_10  and  C8_11 
ROOT
HETATM    1  C3  UNL     1      14.094 -12.824  16.247  1.00  0.00    -0.009 A 
HETATM    2  C4  UNL     1      13.091 -13.511  15.625  1.00  0.00     0.014 A 
HETATM    3  C5  UNL     1      12.391 -14.538  16.270  1.00  0.00     0.008 A 
HETATM    4  C6  UNL     1      12.707 -14.879  17.563  1.00  0.00    -0.054 A 
HETATM    5  C14 UNL     1      13.718 -14.187  18.188  1.00  0.00     0.008 A 
HETATM    6  C15 UNL     1      14.414 -13.165  17.549  1.00  0.00     0.014 A 
ENDROOT
BRANCH   1   7
HETATM    7  C2  UNL     1      14.817 -11.738  15.532  1.00  0.00     0.050 A 
HETATM    8  N2  UNL     1      14.292 -10.551  15.402  1.00  0.00    -0.338 N 
HETATM    9  C1  UNL     1      14.947  -9.602  14.767  1.00  0.00     0.158 A 
ATOM     10  H2  UNL     1      13.371 -10.357  15.793  1.00  0.00     0.167 HD
HETATM   11  N1  UNL     1      14.513  -8.267  14.541  1.00  0.00    -0.074 NA
HETATM   12  S1  UNL     1      16.388 -10.396  14.314  1.00  0.00    -0.067 SA
HETATM   13  C16 UNL     1      16.058 -11.934  14.983  1.00  0.00     0.083 A 
ENDBRANCH   1   7
BRANCH   4  14
HETATM   14  C7  UNL     1      11.978 -15.949  18.235  1.00  0.00     0.077 C 
BRANCH  14  15
HETATM   15  C8  UNL     1      10.816 -16.456  17.498  1.00  0.00    -0.054 A 
HETATM   16  C9  UNL     1       9.554 -16.117  17.935  1.00  0.00     0.007 A 
HETATM   17  C10 UNL     1       8.410 -16.572  17.271  1.00  0.00     0.001 A 
HETATM   18  C11 UNL     1       8.524 -17.374  16.157  1.00  0.00     0.000 A 
HETATM   19  C12 UNL     1       9.791 -17.710  15.725  1.00  0.00     0.001 A 
HETATM   20  C13 UNL     1      10.926 -17.255  16.390  1.00  0.00     0.007 A 
ENDBRANCH  14  15
ENDBRANCH   4  14
TORSDOF 3
ENDMDL
