MODEL 4
REMARK VINA RESULT: -10.813447772      1.188      1.347
REMARK  3 active torsions:
REMARK  status: ('A' for Active; 'I' for Inactive)
REMARK    1  A    between atoms: C2_5  and  C3_6 
REMARK    2  A    between atoms: C6_9  and  C7_10 
REMARK    3  A    between atoms: C7_10  and  C8_11 
ROOT
HETATM    1  C3  UNL     1      11.619 -15.214  16.778  1.00  0.00    -0.009 A 
HETATM    2  C4  UNL     1      12.073 -14.449  15.742  1.00  0.00     0.014 A 
HETATM    3  C5  UNL     1      13.229 -13.668  15.853  1.00  0.00     0.008 A 
HETATM    4  C6  UNL     1      13.942 -13.656  17.028  1.00  0.00    -0.054 A 
HETATM    5  C14 UNL     1      13.483 -14.426  18.071  1.00  0.00     0.008 A 
HETATM    6  C15 UNL     1      12.334 -15.204  17.963  1.00  0.00     0.014 A 
ENDROOT
BRANCH   1   7
HETATM    7  C2  UNL     1      10.386 -16.033  16.626  1.00  0.00     0.050 A 
HETATM    8  N2  UNL     1       9.371 -15.878  17.431  1.00  0.00    -0.338 N 
HETATM    9  C1  UNL     1       8.288 -16.611  17.280  1.00  0.00     0.158 A 
ATOM     10  H2  UNL     1       9.416 -15.187  18.179  1.00  0.00     0.167 HD
HETATM   11  N1  UNL     1       7.107 -16.563  18.071  1.00  0.00    -0.074 NA
HETATM   12  S1  UNL     1       8.692 -17.583  15.938  1.00  0.00    -0.067 SA
HETATM   13  C16 UNL     1      10.263 -16.977  15.642  1.00  0.00     0.083 A 
ENDBRANCH   1   7
BRANCH   4  14
HETATM   14  C7  UNL     1      15.146 -12.842  17.143  1.00  0.00     0.077 C 
BRANCH  14  15
HETATM   15  C8  UNL     1      15.260 -11.771  16.148  1.00  0.00    -0.054 A 
HETATM   16  C9  UNL     1      14.608 -10.579  16.378  1.00  0.00     0.007 A 
HETATM   17  C10 UNL     1      14.682  -9.524  15.464  1.00  0.00     0.001 A 
HETATM   18  C11 UNL     1      15.416  -9.657  14.305  1.00  0.00     0.000 A 
HETATM   19  C12 UNL     1      16.066 -10.852  14.081  1.00  0.00     0.001 A 
HETATM   20  C13 UNL     1      15.989 -11.900  14.995  1.00  0.00     0.007 A 
ENDBRANCH  14  15
ENDBRANCH   4  14
TORSDOF 3
ENDMDL
