MODEL 2
REMARK VINA RESULT: -10.827353920      1.199      1.738
REMARK  3 active torsions:
REMARK  status: ('A' for Active; 'I' for Inactive)
REMARK    1  A    between atoms: C2_5  and  C3_6 
REMARK    2  A    between atoms: C6_9  and  C7_10 
REMARK    3  A    between atoms: C7_10  and  C8_11 
ROOT
HETATM    1  C3  UNL     1      11.576 -15.201  16.768  1.00  0.00    -0.009 A 
HETATM    2  C4  UNL     1      12.309 -15.206  17.920  1.00  0.00     0.014 A 
HETATM    3  C5  UNL     1      13.467 -14.431  18.061  1.00  0.00     0.008 A 
HETATM    4  C6  UNL     1      13.894 -13.638  17.023  1.00  0.00    -0.054 A 
HETATM    5  C14 UNL     1      13.155 -13.634  15.864  1.00  0.00     0.008 A 
HETATM    6  C15 UNL     1      12.004 -14.402  15.722  1.00  0.00     0.014 A 
ENDROOT
BRANCH   1   7
HETATM    7  C2  UNL     1      10.350 -16.036  16.653  1.00  0.00     0.050 A 
HETATM    8  N2  UNL     1       9.337 -15.860  17.455  1.00  0.00    -0.338 N 
HETATM    9  C1  UNL     1       8.260 -16.608  17.338  1.00  0.00     0.158 A 
ATOM     10  H2  UNL     1       9.379 -15.141  18.177  1.00  0.00     0.167 HD
HETATM   11  N1  UNL     1       7.082 -16.542  18.131  1.00  0.00    -0.074 NA
HETATM   12  S1  UNL     1       8.667 -17.627  16.031  1.00  0.00    -0.067 SA
HETATM   13  C16 UNL     1      10.231 -17.018  15.705  1.00  0.00     0.083 A 
ENDBRANCH   1   7
BRANCH   4  14
HETATM   14  C7  UNL     1      15.100 -12.832  17.170  1.00  0.00     0.077 C 
BRANCH  14  15
HETATM   15  C8  UNL     1      15.251 -11.765  16.176  1.00  0.00    -0.054 A 
HETATM   16  C9  UNL     1      14.606 -10.565  16.387  1.00  0.00     0.007 A 
HETATM   17  C10 UNL     1      14.713  -9.513  15.472  1.00  0.00     0.001 A 
HETATM   18  C11 UNL     1      15.474  -9.657  14.332  1.00  0.00     0.000 A 
HETATM   19  C12 UNL     1      16.117 -10.860  14.127  1.00  0.00     0.001 A 
HETATM   20  C13 UNL     1      16.006 -11.904  15.041  1.00  0.00     0.007 A 
ENDBRANCH  14  15
ENDBRANCH   4  14
TORSDOF 3
ENDMDL
