MODEL 9
REMARK VINA RESULT: -10.589434988      3.747      7.330
REMARK  3 active torsions:
REMARK  status: ('A' for Active; 'I' for Inactive)
REMARK    1  A    between atoms: C2_5  and  C3_6 
REMARK    2  A    between atoms: C6_9  and  C7_10 
REMARK    3  A    between atoms: C7_10  and  C8_11 
ROOT
HETATM    1  C3  UNL     1      14.107 -12.818  16.228  1.00  0.00    -0.009 A 
HETATM    2  C4  UNL     1      13.064 -13.456  15.621  1.00  0.00     0.014 A 
HETATM    3  C5  UNL     1      12.349 -14.475  16.262  1.00  0.00     0.008 A 
HETATM    4  C6  UNL     1      12.691 -14.858  17.537  1.00  0.00    -0.054 A 
HETATM    5  C14 UNL     1      13.742 -14.215  18.147  1.00  0.00     0.008 A 
HETATM    6  C15 UNL     1      14.453 -13.201  17.512  1.00  0.00     0.014 A 
ENDROOT
BRANCH   1   7
HETATM    7  C2  UNL     1      14.845 -11.739  15.518  1.00  0.00     0.050 A 
HETATM    8  N2  UNL     1      14.329 -10.549  15.377  1.00  0.00    -0.338 N 
HETATM    9  C1  UNL     1      14.997  -9.607  14.746  1.00  0.00     0.158 A 
ATOM     10  H2  UNL     1      13.404 -10.348  15.757  1.00  0.00     0.167 HD
HETATM   11  N1  UNL     1      14.573  -8.270  14.511  1.00  0.00    -0.074 NA
HETATM   12  S1  UNL     1      16.438 -10.411  14.314  1.00  0.00    -0.067 SA
HETATM   13  C16 UNL     1      16.091 -11.945  14.985  1.00  0.00     0.083 A 
ENDBRANCH   1   7
BRANCH   4  14
HETATM   14  C7  UNL     1      11.946 -15.920  18.204  1.00  0.00     0.077 C 
BRANCH  14  15
HETATM   15  C8  UNL     1      10.898 -16.541  17.388  1.00  0.00    -0.054 A 
HETATM   16  C9  UNL     1      11.255 -17.510  16.475  1.00  0.00     0.007 A 
HETATM   17  C10 UNL     1      10.298 -18.136  15.671  1.00  0.00     0.001 A 
HETATM   18  C11 UNL     1       8.968 -17.793  15.776  1.00  0.00     0.000 A 
HETATM   19  C12 UNL     1       8.618 -16.822  16.691  1.00  0.00     0.001 A 
HETATM   20  C13 UNL     1       9.575 -16.202  17.490  1.00  0.00     0.007 A 
ENDBRANCH  14  15
ENDBRANCH   4  14
TORSDOF 3
ENDMDL
