MODEL 5
REMARK VINA RESULT: -10.810582603      1.191      1.710
REMARK  3 active torsions:
REMARK  status: ('A' for Active; 'I' for Inactive)
REMARK    1  A    between atoms: C2_5  and  C3_6 
REMARK    2  A    between atoms: C6_9  and  C7_10 
REMARK    3  A    between atoms: C7_10  and  C8_11 
ROOT
HETATM    1  C3  UNL     1      11.636 -15.220  16.824  1.00  0.00    -0.009 A 
HETATM    2  C4  UNL     1      12.006 -14.346  15.842  1.00  0.00     0.014 A 
HETATM    3  C5  UNL     1      13.136 -13.529  15.968  1.00  0.00     0.008 A 
HETATM    4  C6  UNL     1      13.906 -13.591  17.105  1.00  0.00    -0.054 A 
HETATM    5  C14 UNL     1      13.532 -14.471  18.093  1.00  0.00     0.008 A 
HETATM    6  C15 UNL     1      12.411 -15.285  17.969  1.00  0.00     0.014 A 
ENDROOT
BRANCH   1   7
HETATM    7  C2  UNL     1      10.430 -16.074  16.656  1.00  0.00     0.050 A 
HETATM    8  N2  UNL     1       9.371 -15.898  17.397  1.00  0.00    -0.338 N 
HETATM    9  C1  UNL     1       8.313 -16.663  17.234  1.00  0.00     0.158 A 
ATOM     10  H2  UNL     1       9.363 -15.165  18.105  1.00  0.00     0.167 HD
HETATM   11  N1  UNL     1       7.091 -16.599  17.958  1.00  0.00    -0.074 NA
HETATM   12  S1  UNL     1       8.807 -17.701  15.973  1.00  0.00    -0.067 SA
HETATM   13  C16 UNL     1      10.378 -17.077  15.723  1.00  0.00     0.083 A 
ENDBRANCH   1   7
BRANCH   4  14
HETATM   14  C7  UNL     1      15.082 -12.739  17.236  1.00  0.00     0.077 C 
BRANCH  14  15
HETATM   15  C8  UNL     1      15.202 -11.696  16.213  1.00  0.00    -0.054 A 
HETATM   16  C9  UNL     1      15.887 -11.983  15.051  1.00  0.00     0.007 A 
HETATM   17  C10 UNL     1      16.032 -11.026  14.041  1.00  0.00     0.001 A 
HETATM   18  C11 UNL     1      15.489  -9.769  14.189  1.00  0.00     0.000 A 
HETATM   19  C12 UNL     1      14.805  -9.489  15.354  1.00  0.00     0.001 A 
HETATM   20  C13 UNL     1      14.664 -10.444  16.356  1.00  0.00     0.007 A 
ENDBRANCH  14  15
ENDBRANCH   4  14
TORSDOF 3
ENDMDL
