MODEL 3
REMARK VINA RESULT: -10.823216184      1.192      2.017
REMARK  3 active torsions:
REMARK  status: ('A' for Active; 'I' for Inactive)
REMARK    1  A    between atoms: C2_5  and  C3_6 
REMARK    2  A    between atoms: C6_9  and  C7_10 
REMARK    3  A    between atoms: C7_10  and  C8_11 
ROOT
HETATM    1  C3  UNL     1      11.591 -15.217  16.748  1.00  0.00    -0.009 A 
HETATM    2  C4  UNL     1      12.373 -15.280  17.866  1.00  0.00     0.014 A 
HETATM    3  C5  UNL     1      13.502 -14.468  18.023  1.00  0.00     0.008 A 
HETATM    4  C6  UNL     1      13.851 -13.576  17.037  1.00  0.00    -0.054 A 
HETATM    5  C14 UNL     1      13.063 -13.514  15.911  1.00  0.00     0.008 A 
HETATM    6  C15 UNL     1      11.940 -14.320  15.754  1.00  0.00     0.014 A 
ENDROOT
BRANCH   1   7
HETATM    7  C2  UNL     1      10.397 -16.095  16.614  1.00  0.00     0.050 A 
HETATM    8  N2  UNL     1       9.333 -15.901  17.342  1.00  0.00    -0.338 N 
HETATM    9  C1  UNL     1       8.286 -16.687  17.209  1.00  0.00     0.158 A 
ATOM     10  H2  UNL     1       9.311 -15.137  18.017  1.00  0.00     0.167 HD
HETATM   11  N1  UNL     1       7.060 -16.607  17.925  1.00  0.00    -0.074 NA
HETATM   12  S1  UNL     1       8.799 -17.772  15.998  1.00  0.00    -0.067 SA
HETATM   13  C16 UNL     1      10.363 -17.138  15.726  1.00  0.00     0.083 A 
ENDBRANCH   1   7
BRANCH   4  14
HETATM   14  C7  UNL     1      15.027 -12.730  17.200  1.00  0.00     0.077 C 
BRANCH  14  15
HETATM   15  C8  UNL     1      15.171 -11.676  16.191  1.00  0.00    -0.054 A 
HETATM   16  C9  UNL     1      15.866 -11.955  15.034  1.00  0.00     0.007 A 
HETATM   17  C10 UNL     1      16.034 -10.988  14.039  1.00  0.00     0.001 A 
HETATM   18  C11 UNL     1      15.502  -9.727  14.196  1.00  0.00     0.000 A 
HETATM   19  C12 UNL     1      14.807  -9.454  15.356  1.00  0.00     0.001 A 
HETATM   20  C13 UNL     1      14.643 -10.421  16.344  1.00  0.00     0.007 A 
ENDBRANCH  14  15
ENDBRANCH   4  14
TORSDOF 3
ENDMDL
