MODEL 1
REMARK VINA RESULT: -10.841832271      0.000      0.000
REMARK  3 active torsions:
REMARK  status: ('A' for Active; 'I' for Inactive)
REMARK    1  A    between atoms: C2_5  and  C3_6 
REMARK    2  A    between atoms: C6_9  and  C7_10 
REMARK    3  A    between atoms: C7_10  and  C8_11 
ROOT
HETATM    1  C3  UNL     1      11.659 -15.009  16.685  1.00  0.00    -0.009 A 
HETATM    2  C4  UNL     1      12.106 -14.220  15.665  1.00  0.00     0.014 A 
HETATM    3  C5  UNL     1      13.277 -13.460  15.778  1.00  0.00     0.008 A 
HETATM    4  C6  UNL     1      14.009 -13.494  16.941  1.00  0.00    -0.054 A 
HETATM    5  C14 UNL     1      13.557 -14.288  17.968  1.00  0.00     0.008 A 
HETATM    6  C15 UNL     1      12.394 -15.045  17.857  1.00  0.00     0.014 A 
ENDROOT
BRANCH   1   7
HETATM    7  C2  UNL     1      10.412 -15.805  16.531  1.00  0.00     0.050 A 
HETATM    8  N2  UNL     1       9.983 -16.163  15.352  1.00  0.00    -0.338 N 
HETATM    9  C1  UNL     1       8.877 -16.867  15.235  1.00  0.00     0.158 A 
ATOM     10  H2  UNL     1      10.506 -15.896  14.518  1.00  0.00     0.167 HD
HETATM   11  N1  UNL     1       8.283 -17.330  14.029  1.00  0.00    -0.074 NA
HETATM   12  S1  UNL     1       8.390 -17.051  16.859  1.00  0.00    -0.067 SA
HETATM   13  C16 UNL     1       9.664 -16.194  17.611  1.00  0.00     0.083 A 
ENDBRANCH   1   7
BRANCH   4  14
HETATM   14  C7  UNL     1      15.227 -12.701  17.059  1.00  0.00     0.077 C 
BRANCH  14  15
HETATM   15  C8  UNL     1      15.341 -11.603  16.094  1.00  0.00    -0.054 A 
HETATM   16  C9  UNL     1      14.578 -10.471  16.284  1.00  0.00     0.007 A 
HETATM   17  C10 UNL     1      14.645  -9.393  15.396  1.00  0.00     0.001 A 
HETATM   18  C11 UNL     1      15.485  -9.442  14.304  1.00  0.00     0.000 A 
HETATM   19  C12 UNL     1      16.245 -10.578  14.120  1.00  0.00     0.001 A 
HETATM   20  C13 UNL     1      16.174 -11.648  15.007  1.00  0.00     0.007 A 
ENDBRANCH  14  15
ENDBRANCH   4  14
TORSDOF 3
ENDMDL
