MODEL 11
REMARK VINA RESULT: -10.514559858      3.570      7.210
REMARK  3 active torsions:
REMARK  status: ('A' for Active; 'I' for Inactive)
REMARK    1  A    between atoms: C2_5  and  C3_6 
REMARK    2  A    between atoms: C6_9  and  C7_10 
REMARK    3  A    between atoms: C7_10  and  C8_11 
ROOT
HETATM    1  C3  UNL     1      13.873 -13.075  16.455  1.00  0.00    -0.009 A 
HETATM    2  C4  UNL     1      12.918 -13.748  15.749  1.00  0.00     0.014 A 
HETATM    3  C5  UNL     1      12.208 -14.820  16.304  1.00  0.00     0.008 A 
HETATM    4  C6  UNL     1      12.467 -15.222  17.593  1.00  0.00    -0.054 A 
HETATM    5  C14 UNL     1      13.430 -14.544  18.302  1.00  0.00     0.008 A 
HETATM    6  C15 UNL     1      14.134 -13.477  17.753  1.00  0.00     0.014 A 
ENDROOT
BRANCH   1   7
HETATM    7  C2  UNL     1      14.607 -11.940  15.834  1.00  0.00     0.050 A 
HETATM    8  N2  UNL     1      15.155 -12.055  14.656  1.00  0.00    -0.338 N 
HETATM    9  C1  UNL     1      15.800 -11.039  14.123  1.00  0.00     0.158 A 
ATOM     10  H2  UNL     1      15.083 -12.935  14.146  1.00  0.00     0.167 HD
HETATM   11  N1  UNL     1      16.448 -11.008  12.857  1.00  0.00    -0.074 NA
HETATM   12  S1  UNL     1      15.644  -9.839  15.325  1.00  0.00    -0.067 SA
HETATM   13  C16 UNL     1      14.739 -10.731  16.467  1.00  0.00     0.083 A 
ENDBRANCH   1   7
BRANCH   4  14
HETATM   14  C7  UNL     1      11.729 -16.339  18.171  1.00  0.00     0.077 C 
BRANCH  14  15
HETATM   15  C8  UNL     1      10.494 -16.691  17.462  1.00  0.00    -0.054 A 
HETATM   16  C9  UNL     1       9.285 -16.330  18.017  1.00  0.00     0.007 A 
HETATM   17  C10 UNL     1       8.076 -16.640  17.385  1.00  0.00     0.001 A 
HETATM   18  C11 UNL     1       8.071 -17.317  16.185  1.00  0.00     0.000 A 
HETATM   19  C12 UNL     1       9.285 -17.675  15.635  1.00  0.00     0.001 A 
HETATM   20  C13 UNL     1      10.485 -17.365  16.269  1.00  0.00     0.007 A 
ENDBRANCH  14  15
ENDBRANCH   4  14
TORSDOF 3
ENDMDL
