MODEL 4
REMARK VINA RESULT: -8.296601598      1.175      2.252
REMARK  18 active torsions:
REMARK  status: ('A' for Active; 'I' for Inactive)
REMARK    1  A    between atoms: C2_2  and  C3_3 
REMARK    2  A    between atoms: C3_3  and  C4_4 
REMARK    3  A    between atoms: C4_4  and  C5_5 
REMARK    4  A    between atoms: C5_5  and  C6_6 
REMARK    5  A    between atoms: C6_6  and  C7_7 
REMARK    6  A    between atoms: C7_7  and  C8_8 
REMARK    7  A    between atoms: C8_8  and  C9_9 
REMARK    8  A    between atoms: C9_9  and  C10_10 
REMARK    9  A    between atoms: C10_10  and  C11_11 
REMARK   10  A    between atoms: C11_11  and  C12_12 
REMARK   11  A    between atoms: C12_12  and  C13_13 
REMARK   12  A    between atoms: C13_13  and  C14_14 
REMARK   13  A    between atoms: C14_14  and  C15_15 
REMARK   14  A    between atoms: C15_15  and  C16_16 
REMARK   15  A    between atoms: C16_16  and  C17_17 
REMARK   16  A    between atoms: C17_17  and  C18_18 
REMARK   17  A    between atoms: C18_18  and  C19_19 
REMARK   18  A    between atoms: C19_19  and  C20_20 
ROOT
HETATM    1  C11 UNL     1      15.072 -28.750  17.157  1.00  0.00     0.000 C 
ENDROOT
BRANCH   1   2
HETATM    2  C10 UNL     1      15.288 -29.990  17.945  1.00  0.00     0.000 C 
BRANCH   2   3
HETATM    3  C9  UNL     1      16.389 -29.769  19.020  1.00  0.00     0.000 C 
BRANCH   3   4
HETATM    4  C8  UNL     1      17.674 -30.332  18.593  1.00  0.00     0.000 C 
BRANCH   4   5
HETATM    5  C7  UNL     1      18.046 -31.649  19.132  1.00  0.00     0.000 C 
BRANCH   5   6
HETATM    6  C6  UNL     1      17.799 -32.067  20.516  1.00  0.00     0.000 C 
BRANCH   6   7
HETATM    7  C5  UNL     1      18.021 -33.457  20.939  1.00  0.00     0.000 C 
BRANCH   7   8
HETATM    8  C4  UNL     1      19.375 -33.995  20.443  1.00  0.00     0.000 C 
BRANCH   8   9
HETATM    9  C3  UNL     1      19.298 -35.356  19.855  1.00  0.00    -0.000 C 
BRANCH   9  10
HETATM   10  C2  UNL     1      19.050 -35.203  18.352  1.00  0.00    -0.005 C 
HETATM   11  C1  UNL     1      18.732 -36.493  17.675  1.00  0.00     0.005 C 
ENDBRANCH   9  10
ENDBRANCH   8   9
ENDBRANCH   7   8
ENDBRANCH   6   7
ENDBRANCH   5   6
ENDBRANCH   4   5
ENDBRANCH   3   4
ENDBRANCH   2   3
ENDBRANCH   1   2
BRANCH   1  12
HETATM   12  C12 UNL     1      13.946 -27.876  17.513  1.00  0.00     0.000 C 
BRANCH  12  13
HETATM   13  C13 UNL     1      12.806 -27.660  16.630  1.00  0.00     0.000 C 
BRANCH  13  14
HETATM   14  C14 UNL     1      12.417 -28.653  15.610  1.00  0.00     0.000 C 
BRANCH  14  15
HETATM   15  C15 UNL     1      11.390 -28.045  14.663  1.00  0.00     0.000 C 
BRANCH  15  16
HETATM   16  C16 UNL     1      10.875 -26.739  15.240  1.00  0.00     0.000 C 
BRANCH  16  17
HETATM   17  C17 UNL     1       9.627 -26.397  14.446  1.00  0.00     0.001 C 
BRANCH  17  18
HETATM   18  C18 UNL     1       8.474 -26.265  15.395  1.00  0.00     0.010 C 
BRANCH  18  19
HETATM   19  C19 UNL     1       7.480 -25.279  14.896  1.00  0.00     0.113 C 
BRANCH  19  20
HETATM   20  C20 UNL     1       6.892 -24.567  16.047  1.00  0.00     0.172 C 
HETATM   21  O1  UNL     1       6.012 -25.095  16.764  1.00  0.00    -0.648 OA
HETATM   22  O2  UNL     1       7.349 -23.279  16.323  1.00  0.00    -0.648 OA
ENDBRANCH  19  20
ENDBRANCH  18  19
ENDBRANCH  17  18
ENDBRANCH  16  17
ENDBRANCH  15  16
ENDBRANCH  14  15
ENDBRANCH  13  14
ENDBRANCH  12  13
ENDBRANCH   1  12
TORSDOF 18
ENDMDL
