MODEL 8
REMARK VINA RESULT: -8.150179736      2.587      5.767
REMARK  18 active torsions:
REMARK  status: ('A' for Active; 'I' for Inactive)
REMARK    1  A    between atoms: C2_2  and  C3_3 
REMARK    2  A    between atoms: C3_3  and  C4_4 
REMARK    3  A    between atoms: C4_4  and  C5_5 
REMARK    4  A    between atoms: C5_5  and  C6_6 
REMARK    5  A    between atoms: C6_6  and  C7_7 
REMARK    6  A    between atoms: C7_7  and  C8_8 
REMARK    7  A    between atoms: C8_8  and  C9_9 
REMARK    8  A    between atoms: C9_9  and  C10_10 
REMARK    9  A    between atoms: C10_10  and  C11_11 
REMARK   10  A    between atoms: C11_11  and  C12_12 
REMARK   11  A    between atoms: C12_12  and  C13_13 
REMARK   12  A    between atoms: C13_13  and  C14_14 
REMARK   13  A    between atoms: C14_14  and  C15_15 
REMARK   14  A    between atoms: C15_15  and  C16_16 
REMARK   15  A    between atoms: C16_16  and  C17_17 
REMARK   16  A    between atoms: C17_17  and  C18_18 
REMARK   17  A    between atoms: C18_18  and  C19_19 
REMARK   18  A    between atoms: C19_19  and  C20_20 
ROOT
HETATM    1  C11 UNL     1      15.951 -33.115  19.359  1.00  0.00     0.000 C 
ENDROOT
BRANCH   1   2
HETATM    2  C10 UNL     1      16.562 -34.239  20.114  1.00  0.00     0.000 C 
BRANCH   2   3
HETATM    3  C9  UNL     1      17.771 -33.739  20.953  1.00  0.00     0.000 C 
BRANCH   3   4
HETATM    4  C8  UNL     1      19.010 -34.419  20.562  1.00  0.00     0.000 C 
BRANCH   4   5
HETATM    5  C7  UNL     1      19.942 -33.679  19.697  1.00  0.00     0.000 C 
BRANCH   5   6
HETATM    6  C6  UNL     1      19.710 -33.429  18.271  1.00  0.00     0.000 C 
BRANCH   6   7
HETATM    7  C5  UNL     1      20.533 -34.084  17.243  1.00  0.00     0.000 C 
BRANCH   7   8
HETATM    8  C4  UNL     1      20.722 -35.583  17.535  1.00  0.00     0.000 C 
BRANCH   8   9
HETATM    9  C3  UNL     1      19.829 -36.464  16.740  1.00  0.00    -0.000 C 
BRANCH   9  10
HETATM   10  C2  UNL     1      18.868 -37.154  17.712  1.00  0.00    -0.005 C 
HETATM   11  C1  UNL     1      19.504 -37.513  19.011  1.00  0.00     0.005 C 
ENDBRANCH   9  10
ENDBRANCH   8   9
ENDBRANCH   7   8
ENDBRANCH   6   7
ENDBRANCH   5   6
ENDBRANCH   4   5
ENDBRANCH   3   4
ENDBRANCH   2   3
ENDBRANCH   1   2
BRANCH   1  12
HETATM   12  C12 UNL     1      16.551 -31.779  19.477  1.00  0.00     0.000 C 
BRANCH  12  13
HETATM   13  C13 UNL     1      16.823 -30.933  18.321  1.00  0.00     0.000 C 
BRANCH  13  14
HETATM   14  C14 UNL     1      16.579 -29.478  18.351  1.00  0.00     0.000 C 
BRANCH  14  15
HETATM   15  C15 UNL     1      15.092 -29.201  18.171  1.00  0.00     0.000 C 
BRANCH  15  16
HETATM   16  C16 UNL     1      14.834 -28.682  16.768  1.00  0.00     0.000 C 
BRANCH  16  17
HETATM   17  C17 UNL     1      13.496 -27.969  16.827  1.00  0.00     0.001 C 
BRANCH  17  18
HETATM   18  C18 UNL     1      12.558 -28.627  15.861  1.00  0.00     0.010 C 
BRANCH  18  19
HETATM   19  C19 UNL     1      11.635 -27.634  15.249  1.00  0.00     0.113 C 
BRANCH  19  20
HETATM   20  C20 UNL     1      10.309 -27.758  15.886  1.00  0.00     0.172 C 
HETATM   21  O1  UNL     1      10.085 -28.614  16.771  1.00  0.00    -0.648 OA
HETATM   22  O2  UNL     1       9.302 -26.887  15.474  1.00  0.00    -0.648 OA
ENDBRANCH  19  20
ENDBRANCH  18  19
ENDBRANCH  17  18
ENDBRANCH  16  17
ENDBRANCH  15  16
ENDBRANCH  14  15
ENDBRANCH  13  14
ENDBRANCH  12  13
ENDBRANCH   1  12
TORSDOF 18
ENDMDL
