MODEL 6
REMARK VINA RESULT: -8.189578202      1.510      2.109
REMARK  18 active torsions:
REMARK  status: ('A' for Active; 'I' for Inactive)
REMARK    1  A    between atoms: C2_2  and  C3_3 
REMARK    2  A    between atoms: C3_3  and  C4_4 
REMARK    3  A    between atoms: C4_4  and  C5_5 
REMARK    4  A    between atoms: C5_5  and  C6_6 
REMARK    5  A    between atoms: C6_6  and  C7_7 
REMARK    6  A    between atoms: C7_7  and  C8_8 
REMARK    7  A    between atoms: C8_8  and  C9_9 
REMARK    8  A    between atoms: C9_9  and  C10_10 
REMARK    9  A    between atoms: C10_10  and  C11_11 
REMARK   10  A    between atoms: C11_11  and  C12_12 
REMARK   11  A    between atoms: C12_12  and  C13_13 
REMARK   12  A    between atoms: C13_13  and  C14_14 
REMARK   13  A    between atoms: C14_14  and  C15_15 
REMARK   14  A    between atoms: C15_15  and  C16_16 
REMARK   15  A    between atoms: C16_16  and  C17_17 
REMARK   16  A    between atoms: C17_17  and  C18_18 
REMARK   17  A    between atoms: C18_18  and  C19_19 
REMARK   18  A    between atoms: C19_19  and  C20_20 
ROOT
HETATM    1  C11 UNL     1      13.903 -27.705  18.373  1.00  0.00     0.000 C 
ENDROOT
BRANCH   1   2
HETATM    2  C10 UNL     1      14.866 -28.750  17.940  1.00  0.00     0.000 C 
BRANCH   2   3
HETATM    3  C9  UNL     1      15.716 -29.243  19.145  1.00  0.00     0.000 C 
BRANCH   3   4
HETATM    4  C8  UNL     1      17.110 -29.477  18.755  1.00  0.00     0.000 C 
BRANCH   4   5
HETATM    5  C7  UNL     1      17.515 -30.868  18.499  1.00  0.00     0.000 C 
BRANCH   5   6
HETATM    6  C6  UNL     1      18.813 -31.427  18.890  1.00  0.00     0.000 C 
BRANCH   6   7
HETATM    7  C5  UNL     1      19.325 -32.659  18.272  1.00  0.00     0.000 C 
BRANCH   7   8
HETATM    8  C4  UNL     1      19.253 -33.854  19.240  1.00  0.00     0.000 C 
BRANCH   8   9
HETATM    9  C3  UNL     1      18.902 -35.137  18.580  1.00  0.00    -0.000 C 
BRANCH   9  10
HETATM   10  C2  UNL     1      19.904 -35.370  17.446  1.00  0.00    -0.005 C 
HETATM   11  C1  UNL     1      19.776 -36.715  16.816  1.00  0.00     0.005 C 
ENDBRANCH   9  10
ENDBRANCH   8   9
ENDBRANCH   7   8
ENDBRANCH   6   7
ENDBRANCH   5   6
ENDBRANCH   4   5
ENDBRANCH   3   4
ENDBRANCH   2   3
ENDBRANCH   1   2
BRANCH   1  12
HETATM   12  C12 UNL     1      12.584 -27.652  17.730  1.00  0.00     0.000 C 
BRANCH  12  13
HETATM   13  C13 UNL     1      12.399 -27.239  16.344  1.00  0.00     0.000 C 
BRANCH  13  14
HETATM   14  C14 UNL     1      11.871 -28.166  15.323  1.00  0.00     0.000 C 
BRANCH  14  15
HETATM   15  C15 UNL     1      10.927 -27.420  14.389  1.00  0.00     0.000 C 
BRANCH  15  16
HETATM   16  C16 UNL     1      10.568 -26.074  14.993  1.00  0.00     0.000 C 
BRANCH  16  17
HETATM   17  C17 UNL     1       9.241 -25.680  14.372  1.00  0.00     0.001 C 
BRANCH  17  18
HETATM   18  C18 UNL     1       9.269 -24.212  14.069  1.00  0.00     0.010 C 
BRANCH  18  19
HETATM   19  C19 UNL     1       7.897 -23.685  13.844  1.00  0.00     0.113 C 
BRANCH  19  20
HETATM   20  C20 UNL     1       7.599 -22.672  14.875  1.00  0.00     0.172 C 
HETATM   21  O1  UNL     1       7.647 -22.946  16.095  1.00  0.00    -0.648 OA
HETATM   22  O2  UNL     1       7.260 -21.387  14.452  1.00  0.00    -0.648 OA
ENDBRANCH  19  20
ENDBRANCH  18  19
ENDBRANCH  17  18
ENDBRANCH  16  17
ENDBRANCH  15  16
ENDBRANCH  14  15
ENDBRANCH  13  14
ENDBRANCH  12  13
ENDBRANCH   1  12
TORSDOF 18
ENDMDL
