MODEL 15
REMARK VINA RESULT: -8.048020370      5.803     12.014
REMARK  18 active torsions:
REMARK  status: ('A' for Active; 'I' for Inactive)
REMARK    1  A    between atoms: C2_2  and  C3_3 
REMARK    2  A    between atoms: C3_3  and  C4_4 
REMARK    3  A    between atoms: C4_4  and  C5_5 
REMARK    4  A    between atoms: C5_5  and  C6_6 
REMARK    5  A    between atoms: C6_6  and  C7_7 
REMARK    6  A    between atoms: C7_7  and  C8_8 
REMARK    7  A    between atoms: C8_8  and  C9_9 
REMARK    8  A    between atoms: C9_9  and  C10_10 
REMARK    9  A    between atoms: C10_10  and  C11_11 
REMARK   10  A    between atoms: C11_11  and  C12_12 
REMARK   11  A    between atoms: C12_12  and  C13_13 
REMARK   12  A    between atoms: C13_13  and  C14_14 
REMARK   13  A    between atoms: C14_14  and  C15_15 
REMARK   14  A    between atoms: C15_15  and  C16_16 
REMARK   15  A    between atoms: C16_16  and  C17_17 
REMARK   16  A    between atoms: C17_17  and  C18_18 
REMARK   17  A    between atoms: C18_18  and  C19_19 
REMARK   18  A    between atoms: C19_19  and  C20_20 
ROOT
HETATM    1  C11 UNL     1      15.434 -30.446  17.547  1.00  0.00     0.000 C 
ENDROOT
BRANCH   1   2
HETATM    2  C10 UNL     1      15.210 -28.980  17.455  1.00  0.00     0.000 C 
BRANCH   2   3
HETATM    3  C9  UNL     1      14.604 -28.437  18.779  1.00  0.00     0.000 C 
BRANCH   3   4
HETATM    4  C8  UNL     1      13.402 -27.635  18.526  1.00  0.00     0.000 C 
BRANCH   4   5
HETATM    5  C7  UNL     1      13.168 -27.185  17.145  1.00  0.00     0.000 C 
BRANCH   5   6
HETATM    6  C6  UNL     1      11.886 -27.320  16.447  1.00  0.00     0.000 C 
BRANCH   6   7
HETATM    7  C5  UNL     1      11.813 -27.913  15.104  1.00  0.00     0.000 C 
BRANCH   7   8
HETATM    8  C4  UNL     1      10.645 -27.331  14.286  1.00  0.00     0.000 C 
BRANCH   8   9
HETATM    9  C3  UNL     1      10.433 -25.877  14.500  1.00  0.00    -0.000 C 
BRANCH   9  10
HETATM   10  C2  UNL     1       8.923 -25.630  14.567  1.00  0.00    -0.005 C 
HETATM   11  C1  UNL     1       8.192 -26.669  15.347  1.00  0.00     0.005 C 
ENDBRANCH   9  10
ENDBRANCH   8   9
ENDBRANCH   7   8
ENDBRANCH   6   7
ENDBRANCH   5   6
ENDBRANCH   4   5
ENDBRANCH   3   4
ENDBRANCH   2   3
ENDBRANCH   1   2
BRANCH   1  12
HETATM   12  C12 UNL     1      16.344 -30.956  18.581  1.00  0.00     0.000 C 
BRANCH  12  13
HETATM   13  C13 UNL     1      17.788 -31.035  18.391  1.00  0.00     0.000 C 
BRANCH  13  14
HETATM   14  C14 UNL     1      18.631 -31.917  19.222  1.00  0.00     0.000 C 
BRANCH  14  15
HETATM   15  C15 UNL     1      17.860 -32.350  20.462  1.00  0.00     0.000 C 
BRANCH  15  16
HETATM   16  C16 UNL     1      18.268 -33.759  20.852  1.00  0.00     0.000 C 
BRANCH  16  17
HETATM   17  C17 UNL     1      19.655 -33.966  20.272  1.00  0.00     0.001 C 
BRANCH  17  18
HETATM   18  C18 UNL     1      19.732 -35.343  19.687  1.00  0.00     0.010 C 
BRANCH  18  19
HETATM   19  C19 UNL     1      18.545 -35.631  18.839  1.00  0.00     0.113 C 
BRANCH  19  20
HETATM   20  C20 UNL     1      18.972 -36.433  17.675  1.00  0.00     0.172 C 
HETATM   21  O1  UNL     1      19.993 -36.136  17.015  1.00  0.00    -0.648 OA
HETATM   22  O2  UNL     1      18.204 -37.543  17.328  1.00  0.00    -0.648 OA
ENDBRANCH  19  20
ENDBRANCH  18  19
ENDBRANCH  17  18
ENDBRANCH  16  17
ENDBRANCH  15  16
ENDBRANCH  14  15
ENDBRANCH  13  14
ENDBRANCH  12  13
ENDBRANCH   1  12
TORSDOF 18
ENDMDL
