MODEL 1
REMARK VINA RESULT: -8.836094724      0.000      0.000
REMARK  10 active torsions:
REMARK  status: ('A' for Active; 'I' for Inactive)
REMARK    1  A    between atoms: N4_15  and  C7_16 
REMARK    2  A    between atoms: C7_16  and  C8_17 
REMARK    3  A    between atoms: C8_17  and  O3_18 
REMARK    4  A    between atoms: C8_17  and  C9_20 
REMARK    5  A    between atoms: C9_20  and  O4_21 
REMARK    6  A    between atoms: C9_20  and  C10_23 
REMARK    7  A    between atoms: C10_23  and  O5_24 
REMARK    8  A    between atoms: C10_23  and  C11_26 
REMARK    9  A    between atoms: C11_26  and  O6_27 
REMARK   10  A    between atoms: C12_29  and  O7_30 
ROOT
HETATM    1  C1  UNL     1     -89.667  70.025  94.549  1.00  0.00     0.072 C 
HETATM    2  C2  UNL     1     -90.271  68.658  94.605  1.00  0.00     0.057 A 
HETATM    3  N1  UNL     1     -91.370  68.358  93.889  1.00  0.00    -0.349 N 
ATOM      4  H1  UNL     1     -91.802  69.066  93.296  1.00  0.00     0.166 HD
HETATM    5  C3  UNL     1     -91.899  67.120  93.955  1.00  0.00     0.146 A 
HETATM    6  C4  UNL     1     -93.007  66.738  93.262  1.00  0.00     0.280 A 
HETATM    7  O1  UNL     1     -93.599  67.553  92.510  1.00  0.00    -0.265 OA
HETATM    8  N2  UNL     1     -93.459  65.465  93.399  1.00  0.00    -0.273 N 
ATOM      9  H2  UNL     1     -94.290  65.176  92.882  1.00  0.00     0.173 HD
HETATM   10  C5  UNL     1     -92.845  64.576  94.196  1.00  0.00     0.328 A 
HETATM   11  O2  UNL     1     -93.358  63.418  94.243  1.00  0.00    -0.247 OA
HETATM   12  N3  UNL     1     -91.747  64.876  94.913  1.00  0.00    -0.292 N 
ATOM     13  H3  UNL     1     -91.303  64.179  95.511  1.00  0.00     0.172 HD
HETATM   14  C6  UNL     1     -91.253  66.125  94.816  1.00  0.00     0.146 A 
HETATM   15  N4  UNL     1     -90.154  66.451  95.523  1.00  0.00    -0.308 N 
HETATM   16  C12 UNL     1     -89.683  67.701  95.409  1.00  0.00     0.166 A 
ENDROOT
BRANCH  15  17
HETATM   17  C7  UNL     1     -89.496  65.509  96.374  1.00  0.00     0.167 C 
BRANCH  17  18
HETATM   18  C8  UNL     1     -88.252  64.916  95.742  1.00  0.00     0.167 C 
BRANCH  18  19
HETATM   19  O3  UNL     1     -87.939  65.575  94.554  1.00  0.00    -0.391 OA
ATOM     20  H3  UNL     1     -87.145  65.220  94.171  1.00  0.00     0.210 HD
ENDBRANCH  18  19
BRANCH  18  21
HETATM   21  C9  UNL     1     -88.514  63.476  95.391  1.00  0.00     0.179 C 
BRANCH  21  22
HETATM   22  O4  UNL     1     -89.782  63.051  95.780  1.00  0.00    -0.390 OA
ATOM     23  H4  UNL     1     -89.939  62.136  95.578  1.00  0.00     0.210 HD
ENDBRANCH  21  22
BRANCH  21  24
HETATM   24  C10 UNL     1     -87.421  62.592  95.895  1.00  0.00     0.173 C 
BRANCH  24  25
HETATM   25  O5  UNL     1     -86.311  63.324  96.301  1.00  0.00    -0.391 OA
ATOM     26  H5  UNL     1     -85.557  62.766  96.453  1.00  0.00     0.210 HD
ENDBRANCH  24  25
BRANCH  24  27
HETATM   27  C11 UNL     1     -86.985  61.561  94.879  1.00  0.00     0.198 C 
BRANCH  27  28
HETATM   28  O6  UNL     1     -88.071  60.888  94.335  1.00  0.00    -0.398 OA
ATOM     29  H6  UNL     1     -87.881  59.966  94.203  1.00  0.00     0.209 HD
ENDBRANCH  27  28
ENDBRANCH  24  27
ENDBRANCH  21  24
ENDBRANCH  18  21
ENDBRANCH  17  18
ENDBRANCH  15  17
BRANCH  16  30
HETATM   30  O7  UNL     1     -88.550  68.031  96.140  1.00  0.00    -0.344 OA
ATOM     31  H7  UNL     1     -88.488  67.760  97.049  1.00  0.00     0.219 HD
ENDBRANCH  16  30
TORSDOF 10
ENDMDL
