MODEL 11
REMARK VINA RESULT: -7.436128781      2.026      5.490
REMARK  10 active torsions:
REMARK  status: ('A' for Active; 'I' for Inactive)
REMARK    1  A    between atoms: N4_15  and  C7_16 
REMARK    2  A    between atoms: C7_16  and  C8_17 
REMARK    3  A    between atoms: C8_17  and  O3_18 
REMARK    4  A    between atoms: C8_17  and  C9_20 
REMARK    5  A    between atoms: C9_20  and  O4_21 
REMARK    6  A    between atoms: C9_20  and  C10_23 
REMARK    7  A    between atoms: C10_23  and  O5_24 
REMARK    8  A    between atoms: C10_23  and  C11_26 
REMARK    9  A    between atoms: C11_26  and  O6_27 
REMARK   10  A    between atoms: C12_29  and  O7_30 
ROOT
HETATM    1  C1  UNL     1     -88.113  63.619  96.798  1.00  0.00     0.072 C 
HETATM    2  C2  UNL     1     -89.251  64.232  96.045  1.00  0.00     0.057 A 
HETATM    3  N1  UNL     1     -90.459  63.638  96.015  1.00  0.00    -0.349 N 
ATOM      4  H1  UNL     1     -90.608  62.759  96.509  1.00  0.00     0.166 HD
HETATM    5  C3  UNL     1     -91.471  64.207  95.330  1.00  0.00     0.146 A 
HETATM    6  C4  UNL     1     -92.720  63.670  95.251  1.00  0.00     0.280 A 
HETATM    7  O1  UNL     1     -92.984  62.587  95.831  1.00  0.00    -0.265 OA
HETATM    8  N2  UNL     1     -93.670  64.324  94.534  1.00  0.00    -0.273 N 
ATOM      9  H2  UNL     1     -94.606  63.924  94.471  1.00  0.00     0.173 HD
HETATM   10  C5  UNL     1     -93.412  65.481  93.905  1.00  0.00     0.328 A 
HETATM   11  O2  UNL     1     -94.378  66.000  93.267  1.00  0.00    -0.247 OA
HETATM   12  N3  UNL     1     -92.205  66.075  93.934  1.00  0.00    -0.292 N 
ATOM     13  H3  UNL     1     -92.040  66.955  93.445  1.00  0.00     0.172 HD
HETATM   14  C6  UNL     1     -91.223  65.472  94.631  1.00  0.00     0.146 A 
HETATM   15  N4  UNL     1     -90.006  66.045  94.677  1.00  0.00    -0.308 N 
HETATM   16  C12 UNL     1     -89.046  65.423  95.377  1.00  0.00     0.166 A 
ENDROOT
BRANCH  15  17
HETATM   17  C7  UNL     1     -89.725  67.277  94.009  1.00  0.00     0.167 C 
BRANCH  17  18
HETATM   18  C8  UNL     1     -90.030  68.491  94.863  1.00  0.00     0.167 C 
BRANCH  18  19
HETATM   19  O3  UNL     1     -91.085  69.225  94.323  1.00  0.00    -0.391 OA
ATOM     20  H3  UNL     1     -91.166  70.067  94.755  1.00  0.00     0.210 HD
ENDBRANCH  18  19
BRANCH  18  21
HETATM   21  C9  UNL     1     -88.828  69.397  94.883  1.00  0.00     0.179 C 
BRANCH  21  22
HETATM   22  O4  UNL     1     -87.861  68.986  95.798  1.00  0.00    -0.390 OA
ATOM     23  H4  UNL     1     -87.572  69.691  96.365  1.00  0.00     0.210 HD
ENDBRANCH  21  22
BRANCH  21  24
HETATM   24  C10 UNL     1     -89.231  70.824  95.060  1.00  0.00     0.173 C 
BRANCH  24  25
HETATM   25  O5  UNL     1     -89.804  71.047  96.307  1.00  0.00    -0.391 OA
ATOM     26  H5  UNL     1     -89.148  71.214  96.973  1.00  0.00     0.210 HD
ENDBRANCH  24  25
BRANCH  24  27
HETATM   27  C11 UNL     1     -90.183  71.302  93.989  1.00  0.00     0.198 C 
BRANCH  27  28
HETATM   28  O6  UNL     1     -91.226  72.045  94.527  1.00  0.00    -0.398 OA
ATOM     29  H6  UNL     1     -90.970  72.946  94.683  1.00  0.00     0.209 HD
ENDBRANCH  27  28
ENDBRANCH  24  27
ENDBRANCH  21  24
ENDBRANCH  18  21
ENDBRANCH  17  18
ENDBRANCH  15  17
BRANCH  16  30
HETATM   30  O7  UNL     1     -87.793  66.019  95.421  1.00  0.00    -0.344 OA
ATOM     31  H7  UNL     1     -87.665  66.792  95.959  1.00  0.00     0.219 HD
ENDBRANCH  16  30
TORSDOF 10
ENDMDL
