MODEL 6
REMARK VINA RESULT: -8.291588796      0.710      1.272
REMARK  10 active torsions:
REMARK  status: ('A' for Active; 'I' for Inactive)
REMARK    1  A    between atoms: N4_15  and  C7_16 
REMARK    2  A    between atoms: C7_16  and  C8_17 
REMARK    3  A    between atoms: C8_17  and  O3_18 
REMARK    4  A    between atoms: C8_17  and  C9_20 
REMARK    5  A    between atoms: C9_20  and  O4_21 
REMARK    6  A    between atoms: C9_20  and  C10_23 
REMARK    7  A    between atoms: C10_23  and  O5_24 
REMARK    8  A    between atoms: C10_23  and  C11_26 
REMARK    9  A    between atoms: C11_26  and  O6_27 
REMARK   10  A    between atoms: C12_29  and  O7_30 
ROOT
HETATM    1  C1  UNL     1     -89.710  70.510  94.366  1.00  0.00     0.072 C 
HETATM    2  C2  UNL     1     -90.167  69.094  94.519  1.00  0.00     0.057 A 
HETATM    3  N1  UNL     1     -91.260  68.647  93.875  1.00  0.00    -0.349 N 
ATOM      4  H1  UNL     1     -91.790  69.276  93.272  1.00  0.00     0.166 HD
HETATM    5  C3  UNL     1     -91.656  67.368  94.028  1.00  0.00     0.146 A 
HETATM    6  C4  UNL     1     -92.749  66.840  93.411  1.00  0.00     0.280 A 
HETATM    7  O1  UNL     1     -93.456  67.551  92.652  1.00  0.00    -0.265 OA
HETATM    8  N2  UNL     1     -93.062  65.538  93.633  1.00  0.00    -0.273 N 
ATOM      9  H2  UNL     1     -93.881  65.139  93.173  1.00  0.00     0.173 HD
HETATM   10  C5  UNL     1     -92.323  64.758  94.439  1.00  0.00     0.328 A 
HETATM   11  O2  UNL     1     -92.712  63.558  94.568  1.00  0.00    -0.247 OA
HETATM   12  N3  UNL     1     -91.230  65.204  95.084  1.00  0.00    -0.292 N 
ATOM     13  H3  UNL     1     -90.689  64.588  95.691  1.00  0.00     0.172 HD
HETATM   14  C6  UNL     1     -90.872  66.490  94.902  1.00  0.00     0.146 A 
HETATM   15  N4  UNL     1     -89.781  66.961  95.535  1.00  0.00    -0.308 N 
HETATM   16  C12 UNL     1     -89.447  68.244  95.337  1.00  0.00     0.166 A 
ENDROOT
BRANCH  15  17
HETATM   17  C7  UNL     1     -88.992  66.137  96.396  1.00  0.00     0.167 C 
BRANCH  17  18
HETATM   18  C8  UNL     1     -87.819  65.495  95.680  1.00  0.00     0.167 C 
BRANCH  18  19
HETATM   19  O3  UNL     1     -88.043  65.450  94.305  1.00  0.00    -0.391 OA
ATOM     20  H3  UNL     1     -87.222  65.392  93.832  1.00  0.00     0.210 HD
ENDBRANCH  18  19
BRANCH  18  21
HETATM   21  C9  UNL     1     -87.670  64.073  96.150  1.00  0.00     0.179 C 
BRANCH  21  22
HETATM   22  O4  UNL     1     -86.354  63.748  96.468  1.00  0.00    -0.390 OA
ATOM     23  H4  UNL     1     -86.161  62.828  96.336  1.00  0.00     0.210 HD
ENDBRANCH  21  22
BRANCH  21  24
HETATM   24  C10 UNL     1     -88.290  63.119  95.183  1.00  0.00     0.173 C 
BRANCH  24  25
HETATM   25  O5  UNL     1     -89.596  62.800  95.538  1.00  0.00    -0.391 OA
ATOM     26  H5  UNL     1     -90.121  62.569  94.781  1.00  0.00     0.210 HD
ENDBRANCH  24  25
BRANCH  24  27
HETATM   27  C11 UNL     1     -87.498  61.841  95.031  1.00  0.00     0.198 C 
BRANCH  27  28
HETATM   28  O6  UNL     1     -86.398  62.017  94.201  1.00  0.00    -0.398 OA
ATOM     29  H6  UNL     1     -86.550  61.651  93.337  1.00  0.00     0.209 HD
ENDBRANCH  27  28
ENDBRANCH  24  27
ENDBRANCH  21  24
ENDBRANCH  18  21
ENDBRANCH  17  18
ENDBRANCH  15  17
BRANCH  16  30
HETATM   30  O7  UNL     1     -88.322  68.725  95.993  1.00  0.00    -0.344 OA
ATOM     31  H7  UNL     1     -87.927  68.203  96.682  1.00  0.00     0.219 HD
ENDBRANCH  16  30
TORSDOF 10
ENDMDL
