MODEL 7
REMARK VINA RESULT: -8.155637675      1.942      5.608
REMARK  10 active torsions:
REMARK  status: ('A' for Active; 'I' for Inactive)
REMARK    1  A    between atoms: N4_15  and  C7_16 
REMARK    2  A    between atoms: C7_16  and  C8_17 
REMARK    3  A    between atoms: C8_17  and  O3_18 
REMARK    4  A    between atoms: C8_17  and  C9_20 
REMARK    5  A    between atoms: C9_20  and  O4_21 
REMARK    6  A    between atoms: C9_20  and  C10_23 
REMARK    7  A    between atoms: C10_23  and  O5_24 
REMARK    8  A    between atoms: C10_23  and  C11_26 
REMARK    9  A    between atoms: C11_26  and  O6_27 
REMARK   10  A    between atoms: C12_29  and  O7_30 
ROOT
HETATM    1  C1  UNL     1     -87.698  63.325  95.468  1.00  0.00     0.072 C 
HETATM    2  C2  UNL     1     -88.315  64.680  95.328  1.00  0.00     0.057 A 
HETATM    3  N1  UNL     1     -87.551  65.788  95.303  1.00  0.00    -0.349 N 
ATOM      4  H1  UNL     1     -86.537  65.711  95.379  1.00  0.00     0.166 HD
HETATM    5  C3  UNL     1     -88.127  67.000  95.176  1.00  0.00     0.146 A 
HETATM    6  C4  UNL     1     -87.424  68.166  95.142  1.00  0.00     0.280 A 
HETATM    7  O1  UNL     1     -86.170  68.156  95.231  1.00  0.00    -0.265 OA
HETATM    8  N2  UNL     1     -88.101  69.336  95.011  1.00  0.00    -0.273 N 
ATOM      9  H2  UNL     1     -87.579  70.211  94.987  1.00  0.00     0.173 HD
HETATM   10  C5  UNL     1     -89.440  69.373  94.914  1.00  0.00     0.328 A 
HETATM   11  O2  UNL     1     -89.961  70.522  94.795  1.00  0.00    -0.247 OA
HETATM   12  N3  UNL     1     -90.205  68.266  94.940  1.00  0.00    -0.292 N 
ATOM     13  H3  UNL     1     -91.220  68.327  94.865  1.00  0.00     0.172 HD
HETATM   14  C6  UNL     1     -89.587  67.076  95.068  1.00  0.00     0.146 A 
HETATM   15  N4  UNL     1     -90.329  65.953  95.096  1.00  0.00    -0.308 N 
HETATM   16  C12 UNL     1     -89.689  64.782  95.224  1.00  0.00     0.166 A 
ENDROOT
BRANCH  15  17
HETATM   17  C7  UNL     1     -91.754  65.986  94.994  1.00  0.00     0.167 C 
BRANCH  17  18
HETATM   18  C8  UNL     1     -92.235  66.265  93.583  1.00  0.00     0.167 C 
BRANCH  18  19
HETATM   19  O3  UNL     1     -92.524  67.618  93.417  1.00  0.00    -0.391 OA
ATOM     20  H3  UNL     1     -93.458  67.774  93.483  1.00  0.00     0.210 HD
ENDBRANCH  18  19
BRANCH  18  21
HETATM   21  C9  UNL     1     -93.513  65.508  93.337  1.00  0.00     0.179 C 
BRANCH  21  22
HETATM   22  O4  UNL     1     -94.603  66.068  93.998  1.00  0.00    -0.390 OA
ATOM     23  H4  UNL     1     -94.445  66.193  94.926  1.00  0.00     0.210 HD
ENDBRANCH  21  22
BRANCH  21  24
HETATM   24  C10 UNL     1     -93.341  64.053  93.623  1.00  0.00     0.173 C 
BRANCH  24  25
HETATM   25  O5  UNL     1     -93.933  63.262  92.644  1.00  0.00    -0.391 OA
ATOM     26  H5  UNL     1     -94.778  62.929  92.923  1.00  0.00     0.210 HD
ENDBRANCH  24  25
BRANCH  24  27
HETATM   27  C11 UNL     1     -93.886  63.652  94.974  1.00  0.00     0.198 C 
BRANCH  27  28
HETATM   28  O6  UNL     1     -93.054  62.742  95.612  1.00  0.00    -0.398 OA
ATOM     29  H6  UNL     1     -92.363  62.436  95.035  1.00  0.00     0.209 HD
ENDBRANCH  27  28
ENDBRANCH  24  27
ENDBRANCH  21  24
ENDBRANCH  18  21
ENDBRANCH  17  18
ENDBRANCH  15  17
BRANCH  16  30
HETATM   30  O7  UNL     1     -90.459  63.628  95.253  1.00  0.00    -0.344 OA
ATOM     31  H7  UNL     1     -91.130  63.533  95.918  1.00  0.00     0.219 HD
ENDBRANCH  16  30
TORSDOF 10
ENDMDL
