MODEL 4
REMARK VINA RESULT: -8.538795288      0.903      1.297
REMARK  10 active torsions:
REMARK  status: ('A' for Active; 'I' for Inactive)
REMARK    1  A    between atoms: N4_15  and  C7_16 
REMARK    2  A    between atoms: C7_16  and  C8_17 
REMARK    3  A    between atoms: C8_17  and  O3_18 
REMARK    4  A    between atoms: C8_17  and  C9_20 
REMARK    5  A    between atoms: C9_20  and  O4_21 
REMARK    6  A    between atoms: C9_20  and  C10_23 
REMARK    7  A    between atoms: C10_23  and  O5_24 
REMARK    8  A    between atoms: C10_23  and  C11_26 
REMARK    9  A    between atoms: C11_26  and  O6_27 
REMARK   10  A    between atoms: C12_29  and  O7_30 
ROOT
HETATM    1  C1  UNL     1     -89.485  69.650  94.631  1.00  0.00     0.072 C 
HETATM    2  C2  UNL     1     -90.235  68.356  94.638  1.00  0.00     0.057 A 
HETATM    3  N1  UNL     1     -91.313  68.178  93.853  1.00  0.00    -0.349 N 
ATOM      4  H1  UNL     1     -91.629  68.930  93.242  1.00  0.00     0.166 HD
HETATM    5  C3  UNL     1     -91.975  67.004  93.876  1.00  0.00     0.146 A 
HETATM    6  C4  UNL     1     -93.072  66.745  93.113  1.00  0.00     0.280 A 
HETATM    7  O1  UNL     1     -93.526  67.621  92.334  1.00  0.00    -0.265 OA
HETATM    8  N2  UNL     1     -93.667  65.529  93.211  1.00  0.00    -0.273 N 
ATOM      9  H2  UNL     1     -94.491  65.332  92.642  1.00  0.00     0.173 HD
HETATM   10  C5  UNL     1     -93.202  64.577  94.036  1.00  0.00     0.328 A 
HETATM   11  O2  UNL     1     -93.839  63.480  94.041  1.00  0.00    -0.247 OA
HETATM   12  N3  UNL     1     -92.125  64.754  94.821  1.00  0.00    -0.292 N 
ATOM     13  H3  UNL     1     -91.796  64.012  95.439  1.00  0.00     0.172 HD
HETATM   14  C6  UNL     1     -91.494  65.943  94.766  1.00  0.00     0.146 A 
HETATM   15  N4  UNL     1     -90.412  66.147  95.542  1.00  0.00    -0.308 N 
HETATM   16  C12 UNL     1     -89.804  67.339  95.468  1.00  0.00     0.166 A 
ENDROOT
BRANCH  15  17
HETATM   17  C7  UNL     1     -89.914  65.138  96.423  1.00  0.00     0.167 C 
BRANCH  17  18
HETATM   18  C8  UNL     1     -89.198  64.020  95.690  1.00  0.00     0.167 C 
BRANCH  18  19
HETATM   19  O3  UNL     1     -89.955  62.850  95.712  1.00  0.00    -0.391 OA
ATOM     20  H3  UNL     1     -89.793  62.358  96.508  1.00  0.00     0.210 HD
ENDBRANCH  18  19
BRANCH  18  21
HETATM   21  C9  UNL     1     -87.901  63.719  96.390  1.00  0.00     0.179 C 
BRANCH  21  22
HETATM   22  O4  UNL     1     -86.927  64.686  96.154  1.00  0.00    -0.390 OA
ATOM     23  H4  UNL     1     -86.153  64.565  96.691  1.00  0.00     0.210 HD
ENDBRANCH  21  22
BRANCH  21  24
HETATM   24  C10 UNL     1     -87.434  62.334  96.088  1.00  0.00     0.173 C 
BRANCH  24  25
HETATM   25  O5  UNL     1     -86.241  62.038  96.739  1.00  0.00    -0.391 OA
ATOM     26  H5  UNL     1     -86.153  61.107  96.909  1.00  0.00     0.210 HD
ENDBRANCH  24  25
BRANCH  24  27
HETATM   27  C11 UNL     1     -87.261  62.082  94.608  1.00  0.00     0.198 C 
BRANCH  27  28
HETATM   28  O6  UNL     1     -86.262  62.881  94.067  1.00  0.00    -0.398 OA
ATOM     29  H6  UNL     1     -85.857  63.431  94.728  1.00  0.00     0.209 HD
ENDBRANCH  27  28
ENDBRANCH  24  27
ENDBRANCH  21  24
ENDBRANCH  18  21
ENDBRANCH  17  18
ENDBRANCH  15  17
BRANCH  16  30
HETATM   30  O7  UNL     1     -88.689  67.544  96.270  1.00  0.00    -0.344 OA
ATOM     31  H7  UNL     1     -88.219  66.792  96.611  1.00  0.00     0.219 HD
ENDBRANCH  16  30
TORSDOF 10
ENDMDL
