MODEL 9
REMARK VINA RESULT: -7.789772780      2.077      6.461
REMARK  10 active torsions:
REMARK  status: ('A' for Active; 'I' for Inactive)
REMARK    1  A    between atoms: N4_15  and  C7_16 
REMARK    2  A    between atoms: C7_16  and  C8_17 
REMARK    3  A    between atoms: C8_17  and  O3_18 
REMARK    4  A    between atoms: C8_17  and  C9_20 
REMARK    5  A    between atoms: C9_20  and  O4_21 
REMARK    6  A    between atoms: C9_20  and  C10_23 
REMARK    7  A    between atoms: C10_23  and  O5_24 
REMARK    8  A    between atoms: C10_23  and  C11_26 
REMARK    9  A    between atoms: C11_26  and  O6_27 
REMARK   10  A    between atoms: C12_29  and  O7_30 
ROOT
HETATM    1  C1  UNL     1     -87.879  63.324  95.134  1.00  0.00     0.072 C 
HETATM    2  C2  UNL     1     -88.419  64.718  95.090  1.00  0.00     0.057 A 
HETATM    3  N1  UNL     1     -87.595  65.781  95.133  1.00  0.00    -0.349 N 
ATOM      4  H1  UNL     1     -86.587  65.643  95.196  1.00  0.00     0.166 HD
HETATM    5  C3  UNL     1     -88.104  67.028  95.093  1.00  0.00     0.146 A 
HETATM    6  C4  UNL     1     -87.338  68.153  95.131  1.00  0.00     0.280 A 
HETATM    7  O1  UNL     1     -86.086  68.068  95.210  1.00  0.00    -0.265 OA
HETATM    8  N2  UNL     1     -87.950  69.365  95.086  1.00  0.00    -0.273 N 
ATOM      9  H2  UNL     1     -87.379  70.210  95.116  1.00  0.00     0.173 HD
HETATM   10  C5  UNL     1     -89.285  69.482  95.002  1.00  0.00     0.328 A 
HETATM   11  O2  UNL     1     -89.742  70.664  94.965  1.00  0.00    -0.247 OA
HETATM   12  N3  UNL     1     -90.109  68.420  94.959  1.00  0.00    -0.292 N 
ATOM     13  H3  UNL     1     -91.120  68.541  94.897  1.00  0.00     0.172 HD
HETATM   14  C6  UNL     1     -89.558  67.192  95.002  1.00  0.00     0.146 A 
HETATM   15  N4  UNL     1     -90.361  66.112  94.960  1.00  0.00    -0.308 N 
HETATM   16  C12 UNL     1     -89.786  64.901  95.005  1.00  0.00     0.166 A 
ENDROOT
BRANCH  15  17
HETATM   17  C7  UNL     1     -91.783  66.231  94.872  1.00  0.00     0.167 C 
BRANCH  17  18
HETATM   18  C8  UNL     1     -92.266  66.451  93.453  1.00  0.00     0.167 C 
BRANCH  18  19
HETATM   19  O3  UNL     1     -92.078  67.777  93.066  1.00  0.00    -0.391 OA
ATOM     20  H3  UNL     1     -91.156  67.959  92.924  1.00  0.00     0.210 HD
ENDBRANCH  18  19
BRANCH  18  21
HETATM   21  C9  UNL     1     -93.745  66.179  93.385  1.00  0.00     0.179 C 
BRANCH  21  22
HETATM   22  O4  UNL     1     -94.042  64.992  92.719  1.00  0.00    -0.390 OA
ATOM     23  H4  UNL     1     -94.938  64.710  92.855  1.00  0.00     0.210 HD
ENDBRANCH  21  22
BRANCH  21  24
HETATM   24  C10 UNL     1     -94.486  67.355  92.841  1.00  0.00     0.173 C 
BRANCH  24  25
HETATM   25  O5  UNL     1     -94.610  68.368  93.785  1.00  0.00    -0.391 OA
ATOM     26  H5  UNL     1     -94.799  69.206  93.380  1.00  0.00     0.210 HD
ENDBRANCH  24  25
BRANCH  24  27
HETATM   27  C11 UNL     1     -95.859  66.995  92.323  1.00  0.00     0.198 C 
BRANCH  27  28
HETATM   28  O6  UNL     1     -96.849  67.759  92.927  1.00  0.00    -0.398 OA
ATOM     29  H6  UNL     1     -97.353  68.248  92.286  1.00  0.00     0.209 HD
ENDBRANCH  27  28
ENDBRANCH  24  27
ENDBRANCH  21  24
ENDBRANCH  18  21
ENDBRANCH  17  18
ENDBRANCH  15  17
BRANCH  16  30
HETATM   30  O7  UNL     1     -90.619  63.792  94.962  1.00  0.00    -0.344 OA
ATOM     31  H7  UNL     1     -91.559  63.918  94.901  1.00  0.00     0.219 HD
ENDBRANCH  16  30
TORSDOF 10
ENDMDL
