MODEL 1
REMARK VINA RESULT: -7.014416804      0.000      0.000
REMARK  8 active torsions:
REMARK  status: ('A' for Active; 'I' for Inactive)
REMARK    1  A    between atoms: C2_2  and  C3_4 
REMARK    2  A    between atoms: C3_4  and  O2_5 
REMARK    3  A    between atoms: C3_4  and  O3_7 
REMARK    4  A    between atoms: C3_4  and  C4_9 
REMARK    5  A    between atoms: C4_9  and  O4_10 
REMARK    6  A    between atoms: C4_9  and  C5_12 
REMARK    7  A    between atoms: C5_12  and  O5_13 
REMARK    8  A    between atoms: O5_13  and  P1_14 
ROOT
HETATM    1  C4  UNL     1     -34.535  20.823  -5.630  1.00  0.00     0.212 C 
ENDROOT
BRANCH   1   2
HETATM    2  C3  UNL     1     -34.732  19.424  -5.095  1.00  0.00     0.251 C 
BRANCH   2   3
HETATM    3  C2  UNL     1     -33.489  18.822  -4.592  1.00  0.00     0.187 C 
HETATM    4  C1  UNL     1     -32.707  19.543  -3.556  1.00  0.00     0.097 C 
HETATM    5  O1  UNL     1     -33.070  17.755  -4.990  1.00  0.00    -0.292 OA
ENDBRANCH   2   3
BRANCH   2   6
HETATM    6  O2  UNL     1     -35.373  18.665  -6.041  1.00  0.00    -0.357 OA
ATOM      7  H2  UNL     1     -36.288  18.890  -6.158  1.00  0.00     0.213 HD
ENDBRANCH   2   6
BRANCH   2   8
HETATM    8  O3  UNL     1     -35.620  19.549  -4.002  1.00  0.00    -0.357 OA
ATOM      9  H3  UNL     1     -36.323  20.129  -4.267  1.00  0.00     0.213 HD
ENDBRANCH   2   8
ENDBRANCH   1   2
BRANCH   1  10
HETATM   10  O4  UNL     1     -34.092  20.831  -6.936  1.00  0.00    -0.387 OA
ATOM     11  H4  UNL     1     -34.433  21.567  -7.431  1.00  0.00     0.210 HD
ENDBRANCH   1  10
BRANCH   1  12
HETATM   12  C5  UNL     1     -35.720  21.702  -5.414  1.00  0.00     0.220 C 
BRANCH  12  13
HETATM   13  O5  UNL     1     -36.812  21.205  -6.013  1.00  0.00    -0.280 OA
BRANCH  13  14
HETATM   14  P1  UNL     1     -38.308  21.525  -5.112  1.00  0.00     0.422 P 
HETATM   15  O6  UNL     1     -37.948  21.667  -3.473  1.00  0.00    -0.617 OA
HETATM   16  O7  UNL     1     -38.912  23.027  -5.679  1.00  0.00    -0.617 OA
HETATM   17  O8  UNL     1     -39.491  20.311  -5.363  1.00  0.00    -0.617 OA
ENDBRANCH  13  14
ENDBRANCH  12  13
ENDBRANCH   1  12
TORSDOF 8
ENDMDL
