MODEL 2
REMARK VINA RESULT: -7.005162938      0.041      1.287
REMARK  8 active torsions:
REMARK  status: ('A' for Active; 'I' for Inactive)
REMARK    1  A    between atoms: C2_2  and  C3_4 
REMARK    2  A    between atoms: C3_4  and  O2_5 
REMARK    3  A    between atoms: C3_4  and  O3_7 
REMARK    4  A    between atoms: C3_4  and  C4_9 
REMARK    5  A    between atoms: C4_9  and  O4_10 
REMARK    6  A    between atoms: C4_9  and  C5_12 
REMARK    7  A    between atoms: C5_12  and  O5_13 
REMARK    8  A    between atoms: O5_13  and  P1_14 
ROOT
HETATM    1  C4  UNL     1     -34.547  20.830  -5.625  1.00  0.00     0.212 C 
ENDROOT
BRANCH   1   2
HETATM    2  C3  UNL     1     -34.744  19.431  -5.089  1.00  0.00     0.251 C 
BRANCH   2   3
HETATM    3  C2  UNL     1     -33.503  18.834  -4.574  1.00  0.00     0.187 C 
HETATM    4  C1  UNL     1     -32.736  19.556  -3.528  1.00  0.00     0.097 C 
HETATM    5  O1  UNL     1     -33.074  17.770  -4.971  1.00  0.00    -0.292 OA
ENDBRANCH   2   3
BRANCH   2   6
HETATM    6  O2  UNL     1     -35.374  18.668  -6.041  1.00  0.00    -0.357 OA
ATOM      7  H2  UNL     1     -36.294  18.515  -5.862  1.00  0.00     0.213 HD
ENDBRANCH   2   6
BRANCH   2   8
HETATM    8  O3  UNL     1     -35.642  19.554  -4.005  1.00  0.00    -0.357 OA
ATOM      9  H3  UNL     1     -35.130  19.726  -3.224  1.00  0.00     0.213 HD
ENDBRANCH   2   8
ENDBRANCH   1   2
BRANCH   1  10
HETATM   10  O4  UNL     1     -34.087  20.838  -6.924  1.00  0.00    -0.387 OA
ATOM     11  H4  UNL     1     -34.751  20.568  -7.547  1.00  0.00     0.210 HD
ENDBRANCH   1  10
BRANCH   1  12
HETATM   12  C5  UNL     1     -35.740  21.703  -5.426  1.00  0.00     0.220 C 
BRANCH  12  13
HETATM   13  O5  UNL     1     -36.832  21.174  -5.996  1.00  0.00    -0.280 OA
BRANCH  13  14
HETATM   14  P1  UNL     1     -38.332  21.571  -5.132  1.00  0.00     0.422 P 
HETATM   15  O6  UNL     1     -39.444  20.326  -5.352  1.00  0.00    -0.617 OA
HETATM   16  O7  UNL     1     -37.930  21.668  -3.468  1.00  0.00    -0.617 OA
HETATM   17  O8  UNL     1     -38.998  23.067  -5.639  1.00  0.00    -0.617 OA
ENDBRANCH  13  14
ENDBRANCH  12  13
ENDBRANCH   1  12
TORSDOF 8
ENDMDL
