MODEL 4
REMARK VINA RESULT: -6.864191324      0.947      2.224
REMARK  8 active torsions:
REMARK  status: ('A' for Active; 'I' for Inactive)
REMARK    1  A    between atoms: C2_2  and  C3_4 
REMARK    2  A    between atoms: C3_4  and  O2_5 
REMARK    3  A    between atoms: C3_4  and  O3_7 
REMARK    4  A    between atoms: C3_4  and  C4_9 
REMARK    5  A    between atoms: C4_9  and  O4_10 
REMARK    6  A    between atoms: C4_9  and  C5_12 
REMARK    7  A    between atoms: C5_12  and  O5_13 
REMARK    8  A    between atoms: O5_13  and  P1_14 
ROOT
HETATM    1  C4  UNL     1     -35.787  20.400  -5.356  1.00  0.00     0.212 C 
ENDROOT
BRANCH   1   2
HETATM    2  C3  UNL     1     -34.325  20.161  -5.653  1.00  0.00     0.251 C 
BRANCH   2   3
HETATM    3  C2  UNL     1     -33.900  18.783  -5.369  1.00  0.00     0.187 C 
HETATM    4  C1  UNL     1     -32.846  18.549  -4.350  1.00  0.00     0.097 C 
HETATM    5  O1  UNL     1     -34.376  17.821  -5.936  1.00  0.00    -0.292 OA
ENDBRANCH   2   3
BRANCH   2   6
HETATM    6  O2  UNL     1     -33.573  21.116  -5.016  1.00  0.00    -0.357 OA
ATOM      7  H2  UNL     1     -34.088  21.806  -4.615  1.00  0.00     0.213 HD
ENDBRANCH   2   6
BRANCH   2   8
HETATM    8  O3  UNL     1     -34.170  20.379  -7.041  1.00  0.00    -0.357 OA
ATOM      9  H3  UNL     1     -34.049  21.312  -7.174  1.00  0.00     0.213 HD
ENDBRANCH   2   8
ENDBRANCH   1   2
BRANCH   1  10
HETATM   10  O4  UNL     1     -36.189  19.810  -4.178  1.00  0.00    -0.387 OA
ATOM     11  H4  UNL     1     -36.763  20.370  -3.668  1.00  0.00     0.210 HD
ENDBRANCH   1  10
BRANCH   1  12
HETATM   12  C5  UNL     1     -36.172  21.838  -5.448  1.00  0.00     0.220 C 
BRANCH  12  13
HETATM   13  O5  UNL     1     -37.336  21.992  -6.095  1.00  0.00    -0.280 OA
BRANCH  13  14
HETATM   14  P1  UNL     1     -38.743  21.974  -5.012  1.00  0.00     0.422 P 
HETATM   15  O6  UNL     1     -39.729  23.293  -5.365  1.00  0.00    -0.617 OA
HETATM   16  O7  UNL     1     -39.605  20.531  -5.349  1.00  0.00    -0.617 OA
HETATM   17  O8  UNL     1     -38.292  21.988  -3.359  1.00  0.00    -0.617 OA
ENDBRANCH  13  14
ENDBRANCH  12  13
ENDBRANCH   1  12
TORSDOF 8
ENDMDL
