MODEL 3
REMARK VINA RESULT: -6.887323948      0.952      2.204
REMARK  8 active torsions:
REMARK  status: ('A' for Active; 'I' for Inactive)
REMARK    1  A    between atoms: C2_2  and  C3_4 
REMARK    2  A    between atoms: C3_4  and  O2_5 
REMARK    3  A    between atoms: C3_4  and  O3_7 
REMARK    4  A    between atoms: C3_4  and  C4_9 
REMARK    5  A    between atoms: C4_9  and  O4_10 
REMARK    6  A    between atoms: C4_9  and  C5_12 
REMARK    7  A    between atoms: C5_12  and  O5_13 
REMARK    8  A    between atoms: O5_13  and  P1_14 
ROOT
HETATM    1  C4  UNL     1     -35.792  20.397  -5.347  1.00  0.00     0.212 C 
ENDROOT
BRANCH   1   2
HETATM    2  C3  UNL     1     -34.328  20.171  -5.647  1.00  0.00     0.251 C 
BRANCH   2   3
HETATM    3  C2  UNL     1     -33.890  18.796  -5.367  1.00  0.00     0.187 C 
HETATM    4  C1  UNL     1     -32.833  18.569  -4.351  1.00  0.00     0.097 C 
HETATM    5  O1  UNL     1     -34.359  17.831  -5.936  1.00  0.00    -0.292 OA
ENDBRANCH   2   3
BRANCH   2   6
HETATM    6  O2  UNL     1     -33.583  21.132  -5.009  1.00  0.00    -0.357 OA
ATOM      7  H2  UNL     1     -34.051  21.945  -4.862  1.00  0.00     0.213 HD
ENDBRANCH   2   6
BRANCH   2   8
HETATM    8  O3  UNL     1     -34.178  20.395  -7.035  1.00  0.00    -0.357 OA
ATOM      9  H3  UNL     1     -33.404  20.931  -7.158  1.00  0.00     0.213 HD
ENDBRANCH   2   8
ENDBRANCH   1   2
BRANCH   1  10
HETATM   10  O4  UNL     1     -36.194  19.775  -4.184  1.00  0.00    -0.387 OA
ATOM     11  H4  UNL     1     -36.133  20.346  -3.427  1.00  0.00     0.210 HD
ENDBRANCH   1  10
BRANCH   1  12
HETATM   12  C5  UNL     1     -36.182  21.835  -5.401  1.00  0.00     0.220 C 
BRANCH  12  13
HETATM   13  O5  UNL     1     -37.318  22.007  -6.093  1.00  0.00    -0.280 OA
BRANCH  13  14
HETATM   14  P1  UNL     1     -38.768  21.975  -5.070  1.00  0.00     0.422 P 
HETATM   15  O6  UNL     1     -39.605  20.539  -5.342  1.00  0.00    -0.617 OA
HETATM   16  O7  UNL     1     -38.224  21.999  -3.443  1.00  0.00    -0.617 OA
HETATM   17  O8  UNL     1     -39.788  23.325  -5.343  1.00  0.00    -0.617 OA
ENDBRANCH  13  14
ENDBRANCH  12  13
ENDBRANCH   1  12
TORSDOF 8
ENDMDL
