MODEL 5
REMARK VINA RESULT: -6.850594918      0.942      1.805
REMARK  8 active torsions:
REMARK  status: ('A' for Active; 'I' for Inactive)
REMARK    1  A    between atoms: C2_2  and  C3_4 
REMARK    2  A    between atoms: C3_4  and  O2_5 
REMARK    3  A    between atoms: C3_4  and  O3_7 
REMARK    4  A    between atoms: C3_4  and  C4_9 
REMARK    5  A    between atoms: C4_9  and  O4_10 
REMARK    6  A    between atoms: C4_9  and  C5_12 
REMARK    7  A    between atoms: C5_12  and  O5_13 
REMARK    8  A    between atoms: O5_13  and  P1_14 
ROOT
HETATM    1  C4  UNL     1     -35.777  20.400  -5.353  1.00  0.00     0.212 C 
ENDROOT
BRANCH   1   2
HETATM    2  C3  UNL     1     -34.314  20.165  -5.649  1.00  0.00     0.251 C 
BRANCH   2   3
HETATM    3  C2  UNL     1     -33.884  18.788  -5.363  1.00  0.00     0.187 C 
HETATM    4  C1  UNL     1     -32.836  18.559  -4.337  1.00  0.00     0.097 C 
HETATM    5  O1  UNL     1     -34.353  17.824  -5.933  1.00  0.00    -0.292 OA
ENDBRANCH   2   3
BRANCH   2   6
HETATM    6  O2  UNL     1     -33.565  21.124  -5.014  1.00  0.00    -0.357 OA
ATOM      7  H2  UNL     1     -34.083  21.805  -4.603  1.00  0.00     0.213 HD
ENDBRANCH   2   6
BRANCH   2   8
HETATM    8  O3  UNL     1     -34.159  20.381  -7.038  1.00  0.00    -0.357 OA
ATOM      9  H3  UNL     1     -34.956  20.787  -7.356  1.00  0.00     0.213 HD
ENDBRANCH   2   8
ENDBRANCH   1   2
BRANCH   1  10
HETATM   10  O4  UNL     1     -36.185  19.785  -4.189  1.00  0.00    -0.387 OA
ATOM     11  H4  UNL     1     -36.304  18.849  -4.295  1.00  0.00     0.210 HD
ENDBRANCH   1  10
BRANCH   1  12
HETATM   12  C5  UNL     1     -36.159  21.840  -5.415  1.00  0.00     0.220 C 
BRANCH  12  13
HETATM   13  O5  UNL     1     -37.304  22.013  -6.090  1.00  0.00    -0.280 OA
BRANCH  13  14
HETATM   14  P1  UNL     1     -38.745  21.898  -5.059  1.00  0.00     0.422 P 
HETATM   15  O6  UNL     1     -38.277  21.977  -3.443  1.00  0.00    -0.617 OA
HETATM   16  O7  UNL     1     -39.719  23.262  -5.421  1.00  0.00    -0.617 OA
HETATM   17  O8  UNL     1     -39.644  20.469  -5.353  1.00  0.00    -0.617 OA
ENDBRANCH  13  14
ENDBRANCH  12  13
ENDBRANCH   1  12
TORSDOF 8
ENDMDL
