MODEL 18
REMARK VINA RESULT: -6.473986277      2.931      6.146
REMARK  10 active torsions:
REMARK  status: ('A' for Active; 'I' for Inactive)
REMARK    1  A    between atoms: C2_2  and  C4_4 
REMARK    2  A    between atoms: C4_4  and  C5_5 
REMARK    3  A    between atoms: C5_5  and  C6_7 
REMARK    4  A    between atoms: C6_7  and  O2_8 
REMARK    5  A    between atoms: C6_7  and  O3_10 
REMARK    6  A    between atoms: C6_7  and  C7_12 
REMARK    7  A    between atoms: C7_12  and  O4_13 
REMARK    8  A    between atoms: C7_12  and  C8_15 
REMARK    9  A    between atoms: C8_15  and  O5_16 
REMARK   10  A    between atoms: O5_16  and  P1_17 
ROOT
HETATM    1  C6  UNL     1     -38.556 -11.088  14.597  1.00  0.00     0.251 C 
ENDROOT
BRANCH   1   2
HETATM    2  C5  UNL     1     -40.012 -10.952  14.415  1.00  0.00     0.191 C 
HETATM    3  O1  UNL     1     -40.669 -10.253  15.154  1.00  0.00    -0.292 OA
BRANCH   2   4
HETATM    4  C4  UNL     1     -40.689 -11.673  13.319  1.00  0.00     0.088 C 
BRANCH   4   5
HETATM    5  C2  UNL     1     -41.751 -12.612  13.792  1.00  0.00    -0.016 C 
HETATM    6  C1  UNL     1     -41.362 -14.010  13.297  1.00  0.00     0.010 C 
HETATM    7  C3  UNL     1     -43.113 -12.251  13.240  1.00  0.00     0.010 C 
ENDBRANCH   4   5
ENDBRANCH   2   4
ENDBRANCH   1   2
BRANCH   1   8
HETATM    8  O2  UNL     1     -38.245 -10.861  15.932  1.00  0.00    -0.357 OA
ATOM      9  H2  UNL     1     -37.343 -11.118  16.087  1.00  0.00     0.213 HD
ENDBRANCH   1   8
BRANCH   1  10
HETATM   10  O3  UNL     1     -38.175 -12.368  14.191  1.00  0.00    -0.357 OA
ATOM     11  H3  UNL     1     -38.179 -12.940  14.950  1.00  0.00     0.213 HD
ENDBRANCH   1  10
BRANCH   1  12
HETATM   12  C7  UNL     1     -37.773 -10.102  13.758  1.00  0.00     0.212 C 
BRANCH  12  13
HETATM   13  O4  UNL     1     -36.874  -9.467  14.638  1.00  0.00    -0.387 OA
ATOM     14  H4  UNL     1     -36.032  -9.884  14.500  1.00  0.00     0.210 HD
ENDBRANCH  12  13
BRANCH  12  15
HETATM   15  C8  UNL     1     -36.949 -10.835  12.746  1.00  0.00     0.220 C 
BRANCH  15  16
HETATM   16  O5  UNL     1     -36.795 -10.150  11.562  1.00  0.00    -0.280 OA
BRANCH  16  17
HETATM   17  P1  UNL     1     -35.621  -9.071  11.402  1.00  0.00     0.422 P 
HETATM   18  O6  UNL     1     -34.738  -9.701  12.487  1.00  0.00    -0.617 OA
HETATM   19  O7  UNL     1     -35.620  -7.662  12.389  1.00  0.00    -0.617 OA
HETATM   20  O8  UNL     1     -34.489  -9.126  10.221  1.00  0.00    -0.617 OA
ENDBRANCH  16  17
ENDBRANCH  15  16
ENDBRANCH  12  15
ENDBRANCH   1  12
TORSDOF 10
ENDMDL
