MODEL 3
REMARK VINA RESULT: -7.749470144      0.884      1.820
REMARK  10 active torsions:
REMARK  status: ('A' for Active; 'I' for Inactive)
REMARK    1  A    between atoms: C2_2  and  C4_4 
REMARK    2  A    between atoms: C4_4  and  C5_5 
REMARK    3  A    between atoms: C5_5  and  C6_7 
REMARK    4  A    between atoms: C6_7  and  O2_8 
REMARK    5  A    between atoms: C6_7  and  O3_10 
REMARK    6  A    between atoms: C6_7  and  C7_12 
REMARK    7  A    between atoms: C7_12  and  O4_13 
REMARK    8  A    between atoms: C7_12  and  C8_15 
REMARK    9  A    between atoms: C8_15  and  O5_16 
REMARK   10  A    between atoms: O5_16  and  P1_17 
ROOT
HETATM    1  C6  UNL     1     -38.499 -10.378  13.261  1.00  0.00     0.251 C 
ENDROOT
BRANCH   1   2
HETATM    2  C5  UNL     1     -37.161  -9.764  13.327  1.00  0.00     0.191 C 
HETATM    3  O1  UNL     1     -36.866  -9.012  14.228  1.00  0.00    -0.292 OA
BRANCH   2   4
HETATM    4  C4  UNL     1     -36.159 -10.064  12.285  1.00  0.00     0.088 C 
BRANCH   4   5
HETATM    5  C2  UNL     1     -35.809  -8.883  11.439  1.00  0.00    -0.016 C 
HETATM    6  C1  UNL     1     -35.678  -9.390   9.998  1.00  0.00     0.010 C 
HETATM    7  C3  UNL     1     -34.501  -8.250  11.864  1.00  0.00     0.010 C 
ENDBRANCH   4   5
ENDBRANCH   2   4
ENDBRANCH   1   2
BRANCH   1   8
HETATM    8  O2  UNL     1     -39.441  -9.455  13.695  1.00  0.00    -0.357 OA
ATOM      9  H2  UNL     1     -40.029  -9.251  12.977  1.00  0.00     0.213 HD
ENDBRANCH   1   8
BRANCH   1  10
HETATM   10  O3  UNL     1     -38.740 -10.777  11.945  1.00  0.00    -0.357 OA
ATOM     11  H3  UNL     1     -38.472 -11.684  11.849  1.00  0.00     0.213 HD
ENDBRANCH   1  10
BRANCH   1  12
HETATM   12  C7  UNL     1     -38.614 -11.611  14.130  1.00  0.00     0.212 C 
BRANCH  12  13
HETATM   13  O4  UNL     1     -38.626 -11.151  15.462  1.00  0.00    -0.387 OA
ATOM     14  H4  UNL     1     -38.961 -11.869  15.985  1.00  0.00     0.210 HD
ENDBRANCH  12  13
BRANCH  12  15
HETATM   15  C8  UNL     1     -39.928 -12.284  13.888  1.00  0.00     0.220 C 
BRANCH  15  16
HETATM   16  O5  UNL     1     -40.984 -11.678  14.531  1.00  0.00    -0.280 OA
BRANCH  16  17
HETATM   17  P1  UNL     1     -42.432 -11.643  13.846  1.00  0.00     0.422 P 
HETATM   18  O6  UNL     1     -41.925 -11.013  12.541  1.00  0.00    -0.617 OA
HETATM   19  O7  UNL     1     -43.414 -10.239  14.001  1.00  0.00    -0.617 OA
HETATM   20  O8  UNL     1     -43.133 -12.940  13.135  1.00  0.00    -0.617 OA
ENDBRANCH  16  17
ENDBRANCH  15  16
ENDBRANCH  12  15
ENDBRANCH   1  12
TORSDOF 10
ENDMDL
