MODEL 1
REMARK VINA RESULT: -8.255394246      0.000      0.000
REMARK  10 active torsions:
REMARK  status: ('A' for Active; 'I' for Inactive)
REMARK    1  A    between atoms: C2_2  and  C4_4 
REMARK    2  A    between atoms: C4_4  and  C5_5 
REMARK    3  A    between atoms: C5_5  and  C6_7 
REMARK    4  A    between atoms: C6_7  and  O2_8 
REMARK    5  A    between atoms: C6_7  and  O3_10 
REMARK    6  A    between atoms: C6_7  and  C7_12 
REMARK    7  A    between atoms: C7_12  and  O4_13 
REMARK    8  A    between atoms: C7_12  and  C8_15 
REMARK    9  A    between atoms: C8_15  and  O5_16 
REMARK   10  A    between atoms: O5_16  and  P1_17 
ROOT
HETATM    1  C6  UNL     1     -38.022 -10.030  13.960  1.00  0.00     0.251 C 
ENDROOT
BRANCH   1   2
HETATM    2  C5  UNL     1     -37.320 -10.453  12.735  1.00  0.00     0.191 C 
HETATM    3  O1  UNL     1     -37.843 -11.211  11.949  1.00  0.00    -0.292 OA
BRANCH   2   4
HETATM    4  C4  UNL     1     -35.960  -9.952  12.453  1.00  0.00     0.088 C 
BRANCH   4   5
HETATM    5  C2  UNL     1     -35.943  -8.742  11.577  1.00  0.00    -0.016 C 
HETATM    6  C1  UNL     1     -35.161  -9.119  10.313  1.00  0.00     0.010 C 
HETATM    7  C3  UNL     1     -35.266  -7.566  12.248  1.00  0.00     0.010 C 
ENDBRANCH   4   5
ENDBRANCH   2   4
ENDBRANCH   1   2
BRANCH   1   8
HETATM    8  O2  UNL     1     -37.092  -9.533  14.864  1.00  0.00    -0.357 OA
ATOM      9  H2  UNL     1     -37.515  -9.410  15.706  1.00  0.00     0.213 HD
ENDBRANCH   1   8
BRANCH   1  10
HETATM   10  O3  UNL     1     -38.971  -9.065  13.617  1.00  0.00    -0.357 OA
ATOM     11  H3  UNL     1     -39.556  -8.940  14.355  1.00  0.00     0.213 HD
ENDBRANCH   1  10
BRANCH   1  12
HETATM   12  C7  UNL     1     -38.764 -11.168  14.626  1.00  0.00     0.212 C 
BRANCH  12  13
HETATM   13  O4  UNL     1     -38.241 -11.264  15.932  1.00  0.00    -0.387 OA
ATOM     14  H4  UNL     1     -38.950 -11.023  16.517  1.00  0.00     0.210 HD
ENDBRANCH  12  13
BRANCH  12  15
HETATM   15  C8  UNL     1     -40.213 -10.823  14.760  1.00  0.00     0.220 C 
BRANCH  15  16
HETATM   16  O5  UNL     1     -40.939 -11.038  13.610  1.00  0.00    -0.280 OA
BRANCH  16  17
HETATM   17  P1  UNL     1     -42.500 -11.389  13.696  1.00  0.00     0.422 P 
HETATM   18  O6  UNL     1     -42.414 -11.943  15.125  1.00  0.00    -0.617 OA
HETATM   19  O7  UNL     1     -43.047 -12.958  13.250  1.00  0.00    -0.617 OA
HETATM   20  O8  UNL     1     -43.664 -10.284  14.023  1.00  0.00    -0.617 OA
ENDBRANCH  16  17
ENDBRANCH  15  16
ENDBRANCH  12  15
ENDBRANCH   1  12
TORSDOF 10
ENDMDL
