MODEL 5
REMARK VINA RESULT: -7.659323603      1.191      1.787
REMARK  10 active torsions:
REMARK  status: ('A' for Active; 'I' for Inactive)
REMARK    1  A    between atoms: C2_2  and  C4_4 
REMARK    2  A    between atoms: C4_4  and  C5_5 
REMARK    3  A    between atoms: C5_5  and  C6_7 
REMARK    4  A    between atoms: C6_7  and  O2_8 
REMARK    5  A    between atoms: C6_7  and  O3_10 
REMARK    6  A    between atoms: C6_7  and  C7_12 
REMARK    7  A    between atoms: C7_12  and  O4_13 
REMARK    8  A    between atoms: C7_12  and  C8_15 
REMARK    9  A    between atoms: C8_15  and  O5_16 
REMARK   10  A    between atoms: O5_16  and  P1_17 
ROOT
HETATM    1  C6  UNL     1     -38.480 -10.778  13.208  1.00  0.00     0.251 C 
ENDROOT
BRANCH   1   2
HETATM    2  C5  UNL     1     -37.541 -10.630  12.082  1.00  0.00     0.191 C 
HETATM    3  O1  UNL     1     -37.848 -10.984  10.966  1.00  0.00    -0.292 OA
BRANCH   2   4
HETATM    4  C4  UNL     1     -36.206 -10.042  12.307  1.00  0.00     0.088 C 
BRANCH   4   5
HETATM    5  C2  UNL     1     -35.949  -8.819  11.489  1.00  0.00    -0.016 C 
HETATM    6  C1  UNL     1     -34.871  -9.188  10.462  1.00  0.00     0.010 C 
HETATM    7  C3  UNL     1     -35.456  -7.665  12.334  1.00  0.00     0.010 C 
ENDBRANCH   4   5
ENDBRANCH   2   4
ENDBRANCH   1   2
BRANCH   1   8
HETATM    8  O2  UNL     1     -37.790 -11.268  14.310  1.00  0.00    -0.357 OA
ATOM      9  H2  UNL     1     -37.658 -10.560  14.931  1.00  0.00     0.213 HD
ENDBRANCH   1   8
BRANCH   1  10
HETATM   10  O3  UNL     1     -39.056  -9.534  13.474  1.00  0.00    -0.357 OA
ATOM     11  H3  UNL     1     -38.875  -9.304  14.378  1.00  0.00     0.213 HD
ENDBRANCH   1  10
BRANCH   1  12
HETATM   12  C7  UNL     1     -39.610 -11.736  12.898  1.00  0.00     0.212 C 
BRANCH  12  13
HETATM   13  O4  UNL     1     -39.067 -13.031  13.011  1.00  0.00    -0.387 OA
ATOM     14  H4  UNL     1     -38.131 -12.915  13.129  1.00  0.00     0.210 HD
ENDBRANCH  12  13
BRANCH  12  15
HETATM   15  C8  UNL     1     -40.678 -11.618  13.939  1.00  0.00     0.220 C 
BRANCH  15  16
HETATM   16  O5  UNL     1     -41.851 -11.074  13.466  1.00  0.00    -0.280 OA
BRANCH  16  17
HETATM   17  P1  UNL     1     -43.054 -10.751  14.474  1.00  0.00     0.422 P 
HETATM   18  O6  UNL     1     -44.146 -11.224  13.505  1.00  0.00    -0.617 OA
HETATM   19  O7  UNL     1     -43.830  -9.218  14.411  1.00  0.00    -0.617 OA
HETATM   20  O8  UNL     1     -43.497 -11.735  15.706  1.00  0.00    -0.617 OA
ENDBRANCH  16  17
ENDBRANCH  15  16
ENDBRANCH  12  15
ENDBRANCH   1  12
TORSDOF 10
ENDMDL
