MODEL 20
REMARK VINA RESULT: -6.428720391      2.972      6.053
REMARK  10 active torsions:
REMARK  status: ('A' for Active; 'I' for Inactive)
REMARK    1  A    between atoms: C2_2  and  C4_4 
REMARK    2  A    between atoms: C4_4  and  C5_5 
REMARK    3  A    between atoms: C5_5  and  C6_7 
REMARK    4  A    between atoms: C6_7  and  O2_8 
REMARK    5  A    between atoms: C6_7  and  O3_10 
REMARK    6  A    between atoms: C6_7  and  C7_12 
REMARK    7  A    between atoms: C7_12  and  O4_13 
REMARK    8  A    between atoms: C7_12  and  C8_15 
REMARK    9  A    between atoms: C8_15  and  O5_16 
REMARK   10  A    between atoms: O5_16  and  P1_17 
ROOT
HETATM    1  C6  UNL     1     -38.860 -10.642  13.530  1.00  0.00     0.251 C 
ENDROOT
BRANCH   1   2
HETATM    2  C5  UNL     1     -40.138 -11.094  14.107  1.00  0.00     0.191 C 
HETATM    3  O1  UNL     1     -40.190 -11.544  15.229  1.00  0.00    -0.292 OA
BRANCH   2   4
HETATM    4  C4  UNL     1     -41.380 -10.998  13.314  1.00  0.00     0.088 C 
BRANCH   4   5
HETATM    5  C2  UNL     1     -42.618 -11.225  14.119  1.00  0.00    -0.016 C 
HETATM    6  C1  UNL     1     -43.567 -12.062  13.252  1.00  0.00     0.010 C 
HETATM    7  C3  UNL     1     -43.300  -9.925  14.488  1.00  0.00     0.010 C 
ENDBRANCH   4   5
ENDBRANCH   2   4
ENDBRANCH   1   2
BRANCH   1   8
HETATM    8  O2  UNL     1     -37.829 -11.402  14.067  1.00  0.00    -0.357 OA
ATOM      9  H2  UNL     1     -37.015 -11.169  13.634  1.00  0.00     0.213 HD
ENDBRANCH   1   8
BRANCH   1  10
HETATM   10  O3  UNL     1     -38.927 -10.775  12.142  1.00  0.00    -0.357 OA
ATOM     11  H3  UNL     1     -38.302 -11.437  11.870  1.00  0.00     0.213 HD
ENDBRANCH   1  10
BRANCH   1  12
HETATM   12  C7  UNL     1     -38.573  -9.186  13.826  1.00  0.00     0.212 C 
BRANCH  12  13
HETATM   13  O4  UNL     1     -39.219  -8.900  15.046  1.00  0.00    -0.387 OA
ATOM     14  H4  UNL     1     -38.762  -9.404  15.709  1.00  0.00     0.210 HD
ENDBRANCH  12  13
BRANCH  12  15
HETATM   15  C8  UNL     1     -37.107  -8.991  14.052  1.00  0.00     0.220 C 
BRANCH  15  16
HETATM   16  O5  UNL     1     -36.481  -8.296  13.041  1.00  0.00    -0.280 OA
BRANCH  16  17
HETATM   17  P1  UNL     1     -35.631  -9.078  11.931  1.00  0.00     0.422 P 
HETATM   18  O6  UNL     1     -35.347 -10.285  12.835  1.00  0.00    -0.617 OA
HETATM   19  O7  UNL     1     -33.924  -8.877  11.868  1.00  0.00    -0.617 OA
HETATM   20  O8  UNL     1     -36.302  -9.944  10.714  1.00  0.00    -0.617 OA
ENDBRANCH  16  17
ENDBRANCH  15  16
ENDBRANCH  12  15
ENDBRANCH   1  12
TORSDOF 10
ENDMDL
