MODEL 2
REMARK VINA RESULT: -7.804338995      0.664      1.393
REMARK  10 active torsions:
REMARK  status: ('A' for Active; 'I' for Inactive)
REMARK    1  A    between atoms: C2_2  and  C4_4 
REMARK    2  A    between atoms: C4_4  and  C5_5 
REMARK    3  A    between atoms: C5_5  and  C6_7 
REMARK    4  A    between atoms: C6_7  and  O2_8 
REMARK    5  A    between atoms: C6_7  and  O3_10 
REMARK    6  A    between atoms: C6_7  and  C7_12 
REMARK    7  A    between atoms: C7_12  and  O4_13 
REMARK    8  A    between atoms: C7_12  and  C8_15 
REMARK    9  A    between atoms: C8_15  and  O5_16 
REMARK   10  A    between atoms: O5_16  and  P1_17 
ROOT
HETATM    1  C6  UNL     1     -38.035 -10.046  13.935  1.00  0.00     0.251 C 
ENDROOT
BRANCH   1   2
HETATM    2  C5  UNL     1     -37.207 -10.583  12.841  1.00  0.00     0.191 C 
HETATM    3  O1  UNL     1     -36.822 -11.730  12.857  1.00  0.00    -0.292 OA
BRANCH   2   4
HETATM    4  C4  UNL     1     -36.837  -9.717  11.703  1.00  0.00     0.088 C 
BRANCH   4   5
HETATM    5  C2  UNL     1     -35.446  -9.180  11.793  1.00  0.00    -0.016 C 
HETATM    6  C1  UNL     1     -35.553  -7.755  12.349  1.00  0.00     0.010 C 
HETATM    7  C3  UNL     1     -34.767  -9.136  10.441  1.00  0.00     0.010 C 
ENDBRANCH   4   5
ENDBRANCH   2   4
ENDBRANCH   1   2
BRANCH   1   8
HETATM    8  O2  UNL     1     -37.203  -9.516  14.913  1.00  0.00    -0.357 OA
ATOM      9  H2  UNL     1     -36.848  -8.691  14.602  1.00  0.00     0.213 HD
ENDBRANCH   1   8
BRANCH   1  10
HETATM   10  O3  UNL     1     -38.893  -9.078  13.410  1.00  0.00    -0.357 OA
ATOM     11  H3  UNL     1     -39.283  -8.596  14.130  1.00  0.00     0.213 HD
ENDBRANCH   1  10
BRANCH   1  12
HETATM   12  C7  UNL     1     -38.901 -11.106  14.580  1.00  0.00     0.212 C 
BRANCH  12  13
HETATM   13  O4  UNL     1     -38.300 -11.399  15.821  1.00  0.00    -0.387 OA
ATOM     14  H4  UNL     1     -37.394 -11.612  15.632  1.00  0.00     0.210 HD
ENDBRANCH  12  13
BRANCH  12  15
HETATM   15  C8  UNL     1     -40.258 -10.548  14.873  1.00  0.00     0.220 C 
BRANCH  15  16
HETATM   16  O5  UNL     1     -41.119 -10.604  13.800  1.00  0.00    -0.280 OA
BRANCH  16  17
HETATM   17  P1  UNL     1     -42.542 -11.326  13.946  1.00  0.00     0.422 P 
HETATM   18  O6  UNL     1     -43.315 -10.016  14.150  1.00  0.00    -0.617 OA
HETATM   19  O7  UNL     1     -43.117 -11.768  15.506  1.00  0.00    -0.617 OA
HETATM   20  O8  UNL     1     -43.435 -11.841  12.674  1.00  0.00    -0.617 OA
ENDBRANCH  16  17
ENDBRANCH  15  16
ENDBRANCH  12  15
ENDBRANCH   1  12
TORSDOF 10
ENDMDL
