MODEL 4
REMARK VINA RESULT: -7.314125748      1.174      1.864
REMARK  6 active torsions:
REMARK  status: ('A' for Active; 'I' for Inactive)
REMARK    1  A    between atoms: O1_1  and  C1_3 
REMARK    2  A    between atoms: C2_5  and  C3_6 
REMARK    3  A    between atoms: C3_6  and  O3_7 
REMARK    4  A    between atoms: O3_7  and  P1_8 
REMARK    5  A    between atoms: C4_12  and  O7_13 
REMARK    6  A    between atoms: C5_15  and  O8_16 
ROOT
HETATM    1  C1  UNL     1     -33.448 -20.019  -4.077  1.00  0.00     0.288 C 
HETATM    2  O2  UNL     1     -34.528 -19.640  -3.286  1.00  0.00    -0.349 OA
HETATM    3  C2  UNL     1     -35.587 -19.369  -4.143  1.00  0.00     0.180 C 
HETATM    4  C4  UNL     1     -35.236 -19.774  -5.530  1.00  0.00     0.182 C 
HETATM    5  C5  UNL     1     -34.117 -20.771  -5.220  1.00  0.00     0.204 C 
ENDROOT
BRANCH   3   6
HETATM    6  C3  UNL     1     -36.872 -20.105  -3.702  1.00  0.00     0.217 C 
BRANCH   6   7
HETATM    7  O3  UNL     1     -37.295 -20.911  -4.730  1.00  0.00    -0.280 OA
BRANCH   7   8
HETATM    8  P1  UNL     1     -38.003 -22.219  -4.440  1.00  0.00     0.422 P 
HETATM    9  O4  UNL     1     -38.699 -23.570  -4.165  1.00  0.00    -0.617 OA
HETATM   10  O5  UNL     1     -38.917 -21.912  -5.800  1.00  0.00    -0.617 OA
HETATM   11  O6  UNL     1     -38.535 -21.630  -3.010  1.00  0.00    -0.617 OA
ENDBRANCH   7   8
ENDBRANCH   6   7
ENDBRANCH   3   6
BRANCH   4  12
HETATM   12  O7  UNL     1     -34.645 -18.677  -6.154  1.00  0.00    -0.390 OA
ATOM     13  H7  UNL     1     -34.377 -18.950  -7.024  1.00  0.00     0.210 HD
ENDBRANCH   4  12
BRANCH   1  14
HETATM   14  O1  UNL     1     -32.871 -18.855  -4.563  1.00  0.00    -0.369 OA
ATOM     15  H1  UNL     1     -33.520 -18.431  -5.112  1.00  0.00     0.212 HD
ENDBRANCH   1  14
BRANCH   5  16
HETATM   16  O8  UNL     1     -33.290 -20.959  -6.304  1.00  0.00    -0.388 OA
ATOM     17  H8  UNL     1     -33.761 -21.162  -7.104  1.00  0.00     0.210 HD
ENDBRANCH   5  16
TORSDOF 6
ENDMDL
