MODEL 5
REMARK VINA RESULT: -7.283070995      1.174      1.781
REMARK  6 active torsions:
REMARK  status: ('A' for Active; 'I' for Inactive)
REMARK    1  A    between atoms: O1_1  and  C1_3 
REMARK    2  A    between atoms: C2_5  and  C3_6 
REMARK    3  A    between atoms: C3_6  and  O3_7 
REMARK    4  A    between atoms: O3_7  and  P1_8 
REMARK    5  A    between atoms: C4_12  and  O7_13 
REMARK    6  A    between atoms: C5_15  and  O8_16 
ROOT
HETATM    1  C1  UNL     1     -34.881 -19.290  -5.505  1.00  0.00     0.288 C 
HETATM    2  O2  UNL     1     -35.948 -20.182  -5.538  1.00  0.00    -0.349 OA
HETATM    3  C2  UNL     1     -35.712 -21.139  -4.560  1.00  0.00     0.180 C 
HETATM    4  C4  UNL     1     -34.543 -20.741  -3.730  1.00  0.00     0.182 C 
HETATM    5  C5  UNL     1     -34.533 -19.238  -4.023  1.00  0.00     0.204 C 
ENDROOT
BRANCH   3   6
HETATM    6  C3  UNL     1     -36.945 -21.331  -3.650  1.00  0.00     0.217 C 
BRANCH   6   7
HETATM    7  O3  UNL     1     -38.049 -21.544  -4.439  1.00  0.00    -0.280 OA
BRANCH   7   8
HETATM    8  P1  UNL     1     -39.106 -22.549  -4.027  1.00  0.00     0.422 P 
HETATM    9  O4  UNL     1     -40.210 -23.545  -3.611  1.00  0.00    -0.617 OA
HETATM   10  O5  UNL     1     -38.853 -22.025  -2.465  1.00  0.00    -0.617 OA
HETATM   11  O6  UNL     1     -38.178 -23.774  -4.584  1.00  0.00    -0.617 OA
ENDBRANCH   7   8
ENDBRANCH   6   7
ENDBRANCH   3   6
BRANCH   4  12
HETATM   12  O7  UNL     1     -33.402 -21.280  -4.322  1.00  0.00    -0.390 OA
ATOM     13  H7  UNL     1     -32.949 -21.792  -3.662  1.00  0.00     0.210 HD
ENDBRANCH   4  12
BRANCH   1  14
HETATM   14  O1  UNL     1     -33.837 -19.876  -6.205  1.00  0.00    -0.369 OA
ATOM     15  H1  UNL     1     -33.542 -19.243  -6.849  1.00  0.00     0.212 HD
ENDBRANCH   1  14
BRANCH   5  16
HETATM   16  O8  UNL     1     -33.300 -18.681  -3.772  1.00  0.00    -0.388 OA
ATOM     17  H8  UNL     1     -32.583 -19.161  -4.170  1.00  0.00     0.210 HD
ENDBRANCH   5  16
TORSDOF 6
ENDMDL
