MODEL 15
REMARK VINA RESULT: -6.541791341      2.221      5.206
REMARK  6 active torsions:
REMARK  status: ('A' for Active; 'I' for Inactive)
REMARK    1  A    between atoms: O1_1  and  C1_3 
REMARK    2  A    between atoms: C2_5  and  C3_6 
REMARK    3  A    between atoms: C3_6  and  O3_7 
REMARK    4  A    between atoms: O3_7  and  P1_8 
REMARK    5  A    between atoms: C4_12  and  O7_13 
REMARK    6  A    between atoms: C5_15  and  O8_16 
ROOT
HETATM    1  C1  UNL     1     -38.363 -22.464  -4.738  1.00  0.00     0.288 C 
HETATM    2  O2  UNL     1     -36.991 -22.234  -4.717  1.00  0.00    -0.349 OA
HETATM    3  C2  UNL     1     -36.795 -20.978  -4.158  1.00  0.00     0.180 C 
HETATM    4  C4  UNL     1     -38.079 -20.456  -3.618  1.00  0.00     0.182 C 
HETATM    5  C5  UNL     1     -38.838 -21.777  -3.465  1.00  0.00     0.204 C 
ENDROOT
BRANCH   3   6
HETATM    6  C3  UNL     1     -35.743 -21.022  -3.027  1.00  0.00     0.217 C 
BRANCH   6   7
HETATM    7  O3  UNL     1     -34.489 -20.983  -3.587  1.00  0.00    -0.280 OA
BRANCH   7   8
HETATM    8  P1  UNL     1     -34.202 -20.077  -4.767  1.00  0.00     0.422 P 
HETATM    9  O4  UNL     1     -33.928 -19.177  -5.991  1.00  0.00    -0.617 OA
HETATM   10  O5  UNL     1     -32.811 -20.968  -4.987  1.00  0.00    -0.617 OA
HETATM   11  O6  UNL     1     -34.133 -18.781  -3.772  1.00  0.00    -0.617 OA
ENDBRANCH   7   8
ENDBRANCH   6   7
ENDBRANCH   3   6
BRANCH   4  12
HETATM   12  O7  UNL     1     -38.706 -19.741  -4.637  1.00  0.00    -0.390 OA
ATOM     13  H7  UNL     1     -39.643 -19.875  -4.548  1.00  0.00     0.210 HD
ENDBRANCH   4  12
BRANCH   1  14
HETATM   14  O1  UNL     1     -38.871 -21.797  -5.842  1.00  0.00    -0.369 OA
ATOM     15  H1  UNL     1     -38.608 -20.888  -5.764  1.00  0.00     0.212 HD
ENDBRANCH   1  14
BRANCH   5  16
HETATM   16  O8  UNL     1     -40.199 -21.579  -3.429  1.00  0.00    -0.388 OA
ATOM     17  H8  UNL     1     -40.526 -21.373  -2.561  1.00  0.00     0.210 HD
ENDBRANCH   5  16
TORSDOF 6
ENDMDL
