MODEL 17
REMARK VINA RESULT: -6.215501349      2.257      5.214
REMARK  6 active torsions:
REMARK  status: ('A' for Active; 'I' for Inactive)
REMARK    1  A    between atoms: O1_1  and  C1_3 
REMARK    2  A    between atoms: C2_5  and  C3_6 
REMARK    3  A    between atoms: C3_6  and  O3_7 
REMARK    4  A    between atoms: O3_7  and  P1_8 
REMARK    5  A    between atoms: C4_12  and  O7_13 
REMARK    6  A    between atoms: C5_15  and  O8_16 
ROOT
HETATM    1  C1  UNL     1     -38.650 -22.632  -4.451  1.00  0.00     0.288 C 
HETATM    2  O2  UNL     1     -37.862 -21.827  -5.268  1.00  0.00    -0.349 OA
HETATM    3  C2  UNL     1     -37.910 -20.541  -4.744  1.00  0.00     0.180 C 
HETATM    4  C4  UNL     1     -38.598 -20.555  -3.425  1.00  0.00     0.182 C 
HETATM    5  C5  UNL     1     -38.422 -22.033  -3.069  1.00  0.00     0.204 C 
ENDROOT
BRANCH   3   6
HETATM    6  C3  UNL     1     -36.493 -19.948  -4.577  1.00  0.00     0.217 C 
BRANCH   6   7
HETATM    7  O3  UNL     1     -35.646 -20.569  -5.461  1.00  0.00    -0.280 OA
BRANCH   7   8
HETATM    8  P1  UNL     1     -34.172 -20.718  -5.137  1.00  0.00     0.422 P 
HETATM    9  O4  UNL     1     -32.677 -20.907  -4.806  1.00  0.00    -0.617 OA
HETATM   10  O5  UNL     1     -34.614 -20.596  -3.535  1.00  0.00    -0.617 OA
HETATM   11  O6  UNL     1     -33.841 -19.337  -5.948  1.00  0.00    -0.617 OA
ENDBRANCH   7   8
ENDBRANCH   6   7
ENDBRANCH   3   6
BRANCH   4  12
HETATM   12  O7  UNL     1     -39.958 -20.351  -3.657  1.00  0.00    -0.390 OA
ATOM     13  H7  UNL     1     -40.424 -21.108  -3.323  1.00  0.00     0.210 HD
ENDBRANCH   4  12
BRANCH   1  14
HETATM   14  O1  UNL     1     -39.968 -22.431  -4.831  1.00  0.00    -0.369 OA
ATOM     15  H1  UNL     1     -40.275 -23.244  -5.213  1.00  0.00     0.212 HD
ENDBRANCH   1  14
BRANCH   5  16
HETATM   16  O8  UNL     1     -39.347 -22.445  -2.138  1.00  0.00    -0.388 OA
ATOM     17  H8  UNL     1     -39.267 -21.996  -1.305  1.00  0.00     0.210 HD
ENDBRANCH   5  16
TORSDOF 6
ENDMDL
