MODEL 7
REMARK VINA RESULT: -7.111810786      1.260      2.239
REMARK  6 active torsions:
REMARK  status: ('A' for Active; 'I' for Inactive)
REMARK    1  A    between atoms: O1_1  and  C1_3 
REMARK    2  A    between atoms: C2_5  and  C3_6 
REMARK    3  A    between atoms: C3_6  and  O3_7 
REMARK    4  A    between atoms: O3_7  and  P1_8 
REMARK    5  A    between atoms: C4_12  and  O7_13 
REMARK    6  A    between atoms: C5_15  and  O8_16 
ROOT
HETATM    1  C1  UNL     1     -33.564 -20.100  -4.715  1.00  0.00     0.288 C 
HETATM    2  O2  UNL     1     -34.061 -20.825  -3.637  1.00  0.00    -0.349 OA
HETATM    3  C2  UNL     1     -35.259 -20.231  -3.262  1.00  0.00     0.180 C 
HETATM    4  C4  UNL     1     -35.650 -19.200  -4.260  1.00  0.00     0.182 C 
HETATM    5  C5  UNL     1     -34.830 -19.690  -5.456  1.00  0.00     0.204 C 
ENDROOT
BRANCH   3   6
HETATM    6  C3  UNL     1     -36.390 -21.276  -3.134  1.00  0.00     0.217 C 
BRANCH   6   7
HETATM    7  O3  UNL     1     -37.587 -20.671  -3.429  1.00  0.00    -0.280 OA
BRANCH   7   8
HETATM    8  P1  UNL     1     -38.805 -21.505  -3.777  1.00  0.00     0.422 P 
HETATM    9  O4  UNL     1     -40.023 -22.385  -4.127  1.00  0.00    -0.617 OA
HETATM   10  O5  UNL     1     -38.305 -21.393  -5.363  1.00  0.00    -0.617 OA
HETATM   11  O6  UNL     1     -39.788 -20.334  -3.198  1.00  0.00    -0.617 OA
ENDBRANCH   7   8
ENDBRANCH   6   7
ENDBRANCH   3   6
BRANCH   4  12
HETATM   12  O7  UNL     1     -35.094 -17.987  -3.853  1.00  0.00    -0.390 OA
ATOM     13  H7  UNL     1     -34.477 -17.715  -4.523  1.00  0.00     0.210 HD
ENDBRANCH   4  12
BRANCH   1  14
HETATM   14  O1  UNL     1     -32.945 -18.972  -4.197  1.00  0.00    -0.369 OA
ATOM     15  H1  UNL     1     -33.622 -18.443  -3.792  1.00  0.00     0.212 HD
ENDBRANCH   1  14
BRANCH   5  16
HETATM   16  O8  UNL     1     -34.622 -18.686  -6.374  1.00  0.00    -0.388 OA
ATOM     17  H8  UNL     1     -33.710 -18.583  -6.618  1.00  0.00     0.210 HD
ENDBRANCH   5  16
TORSDOF 6
ENDMDL
