MODEL 18
REMARK VINA RESULT: -6.204657084      2.207      4.889
REMARK  6 active torsions:
REMARK  status: ('A' for Active; 'I' for Inactive)
REMARK    1  A    between atoms: O1_1  and  C1_3 
REMARK    2  A    between atoms: C2_5  and  C3_6 
REMARK    3  A    between atoms: C3_6  and  O3_7 
REMARK    4  A    between atoms: O3_7  and  P1_8 
REMARK    5  A    between atoms: C4_12  and  O7_13 
REMARK    6  A    between atoms: C5_15  and  O8_16 
ROOT
HETATM    1  C1  UNL     1     -38.318 -19.888  -4.319  1.00  0.00     0.288 C 
HETATM    2  O2  UNL     1     -37.310 -19.686  -3.382  1.00  0.00    -0.349 OA
HETATM    3  C2  UNL     1     -36.878 -20.940  -2.969  1.00  0.00     0.180 C 
HETATM    4  C4  UNL     1     -37.496 -21.995  -3.815  1.00  0.00     0.182 C 
HETATM    5  C5  UNL     1     -37.858 -21.149  -5.039  1.00  0.00     0.204 C 
ENDROOT
BRANCH   3   6
HETATM    6  C3  UNL     1     -35.340 -21.058  -3.042  1.00  0.00     0.217 C 
BRANCH   6   7
HETATM    7  O3  UNL     1     -34.850 -20.010  -3.783  1.00  0.00    -0.280 OA
BRANCH   7   8
HETATM    8  P1  UNL     1     -34.044 -20.268  -5.040  1.00  0.00     0.422 P 
HETATM    9  O4  UNL     1     -33.212 -20.564  -6.306  1.00  0.00    -0.617 OA
HETATM   10  O5  UNL     1     -32.781 -19.502  -4.269  1.00  0.00    -0.617 OA
HETATM   11  O6  UNL     1     -35.081 -19.351  -5.909  1.00  0.00    -0.617 OA
ENDBRANCH   7   8
ENDBRANCH   6   7
ENDBRANCH   3   6
BRANCH   4  12
HETATM   12  O7  UNL     1     -38.694 -22.373  -3.212  1.00  0.00    -0.390 OA
ATOM     13  H7  UNL     1     -38.906 -23.248  -3.516  1.00  0.00     0.210 HD
ENDBRANCH   4  12
BRANCH   1  14
HETATM   14  O1  UNL     1     -39.483 -20.155  -3.615  1.00  0.00    -0.369 OA
ATOM     15  H1  UNL     1     -40.052 -20.646  -4.194  1.00  0.00     0.212 HD
ENDBRANCH   1  14
BRANCH   5  16
HETATM   16  O8  UNL     1     -38.850 -21.740  -5.789  1.00  0.00    -0.388 OA
ATOM     17  H8  UNL     1     -39.450 -22.264  -5.272  1.00  0.00     0.210 HD
ENDBRANCH   5  16
TORSDOF 6
ENDMDL
