MODEL 9
REMARK VINA RESULT: -6.940155618      1.075      1.238
REMARK  6 active torsions:
REMARK  status: ('A' for Active; 'I' for Inactive)
REMARK    1  A    between atoms: O1_1  and  C1_3 
REMARK    2  A    between atoms: C2_5  and  C3_6 
REMARK    3  A    between atoms: C3_6  and  O3_7 
REMARK    4  A    between atoms: O3_7  and  P1_8 
REMARK    5  A    between atoms: C4_12  and  O7_13 
REMARK    6  A    between atoms: C5_15  and  O8_16 
ROOT
HETATM    1  C1  UNL     1     -34.714 -19.223  -3.190  1.00  0.00     0.288 C 
HETATM    2  O2  UNL     1     -36.073 -19.513  -3.270  1.00  0.00    -0.349 OA
HETATM    3  C2  UNL     1     -36.349 -19.818  -4.596  1.00  0.00     0.180 C 
HETATM    4  C4  UNL     1     -35.082 -19.919  -5.370  1.00  0.00     0.182 C 
HETATM    5  C5  UNL     1     -34.108 -20.172  -4.216  1.00  0.00     0.204 C 
ENDROOT
BRANCH   3   6
HETATM    6  C3  UNL     1     -37.131 -21.145  -4.718  1.00  0.00     0.217 C 
BRANCH   6   7
HETATM    7  O3  UNL     1     -37.824 -21.360  -3.552  1.00  0.00    -0.280 OA
BRANCH   7   8
HETATM    8  P1  UNL     1     -39.279 -21.784  -3.589  1.00  0.00     0.422 P 
HETATM    9  O4  UNL     1     -40.758 -22.218  -3.664  1.00  0.00    -0.617 OA
HETATM   10  O5  UNL     1     -39.645 -20.162  -3.708  1.00  0.00    -0.617 OA
HETATM   11  O6  UNL     1     -39.141 -22.431  -2.094  1.00  0.00    -0.617 OA
ENDBRANCH   7   8
ENDBRANCH   6   7
ENDBRANCH   3   6
BRANCH   4  12
HETATM   12  O7  UNL     1     -34.795 -18.652  -5.876  1.00  0.00    -0.390 OA
ATOM     13  H7  UNL     1     -35.535 -18.089  -5.680  1.00  0.00     0.210 HD
ENDBRANCH   4  12
BRANCH   1  14
HETATM   14  O1  UNL     1     -34.552 -17.914  -3.617  1.00  0.00    -0.369 OA
ATOM     15  H1  UNL     1     -33.618 -17.758  -3.689  1.00  0.00     0.212 HD
ENDBRANCH   1  14
BRANCH   5  16
HETATM   16  O8  UNL     1     -32.816 -19.846  -4.562  1.00  0.00    -0.388 OA
ATOM     17  H8  UNL     1     -32.182 -20.507  -4.310  1.00  0.00     0.210 HD
ENDBRANCH   5  16
TORSDOF 6
ENDMDL
