MODEL 11
REMARK VINA RESULT: -7.026902395      1.415      3.016
REMARK  0 active torsions:
REMARK  status: ('A' for Active; 'I' for Inactive)
ROOT
HETATM    1  C1  UNL     1     -17.681  -3.959  -2.983  1.00  0.00     0.046 C 
HETATM    2  C2  UNL     1     -17.863  -2.623  -2.326  1.00  0.00     0.058 C 
HETATM    3  C3  UNL     1     -16.629  -2.217  -1.508  1.00  0.00     0.038 C 
HETATM    4  C4  UNL     1     -17.023  -0.925  -0.814  1.00  0.00     0.010 C 
HETATM    5  C5  UNL     1     -18.348  -0.397  -1.286  1.00  0.00     0.020 C 
HETATM    6  C6  UNL     1     -19.409  -1.379  -0.783  1.00  0.00     0.010 C 
HETATM    7  C7  UNL     1     -19.022  -2.735  -1.362  1.00  0.00     0.038 C 
HETATM    8  C8  UNL     1     -18.430  -0.428  -2.794  1.00  0.00     0.058 C 
HETATM    9  C9  UNL     1     -17.471   0.646  -3.309  1.00  0.00     0.046 C 
HETATM   10  C10 UNL     1     -19.793  -0.129  -3.313  1.00  0.00     0.046 C 
HETATM   11  O1  UNL     1     -18.035  -1.655  -3.283  1.00  0.00    -0.370 OA
ENDROOT
TORSDOF 0
ENDMDL
