MODEL 3
REMARK VINA RESULT: -7.248269329      1.303      3.174
REMARK  0 active torsions:
REMARK  status: ('A' for Active; 'I' for Inactive)
ROOT
HETATM    1  C1  UNL     1     -19.245  -3.573  -3.602  1.00  0.00     0.046 C 
HETATM    2  C2  UNL     1     -18.581  -2.636  -2.636  1.00  0.00     0.058 C 
HETATM    3  C3  UNL     1     -17.177  -3.120  -2.247  1.00  0.00     0.038 C 
HETATM    4  C4  UNL     1     -16.705  -2.145  -1.182  1.00  0.00     0.010 C 
HETATM    5  C5  UNL     1     -17.638  -0.981  -1.011  1.00  0.00     0.020 C 
HETATM    6  C6  UNL     1     -18.924  -1.541  -0.400  1.00  0.00     0.010 C 
HETATM    7  C7  UNL     1     -19.411  -2.609  -1.373  1.00  0.00     0.038 C 
HETATM    8  C8  UNL     1     -18.028  -0.406  -2.352  1.00  0.00     0.058 C 
HETATM    9  C9  UNL     1     -16.782   0.278  -2.918  1.00  0.00     0.046 C 
HETATM   10  C10 UNL     1     -19.119   0.603  -2.263  1.00  0.00     0.046 C 
HETATM   11  O1  UNL     1     -18.424  -1.404  -3.218  1.00  0.00    -0.370 OA
ENDROOT
TORSDOF 0
ENDMDL
