MODEL 18
REMARK VINA RESULT: -6.936377662      1.344      3.111
REMARK  0 active torsions:
REMARK  status: ('A' for Active; 'I' for Inactive)
ROOT
HETATM    1  C1  UNL     1     -18.021  -4.264  -3.633  1.00  0.00     0.046 C 
HETATM    2  C2  UNL     1     -18.350  -2.848  -3.261  1.00  0.00     0.058 C 
HETATM    3  C3  UNL     1     -18.718  -2.721  -1.776  1.00  0.00     0.038 C 
HETATM    4  C4  UNL     1     -19.144  -1.274  -1.599  1.00  0.00     0.010 C 
HETATM    5  C5  UNL     1     -18.891  -0.443  -2.825  1.00  0.00     0.020 C 
HETATM    6  C6  UNL     1     -19.863  -0.944  -3.896  1.00  0.00     0.010 C 
HETATM    7  C7  UNL     1     -19.563  -2.430  -4.061  1.00  0.00     0.038 C 
HETATM    8  C8  UNL     1     -17.504  -0.697  -3.366  1.00  0.00     0.058 C 
HETATM    9  C9  UNL     1     -16.523  -0.079  -2.369  1.00  0.00     0.046 C 
HETATM   10  C10 UNL     1     -17.273  -0.076  -4.699  1.00  0.00     0.046 C 
HETATM   11  O1  UNL     1     -17.254  -2.049  -3.464  1.00  0.00    -0.370 OA
ENDROOT
TORSDOF 0
ENDMDL
