MODEL 2
REMARK VINA RESULT: -9.108376381      1.231      1.324
REMARK  4 active torsions:
REMARK  status: ('A' for Active; 'I' for Inactive)
REMARK    1  A    between atoms: C4_5  and  C5_6 
REMARK    2  A    between atoms: C9_13  and  C10_14 
REMARK    3  A    between atoms: C10_14  and  O1_15 
REMARK    4  A    between atoms: O1_15  and  C11_16 
ROOT
HETATM    1  C5  UNL     1     -20.943 -44.072  24.159  1.00  0.00     0.028 C 
HETATM    2  C6  UNL     1     -21.206 -44.123  22.701  1.00  0.00     0.037 C 
HETATM    3  C7  UNL     1     -21.354 -45.537  22.161  1.00  0.00     0.233 C 
HETATM    4  N1  UNL     1     -22.540 -46.039  22.874  1.00  0.00    -0.075 N 
ATOM      5  H11 UNL     1     -22.903 -46.890  22.443  1.00  0.00     0.277 HD
ATOM      6  H12 UNL     1     -23.347 -45.433  22.730  1.00  0.00     0.277 HD
HETATM    7  C8  UNL     1     -22.270 -46.228  24.253  1.00  0.00     0.239 C 
HETATM    8  C9  UNL     1     -21.678 -45.077  24.990  1.00  0.00     0.044 C 
ENDROOT
BRANCH   8   9
HETATM    9  C10 UNL     1     -20.780 -45.654  26.064  1.00  0.00     0.182 C 
BRANCH   9  10
HETATM   10  O1  UNL     1     -21.440 -45.920  27.217  1.00  0.00    -0.351 OA
BRANCH  10  11
HETATM   11  C11 UNL     1     -21.795 -46.990  27.944  1.00  0.00     0.071 A 
HETATM   12  C12 UNL     1     -23.068 -47.359  28.276  1.00  0.00     0.039 A 
HETATM   13  C13 UNL     1     -23.372 -48.495  29.040  1.00  0.00     0.042 A 
HETATM   14  C14 UNL     1     -22.341 -49.302  29.494  1.00  0.00     0.105 A 
HETATM   15  C15 UNL     1     -21.046 -48.960  29.178  1.00  0.00     0.107 A 
HETATM   16  O3  UNL     1     -22.282 -50.461  30.248  1.00  0.00    -0.323 OA
HETATM   17  C16 UNL     1     -20.783 -47.845  28.430  1.00  0.00     0.076 A 
HETATM   18  O2  UNL     1     -20.222 -49.946  29.764  1.00  0.00    -0.323 OA
HETATM   19  C17 UNL     1     -21.051 -51.093  29.965  1.00  0.00     0.352 C 
ENDBRANCH  10  11
ENDBRANCH   9  10
ENDBRANCH   8   9
BRANCH   1  20
HETATM   20  C4  UNL     1     -21.166 -42.676  24.623  1.00  0.00    -0.053 A 
HETATM   21  C3  UNL     1     -20.866 -41.586  23.812  1.00  0.00     0.010 A 
HETATM   22  C2  UNL     1     -21.072 -40.295  24.243  1.00  0.00     0.043 A 
HETATM   23  C1  UNL     1     -21.583 -40.036  25.487  1.00  0.00     0.116 A 
HETATM   24  F1  UNL     1     -21.805 -38.779  25.956  1.00  0.00    -0.206 F 
HETATM   25  C19 UNL     1     -21.894 -41.095  26.320  1.00  0.00     0.043 A 
HETATM   26  C18 UNL     1     -21.679 -42.381  25.871  1.00  0.00     0.010 A 
ENDBRANCH   1  20
TORSDOF 4
ENDMDL
