MODEL 1
REMARK VINA RESULT: -9.410648500      0.000      0.000
REMARK  4 active torsions:
REMARK  status: ('A' for Active; 'I' for Inactive)
REMARK    1  A    between atoms: C4_5  and  C5_6 
REMARK    2  A    between atoms: C9_13  and  C10_14 
REMARK    3  A    between atoms: C10_14  and  O1_15 
REMARK    4  A    between atoms: O1_15  and  C11_16 
ROOT
HETATM    1  C5  UNL     1     -20.768 -43.900  25.765  1.00  0.00     0.028 C 
HETATM    2  C6  UNL     1     -19.717 -44.460  24.880  1.00  0.00     0.037 C 
HETATM    3  C7  UNL     1     -19.653 -45.979  24.904  1.00  0.00     0.233 C 
HETATM    4  N1  UNL     1     -20.970 -46.373  24.380  1.00  0.00    -0.075 N 
ATOM      5  H11 UNL     1     -20.989 -47.357  24.114  1.00  0.00     0.277 HD
ATOM      6  H12 UNL     1     -21.147 -45.960  23.464  1.00  0.00     0.277 HD
HETATM    7  C8  UNL     1     -22.004 -46.063  25.299  1.00  0.00     0.239 C 
HETATM    8  C9  UNL     1     -22.054 -44.665  25.815  1.00  0.00     0.044 C 
ENDROOT
BRANCH   8   9
HETATM    9  C10 UNL     1     -22.588 -44.735  27.230  1.00  0.00     0.182 C 
BRANCH   9  10
HETATM   10  O1  UNL     1     -21.924 -45.630  28.001  1.00  0.00    -0.351 OA
BRANCH  10  11
HETATM   11  C11 UNL     1     -22.105 -46.869  28.479  1.00  0.00     0.071 A 
HETATM   12  C12 UNL     1     -23.300 -47.510  28.643  1.00  0.00     0.039 A 
HETATM   13  C13 UNL     1     -23.420 -48.813  29.148  1.00  0.00     0.042 A 
HETATM   14  C14 UNL     1     -22.277 -49.508  29.509  1.00  0.00     0.105 A 
HETATM   15  C15 UNL     1     -21.055 -48.893  29.358  1.00  0.00     0.107 A 
HETATM   16  O3  UNL     1     -22.035 -50.768  30.026  1.00  0.00    -0.323 OA
HETATM   17  C16 UNL     1     -20.972 -47.620  28.861  1.00  0.00     0.076 A 
HETATM   18  O2  UNL     1     -20.087 -49.822  29.798  1.00  0.00    -0.323 OA
HETATM   19  C17 UNL     1     -20.701 -51.110  29.713  1.00  0.00     0.352 C 
ENDBRANCH  10  11
ENDBRANCH   9  10
ENDBRANCH   8   9
BRANCH   1  20
HETATM   20  C4  UNL     1     -20.969 -42.472  25.400  1.00  0.00    -0.053 A 
HETATM   21  C3  UNL     1     -20.784 -42.025  24.095  1.00  0.00     0.010 A 
HETATM   22  C2  UNL     1     -20.969 -40.703  23.759  1.00  0.00     0.043 A 
HETATM   23  C1  UNL     1     -21.345 -39.778  24.698  1.00  0.00     0.116 A 
HETATM   24  F1  UNL     1     -21.540 -38.463  24.413  1.00  0.00    -0.206 F 
HETATM   25  C19 UNL     1     -21.538 -40.187  26.004  1.00  0.00     0.043 A 
HETATM   26  C18 UNL     1     -21.346 -41.516  26.321  1.00  0.00     0.010 A 
ENDBRANCH   1  20
TORSDOF 4
ENDMDL
