MODEL 3
REMARK VINA RESULT: -9.079096245      1.996      3.041
REMARK  4 active torsions:
REMARK  status: ('A' for Active; 'I' for Inactive)
REMARK    1  A    between atoms: C4_5  and  C5_6 
REMARK    2  A    between atoms: C9_13  and  C10_14 
REMARK    3  A    between atoms: C10_14  and  O1_15 
REMARK    4  A    between atoms: O1_15  and  C11_16 
ROOT
HETATM    1  C5  UNL     1     -20.529 -43.026  22.818  1.00  0.00     0.028 C 
HETATM    2  C6  UNL     1     -21.088 -42.682  21.488  1.00  0.00     0.037 C 
HETATM    3  C7  UNL     1     -21.142 -43.862  20.531  1.00  0.00     0.233 C 
HETATM    4  N1  UNL     1     -22.064 -44.790  21.204  1.00  0.00    -0.075 N 
ATOM      5  H11 UNL     1     -22.385 -45.524  20.572  1.00  0.00     0.277 HD
ATOM      6  H12 UNL     1     -22.962 -44.349  21.401  1.00  0.00     0.277 HD
HETATM    7  C8  UNL     1     -21.482 -45.332  22.378  1.00  0.00     0.239 C 
HETATM    8  C9  UNL     1     -20.918 -44.365  23.362  1.00  0.00     0.044 C 
ENDROOT
BRANCH   8   9
HETATM    9  C10 UNL     1     -19.738 -45.045  24.024  1.00  0.00     0.182 C 
BRANCH   9  10
HETATM   10  O1  UNL     1     -20.109 -45.994  24.917  1.00  0.00    -0.351 OA
BRANCH  10  11
HETATM   11  C11 UNL     1     -21.044 -46.170  25.862  1.00  0.00     0.071 A 
HETATM   12  C12 UNL     1     -22.081 -45.327  26.145  1.00  0.00     0.039 A 
HETATM   13  C13 UNL     1     -23.029 -45.572  27.148  1.00  0.00     0.042 A 
HETATM   14  C14 UNL     1     -22.929 -46.727  27.908  1.00  0.00     0.105 A 
HETATM   15  C15 UNL     1     -21.895 -47.599  27.651  1.00  0.00     0.107 A 
HETATM   16  O3  UNL     1     -23.666 -47.267  28.947  1.00  0.00    -0.323 OA
HETATM   17  C16 UNL     1     -20.987 -47.331  26.664  1.00  0.00     0.076 A 
HETATM   18  O2  UNL     1     -22.042 -48.667  28.563  1.00  0.00    -0.323 OA
HETATM   19  C17 UNL     1     -23.412 -48.656  28.975  1.00  0.00     0.352 C 
ENDBRANCH  10  11
ENDBRANCH   9  10
ENDBRANCH   8   9
BRANCH   1  20
HETATM   20  C4  UNL     1     -20.847 -41.916  23.756  1.00  0.00    -0.053 A 
HETATM   21  C3  UNL     1     -20.820 -40.588  23.343  1.00  0.00     0.010 A 
HETATM   22  C2  UNL     1     -21.113 -39.561  24.213  1.00  0.00     0.043 A 
HETATM   23  C1  UNL     1     -21.444 -39.812  25.519  1.00  0.00     0.116 A 
HETATM   24  F1  UNL     1     -21.741 -38.833  26.414  1.00  0.00    -0.206 F 
HETATM   25  C19 UNL     1     -21.481 -41.120  25.964  1.00  0.00     0.043 A 
HETATM   26  C18 UNL     1     -21.183 -42.134  25.078  1.00  0.00     0.010 A 
ENDBRANCH   1  20
TORSDOF 4
ENDMDL
