MODEL 5
REMARK VINA RESULT: -6.914416881      1.120      1.318
REMARK  3 active torsions:
REMARK  status: ('A' for Active; 'I' for Inactive)
REMARK    1  A    between atoms: C2_2  and  N1_3 
REMARK    2  A    between atoms: C2_2  and  C3_7 
REMARK    3  A    between atoms: C3_7  and  C4_8 
ROOT
HETATM    1  C3  UNL     1      -4.737  -3.203  16.506  1.00  0.00     0.070 C 
ENDROOT
BRANCH   1   2
HETATM    2  C2  UNL     1      -3.422  -2.854  15.863  1.00  0.00     0.183 C 
HETATM    3  C1  UNL     1      -3.306  -1.422  15.454  1.00  0.00     0.040 C 
BRANCH   2   4
HETATM    4  N1  UNL     1      -3.158  -3.698  14.713  1.00  0.00    -0.075 N 
ATOM      5  H13 UNL     1      -3.143  -3.171  13.840  1.00  0.00     0.274 HD
ATOM      6  H12 UNL     1      -2.196  -4.035  14.693  1.00  0.00     0.274 HD
ATOM      7  H11 UNL     1      -3.837  -4.459  14.695  1.00  0.00     0.274 HD
ENDBRANCH   2   4
ENDBRANCH   1   2
BRANCH   1   8
HETATM    8  C4  UNL     1      -4.797  -4.613  16.964  1.00  0.00    -0.056 A 
HETATM    9  C5  UNL     1      -3.740  -5.189  17.612  1.00  0.00     0.007 A 
HETATM   10  C6  UNL     1      -3.823  -6.498  18.025  1.00  0.00     0.001 A 
HETATM   11  C7  UNL     1      -4.942  -7.270  17.811  1.00  0.00     0.000 A 
HETATM   12  C8  UNL     1      -5.993  -6.669  17.156  1.00  0.00     0.001 A 
HETATM   13  C9  UNL     1      -5.927  -5.357  16.736  1.00  0.00     0.007 A 
ENDBRANCH   1   8
TORSDOF 3
ENDMDL
