MODEL 1
REMARK VINA RESULT: -7.169924406      0.000      0.000
REMARK  3 active torsions:
REMARK  status: ('A' for Active; 'I' for Inactive)
REMARK    1  A    between atoms: C2_2  and  N1_3 
REMARK    2  A    between atoms: C2_2  and  C3_7 
REMARK    3  A    between atoms: C3_7  and  C4_8 
ROOT
HETATM    1  C3  UNL     1      -3.534  -3.493  17.001  1.00  0.00     0.070 C 
ENDROOT
BRANCH   1   2
HETATM    2  C2  UNL     1      -3.256  -3.188  15.554  1.00  0.00     0.183 C 
HETATM    3  C1  UNL     1      -2.250  -4.096  14.923  1.00  0.00     0.040 C 
BRANCH   2   4
HETATM    4  N1  UNL     1      -2.830  -1.813  15.377  1.00  0.00    -0.075 N 
ATOM      5  H13 UNL     1      -2.912  -1.502  14.409  1.00  0.00     0.274 HD
ATOM      6  H12 UNL     1      -3.480  -1.149  15.796  1.00  0.00     0.274 HD
ATOM      7  H11 UNL     1      -1.881  -1.709  15.739  1.00  0.00     0.274 HD
ENDBRANCH   2   4
ENDBRANCH   1   2
BRANCH   1   8
HETATM    8  C4  UNL     1      -4.238  -4.785  17.191  1.00  0.00    -0.056 A 
HETATM    9  C5  UNL     1      -3.584  -5.879  17.685  1.00  0.00     0.007 A 
HETATM   10  C6  UNL     1      -4.261  -7.064  17.851  1.00  0.00     0.001 A 
HETATM   11  C7  UNL     1      -5.595  -7.202  17.536  1.00  0.00     0.000 A 
HETATM   12  C8  UNL     1      -6.232  -6.087  17.040  1.00  0.00     0.001 A 
HETATM   13  C9  UNL     1      -5.568  -4.891  16.868  1.00  0.00     0.007 A 
ENDBRANCH   1   8
TORSDOF 3
ENDMDL
