MODEL 2
REMARK VINA RESULT: -7.168081783      0.014      1.488
REMARK  3 active torsions:
REMARK  status: ('A' for Active; 'I' for Inactive)
REMARK    1  A    between atoms: C2_2  and  N1_3 
REMARK    2  A    between atoms: C2_2  and  C3_7 
REMARK    3  A    between atoms: C3_7  and  C4_8 
ROOT
HETATM    1  C3  UNL     1      -3.528  -3.505  17.003  1.00  0.00     0.070 C 
ENDROOT
BRANCH   1   2
HETATM    2  C2  UNL     1      -3.261  -3.188  15.557  1.00  0.00     0.183 C 
HETATM    3  C1  UNL     1      -2.259  -4.089  14.911  1.00  0.00     0.040 C 
BRANCH   2   4
HETATM    4  N1  UNL     1      -2.837  -1.810  15.389  1.00  0.00    -0.075 N 
ATOM      5  H13 UNL     1      -1.922  -1.633  15.804  1.00  0.00     0.274 HD
ATOM      6  H12 UNL     1      -2.601  -1.593  14.421  1.00  0.00     0.274 HD
ATOM      7  H11 UNL     1      -3.559  -1.192  15.761  1.00  0.00     0.274 HD
ENDBRANCH   2   4
ENDBRANCH   1   2
BRANCH   1   8
HETATM    8  C4  UNL     1      -4.256  -4.785  17.186  1.00  0.00    -0.056 A 
HETATM    9  C5  UNL     1      -5.582  -4.894  16.871  1.00  0.00     0.007 A 
HETATM   10  C6  UNL     1      -6.231  -6.093  17.051  1.00  0.00     0.001 A 
HETATM   11  C7  UNL     1      -5.594  -7.211  17.542  1.00  0.00     0.000 A 
HETATM   12  C8  UNL     1      -4.260  -7.077  17.852  1.00  0.00     0.001 A 
HETATM   13  C9  UNL     1      -3.594  -5.882  17.677  1.00  0.00     0.007 A 
ENDBRANCH   1   8
TORSDOF 3
ENDMDL
