MODEL 15
REMARK VINA RESULT: -6.639678856      3.085      4.607
REMARK  3 active torsions:
REMARK  status: ('A' for Active; 'I' for Inactive)
REMARK    1  A    between atoms: C2_2  and  N1_3 
REMARK    2  A    between atoms: C2_2  and  C3_7 
REMARK    3  A    between atoms: C3_7  and  C4_8 
ROOT
HETATM    1  C3  UNL     1      -7.499  -5.662  17.964  1.00  0.00     0.070 C 
ENDROOT
BRANCH   1   2
HETATM    2  C2  UNL     1      -8.228  -6.922  17.584  1.00  0.00     0.183 C 
HETATM    3  C1  UNL     1      -8.244  -7.197  16.116  1.00  0.00     0.040 C 
BRANCH   2   4
HETATM    4  N1  UNL     1      -9.592  -6.911  18.079  1.00  0.00    -0.075 N 
ATOM      5  H13 UNL     1      -9.800  -6.074  18.625  1.00  0.00     0.274 HD
ATOM      6  H12 UNL     1     -10.274  -6.769  17.334  1.00  0.00     0.274 HD
ATOM      7  H11 UNL     1      -9.763  -7.769  18.604  1.00  0.00     0.274 HD
ENDBRANCH   2   4
ENDBRANCH   1   2
BRANCH   1   8
HETATM    8  C4  UNL     1      -6.056  -5.707  17.621  1.00  0.00    -0.056 A 
HETATM    9  C5  UNL     1      -5.264  -6.741  18.038  1.00  0.00     0.007 A 
HETATM   10  C6  UNL     1      -3.930  -6.757  17.705  1.00  0.00     0.001 A 
HETATM   11  C7  UNL     1      -3.344  -5.761  16.956  1.00  0.00     0.000 A 
HETATM   12  C8  UNL     1      -4.161  -4.732  16.549  1.00  0.00     0.001 A 
HETATM   13  C9  UNL     1      -5.501  -4.700  16.873  1.00  0.00     0.007 A 
ENDBRANCH   1   8
TORSDOF 3
ENDMDL
