MODEL 16
REMARK VINA RESULT: -6.633211869      3.077      4.740
REMARK  3 active torsions:
REMARK  status: ('A' for Active; 'I' for Inactive)
REMARK    1  A    between atoms: C2_2  and  N1_3 
REMARK    2  A    between atoms: C2_2  and  C3_7 
REMARK    3  A    between atoms: C3_7  and  C4_8 
ROOT
HETATM    1  C3  UNL     1      -7.491  -5.637  17.957  1.00  0.00     0.070 C 
ENDROOT
BRANCH   1   2
HETATM    2  C2  UNL     1      -8.206  -6.908  17.586  1.00  0.00     0.183 C 
HETATM    3  C1  UNL     1      -8.215  -7.195  16.120  1.00  0.00     0.040 C 
BRANCH   2   4
HETATM    4  N1  UNL     1      -9.572  -6.906  18.077  1.00  0.00    -0.075 N 
ATOM      5  H13 UNL     1     -10.199  -7.449  17.482  1.00  0.00     0.274 HD
ATOM      6  H12 UNL     1      -9.677  -7.452  18.931  1.00  0.00     0.274 HD
ATOM      7  H11 UNL     1      -9.884  -5.941  18.191  1.00  0.00     0.274 HD
ENDBRANCH   2   4
ENDBRANCH   1   2
BRANCH   1   8
HETATM    8  C4  UNL     1      -6.049  -5.667  17.609  1.00  0.00    -0.056 A 
HETATM    9  C5  UNL     1      -5.489  -4.688  16.837  1.00  0.00     0.007 A 
HETATM   10  C6  UNL     1      -4.150  -4.741  16.530  1.00  0.00     0.001 A 
HETATM   11  C7  UNL     1      -3.330  -5.755  16.974  1.00  0.00     0.000 A 
HETATM   12  C8  UNL     1      -3.917  -6.730  17.749  1.00  0.00     0.001 A 
HETATM   13  C9  UNL     1      -5.258  -6.691  18.067  1.00  0.00     0.007 A 
ENDBRANCH   1   8
TORSDOF 3
ENDMDL
