MODEL 11
REMARK VINA RESULT: -6.775837471      1.206      1.265
REMARK  3 active torsions:
REMARK  status: ('A' for Active; 'I' for Inactive)
REMARK    1  A    between atoms: C2_2  and  N1_3 
REMARK    2  A    between atoms: C2_2  and  C3_7 
REMARK    3  A    between atoms: C3_7  and  C4_8 
ROOT
HETATM    1  C3  UNL     1      -3.199  -4.022  17.187  1.00  0.00     0.070 C 
ENDROOT
BRANCH   1   2
HETATM    2  C2  UNL     1      -2.011  -4.383  16.336  1.00  0.00     0.183 C 
HETATM    3  C1  UNL     1      -0.756  -4.617  17.111  1.00  0.00     0.040 C 
BRANCH   2   4
HETATM    4  N1  UNL     1      -1.762  -3.372  15.325  1.00  0.00    -0.075 N 
ATOM      5  H13 UNL     1      -1.740  -3.763  14.383  1.00  0.00     0.274 HD
ATOM      6  H12 UNL     1      -2.556  -2.744  15.200  1.00  0.00     0.274 HD
ATOM      7  H11 UNL     1      -0.904  -2.872  15.558  1.00  0.00     0.274 HD
ENDBRANCH   2   4
ENDBRANCH   1   2
BRANCH   1   8
HETATM    8  C4  UNL     1      -4.190  -5.123  17.287  1.00  0.00    -0.056 A 
HETATM    9  C5  UNL     1      -3.811  -6.380  17.668  1.00  0.00     0.007 A 
HETATM   10  C6  UNL     1      -4.750  -7.381  17.751  1.00  0.00     0.001 A 
HETATM   11  C7  UNL     1      -6.080  -7.171  17.463  1.00  0.00     0.000 A 
HETATM   12  C8  UNL     1      -6.437  -5.898  17.081  1.00  0.00     0.001 A 
HETATM   13  C9  UNL     1      -5.508  -4.882  16.993  1.00  0.00     0.007 A 
ENDBRANCH   1   8
TORSDOF 3
ENDMDL
