MODEL 10
REMARK VINA RESULT: -6.780060642      1.216      1.941
REMARK  3 active torsions:
REMARK  status: ('A' for Active; 'I' for Inactive)
REMARK    1  A    between atoms: C2_2  and  N1_3 
REMARK    2  A    between atoms: C2_2  and  C3_7 
REMARK    3  A    between atoms: C3_7  and  C4_8 
ROOT
HETATM    1  C3  UNL     1      -3.157  -4.028  17.235  1.00  0.00     0.070 C 
ENDROOT
BRANCH   1   2
HETATM    2  C2  UNL     1      -1.983  -4.385  16.364  1.00  0.00     0.183 C 
HETATM    3  C1  UNL     1      -0.712  -4.606  17.117  1.00  0.00     0.040 C 
BRANCH   2   4
HETATM    4  N1  UNL     1      -1.760  -3.379  15.342  1.00  0.00    -0.075 N 
ATOM      5  H13 UNL     1      -2.591  -3.212  14.774  1.00  0.00     0.274 HD
ATOM      6  H12 UNL     1      -1.665  -2.442  15.735  1.00  0.00     0.274 HD
ATOM      7  H11 UNL     1      -0.953  -3.648  14.780  1.00  0.00     0.274 HD
ENDBRANCH   2   4
ENDBRANCH   1   2
BRANCH   1   8
HETATM    8  C4  UNL     1      -4.169  -5.111  17.307  1.00  0.00    -0.056 A 
HETATM    9  C5  UNL     1      -5.478  -4.876  16.990  1.00  0.00     0.007 A 
HETATM   10  C6  UNL     1      -6.394  -5.898  17.066  1.00  0.00     0.001 A 
HETATM   11  C7  UNL     1      -6.047  -7.173  17.454  1.00  0.00     0.000 A 
HETATM   12  C8  UNL     1      -4.724  -7.385  17.769  1.00  0.00     0.001 A 
HETATM   13  C9  UNL     1      -3.792  -6.372  17.698  1.00  0.00     0.007 A 
ENDBRANCH   1   8
TORSDOF 3
ENDMDL
