MODEL 4
REMARK VINA RESULT: -9.582739072      3.580      6.780
REMARK  7 active torsions:
REMARK  status: ('A' for Active; 'I' for Inactive)
REMARK    1  A    between atoms: N1_2  and  C2_4 
REMARK    2  A    between atoms: C9_19  and  C10_20 
REMARK    3  A    between atoms: C10_20  and  C11_21 
REMARK    4  A    between atoms: C11_21  and  C12_22 
REMARK    5  A    between atoms: C13_24  and  O3_25 
REMARK    6  A    between atoms: C15_27  and  O4_28 
REMARK    7  A    between atoms: C17_30  and  O5_31 
ROOT
HETATM    1  C2  UNL     1       9.514  17.324  88.456  1.00  0.00     0.678 A 
HETATM    2  N2  UNL     1       8.506  16.736  89.130  1.00  0.00    -0.190 N 
ATOM      3  H2  UNL     1       8.567  16.298  90.049  1.00  0.00     0.184 HD
HETATM    4  C3  UNL     1       7.411  16.836  88.370  1.00  0.00     0.078 A 
HETATM    5  C4  UNL     1       6.093  16.434  88.509  1.00  0.00     0.052 A 
HETATM    6  C5  UNL     1       5.162  16.684  87.528  1.00  0.00     0.062 A 
HETATM    7  C6  UNL     1       3.841  16.310  87.628  1.00  0.00     0.260 A 
HETATM    8  O1  UNL     1       3.460  15.700  88.664  1.00  0.00    -0.267 OA
HETATM    9  N3  UNL     1       2.949  16.579  86.647  1.00  0.00    -0.297 N 
ATOM     10  H3  UNL     1       1.976  16.289  86.751  1.00  0.00     0.171 HD
HETATM   11  C7  UNL     1       3.338  17.226  85.536  1.00  0.00     0.195 A 
HETATM   12  N4  UNL     1       2.427  17.521  84.496  1.00  0.00    -0.063 NA
HETATM   13  N5  UNL     1       4.649  17.591  85.450  1.00  0.00    -0.329 N 
ATOM     14  H5  UNL     1       4.950  18.084  84.609  1.00  0.00     0.168 HD
HETATM   15  C8  UNL     1       5.555  17.350  86.383  1.00  0.00     0.059 A 
HETATM   16  C9  UNL     1       6.852  17.772  86.191  1.00  0.00    -0.001 A 
HETATM   17  C18 UNL     1       7.758  17.496  87.211  1.00  0.00     0.085 A 
HETATM   18  N6  UNL     1       9.062  17.798  87.267  1.00  0.00    -0.189 N 
ATOM     19  H6  UNL     1       9.607  18.287  86.558  1.00  0.00     0.184 HD
ENDROOT
BRANCH  16  20
HETATM   20  C10 UNL     1       7.292  18.453  84.981  1.00  0.00     0.046 C 
BRANCH  20  21
HETATM   21  C11 UNL     1       7.534  17.458  83.879  1.00  0.00     0.039 C 
BRANCH  21  22
HETATM   22  C12 UNL     1       8.942  17.603  83.306  1.00  0.00     0.156 C 
HETATM   23  O2  UNL     1       8.920  17.895  81.965  1.00  0.00    -0.351 OA
HETATM   24  C13 UNL     1       9.272  19.209  81.771  1.00  0.00     0.291 C 
HETATM   25  C15 UNL     1      10.203  19.541  82.923  1.00  0.00     0.207 C 
HETATM   26  C17 UNL     1       9.690  18.658  84.045  1.00  0.00     0.180 C 
BRANCH  24  27
HETATM   27  O3  UNL     1       8.186  20.058  81.743  1.00  0.00    -0.363 OA
HETATM   28  C14 UNL     1       8.595  21.342  82.063  1.00  0.00     0.204 C 
ENDBRANCH  24  27
BRANCH  25  29
HETATM   29  O4  UNL     1      11.525  19.292  82.666  1.00  0.00    -0.383 OA
HETATM   30  C16 UNL     1      11.917  19.679  81.386  1.00  0.00     0.202 C 
ENDBRANCH  25  29
BRANCH  26  31
HETATM   31  O5  UNL     1      10.744  18.138  84.801  1.00  0.00    -0.390 OA
ATOM     32  H5  UNL     1      11.570  18.570  84.619  1.00  0.00     0.210 HD
ENDBRANCH  26  31
ENDBRANCH  21  22
ENDBRANCH  20  21
ENDBRANCH  16  20
BRANCH   1  33
HETATM   33  N1  UNL     1      10.846  17.423  88.932  1.00  0.00    -0.230 N 
HETATM   34  C1  UNL     1      11.060  17.782  90.317  1.00  0.00     0.165 C 
ATOM     35  H1  UNL     1      11.636  17.246  88.312  1.00  0.00     0.177 HD
ENDBRANCH   1  33
TORSDOF 7
ENDMDL
