MODEL 6
REMARK VINA RESULT: -9.563895345      2.439      5.186
REMARK  7 active torsions:
REMARK  status: ('A' for Active; 'I' for Inactive)
REMARK    1  A    between atoms: N1_2  and  C2_4 
REMARK    2  A    between atoms: C9_19  and  C10_20 
REMARK    3  A    between atoms: C10_20  and  C11_21 
REMARK    4  A    between atoms: C11_21  and  C12_22 
REMARK    5  A    between atoms: C13_24  and  O3_25 
REMARK    6  A    between atoms: C15_27  and  O4_28 
REMARK    7  A    between atoms: C17_30  and  O5_31 
ROOT
HETATM    1  C2  UNL     1      10.230  17.417  90.480  1.00  0.00     0.678 A 
HETATM    2  N2  UNL     1      10.985  17.917  89.482  1.00  0.00    -0.190 N 
ATOM      3  H2  UNL     1      11.924  18.307  89.571  1.00  0.00     0.184 HD
HETATM    4  C3  UNL     1      10.276  17.806  88.355  1.00  0.00     0.078 A 
HETATM    5  C4  UNL     1      10.502  18.135  87.029  1.00  0.00     0.052 A 
HETATM    6  C5  UNL     1       9.555  17.895  86.061  1.00  0.00     0.062 A 
HETATM    7  C6  UNL     1       9.740  18.199  84.731  1.00  0.00     0.260 A 
HETATM    8  O1  UNL     1      10.827  18.731  84.377  1.00  0.00    -0.267 OA
HETATM    9  N3  UNL     1       8.790  17.941  83.803  1.00  0.00    -0.297 N 
ATOM     10  H3  UNL     1       8.958  18.177  82.825  1.00  0.00     0.171 HD
HETATM   11  C7  UNL     1       7.626  17.375  84.164  1.00  0.00     0.195 A 
HETATM   12  N4  UNL     1       6.617  17.093  83.215  1.00  0.00    -0.063 NA
HETATM   13  N5  UNL     1       7.455  17.079  85.484  1.00  0.00    -0.329 N 
ATOM     14  H5  UNL     1       6.574  16.649  85.764  1.00  0.00     0.168 HD
HETATM   15  C8  UNL     1       8.356  17.313  86.425  1.00  0.00     0.059 A 
HETATM   16  C9  UNL     1       8.076  16.965  87.729  1.00  0.00    -0.001 A 
HETATM   17  C18 UNL     1       9.065  17.228  88.672  1.00  0.00     0.085 A 
HETATM   18  N6  UNL     1       9.040  16.988  89.989  1.00  0.00    -0.189 N 
ATOM     19  H6  UNL     1       8.278  16.565  90.519  1.00  0.00     0.184 HD
ENDROOT
BRANCH  16  20
HETATM   20  C10 UNL     1       6.809  16.374  88.136  1.00  0.00     0.046 C 
BRANCH  20  21
HETATM   21  C11 UNL     1       5.710  17.399  88.077  1.00  0.00     0.039 C 
BRANCH  21  22
HETATM   22  C12 UNL     1       4.356  16.774  88.408  1.00  0.00     0.156 C 
HETATM   23  O2  UNL     1       3.316  17.517  87.909  1.00  0.00    -0.351 OA
HETATM   24  C13 UNL     1       2.762  16.870  86.830  1.00  0.00     0.291 C 
HETATM   25  C15 UNL     1       2.992  15.394  87.095  1.00  0.00     0.207 C 
HETATM   26  C17 UNL     1       4.291  15.383  87.878  1.00  0.00     0.180 C 
BRANCH  24  27
HETATM   27  O3  UNL     1       3.317  17.255  85.628  1.00  0.00    -0.363 OA
HETATM   28  C14 UNL     1       3.044  18.594  85.400  1.00  0.00     0.204 C 
ENDBRANCH  24  27
BRANCH  25  29
HETATM   29  O4  UNL     1       1.987  14.787  87.801  1.00  0.00    -0.383 OA
HETATM   30  C16 UNL     1       1.505  13.633  87.188  1.00  0.00     0.202 C 
ENDBRANCH  25  29
BRANCH  26  31
HETATM   31  O5  UNL     1       4.261  14.424  88.895  1.00  0.00    -0.390 OA
ATOM     32  H5  UNL     1       3.673  13.704  88.699  1.00  0.00     0.210 HD
ENDBRANCH  26  31
ENDBRANCH  21  22
ENDBRANCH  20  21
ENDBRANCH  16  20
BRANCH   1  33
HETATM   33  N1  UNL     1      10.635  17.356  91.837  1.00  0.00    -0.230 N 
HETATM   34  C1  UNL     1       9.653  17.624  92.865  1.00  0.00     0.165 C 
ATOM     35  H1  UNL     1      11.598  17.129  92.084  1.00  0.00     0.177 HD
ENDBRANCH   1  33
TORSDOF 7
ENDMDL
