MODEL 7
REMARK VINA RESULT: -9.514597270      2.833      5.557
REMARK  7 active torsions:
REMARK  status: ('A' for Active; 'I' for Inactive)
REMARK    1  A    between atoms: N1_2  and  C2_4 
REMARK    2  A    between atoms: C9_19  and  C10_20 
REMARK    3  A    between atoms: C10_20  and  C11_21 
REMARK    4  A    between atoms: C11_21  and  C12_22 
REMARK    5  A    between atoms: C13_24  and  O3_25 
REMARK    6  A    between atoms: C15_27  and  O4_28 
REMARK    7  A    between atoms: C17_30  and  O5_31 
ROOT
HETATM    1  C2  UNL     1      10.615  17.519  88.753  1.00  0.00     0.678 A 
HETATM    2  N2  UNL     1      11.039  18.277  87.722  1.00  0.00    -0.190 N 
ATOM      3  H2  UNL     1      11.966  18.688  87.615  1.00  0.00     0.184 HD
HETATM    4  C3  UNL     1      10.018  18.390  86.868  1.00  0.00     0.078 A 
HETATM    5  C4  UNL     1       9.834  19.028  85.652  1.00  0.00     0.052 A 
HETATM    6  C5  UNL     1       8.633  18.964  84.985  1.00  0.00     0.062 A 
HETATM    7  C6  UNL     1       8.410  19.577  83.773  1.00  0.00     0.260 A 
HETATM    8  O1  UNL     1       9.346  20.237  83.245  1.00  0.00    -0.267 OA
HETATM    9  N3  UNL     1       7.217  19.488  83.139  1.00  0.00    -0.297 N 
ATOM     10  H3  UNL     1       7.083  19.952  82.241  1.00  0.00     0.171 HD
HETATM   11  C7  UNL     1       6.209  18.790  83.688  1.00  0.00     0.195 A 
HETATM   12  N4  UNL     1       4.954  18.679  83.048  1.00  0.00    -0.063 NA
HETATM   13  N5  UNL     1       6.443  18.188  84.889  1.00  0.00    -0.329 N 
ATOM     14  H5  UNL     1       5.682  17.657  85.311  1.00  0.00     0.168 HD
HETATM   15  C8  UNL     1       7.592  18.248  85.544  1.00  0.00     0.059 A 
HETATM   16  C9  UNL     1       7.717  17.594  86.750  1.00  0.00    -0.001 A 
HETATM   17  C18 UNL     1       8.951  17.687  87.387  1.00  0.00     0.085 A 
HETATM   18  N6  UNL     1       9.324  17.148  88.555  1.00  0.00    -0.189 N 
ATOM     19  H6  UNL     1       8.753  16.574  89.173  1.00  0.00     0.184 HD
ENDROOT
BRANCH  16  20
HETATM   20  C10 UNL     1       6.624  16.855  87.367  1.00  0.00     0.046 C 
BRANCH  20  21
HETATM   21  C11 UNL     1       5.524  17.794  87.778  1.00  0.00     0.039 C 
BRANCH  21  22
HETATM   22  C12 UNL     1       4.295  17.025  88.260  1.00  0.00     0.156 C 
HETATM   23  O2  UNL     1       3.128  17.629  87.864  1.00  0.00    -0.351 OA
HETATM   24  C13 UNL     1       2.545  16.895  86.859  1.00  0.00     0.291 C 
HETATM   25  C15 UNL     1       2.974  15.462  87.118  1.00  0.00     0.207 C 
HETATM   26  C17 UNL     1       4.340  15.623  87.759  1.00  0.00     0.180 C 
BRANCH  24  27
HETATM   27  O3  UNL     1       2.923  17.311  85.600  1.00  0.00    -0.363 OA
HETATM   28  C14 UNL     1       2.170  18.413  85.231  1.00  0.00     0.204 C 
ENDBRANCH  24  27
BRANCH  25  29
HETATM   29  O4  UNL     1       2.127  14.761  87.935  1.00  0.00    -0.383 OA
HETATM   30  C16 UNL     1       1.541  13.665  87.307  1.00  0.00     0.202 C 
ENDBRANCH  25  29
BRANCH  26  31
HETATM   31  O5  UNL     1       4.529  14.694  88.786  1.00  0.00    -0.390 OA
ATOM     32  H5  UNL     1       3.749  14.181  88.961  1.00  0.00     0.210 HD
ENDBRANCH  26  31
ENDBRANCH  21  22
ENDBRANCH  20  21
ENDBRANCH  16  20
BRANCH   1  33
HETATM   33  N1  UNL     1      11.413  17.169  89.871  1.00  0.00    -0.230 N 
HETATM   34  C1  UNL     1      10.923  17.481  91.195  1.00  0.00     0.165 C 
ATOM     35  H1  UNL     1      12.314  16.708  89.744  1.00  0.00     0.177 HD
ENDBRANCH   1  33
TORSDOF 7
ENDMDL
