MODEL 1
REMARK VINA RESULT: -10.085468212      0.000      0.000
REMARK  7 active torsions:
REMARK  status: ('A' for Active; 'I' for Inactive)
REMARK    1  A    between atoms: N1_2  and  C2_4 
REMARK    2  A    between atoms: C9_19  and  C10_20 
REMARK    3  A    between atoms: C10_20  and  C11_21 
REMARK    4  A    between atoms: C11_21  and  C12_22 
REMARK    5  A    between atoms: C13_24  and  O3_25 
REMARK    6  A    between atoms: C15_27  and  O4_28 
REMARK    7  A    between atoms: C17_30  and  O5_31 
ROOT
HETATM    1  C2  UNL     1      10.481  17.726  87.256  1.00  0.00     0.678 A 
HETATM    2  N2  UNL     1      11.240  17.992  88.337  1.00  0.00    -0.190 N 
ATOM      3  H2  UNL     1      12.211  18.305  88.333  1.00  0.00     0.184 HD
HETATM    4  C3  UNL     1      10.483  17.769  89.416  1.00  0.00     0.078 A 
HETATM    5  C4  UNL     1      10.689  17.862  90.783  1.00  0.00     0.052 A 
HETATM    6  C5  UNL     1       9.690  17.557  91.678  1.00  0.00     0.062 A 
HETATM    7  C6  UNL     1       9.849  17.642  93.043  1.00  0.00     0.260 A 
HETATM    8  O1  UNL     1      10.965  18.010  93.502  1.00  0.00    -0.267 OA
HETATM    9  N3  UNL     1       8.843  17.342  93.896  1.00  0.00    -0.297 N 
ATOM     10  H3  UNL     1       8.991  17.416  94.903  1.00  0.00     0.171 HD
HETATM   11  C7  UNL     1       7.649  16.948  93.424  1.00  0.00     0.195 A 
HETATM   12  N4  UNL     1       6.579  16.630  94.292  1.00  0.00    -0.063 NA
HETATM   13  N5  UNL     1       7.505  16.868  92.071  1.00  0.00    -0.329 N 
ATOM     14  H5  UNL     1       6.600  16.569  91.706  1.00  0.00     0.168 HD
HETATM   15  C8  UNL     1       8.460  17.151  91.199  1.00  0.00     0.059 A 
HETATM   16  C9  UNL     1       8.199  17.040  89.851  1.00  0.00    -0.001 A 
HETATM   17  C18 UNL     1       9.240  17.359  88.984  1.00  0.00     0.085 A 
HETATM   18  N6  UNL     1       9.242  17.334  87.645  1.00  0.00    -0.189 N 
ATOM     19  H6  UNL     1       8.466  17.072  87.038  1.00  0.00     0.184 HD
ENDROOT
BRANCH  16  20
HETATM   20  C10 UNL     1       6.917  16.590  89.327  1.00  0.00     0.046 C 
BRANCH  20  21
HETATM   21  C11 UNL     1       6.783  16.967  87.877  1.00  0.00     0.039 C 
BRANCH  21  22
HETATM   22  C12 UNL     1       5.467  17.697  87.617  1.00  0.00     0.156 C 
HETATM   23  O2  UNL     1       5.216  17.834  86.275  1.00  0.00    -0.351 OA
HETATM   24  C13 UNL     1       4.208  16.977  85.903  1.00  0.00     0.291 C 
HETATM   25  C15 UNL     1       3.346  16.822  87.142  1.00  0.00     0.207 C 
HETATM   26  C17 UNL     1       4.342  16.976  88.275  1.00  0.00     0.180 C 
BRANCH  24  27
HETATM   27  O3  UNL     1       4.674  15.757  85.461  1.00  0.00    -0.363 OA
HETATM   28  C14 UNL     1       5.665  15.955  84.514  1.00  0.00     0.204 C 
ENDBRANCH  24  27
BRANCH  25  29
HETATM   29  O4  UNL     1       2.338  17.744  87.244  1.00  0.00    -0.383 OA
HETATM   30  C16 UNL     1       1.837  18.148  86.008  1.00  0.00     0.202 C 
ENDBRANCH  25  29
BRANCH  26  31
HETATM   31  O5  UNL     1       3.792  17.699  89.338  1.00  0.00    -0.390 OA
ATOM     32  H5  UNL     1       3.980  17.305  90.182  1.00  0.00     0.210 HD
ENDBRANCH  26  31
ENDBRANCH  21  22
ENDBRANCH  20  21
ENDBRANCH  16  20
BRANCH   1  33
HETATM   33  N1  UNL     1      10.928  17.843  85.915  1.00  0.00    -0.230 N 
HETATM   34  C1  UNL     1       9.990  18.291  84.910  1.00  0.00     0.165 C 
ATOM     35  H1  UNL     1      11.891  17.617  85.666  1.00  0.00     0.177 HD
ENDBRANCH   1  33
TORSDOF 7
ENDMDL
