MODEL 5
REMARK VINA RESULT: -9.634553629      2.136      2.569
REMARK  13 active torsions:
REMARK  status: ('A' for Active; 'I' for Inactive)
REMARK    1  A    between atoms: C2_2  and  O1_3 
REMARK    2  A    between atoms: C2_2  and  C3_5 
REMARK    3  A    between atoms: C2_2  and  C9_13 
REMARK    4  A    between atoms: C6_8  and  O2_9 
REMARK    5  A    between atoms: C9_13  and  N1_14 
REMARK    6  A    between atoms: C9_13  and  C27_35 
REMARK       I    between atoms: N1_14  and  C10_16 
REMARK    7  A    between atoms: C10_16  and  C11_18 
REMARK    8  A    between atoms: C14_21  and  C15_22 
REMARK    9  A    between atoms: C16_23  and  C17_24 
REMARK   10  A    between atoms: C18_25  and  C19_26 
REMARK   11  A    between atoms: C27_35  and  O4_36 
REMARK   12  A    between atoms: C27_35  and  N3_38 
REMARK   13  A    between atoms: N3_38  and  O5_40 
ROOT
HETATM    1  N1  UNL     1      24.970 -11.620  -8.358  1.00  0.00    -0.342 N 
ATOM      2  H1  UNL     1      24.427 -12.475  -8.481  1.00  0.00     0.163 HD
HETATM    3  C10 UNL     1      25.898 -11.602  -7.304  1.00  0.00     0.252 C 
HETATM    4  O3  UNL     1      26.606 -10.606  -7.097  1.00  0.00    -0.268 OA
ENDROOT
BRANCH   1   5
HETATM    5  C9  UNL     1      24.710 -10.532  -9.293  1.00  0.00     0.200 C 
BRANCH   5   6
HETATM    6  C2  UNL     1      24.194 -11.037 -10.602  1.00  0.00     0.109 C 
HETATM    7  C1  UNL     1      23.232 -12.205 -10.409  1.00  0.00     0.054 C 
BRANCH   6   8
HETATM    8  O1  UNL     1      23.412 -10.037 -11.195  1.00  0.00    -0.383 OA
ATOM      9  H1  UNL     1      23.980  -9.656 -11.855  1.00  0.00     0.211 HD
ENDBRANCH   6   8
BRANCH   6  10
HETATM   10  C3  UNL     1      25.270 -11.402 -11.532  1.00  0.00    -0.022 A 
HETATM   11  C4  UNL     1      26.515 -11.802 -11.113  1.00  0.00     0.013 A 
HETATM   12  C5  UNL     1      27.521 -12.140 -12.026  1.00  0.00     0.037 A 
HETATM   13  C6  UNL     1      27.275 -12.076 -13.401  1.00  0.00     0.065 A 
HETATM   14  C7  UNL     1      26.031 -11.678 -13.790  1.00  0.00     0.037 A 
HETATM   15  C8  UNL     1      25.059 -11.351 -12.891  1.00  0.00     0.013 A 
BRANCH  13  16
HETATM   16  O2  UNL     1      28.325 -12.419 -14.237  1.00  0.00    -0.361 OA
ATOM     17  H2  UNL     1      28.097 -12.693 -15.118  1.00  0.00     0.217 HD
ENDBRANCH  13  16
ENDBRANCH   6  10
ENDBRANCH   5   6
BRANCH   5  18
HETATM   18  C27 UNL     1      23.702  -9.629  -8.654  1.00  0.00     0.162 C 
BRANCH  18  19
HETATM   19  O4  UNL     1      23.676  -8.395  -9.079  1.00  0.00    -0.346 OA
ATOM     20  H4  UNL     1      22.841  -7.945  -9.018  1.00  0.00     0.219 HD
ENDBRANCH  18  19
BRANCH  18  21
HETATM   21  N3  UNL     1      22.788  -9.933  -7.659  1.00  0.00    -0.249 N 
ATOM     22  H3  UNL     1      22.249 -10.797  -7.722  1.00  0.00     0.196 HD
BRANCH  21  23
HETATM   23  O5  UNL     1      22.589  -9.086  -6.580  1.00  0.00    -0.288 OA
ATOM     24  H5  UNL     1      21.780  -9.102  -6.081  1.00  0.00     0.244 HD
ENDBRANCH  21  23
ENDBRANCH  18  21
ENDBRANCH   5  18
ENDBRANCH   1   5
BRANCH   3  25
HETATM   25  C11 UNL     1      26.054 -12.769  -6.409  1.00  0.00     0.032 A 
HETATM   26  C12 UNL     1      27.149 -12.978  -5.610  1.00  0.00     0.018 A 
HETATM   27  C13 UNL     1      27.303 -14.127  -4.855  1.00  0.00     0.022 A 
HETATM   28  C14 UNL     1      26.339 -15.106  -4.892  1.00  0.00     0.018 A 
HETATM   29  C25 UNL     1      25.228 -14.911  -5.689  1.00  0.00     0.022 A 
HETATM   30  C26 UNL     1      25.088 -13.750  -6.441  1.00  0.00     0.018 A 
BRANCH  28  31
HETATM   31  C15 UNL     1      26.502 -16.376  -4.183  1.00  0.00    -0.053 C 
HETATM   32  C16 UNL     1      26.668 -17.439  -3.636  1.00  0.00    -0.009 C 
BRANCH  32  33
HETATM   33  C17 UNL     1      26.897 -18.724  -3.040  1.00  0.00    -0.009 C 
HETATM   34  C18 UNL     1      27.117 -19.828  -2.575  1.00  0.00    -0.053 C 
BRANCH  34  35
HETATM   35  C19 UNL     1      27.373 -21.157  -2.073  1.00  0.00     0.018 A 
HETATM   36  C20 UNL     1      26.691 -22.273  -2.485  1.00  0.00     0.022 A 
HETATM   37  C21 UNL     1      26.986 -23.546  -2.006  1.00  0.00     0.028 A 
HETATM   38  C22 UNL     1      28.001 -23.708  -1.080  1.00  0.00     0.046 A 
HETATM   39  N2  UNL     1      28.362 -24.998  -0.593  1.00  0.00    -0.102 NA
HETATM   40  C23 UNL     1      28.692 -22.565  -0.666  1.00  0.00     0.028 A 
HETATM   41  C24 UNL     1      28.388 -21.315  -1.148  1.00  0.00     0.022 A 
ENDBRANCH  34  35
ENDBRANCH  32  33
ENDBRANCH  28  31
ENDBRANCH   3  25
TORSDOF 13
ENDMDL
