MODEL 7
REMARK VINA RESULT: -9.524382450      2.300      2.837
REMARK  13 active torsions:
REMARK  status: ('A' for Active; 'I' for Inactive)
REMARK    1  A    between atoms: C2_2  and  O1_3 
REMARK    2  A    between atoms: C2_2  and  C3_5 
REMARK    3  A    between atoms: C2_2  and  C9_13 
REMARK    4  A    between atoms: C6_8  and  O2_9 
REMARK    5  A    between atoms: C9_13  and  N1_14 
REMARK    6  A    between atoms: C9_13  and  C27_35 
REMARK       I    between atoms: N1_14  and  C10_16 
REMARK    7  A    between atoms: C10_16  and  C11_18 
REMARK    8  A    between atoms: C14_21  and  C15_22 
REMARK    9  A    between atoms: C16_23  and  C17_24 
REMARK   10  A    between atoms: C18_25  and  C19_26 
REMARK   11  A    between atoms: C27_35  and  O4_36 
REMARK   12  A    between atoms: C27_35  and  N3_38 
REMARK   13  A    between atoms: N3_38  and  O5_40 
ROOT
HETATM    1  N1  UNL     1      25.346 -11.605  -8.699  1.00  0.00    -0.342 N 
ATOM      2  H1  UNL     1      25.013 -12.483  -9.099  1.00  0.00     0.163 HD
HETATM    3  C10 UNL     1      25.883 -11.661  -7.403  1.00  0.00     0.252 C 
HETATM    4  O3  UNL     1      26.320 -10.641  -6.852  1.00  0.00    -0.268 OA
ENDROOT
BRANCH   1   5
HETATM    5  C9  UNL     1      25.219 -10.413  -9.527  1.00  0.00     0.200 C 
BRANCH   5   6
HETATM    6  C2  UNL     1      25.195 -10.748 -10.983  1.00  0.00     0.109 C 
HETATM    7  C1  UNL     1      24.059 -11.709 -11.315  1.00  0.00     0.054 C 
BRANCH   6   8
HETATM    8  O1  UNL     1      24.891  -9.588 -11.709  1.00  0.00    -0.383 OA
ATOM      9  H1  UNL     1      25.441  -9.644 -12.482  1.00  0.00     0.211 HD
ENDBRANCH   6   8
BRANCH   6  10
HETATM   10  C3  UNL     1      26.477 -11.277 -11.463  1.00  0.00    -0.022 A 
HETATM   11  C4  UNL     1      26.569 -12.330 -12.340  1.00  0.00     0.013 A 
HETATM   12  C5  UNL     1      27.809 -12.813 -12.776  1.00  0.00     0.037 A 
HETATM   13  C6  UNL     1      28.994 -12.226 -12.321  1.00  0.00     0.065 A 
HETATM   14  C7  UNL     1      28.875 -11.182 -11.454  1.00  0.00     0.037 A 
HETATM   15  C8  UNL     1      27.661 -10.720 -11.035  1.00  0.00     0.013 A 
BRANCH  13  16
HETATM   16  O2  UNL     1      30.178 -12.767 -12.795  1.00  0.00    -0.361 OA
ATOM     17  H2  UNL     1      30.898 -12.823 -12.178  1.00  0.00     0.217 HD
ENDBRANCH  13  16
ENDBRANCH   6  10
ENDBRANCH   5   6
BRANCH   5  18
HETATM   18  C27 UNL     1      23.946  -9.732  -9.132  1.00  0.00     0.162 C 
BRANCH  18  19
HETATM   19  O4  UNL     1      23.832  -8.475  -9.463  1.00  0.00    -0.346 OA
ATOM     20  H4  UNL     1      24.508  -7.889  -9.140  1.00  0.00     0.219 HD
ENDBRANCH  18  19
BRANCH  18  21
HETATM   21  N3  UNL     1      22.863 -10.266  -8.452  1.00  0.00    -0.249 N 
ATOM     22  H3  UNL     1      22.307 -10.997  -8.894  1.00  0.00     0.196 HD
BRANCH  21  23
HETATM   23  O5  UNL     1      22.521  -9.826  -7.183  1.00  0.00    -0.288 OA
ATOM     24  H5  UNL     1      22.137 -10.415  -6.543  1.00  0.00     0.244 HD
ENDBRANCH  21  23
ENDBRANCH  18  21
ENDBRANCH   5  18
ENDBRANCH   1   5
BRANCH   3  25
HETATM   25  C11 UNL     1      25.938 -12.937  -6.657  1.00  0.00     0.032 A 
HETATM   26  C12 UNL     1      25.050 -13.283  -5.670  1.00  0.00     0.018 A 
HETATM   27  C13 UNL     1      25.186 -14.444  -4.929  1.00  0.00     0.022 A 
HETATM   28  C14 UNL     1      26.239 -15.292  -5.172  1.00  0.00     0.018 A 
HETATM   29  C25 UNL     1      27.142 -14.961  -6.164  1.00  0.00     0.022 A 
HETATM   30  C26 UNL     1      26.990 -13.791  -6.900  1.00  0.00     0.018 A 
BRANCH  28  31
HETATM   31  C15 UNL     1      26.475 -16.483  -4.353  1.00  0.00    -0.053 C 
HETATM   32  C16 UNL     1      26.695 -17.486  -3.718  1.00  0.00    -0.009 C 
BRANCH  32  33
HETATM   33  C17 UNL     1      26.982 -18.705  -3.019  1.00  0.00    -0.009 C 
HETATM   34  C18 UNL     1      27.250 -19.755  -2.465  1.00  0.00    -0.053 C 
BRANCH  34  35
HETATM   35  C19 UNL     1      27.566 -21.026  -1.854  1.00  0.00     0.018 A 
HETATM   36  C20 UNL     1      28.515 -21.188  -0.879  1.00  0.00     0.022 A 
HETATM   37  C21 UNL     1      28.772 -22.421  -0.286  1.00  0.00     0.028 A 
HETATM   38  C22 UNL     1      28.051 -23.532  -0.685  1.00  0.00     0.046 A 
HETATM   39  N2  UNL     1      28.254 -24.806  -0.078  1.00  0.00    -0.102 NA
HETATM   40  C23 UNL     1      27.085 -23.358  -1.680  1.00  0.00     0.028 A 
HETATM   41  C24 UNL     1      26.844 -22.134  -2.256  1.00  0.00     0.022 A 
ENDBRANCH  34  35
ENDBRANCH  32  33
ENDBRANCH  28  31
ENDBRANCH   3  25
TORSDOF 13
ENDMDL
