MODEL 20
REMARK VINA RESULT: -7.863663272      5.401     14.156
REMARK  13 active torsions:
REMARK  status: ('A' for Active; 'I' for Inactive)
REMARK    1  A    between atoms: C2_2  and  O1_3 
REMARK    2  A    between atoms: C2_2  and  C3_5 
REMARK    3  A    between atoms: C2_2  and  C9_13 
REMARK    4  A    between atoms: C6_8  and  O2_9 
REMARK    5  A    between atoms: C9_13  and  N1_14 
REMARK    6  A    between atoms: C9_13  and  C27_35 
REMARK       I    between atoms: N1_14  and  C10_16 
REMARK    7  A    between atoms: C10_16  and  C11_18 
REMARK    8  A    between atoms: C14_21  and  C15_22 
REMARK    9  A    between atoms: C16_23  and  C17_24 
REMARK   10  A    between atoms: C18_25  and  C19_26 
REMARK   11  A    between atoms: C27_35  and  O4_36 
REMARK   12  A    between atoms: C27_35  and  N3_38 
REMARK   13  A    between atoms: N3_38  and  O5_40 
ROOT
HETATM    1  N1  UNL     1      27.807 -20.561  -2.007  1.00  0.00    -0.342 N 
ATOM      2  H1  UNL     1      27.198 -20.726  -2.808  1.00  0.00     0.163 HD
HETATM    3  C10 UNL     1      28.116 -19.223  -1.709  1.00  0.00     0.252 C 
HETATM    4  O3  UNL     1      28.838 -18.937  -0.744  1.00  0.00    -0.268 OA
ENDROOT
BRANCH   1   5
HETATM    5  C9  UNL     1      28.275 -21.733  -1.279  1.00  0.00     0.200 C 
BRANCH   5   6
HETATM    6  C2  UNL     1      27.414 -22.927  -1.538  1.00  0.00     0.109 C 
HETATM    7  C1  UNL     1      26.394 -22.651  -2.638  1.00  0.00     0.054 C 
BRANCH   6   8
HETATM    8  O1  UNL     1      28.212 -23.956  -2.055  1.00  0.00    -0.383 OA
ATOM      9  H1  UNL     1      28.209 -24.620  -1.375  1.00  0.00     0.211 HD
ENDBRANCH   6   8
BRANCH   6  10
HETATM   10  C3  UNL     1      26.747 -23.417  -0.325  1.00  0.00    -0.022 A 
HETATM   11  C4  UNL     1      27.031 -22.935   0.929  1.00  0.00     0.013 A 
HETATM   12  C5  UNL     1      26.379 -23.427   2.066  1.00  0.00     0.037 A 
HETATM   13  C6  UNL     1      25.414 -24.432   1.947  1.00  0.00     0.065 A 
HETATM   14  C7  UNL     1      25.150 -24.891   0.691  1.00  0.00     0.037 A 
HETATM   15  C8  UNL     1      25.793 -24.405  -0.410  1.00  0.00     0.013 A 
BRANCH  13  16
HETATM   16  O2  UNL     1      24.822 -24.868   3.120  1.00  0.00    -0.361 OA
ATOM     17  H2  UNL     1      24.572 -24.199   3.747  1.00  0.00     0.217 HD
ENDBRANCH  13  16
ENDBRANCH   6  10
ENDBRANCH   5   6
BRANCH   5  18
HETATM   18  C27 UNL     1      29.678 -22.002  -1.726  1.00  0.00     0.162 C 
BRANCH  18  19
HETATM   19  O4  UNL     1      30.502 -22.449  -0.817  1.00  0.00    -0.346 OA
ATOM     20  H4  UNL     1      31.416 -22.511  -1.069  1.00  0.00     0.219 HD
ENDBRANCH  18  19
BRANCH  18  21
HETATM   21  N3  UNL     1      30.224 -21.834  -2.988  1.00  0.00    -0.249 N 
ATOM     22  H3  UNL     1      31.173 -21.472  -3.078  1.00  0.00     0.196 HD
BRANCH  21  23
HETATM   23  O5  UNL     1      29.506 -22.147  -4.131  1.00  0.00    -0.288 OA
ATOM     24  H5  UNL     1      29.526 -21.585  -4.898  1.00  0.00     0.244 HD
ENDBRANCH  21  23
ENDBRANCH  18  21
ENDBRANCH   5  18
ENDBRANCH   1   5
BRANCH   3  25
HETATM   25  C11 UNL     1      27.591 -18.119  -2.541  1.00  0.00     0.032 A 
HETATM   26  C12 UNL     1      26.580 -18.266  -3.457  1.00  0.00     0.018 A 
HETATM   27  C13 UNL     1      26.178 -17.232  -4.284  1.00  0.00     0.022 A 
HETATM   28  C14 UNL     1      26.798 -16.009  -4.204  1.00  0.00     0.018 A 
HETATM   29  C25 UNL     1      27.816 -15.842  -3.285  1.00  0.00     0.022 A 
HETATM   30  C26 UNL     1      28.208 -16.890  -2.461  1.00  0.00     0.018 A 
BRANCH  28  31
HETATM   31  C15 UNL     1      26.468 -14.915  -5.120  1.00  0.00    -0.053 C 
HETATM   32  C16 UNL     1      26.246 -13.999  -5.873  1.00  0.00    -0.009 C 
BRANCH  32  33
HETATM   33  C17 UNL     1      26.044 -12.888  -6.758  1.00  0.00    -0.009 C 
HETATM   34  C18 UNL     1      25.855 -11.977  -7.543  1.00  0.00    -0.053 C 
BRANCH  34  35
HETATM   35  C19 UNL     1      25.641 -10.929  -8.514  1.00  0.00     0.018 A 
HETATM   36  C20 UNL     1      26.640 -10.383  -9.278  1.00  0.00     0.022 A 
HETATM   37  C21 UNL     1      26.397  -9.398 -10.230  1.00  0.00     0.028 A 
HETATM   38  C22 UNL     1      25.105  -8.943 -10.425  1.00  0.00     0.046 A 
HETATM   39  N2  UNL     1      24.805  -7.962 -11.416  1.00  0.00    -0.102 NA
HETATM   40  C23 UNL     1      24.092  -9.505  -9.642  1.00  0.00     0.028 A 
HETATM   41  C24 UNL     1      24.350 -10.477  -8.706  1.00  0.00     0.022 A 
ENDBRANCH  34  35
ENDBRANCH  32  33
ENDBRANCH  28  31
ENDBRANCH   3  25
TORSDOF 13
ENDMDL
