MODEL 4
REMARK VINA RESULT: -9.646126552      1.769      2.133
REMARK  13 active torsions:
REMARK  status: ('A' for Active; 'I' for Inactive)
REMARK    1  A    between atoms: C2_2  and  O1_3 
REMARK    2  A    between atoms: C2_2  and  C3_5 
REMARK    3  A    between atoms: C2_2  and  C9_13 
REMARK    4  A    between atoms: C6_8  and  O2_9 
REMARK    5  A    between atoms: C9_13  and  N1_14 
REMARK    6  A    between atoms: C9_13  and  C27_35 
REMARK       I    between atoms: N1_14  and  C10_16 
REMARK    7  A    between atoms: C10_16  and  C11_18 
REMARK    8  A    between atoms: C14_21  and  C15_22 
REMARK    9  A    between atoms: C16_23  and  C17_24 
REMARK   10  A    between atoms: C18_25  and  C19_26 
REMARK   11  A    between atoms: C27_35  and  O4_36 
REMARK   12  A    between atoms: C27_35  and  N3_38 
REMARK   13  A    between atoms: N3_38  and  O5_40 
ROOT
HETATM    1  N1  UNL     1      24.994 -11.644  -8.405  1.00  0.00    -0.342 N 
ATOM      2  H1  UNL     1      24.672 -12.569  -8.688  1.00  0.00     0.163 HD
HETATM    3  C10 UNL     1      25.736 -11.566  -7.214  1.00  0.00     0.252 C 
HETATM    4  O3  UNL     1      26.174 -10.480  -6.808  1.00  0.00    -0.268 OA
ENDROOT
BRANCH   1   5
HETATM    5  C9  UNL     1      24.643 -10.527  -9.273  1.00  0.00     0.200 C 
BRANCH   5   6
HETATM    6  C2  UNL     1      24.293 -10.986 -10.652  1.00  0.00     0.109 C 
HETATM    7  C1  UNL     1      23.856 -12.446 -10.660  1.00  0.00     0.054 C 
BRANCH   6   8
HETATM    8  O1  UNL     1      23.163 -10.282 -11.089  1.00  0.00    -0.383 OA
ATOM      9  H1  UNL     1      22.660 -10.924 -11.576  1.00  0.00     0.211 HD
ENDBRANCH   6   8
BRANCH   6  10
HETATM   10  C3  UNL     1      25.381 -10.766 -11.613  1.00  0.00    -0.022 A 
HETATM   11  C4  UNL     1      25.484 -11.459 -12.795  1.00  0.00     0.013 A 
HETATM   12  C5  UNL     1      26.536 -11.228 -13.689  1.00  0.00     0.037 A 
HETATM   13  C6  UNL     1      27.517 -10.275 -13.393  1.00  0.00     0.065 A 
HETATM   14  C7  UNL     1      27.390  -9.601 -12.216  1.00  0.00     0.037 A 
HETATM   15  C8  UNL     1      26.361  -9.835 -11.351  1.00  0.00     0.013 A 
BRANCH  13  16
HETATM   16  O2  UNL     1      28.527 -10.113 -14.326  1.00  0.00    -0.361 OA
ATOM     17  H2  UNL     1      28.896  -9.241 -14.408  1.00  0.00     0.217 HD
ENDBRANCH  13  16
ENDBRANCH   6  10
ENDBRANCH   5   6
BRANCH   5  18
HETATM   18  C27 UNL     1      23.474  -9.831  -8.648  1.00  0.00     0.162 C 
BRANCH  18  19
HETATM   19  O4  UNL     1      22.407 -10.556  -8.444  1.00  0.00    -0.346 OA
ATOM     20  H4  UNL     1      21.746 -10.183  -7.872  1.00  0.00     0.219 HD
ENDBRANCH  18  19
BRANCH  18  21
HETATM   21  N3  UNL     1      23.374  -8.506  -8.257  1.00  0.00    -0.249 N 
ATOM     22  H3  UNL     1      24.112  -7.852  -8.516  1.00  0.00     0.196 HD
BRANCH  21  23
HETATM   23  O5  UNL     1      22.291  -8.052  -7.521  1.00  0.00    -0.288 OA
ATOM     24  H5  UNL     1      21.514  -7.707  -7.946  1.00  0.00     0.244 HD
ENDBRANCH  21  23
ENDBRANCH  18  21
ENDBRANCH   5  18
ENDBRANCH   1   5
BRANCH   3  25
HETATM   25  C11 UNL     1      26.010 -12.776  -6.409  1.00  0.00     0.032 A 
HETATM   26  C12 UNL     1      27.179 -13.491  -6.479  1.00  0.00     0.018 A 
HETATM   27  C13 UNL     1      27.364 -14.671  -5.780  1.00  0.00     0.022 A 
HETATM   28  C14 UNL     1      26.358 -15.161  -4.984  1.00  0.00     0.018 A 
HETATM   29  C25 UNL     1      25.175 -14.453  -4.899  1.00  0.00     0.022 A 
HETATM   30  C26 UNL     1      25.005 -13.269  -5.607  1.00  0.00     0.018 A 
BRANCH  28  31
HETATM   31  C15 UNL     1      26.475 -16.450  -4.299  1.00  0.00    -0.053 C 
HETATM   32  C16 UNL     1      26.602 -17.529  -3.773  1.00  0.00    -0.009 C 
BRANCH  32  33
HETATM   33  C17 UNL     1      26.784 -18.833  -3.203  1.00  0.00    -0.009 C 
HETATM   34  C18 UNL     1      26.981 -19.924  -2.699  1.00  0.00    -0.053 C 
BRANCH  34  35
HETATM   35  C19 UNL     1      27.267 -21.211  -2.111  1.00  0.00     0.018 A 
HETATM   36  C20 UNL     1      26.710 -22.387  -2.542  1.00  0.00     0.022 A 
HETATM   37  C21 UNL     1      27.033 -23.617  -1.976  1.00  0.00     0.028 A 
HETATM   38  C22 UNL     1      27.947 -23.671  -0.939  1.00  0.00     0.046 A 
HETATM   39  N2  UNL     1      28.335 -24.913  -0.356  1.00  0.00    -0.102 NA
HETATM   40  C23 UNL     1      28.510 -22.467  -0.506  1.00  0.00     0.028 A 
HETATM   41  C24 UNL     1      28.180 -21.261  -1.075  1.00  0.00     0.022 A 
ENDBRANCH  34  35
ENDBRANCH  32  33
ENDBRANCH  28  31
ENDBRANCH   3  25
TORSDOF 13
ENDMDL
