MODEL 6
REMARK VINA RESULT: -9.539857188      2.297      2.889
REMARK  13 active torsions:
REMARK  status: ('A' for Active; 'I' for Inactive)
REMARK    1  A    between atoms: C2_2  and  O1_3 
REMARK    2  A    between atoms: C2_2  and  C3_5 
REMARK    3  A    between atoms: C2_2  and  C9_13 
REMARK    4  A    between atoms: C6_8  and  O2_9 
REMARK    5  A    between atoms: C9_13  and  N1_14 
REMARK    6  A    between atoms: C9_13  and  C27_35 
REMARK       I    between atoms: N1_14  and  C10_16 
REMARK    7  A    between atoms: C10_16  and  C11_18 
REMARK    8  A    between atoms: C14_21  and  C15_22 
REMARK    9  A    between atoms: C16_23  and  C17_24 
REMARK   10  A    between atoms: C18_25  and  C19_26 
REMARK   11  A    between atoms: C27_35  and  O4_36 
REMARK   12  A    between atoms: C27_35  and  N3_38 
REMARK   13  A    between atoms: N3_38  and  O5_40 
ROOT
HETATM    1  N1  UNL     1      25.316 -11.615  -8.644  1.00  0.00    -0.342 N 
ATOM      2  H1  UNL     1      24.928 -12.476  -9.029  1.00  0.00     0.163 HD
HETATM    3  C10 UNL     1      25.918 -11.700  -7.378  1.00  0.00     0.252 C 
HETATM    4  O3  UNL     1      26.425 -10.703  -6.845  1.00  0.00    -0.268 OA
ENDROOT
BRANCH   1   5
HETATM    5  C9  UNL     1      25.195 -10.412  -9.458  1.00  0.00     0.200 C 
BRANCH   5   6
HETATM    6  C2  UNL     1      25.180 -10.730 -10.918  1.00  0.00     0.109 C 
HETATM    7  C1  UNL     1      24.023 -11.657 -11.275  1.00  0.00     0.054 C 
BRANCH   6   8
HETATM    8  O1  UNL     1      24.916  -9.555 -11.633  1.00  0.00    -0.383 OA
ATOM      9  H1  UNL     1      25.221  -9.742 -12.514  1.00  0.00     0.211 HD
ENDBRANCH   6   8
BRANCH   6  10
HETATM   10  C3  UNL     1      26.454 -11.288 -11.389  1.00  0.00    -0.022 A 
HETATM   11  C4  UNL     1      27.675 -10.802 -10.989  1.00  0.00     0.013 A 
HETATM   12  C5  UNL     1      28.872 -11.354 -11.459  1.00  0.00     0.037 A 
HETATM   13  C6  UNL     1      28.849 -12.425 -12.359  1.00  0.00     0.065 A 
HETATM   14  C7  UNL     1      27.625 -12.889 -12.738  1.00  0.00     0.037 A 
HETATM   15  C8  UNL     1      26.465 -12.342 -12.273  1.00  0.00     0.013 A 
BRANCH  13  16
HETATM   16  O2  UNL     1      30.076 -12.908 -12.782  1.00  0.00    -0.361 OA
ATOM     17  H2  UNL     1      30.071 -13.736 -13.248  1.00  0.00     0.217 HD
ENDBRANCH  13  16
ENDBRANCH   6  10
ENDBRANCH   5   6
BRANCH   5  18
HETATM   18  C27 UNL     1      23.919  -9.737  -9.063  1.00  0.00     0.162 C 
BRANCH  18  19
HETATM   19  O4  UNL     1      23.800  -8.480  -9.397  1.00  0.00    -0.346 OA
ATOM     20  H4  UNL     1      23.076  -8.005  -9.004  1.00  0.00     0.219 HD
ENDBRANCH  18  19
BRANCH  18  21
HETATM   21  N3  UNL     1      22.840 -10.273  -8.380  1.00  0.00    -0.249 N 
ATOM     22  H3  UNL     1      22.241 -10.953  -8.847  1.00  0.00     0.196 HD
BRANCH  21  23
HETATM   23  O5  UNL     1      22.558  -9.904  -7.074  1.00  0.00    -0.288 OA
ATOM     24  H5  UNL     1      21.693 -10.028  -6.701  1.00  0.00     0.244 HD
ENDBRANCH  21  23
ENDBRANCH  18  21
ENDBRANCH   5  18
ENDBRANCH   1   5
BRANCH   3  25
HETATM   25  C11 UNL     1      25.960 -12.983  -6.641  1.00  0.00     0.032 A 
HETATM   26  C12 UNL     1      25.066 -13.330  -5.660  1.00  0.00     0.018 A 
HETATM   27  C13 UNL     1      25.190 -14.498  -4.928  1.00  0.00     0.022 A 
HETATM   28  C14 UNL     1      26.238 -15.352  -5.174  1.00  0.00     0.018 A 
HETATM   29  C25 UNL     1      27.146 -15.020  -6.160  1.00  0.00     0.022 A 
HETATM   30  C26 UNL     1      27.006 -13.844  -6.887  1.00  0.00     0.018 A 
BRANCH  28  31
HETATM   31  C15 UNL     1      26.461 -16.551  -4.364  1.00  0.00    -0.053 C 
HETATM   32  C16 UNL     1      26.665 -17.563  -3.737  1.00  0.00    -0.009 C 
BRANCH  32  33
HETATM   33  C17 UNL     1      26.926 -18.794  -3.050  1.00  0.00    -0.009 C 
HETATM   34  C18 UNL     1      27.161 -19.860  -2.510  1.00  0.00    -0.053 C 
BRANCH  34  35
HETATM   35  C19 UNL     1      27.422 -21.149  -1.913  1.00  0.00     0.018 A 
HETATM   36  C20 UNL     1      26.784 -22.304  -2.284  1.00  0.00     0.022 A 
HETATM   37  C21 UNL     1      27.083 -23.538  -1.713  1.00  0.00     0.028 A 
HETATM   38  C22 UNL     1      28.057 -23.617  -0.733  1.00  0.00     0.046 A 
HETATM   39  N2  UNL     1      28.422 -24.865  -0.149  1.00  0.00    -0.102 NA
HETATM   40  C23 UNL     1      28.702 -22.434  -0.361  1.00  0.00     0.028 A 
HETATM   41  C24 UNL     1      28.395 -21.224  -0.934  1.00  0.00     0.022 A 
ENDBRANCH  34  35
ENDBRANCH  32  33
ENDBRANCH  28  31
ENDBRANCH   3  25
TORSDOF 13
ENDMDL
