MODEL 3
REMARK VINA RESULT: -9.712221817      2.006      2.518
REMARK  13 active torsions:
REMARK  status: ('A' for Active; 'I' for Inactive)
REMARK    1  A    between atoms: C2_2  and  O1_3 
REMARK    2  A    between atoms: C2_2  and  C3_5 
REMARK    3  A    between atoms: C2_2  and  C9_13 
REMARK    4  A    between atoms: C6_8  and  O2_9 
REMARK    5  A    between atoms: C9_13  and  N1_14 
REMARK    6  A    between atoms: C9_13  and  C27_35 
REMARK       I    between atoms: N1_14  and  C10_16 
REMARK    7  A    between atoms: C10_16  and  C11_18 
REMARK    8  A    between atoms: C14_21  and  C15_22 
REMARK    9  A    between atoms: C16_23  and  C17_24 
REMARK   10  A    between atoms: C18_25  and  C19_26 
REMARK   11  A    between atoms: C27_35  and  O4_36 
REMARK   12  A    between atoms: C27_35  and  N3_38 
REMARK   13  A    between atoms: N3_38  and  O5_40 
ROOT
HETATM    1  N1  UNL     1      25.162 -11.607  -8.154  1.00  0.00    -0.342 N 
ATOM      2  H1  UNL     1      24.781 -12.517  -8.415  1.00  0.00     0.163 HD
HETATM    3  C10 UNL     1      25.880 -11.541  -6.948  1.00  0.00     0.252 C 
HETATM    4  O3  UNL     1      26.385 -10.476  -6.567  1.00  0.00    -0.268 OA
ENDROOT
BRANCH   1   5
HETATM    5  C9  UNL     1      24.911 -10.499  -9.066  1.00  0.00     0.200 C 
BRANCH   5   6
HETATM    6  C2  UNL     1      24.827 -10.958 -10.486  1.00  0.00     0.109 C 
HETATM    7  C1  UNL     1      23.745 -12.017 -10.667  1.00  0.00     0.054 C 
BRANCH   6   8
HETATM    8  O1  UNL     1      24.402  -9.887 -11.283  1.00  0.00    -0.383 OA
ATOM      9  H1  UNL     1      25.177  -9.347 -11.384  1.00  0.00     0.211 HD
ENDBRANCH   6   8
BRANCH   6  10
HETATM   10  C3  UNL     1      26.115 -11.441 -11.002  1.00  0.00    -0.022 A 
HETATM   11  C4  UNL     1      27.304 -10.799 -10.758  1.00  0.00     0.013 A 
HETATM   12  C5  UNL     1      28.514 -11.284 -11.268  1.00  0.00     0.037 A 
HETATM   13  C6  UNL     1      28.537 -12.446 -12.045  1.00  0.00     0.065 A 
HETATM   14  C7  UNL     1      27.344 -13.065 -12.270  1.00  0.00     0.037 A 
HETATM   15  C8  UNL     1      26.170 -12.583 -11.769  1.00  0.00     0.013 A 
BRANCH  13  16
HETATM   16  O2  UNL     1      29.774 -12.855 -12.517  1.00  0.00    -0.361 OA
ATOM     17  H2  UNL     1      29.787 -13.280 -13.366  1.00  0.00     0.217 HD
ENDBRANCH  13  16
ENDBRANCH   6  10
ENDBRANCH   5   6
BRANCH   5  18
HETATM   18  C27 UNL     1      23.620  -9.867  -8.651  1.00  0.00     0.162 C 
BRANCH  18  19
HETATM   19  O4  UNL     1      22.543 -10.590  -8.803  1.00  0.00    -0.346 OA
ATOM     20  H4  UNL     1      21.749 -10.256  -8.401  1.00  0.00     0.219 HD
ENDBRANCH  18  19
BRANCH  18  21
HETATM   21  N3  UNL     1      23.414  -8.603  -8.123  1.00  0.00    -0.249 N 
ATOM     22  H3  UNL     1      24.119  -7.880  -8.270  1.00  0.00     0.196 HD
BRANCH  21  23
HETATM   23  O5  UNL     1      22.271  -8.300  -7.402  1.00  0.00    -0.288 OA
ATOM     24  H5  UNL     1      22.033  -7.400  -7.207  1.00  0.00     0.244 HD
ENDBRANCH  21  23
ENDBRANCH  18  21
ENDBRANCH   5  18
ENDBRANCH   1   5
BRANCH   3  25
HETATM   25  C11 UNL     1      26.049 -12.739  -6.098  1.00  0.00     0.032 A 
HETATM   26  C12 UNL     1      27.147 -12.966  -5.307  1.00  0.00     0.018 A 
HETATM   27  C13 UNL     1      27.313 -14.142  -4.596  1.00  0.00     0.022 A 
HETATM   28  C14 UNL     1      26.360 -15.128  -4.670  1.00  0.00     0.018 A 
HETATM   29  C25 UNL     1      25.247 -14.916  -5.458  1.00  0.00     0.022 A 
HETATM   30  C26 UNL     1      25.094 -13.729  -6.166  1.00  0.00     0.018 A 
BRANCH  28  31
HETATM   31  C15 UNL     1      26.538 -16.422  -4.008  1.00  0.00    -0.053 C 
HETATM   32  C16 UNL     1      26.695 -17.510  -3.509  1.00  0.00    -0.009 C 
BRANCH  32  33
HETATM   33  C17 UNL     1      26.888 -18.828  -2.977  1.00  0.00    -0.009 C 
HETATM   34  C18 UNL     1      27.101 -19.941  -2.530  1.00  0.00    -0.053 C 
BRANCH  34  35
HETATM   35  C19 UNL     1      27.395 -21.264  -2.030  1.00  0.00     0.018 A 
HETATM   36  C20 UNL     1      26.831 -22.409  -2.529  1.00  0.00     0.022 A 
HETATM   37  C21 UNL     1      27.162 -23.673  -2.049  1.00  0.00     0.028 A 
HETATM   38  C22 UNL     1      28.092 -23.794  -1.032  1.00  0.00     0.046 A 
HETATM   39  N2  UNL     1      28.489 -25.071  -0.537  1.00  0.00    -0.102 NA
HETATM   40  C23 UNL     1      28.662 -22.620  -0.529  1.00  0.00     0.028 A 
HETATM   41  C24 UNL     1      28.324 -21.380  -1.014  1.00  0.00     0.022 A 
ENDBRANCH  34  35
ENDBRANCH  32  33
ENDBRANCH  28  31
ENDBRANCH   3  25
TORSDOF 13
ENDMDL
