MODEL 7
REMARK VINA RESULT: -6.996591802      2.506      5.720
REMARK  4 active torsions:
REMARK  status: ('A' for Active; 'I' for Inactive)
REMARK    1  A    between atoms: N4_11  and  C5_12 
REMARK    2  A    between atoms: C7_14  and  O2_15 
REMARK    3  A    between atoms: C8_17  and  C9_18 
REMARK    4  A    between atoms: C9_18  and  O3_19 
ROOT
HETATM    1  N1  UNL     1      24.149  34.183  46.432  1.00  0.00    -0.063 NA
HETATM    2  C1  UNL     1      23.602  32.919  46.092  1.00  0.00     0.196 A 
HETATM    3  N2  UNL     1      24.238  31.757  46.415  1.00  0.00    -0.295 N 
ATOM      4  H2  UNL     1      25.128  31.789  46.912  1.00  0.00     0.171 HD
HETATM    5  C2  UNL     1      23.703  30.572  46.083  1.00  0.00     0.278 A 
HETATM    6  O1  UNL     1      24.297  29.487  46.384  1.00  0.00    -0.265 OA
HETATM    7  C3  UNL     1      22.506  30.579  45.417  1.00  0.00     0.146 A 
HETATM    8  N3  UNL     1      21.735  29.593  44.959  1.00  0.00    -0.345 N 
ATOM      9  H3  UNL     1      21.934  28.596  45.043  1.00  0.00     0.167 HD
HETATM   10  C4  UNL     1      20.650  30.126  44.370  1.00  0.00     0.188 A 
HETATM   11  N4  UNL     1      20.710  31.467  44.440  1.00  0.00    -0.300 N 
HETATM   12  C10 UNL     1      21.846  31.764  45.081  1.00  0.00     0.145 A 
HETATM   13  N5  UNL     1      22.424  32.926  45.435  1.00  0.00    -0.314 N 
ATOM     14  H5  UNL     1      21.971  33.811  45.208  1.00  0.00     0.170 HD
ENDROOT
BRANCH  11  15
HETATM   15  C5  UNL     1      19.732  32.404  43.920  1.00  0.00     0.233 C 
HETATM   16  C6  UNL     1      18.537  31.621  43.461  1.00  0.00     0.088 C 
HETATM   17  C7  UNL     1      17.470  32.073  44.437  1.00  0.00     0.153 C 
HETATM   18  C8  UNL     1      17.956  33.477  44.739  1.00  0.00     0.176 C 
HETATM   19  O4  UNL     1      19.320  33.267  44.916  1.00  0.00    -0.356 OA
BRANCH  17  20
HETATM   20  O2  UNL     1      16.207  32.080  43.858  1.00  0.00    -0.393 OA
ATOM     21  H2  UNL     1      15.820  31.212  43.843  1.00  0.00     0.210 HD
ENDBRANCH  17  20
BRANCH  18  22
HETATM   22  C9  UNL     1      17.322  34.004  46.004  1.00  0.00     0.198 C 
BRANCH  22  23
HETATM   23  O3  UNL     1      18.353  34.098  46.960  1.00  0.00    -0.398 OA
ATOM     24  H3  UNL     1      18.299  34.971  47.330  1.00  0.00     0.209 HD
ENDBRANCH  22  23
ENDBRANCH  18  22
ENDBRANCH  11  15
TORSDOF 4
ENDMDL
