MODEL 1
REMARK VINA RESULT: -8.806468730      0.000      0.000
REMARK  4 active torsions:
REMARK  status: ('A' for Active; 'I' for Inactive)
REMARK    1  A    between atoms: N4_11  and  C5_12 
REMARK    2  A    between atoms: C7_14  and  O2_15 
REMARK    3  A    between atoms: C8_17  and  C9_18 
REMARK    4  A    between atoms: C9_18  and  O3_19 
ROOT
HETATM    1  N1  UNL     1      18.195  33.812  44.965  1.00  0.00    -0.063 NA
HETATM    2  C1  UNL     1      19.019  32.867  44.302  1.00  0.00     0.196 A 
HETATM    3  N2  UNL     1      18.657  32.321  43.107  1.00  0.00    -0.295 N 
ATOM      4  H2  UNL     1      17.775  32.592  42.673  1.00  0.00     0.171 HD
HETATM    5  C2  UNL     1      19.452  31.428  42.496  1.00  0.00     0.278 A 
HETATM    6  O1  UNL     1      19.113  30.918  41.380  1.00  0.00    -0.265 OA
HETATM    7  C3  UNL     1      20.627  31.095  43.116  1.00  0.00     0.146 A 
HETATM    8  N3  UNL     1      21.609  30.260  42.775  1.00  0.00    -0.345 N 
ATOM      9  H3  UNL     1      21.638  29.693  41.928  1.00  0.00     0.167 HD
HETATM   10  C4  UNL     1      22.555  30.288  43.730  1.00  0.00     0.188 A 
HETATM   11  N4  UNL     1      22.192  31.143  44.702  1.00  0.00    -0.300 N 
HETATM   12  C10 UNL     1      21.008  31.649  44.341  1.00  0.00     0.145 A 
HETATM   13  N5  UNL     1      20.177  32.539  44.912  1.00  0.00    -0.314 N 
ATOM     14  H5  UNL     1      20.422  32.965  45.806  1.00  0.00     0.170 HD
ENDROOT
BRANCH  11  15
HETATM   15  C5  UNL     1      22.942  31.452  45.905  1.00  0.00     0.233 C 
HETATM   16  C6  UNL     1      24.293  30.809  45.787  1.00  0.00     0.088 C 
HETATM   17  C7  UNL     1      25.208  32.014  45.705  1.00  0.00     0.153 C 
HETATM   18  C8  UNL     1      24.410  33.018  46.513  1.00  0.00     0.176 C 
HETATM   19  O4  UNL     1      23.126  32.816  46.016  1.00  0.00    -0.356 OA
BRANCH  17  20
HETATM   20  O2  UNL     1      26.449  31.762  46.279  1.00  0.00    -0.393 OA
ATOM     21  H2  UNL     1      27.080  31.457  45.638  1.00  0.00     0.210 HD
ENDBRANCH  17  20
BRANCH  18  22
HETATM   22  C9  UNL     1      24.881  34.426  46.237  1.00  0.00     0.198 C 
BRANCH  22  23
HETATM   23  O3  UNL     1      25.830  34.334  45.199  1.00  0.00    -0.398 OA
ATOM     24  H3  UNL     1      26.679  34.494  45.594  1.00  0.00     0.209 HD
ENDBRANCH  22  23
ENDBRANCH  18  22
ENDBRANCH  11  15
TORSDOF 4
ENDMDL
