MODEL 4
REMARK VINA RESULT: -7.202464945      1.226      1.412
REMARK  4 active torsions:
REMARK  status: ('A' for Active; 'I' for Inactive)
REMARK    1  A    between atoms: N4_11  and  C5_12 
REMARK    2  A    between atoms: C7_14  and  O2_15 
REMARK    3  A    between atoms: C8_17  and  C9_18 
REMARK    4  A    between atoms: C9_18  and  O3_19 
ROOT
HETATM    1  N1  UNL     1      17.239  34.275  46.451  1.00  0.00    -0.063 NA
HETATM    2  C1  UNL     1      17.925  33.469  45.506  1.00  0.00     0.196 A 
HETATM    3  N2  UNL     1      17.338  33.086  44.337  1.00  0.00    -0.295 N 
ATOM      4  H2  UNL     1      16.384  33.383  44.130  1.00  0.00     0.171 HD
HETATM    5  C2  UNL     1      18.004  32.324  43.456  1.00  0.00     0.278 A 
HETATM    6  O1  UNL     1      17.455  31.966  42.365  1.00  0.00    -0.265 OA
HETATM    7  C3  UNL     1      19.282  31.951  43.778  1.00  0.00     0.146 A 
HETATM    8  N3  UNL     1      20.185  31.214  43.131  1.00  0.00    -0.345 N 
ATOM      9  H3  UNL     1      20.051  30.777  42.220  1.00  0.00     0.167 HD
HETATM   10  C4  UNL     1      21.302  31.141  43.877  1.00  0.00     0.188 A 
HETATM   11  N4  UNL     1      21.132  31.832  45.017  1.00  0.00    -0.300 N 
HETATM   12  C10 UNL     1      19.894  32.338  44.974  1.00  0.00     0.145 A 
HETATM   13  N5  UNL     1      19.184  33.102  45.822  1.00  0.00    -0.314 N 
ATOM     14  H5  UNL     1      19.598  33.403  46.705  1.00  0.00     0.170 HD
ENDROOT
BRANCH  11  15
HETATM   15  C5  UNL     1      22.103  31.994  46.083  1.00  0.00     0.233 C 
HETATM   16  C6  UNL     1      23.253  31.069  45.807  1.00  0.00     0.088 C 
HETATM   17  C7  UNL     1      24.380  32.044  45.533  1.00  0.00     0.153 C 
HETATM   18  C8  UNL     1      23.945  33.213  46.393  1.00  0.00     0.176 C 
HETATM   19  O4  UNL     1      22.588  33.287  46.096  1.00  0.00    -0.356 OA
BRANCH  17  20
HETATM   20  O2  UNL     1      25.611  31.538  45.937  1.00  0.00    -0.393 OA
ATOM     21  H2  UNL     1      26.006  30.993  45.267  1.00  0.00     0.210 HD
ENDBRANCH  17  20
BRANCH  18  22
HETATM   22  C9  UNL     1      24.658  34.478  45.980  1.00  0.00     0.198 C 
BRANCH  22  23
HETATM   23  O3  UNL     1      25.741  34.081  45.171  1.00  0.00    -0.398 OA
ATOM     24  H3  UNL     1      26.264  33.485  45.694  1.00  0.00     0.209 HD
ENDBRANCH  22  23
ENDBRANCH  18  22
ENDBRANCH  11  15
TORSDOF 4
ENDMDL
