MODEL 3
REMARK VINA RESULT: -8.682711721      1.361      1.712
REMARK  7 active torsions:
REMARK  status: ('A' for Active; 'I' for Inactive)
REMARK    1  A    between atoms: N1_2  and  C2_4 
REMARK    2  A    between atoms: C4_8  and  C5_9 
REMARK    3  A    between atoms: C5_9  and  C6_10 
REMARK    4  A    between atoms: C6_10  and  C7_11 
REMARK    5  A    between atoms: C8_13  and  O2_14 
REMARK    6  A    between atoms: C10_16  and  O3_17 
REMARK    7  A    between atoms: C11_19  and  O4_20 
ROOT
HETATM    1  C2  UNL     1       9.663  17.697  84.823  1.00  0.00     0.678 A 
HETATM    2  N2  UNL     1       8.589  17.328  85.543  1.00  0.00    -0.189 N 
ATOM      3  H2  UNL     1       7.671  17.099  85.161  1.00  0.00     0.184 HD
HETATM    4  C3  UNL     1       8.918  17.311  86.841  1.00  0.00     0.085 A 
HETATM    5  C4  UNL     1       8.127  16.990  87.943  1.00  0.00    -0.001 A 
HETATM    6  C12 UNL     1       8.735  17.059  89.179  1.00  0.00     0.059 A 
HETATM    7  N3  UNL     1       8.047  16.768  90.291  1.00  0.00    -0.329 N 
ATOM      8  H3  UNL     1       7.069  16.496  90.194  1.00  0.00     0.168 HD
HETATM    9  C13 UNL     1       8.571  16.814  91.533  1.00  0.00     0.195 A 
HETATM   10  N4  UNL     1       7.819  16.501  92.691  1.00  0.00    -0.063 NA
HETATM   11  N5  UNL     1       9.842  17.166  91.673  1.00  0.00    -0.297 N 
ATOM     12  H5  UNL     1      10.253  17.207  92.606  1.00  0.00     0.171 HD
HETATM   13  C14 UNL     1      10.595  17.472  90.601  1.00  0.00     0.260 A 
HETATM   14  O5  UNL     1      11.802  17.805  90.761  1.00  0.00    -0.267 OA
HETATM   15  C15 UNL     1      10.062  17.426  89.329  1.00  0.00     0.062 A 
HETATM   16  C16 UNL     1      10.804  17.735  88.207  1.00  0.00     0.052 A 
HETATM   17  C17 UNL     1      10.237  17.680  86.956  1.00  0.00     0.078 A 
HETATM   18  N6  UNL     1      10.660  17.907  85.708  1.00  0.00    -0.190 N 
ATOM     19  H6  UNL     1      11.605  18.199  85.459  1.00  0.00     0.184 HD
ENDROOT
BRANCH   5  20
HETATM   20  C5  UNL     1       6.727  16.609  87.740  1.00  0.00     0.046 C 
BRANCH  20  21
HETATM   21  C6  UNL     1       5.861  17.857  87.668  1.00  0.00     0.039 C 
BRANCH  21  22
HETATM   22  C7  UNL     1       4.414  17.428  87.493  1.00  0.00     0.156 C 
HETATM   23  O1  UNL     1       3.835  18.070  86.428  1.00  0.00    -0.351 OA
HETATM   24  C8  UNL     1       3.709  17.165  85.376  1.00  0.00     0.290 C 
HETATM   25  C10 UNL     1       3.267  15.909  86.144  1.00  0.00     0.204 C 
HETATM   26  C11 UNL     1       4.303  15.948  87.276  1.00  0.00     0.180 C 
BRANCH  24  27
HETATM   27  O2  UNL     1       4.953  16.975  84.819  1.00  0.00    -0.363 OA
HETATM   28  C9  UNL     1       5.352  18.015  83.998  1.00  0.00     0.204 C 
ENDBRANCH  24  27
BRANCH  25  29
HETATM   29  O3  UNL     1       2.042  16.118  86.724  1.00  0.00    -0.388 OA
ATOM     30  H3  UNL     1       1.665  15.291  86.999  1.00  0.00     0.210 HD
ENDBRANCH  25  29
BRANCH  26  31
HETATM   31  O4  UNL     1       3.895  15.239  88.374  1.00  0.00    -0.390 OA
ATOM     32  H4  UNL     1       3.446  14.425  88.176  1.00  0.00     0.210 HD
ENDBRANCH  26  31
ENDBRANCH  21  22
ENDBRANCH  20  21
ENDBRANCH   5  20
BRANCH   1  33
HETATM   33  N1  UNL     1       9.693  17.825  83.413  1.00  0.00    -0.230 N 
HETATM   34  C1  UNL     1       8.829  16.956  82.617  1.00  0.00     0.165 C 
ATOM     35  H1  UNL     1      10.304  18.507  82.963  1.00  0.00     0.177 HD
ENDBRANCH   1  33
TORSDOF 7
ENDMDL
