MODEL 4
REMARK VINA RESULT: -8.467149009      0.840      1.923
REMARK  7 active torsions:
REMARK  status: ('A' for Active; 'I' for Inactive)
REMARK    1  A    between atoms: N1_2  and  C2_4 
REMARK    2  A    between atoms: C4_8  and  C5_9 
REMARK    3  A    between atoms: C5_9  and  C6_10 
REMARK    4  A    between atoms: C6_10  and  C7_11 
REMARK    5  A    between atoms: C8_13  and  O2_14 
REMARK    6  A    between atoms: C10_16  and  O3_17 
REMARK    7  A    between atoms: C11_19  and  O4_20 
ROOT
HETATM    1  C2  UNL     1      10.567  17.556  86.564  1.00  0.00     0.678 A 
HETATM    2  N2  UNL     1       9.376  17.120  87.013  1.00  0.00    -0.189 N 
ATOM      3  H2  UNL     1       8.599  16.815  86.429  1.00  0.00     0.184 HD
HETATM    4  C3  UNL     1       9.377  17.153  88.352  1.00  0.00     0.085 A 
HETATM    5  C4  UNL     1       8.363  16.794  89.240  1.00  0.00    -0.001 A 
HETATM    6  C12 UNL     1       8.642  16.933  90.583  1.00  0.00     0.059 A 
HETATM    7  N3  UNL     1       7.724  16.612  91.504  1.00  0.00    -0.329 N 
ATOM      8  H3  UNL     1       6.821  16.265  91.182  1.00  0.00     0.168 HD
HETATM    9  C13 UNL     1       7.923  16.721  92.833  1.00  0.00     0.195 A 
HETATM   10  N4  UNL     1       6.932  16.375  93.784  1.00  0.00    -0.063 NA
HETATM   11  N5  UNL     1       9.093  17.172  93.266  1.00  0.00    -0.297 N 
ATOM     12  H5  UNL     1       9.259  17.261  94.269  1.00  0.00     0.171 HD
HETATM   13  C14 UNL     1      10.064  17.513  92.399  1.00  0.00     0.260 A 
HETATM   14  O5  UNL     1      11.168  17.939  92.835  1.00  0.00    -0.267 OA
HETATM   15  C15 UNL     1       9.863  17.402  91.038  1.00  0.00     0.062 A 
HETATM   16  C16 UNL     1      10.835  17.745  90.120  1.00  0.00     0.052 A 
HETATM   17  C17 UNL     1      10.598  17.623  88.771  1.00  0.00     0.078 A 
HETATM   18  N6  UNL     1      11.298  17.858  87.656  1.00  0.00    -0.190 N 
ATOM     19  H6  UNL     1      12.253  18.215  87.634  1.00  0.00     0.184 HD
ENDROOT
BRANCH   5  20
HETATM   20  C5  UNL     1       7.085  16.304  88.716  1.00  0.00     0.046 C 
BRANCH  20  21
HETATM   21  C6  UNL     1       6.164  17.480  88.430  1.00  0.00     0.039 C 
BRANCH  21  22
HETATM   22  C7  UNL     1       5.784  17.445  86.959  1.00  0.00     0.156 C 
HETATM   23  O1  UNL     1       5.678  16.154  86.507  1.00  0.00    -0.351 OA
HETATM   24  C8  UNL     1       4.329  15.846  86.350  1.00  0.00     0.290 C 
HETATM   25  C10 UNL     1       3.814  17.160  85.743  1.00  0.00     0.204 C 
HETATM   26  C11 UNL     1       4.480  18.145  86.713  1.00  0.00     0.180 C 
BRANCH  24  27
HETATM   27  O2  UNL     1       3.783  15.646  87.597  1.00  0.00    -0.363 OA
HETATM   28  C9  UNL     1       4.165  14.450  88.180  1.00  0.00     0.204 C 
ENDBRANCH  24  27
BRANCH  25  29
HETATM   29  O3  UNL     1       4.388  17.368  84.514  1.00  0.00    -0.388 OA
ATOM     30  H3  UNL     1       3.877  17.997  84.018  1.00  0.00     0.210 HD
ENDBRANCH  25  29
BRANCH  26  31
HETATM   31  O4  UNL     1       4.598  19.399  86.175  1.00  0.00    -0.390 OA
ATOM     32  H4  UNL     1       3.932  20.015  86.457  1.00  0.00     0.210 HD
ENDBRANCH  26  31
ENDBRANCH  21  22
ENDBRANCH  20  21
ENDBRANCH   5  20
BRANCH   1  33
HETATM   33  N1  UNL     1      10.933  17.658  85.199  1.00  0.00    -0.230 N 
HETATM   34  C1  UNL     1       9.968  18.225  84.260  1.00  0.00     0.165 C 
ATOM     35  H1  UNL     1      11.849  17.343  84.880  1.00  0.00     0.177 HD
ENDBRANCH   1  33
TORSDOF 7
ENDMDL
