MODEL 2
REMARK VINA RESULT: -8.830180904      2.332      4.951
REMARK  7 active torsions:
REMARK  status: ('A' for Active; 'I' for Inactive)
REMARK    1  A    between atoms: N1_2  and  C2_4 
REMARK    2  A    between atoms: C4_8  and  C5_9 
REMARK    3  A    between atoms: C5_9  and  C6_10 
REMARK    4  A    between atoms: C6_10  and  C7_11 
REMARK    5  A    between atoms: C8_13  and  O2_14 
REMARK    6  A    between atoms: C10_16  and  O3_17 
REMARK    7  A    between atoms: C11_19  and  O4_20 
ROOT
HETATM    1  C2  UNL     1      10.584  17.328  90.153  1.00  0.00     0.678 A 
HETATM    2  N2  UNL     1       9.403  16.881  89.693  1.00  0.00    -0.189 N 
ATOM      3  H2  UNL     1       8.671  16.452  90.258  1.00  0.00     0.184 HD
HETATM    4  C3  UNL     1       9.342  17.089  88.371  1.00  0.00     0.085 A 
HETATM    5  C4  UNL     1       8.313  16.787  87.480  1.00  0.00    -0.001 A 
HETATM    6  C12 UNL     1       8.525  17.116  86.158  1.00  0.00     0.059 A 
HETATM    7  N3  UNL     1       7.589  16.860  85.236  1.00  0.00    -0.329 N 
ATOM      8  H3  UNL     1       6.722  16.419  85.541  1.00  0.00     0.168 HD
HETATM    9  C13 UNL     1       7.724  17.152  83.926  1.00  0.00     0.195 A 
HETATM   10  N4  UNL     1       6.715  16.868  82.973  1.00  0.00    -0.063 NA
HETATM   11  N5  UNL     1       8.846  17.727  83.515  1.00  0.00    -0.297 N 
ATOM     12  H5  UNL     1       8.964  17.953  82.528  1.00  0.00     0.171 HD
HETATM   13  C14 UNL     1       9.831  18.015  84.385  1.00  0.00     0.260 A 
HETATM   14  O5  UNL     1      10.890  18.561  83.971  1.00  0.00    -0.267 OA
HETATM   15  C15 UNL     1       9.696  17.718  85.727  1.00  0.00     0.062 A 
HETATM   16  C16 UNL     1      10.686  17.996  86.647  1.00  0.00     0.052 A 
HETATM   17  C17 UNL     1      10.516  17.684  87.974  1.00  0.00     0.078 A 
HETATM   18  N6  UNL     1      11.249  17.815  89.085  1.00  0.00    -0.190 N 
ATOM     19  H6  UNL     1      12.182  18.226  89.121  1.00  0.00     0.184 HD
ENDROOT
BRANCH   5  20
HETATM   20  C5  UNL     1       7.092  16.150  87.979  1.00  0.00     0.046 C 
BRANCH  20  21
HETATM   21  C6  UNL     1       6.048  17.212  88.288  1.00  0.00     0.039 C 
BRANCH  21  22
HETATM   22  C7  UNL     1       4.673  16.632  88.003  1.00  0.00     0.156 C 
HETATM   23  O1  UNL     1       3.794  17.611  87.616  1.00  0.00    -0.351 OA
HETATM   24  C8  UNL     1       3.577  17.499  86.245  1.00  0.00     0.290 C 
HETATM   25  C10 UNL     1       3.492  15.971  86.103  1.00  0.00     0.204 C 
HETATM   26  C11 UNL     1       4.730  15.589  86.926  1.00  0.00     0.180 C 
BRANCH  24  27
HETATM   27  O2  UNL     1       4.687  17.982  85.590  1.00  0.00    -0.363 OA
HETATM   28  C9  UNL     1       4.706  19.362  85.485  1.00  0.00     0.204 C 
ENDBRANCH  24  27
BRANCH  25  29
HETATM   29  O3  UNL     1       2.403  15.494  86.786  1.00  0.00    -0.388 OA
ATOM     30  H3  UNL     1       2.685  14.971  87.527  1.00  0.00     0.210 HD
ENDBRANCH  25  29
BRANCH  26  31
HETATM   31  O4  UNL     1       4.671  14.297  87.378  1.00  0.00    -0.390 OA
ATOM     32  H4  UNL     1       4.073  13.737  86.898  1.00  0.00     0.210 HD
ENDBRANCH  26  31
ENDBRANCH  21  22
ENDBRANCH  20  21
ENDBRANCH   5  20
BRANCH   1  33
HETATM   33  N1  UNL     1      11.002  17.276  91.506  1.00  0.00    -0.230 N 
HETATM   34  C1  UNL     1       9.987  17.364  92.552  1.00  0.00     0.165 C 
ATOM     35  H1  UNL     1      11.990  17.179  91.743  1.00  0.00     0.177 HD
ENDBRANCH   1  33
TORSDOF 7
ENDMDL
