MODEL 6
REMARK VINA RESULT: -8.439291365      3.605      6.648
REMARK  7 active torsions:
REMARK  status: ('A' for Active; 'I' for Inactive)
REMARK    1  A    between atoms: N1_2  and  C2_4 
REMARK    2  A    between atoms: C4_8  and  C5_9 
REMARK    3  A    between atoms: C5_9  and  C6_10 
REMARK    4  A    between atoms: C6_10  and  C7_11 
REMARK    5  A    between atoms: C8_13  and  O2_14 
REMARK    6  A    between atoms: C10_16  and  O3_17 
REMARK    7  A    between atoms: C11_19  and  O4_20 
ROOT
HETATM    1  C2  UNL     1       9.863  17.136  88.286  1.00  0.00     0.678 A 
HETATM    2  N2  UNL     1       9.439  17.680  87.131  1.00  0.00    -0.189 N 
ATOM      3  H2  UNL     1      10.021  18.197  86.472  1.00  0.00     0.184 HD
HETATM    4  C3  UNL     1       8.131  17.433  86.986  1.00  0.00     0.085 A 
HETATM    5  C4  UNL     1       7.277  17.802  85.947  1.00  0.00    -0.001 A 
HETATM    6  C12 UNL     1       5.961  17.408  86.062  1.00  0.00     0.059 A 
HETATM    7  N3  UNL     1       5.073  17.722  85.109  1.00  0.00    -0.329 N 
ATOM      8  H3  UNL     1       5.401  18.256  84.304  1.00  0.00     0.168 HD
HETATM    9  C13 UNL     1       3.771  17.373  85.151  1.00  0.00     0.195 A 
HETATM   10  N4  UNL     1       2.855  17.720  84.128  1.00  0.00    -0.063 NA
HETATM   11  N5  UNL     1       3.332  16.679  86.192  1.00  0.00    -0.297 N 
ATOM     12  H5  UNL     1       2.350  16.408  86.239  1.00  0.00     0.171 HD
HETATM   13  C14 UNL     1       4.167  16.327  87.187  1.00  0.00     0.260 A 
HETATM   14  O5  UNL     1       3.725  15.666  88.167  1.00  0.00    -0.267 OA
HETATM   15  C15 UNL     1       5.501  16.682  87.147  1.00  0.00     0.062 A 
HETATM   16  C16 UNL     1       6.384  16.340  88.150  1.00  0.00     0.052 A 
HETATM   17  C17 UNL     1       7.705  16.714  88.077  1.00  0.00     0.078 A 
HETATM   18  N6  UNL     1       8.785  16.550  88.848  1.00  0.00    -0.190 N 
ATOM     19  H6  UNL     1       8.794  16.052  89.738  1.00  0.00     0.184 HD
ENDROOT
BRANCH   5  20
HETATM   20  C5  UNL     1       7.806  18.572  84.818  1.00  0.00     0.046 C 
BRANCH  20  21
HETATM   21  C6  UNL     1       7.747  17.731  83.552  1.00  0.00     0.039 C 
BRANCH  21  22
HETATM   22  C7  UNL     1       9.167  17.487  83.070  1.00  0.00     0.156 C 
HETATM   23  O1  UNL     1       9.255  17.616  81.708  1.00  0.00    -0.351 OA
HETATM   24  C8  UNL     1       9.893  18.818  81.414  1.00  0.00     0.290 C 
HETATM   25  C10 UNL     1      10.992  18.817  82.488  1.00  0.00     0.204 C 
HETATM   26  C11 UNL     1      10.132  18.444  83.704  1.00  0.00     0.180 C 
BRANCH  24  27
HETATM   27  O2  UNL     1       9.005  19.845  81.636  1.00  0.00    -0.363 OA
HETATM   28  C9  UNL     1       9.490  21.083  81.254  1.00  0.00     0.204 C 
ENDBRANCH  24  27
BRANCH  25  29
HETATM   29  O3  UNL     1      11.855  17.771  82.280  1.00  0.00    -0.388 OA
ATOM     30  H3  UNL     1      11.851  17.190  83.031  1.00  0.00     0.210 HD
ENDBRANCH  25  29
BRANCH  26  31
HETATM   31  O4  UNL     1      10.880  17.911  84.721  1.00  0.00    -0.390 OA
ATOM     32  H4  UNL     1      10.380  17.649  85.485  1.00  0.00     0.210 HD
ENDBRANCH  26  31
ENDBRANCH  21  22
ENDBRANCH  20  21
ENDBRANCH   5  20
BRANCH   1  33
HETATM   33  N1  UNL     1      11.191  17.194  88.774  1.00  0.00    -0.230 N 
HETATM   34  C1  UNL     1      11.400  17.454  90.196  1.00  0.00     0.165 C 
ATOM     35  H1  UNL     1      11.984  17.059  88.146  1.00  0.00     0.177 HD
ENDBRANCH   1  33
TORSDOF 7
ENDMDL
