MODEL 5
REMARK VINA RESULT: -8.441681850      2.766      5.395
REMARK  7 active torsions:
REMARK  status: ('A' for Active; 'I' for Inactive)
REMARK    1  A    between atoms: N1_2  and  C2_4 
REMARK    2  A    between atoms: C4_8  and  C5_9 
REMARK    3  A    between atoms: C5_9  and  C6_10 
REMARK    4  A    between atoms: C6_10  and  C7_11 
REMARK    5  A    between atoms: C8_13  and  O2_14 
REMARK    6  A    between atoms: C10_16  and  O3_17 
REMARK    7  A    between atoms: C11_19  and  O4_20 
ROOT
HETATM    1  C2  UNL     1      10.880  17.424  88.458  1.00  0.00     0.678 A 
HETATM    2  N2  UNL     1       9.631  17.031  88.151  1.00  0.00    -0.189 N 
ATOM      3  H2  UNL     1       9.054  16.402  88.709  1.00  0.00     0.184 HD
HETATM    4  C3  UNL     1       9.267  17.599  86.994  1.00  0.00     0.085 A 
HETATM    5  C4  UNL     1       8.066  17.478  86.296  1.00  0.00    -0.001 A 
HETATM    6  C12 UNL     1       7.966  18.183  85.115  1.00  0.00     0.059 A 
HETATM    7  N3  UNL     1       6.848  18.123  84.381  1.00  0.00    -0.329 N 
ATOM      8  H3  UNL     1       6.080  17.545  84.722  1.00  0.00     0.168 HD
HETATM    9  C13 UNL     1       6.676  18.783  83.217  1.00  0.00     0.195 A 
HETATM   10  N4  UNL     1       5.481  18.699  82.462  1.00  0.00    -0.063 NA
HETATM   11  N5  UNL     1       7.666  19.538  82.762  1.00  0.00    -0.297 N 
ATOM     12  H5  UNL     1       7.553  20.043  81.883  1.00  0.00     0.171 HD
HETATM   13  C14 UNL     1       8.819  19.648  83.446  1.00  0.00     0.260 A 
HETATM   14  O5  UNL     1       9.748  20.373  82.994  1.00  0.00    -0.267 OA
HETATM   15  C15 UNL     1       8.998  18.974  84.639  1.00  0.00     0.062 A 
HETATM   16  C16 UNL     1      10.169  19.061  85.365  1.00  0.00     0.052 A 
HETATM   17  C17 UNL     1      10.311  18.374  86.547  1.00  0.00     0.078 A 
HETATM   18  N6  UNL     1      11.276  18.244  87.464  1.00  0.00    -0.190 N 
ATOM     19  H6  UNL     1      12.186  18.703  87.418  1.00  0.00     0.184 HD
ENDROOT
BRANCH   5  20
HETATM   20  C5  UNL     1       7.000  16.630  86.835  1.00  0.00     0.046 C 
BRANCH  20  21
HETATM   21  C6  UNL     1       6.054  17.470  87.679  1.00  0.00     0.039 C 
BRANCH  21  22
HETATM   22  C7  UNL     1       4.702  16.776  87.719  1.00  0.00     0.156 C 
HETATM   23  O1  UNL     1       3.679  17.687  87.657  1.00  0.00    -0.351 OA
HETATM   24  C8  UNL     1       3.111  17.634  86.387  1.00  0.00     0.290 C 
HETATM   25  C10 UNL     1       3.110  16.116  86.147  1.00  0.00     0.204 C 
HETATM   26  C11 UNL     1       4.550  15.808  86.583  1.00  0.00     0.180 C 
BRANCH  24  27
HETATM   27  O2  UNL     1       3.962  18.259  85.506  1.00  0.00    -0.363 OA
HETATM   28  C9  UNL     1       3.726  19.617  85.383  1.00  0.00     0.204 C 
ENDBRANCH  24  27
BRANCH  25  29
HETATM   29  O3  UNL     1       2.284  15.496  87.051  1.00  0.00    -0.388 OA
ATOM     30  H3  UNL     1       2.555  15.705  87.937  1.00  0.00     0.210 HD
ENDBRANCH  25  29
BRANCH  26  31
HETATM   31  O4  UNL     1       4.715  14.493  86.927  1.00  0.00    -0.390 OA
ATOM     32  H4  UNL     1       4.008  13.920  86.653  1.00  0.00     0.210 HD
ENDBRANCH  26  31
ENDBRANCH  21  22
ENDBRANCH  20  21
ENDBRANCH   5  20
BRANCH   1  33
HETATM   33  N1  UNL     1      11.596  17.026  89.614  1.00  0.00    -0.230 N 
HETATM   34  C1  UNL     1      10.951  17.168  90.916  1.00  0.00     0.165 C 
ATOM     35  H1  UNL     1      12.541  16.650  89.538  1.00  0.00     0.177 HD
ENDBRANCH   1  33
TORSDOF 7
ENDMDL
