MODEL 1
REMARK VINA RESULT: -9.437311072      0.000      0.000
REMARK  7 active torsions:
REMARK  status: ('A' for Active; 'I' for Inactive)
REMARK    1  A    between atoms: N1_2  and  C2_4 
REMARK    2  A    between atoms: C4_8  and  C5_9 
REMARK    3  A    between atoms: C5_9  and  C6_10 
REMARK    4  A    between atoms: C6_10  and  C7_11 
REMARK    5  A    between atoms: C8_13  and  O2_14 
REMARK    6  A    between atoms: C10_16  and  O3_17 
REMARK    7  A    between atoms: C11_19  and  O4_20 
ROOT
HETATM    1  C2  UNL     1      10.572  17.527  86.733  1.00  0.00     0.678 A 
HETATM    2  N2  UNL     1       9.393  17.053  87.174  1.00  0.00    -0.189 N 
ATOM      3  H2  UNL     1       8.634  16.712  86.584  1.00  0.00     0.184 HD
HETATM    4  C3  UNL     1       9.376  17.103  88.512  1.00  0.00     0.085 A 
HETATM    5  C4  UNL     1       8.365  16.719  89.393  1.00  0.00    -0.001 A 
HETATM    6  C12 UNL     1       8.622  16.885  90.737  1.00  0.00     0.059 A 
HETATM    7  N3  UNL     1       7.705  16.542  91.652  1.00  0.00    -0.329 N 
ATOM      8  H3  UNL     1       6.820  16.157  91.323  1.00  0.00     0.168 HD
HETATM    9  C13 UNL     1       7.884  16.675  92.981  1.00  0.00     0.195 A 
HETATM   10  N4  UNL     1       6.895  16.305  93.925  1.00  0.00    -0.063 NA
HETATM   11  N5  UNL     1       9.031  17.174  93.422  1.00  0.00    -0.297 N 
ATOM     12  H5  UNL     1       9.181  17.282  94.425  1.00  0.00     0.171 HD
HETATM   13  C14 UNL     1       9.999  17.539  92.562  1.00  0.00     0.260 A 
HETATM   14  O5  UNL     1      11.082  18.012  93.006  1.00  0.00    -0.267 OA
HETATM   15  C15 UNL     1       9.820  17.404  91.200  1.00  0.00     0.062 A 
HETATM   16  C16 UNL     1      10.790  17.771  90.289  1.00  0.00     0.052 A 
HETATM   17  C17 UNL     1      10.574  17.623  88.940  1.00  0.00     0.078 A 
HETATM   18  N6  UNL     1      11.278  17.869  87.830  1.00  0.00    -0.190 N 
ATOM     19  H6  UNL     1      12.220  18.261  87.814  1.00  0.00     0.184 HD
ENDROOT
BRANCH   5  20
HETATM   20  C5  UNL     1       7.113  16.175  88.860  1.00  0.00     0.046 C 
BRANCH  20  21
HETATM   21  C6  UNL     1       6.257  17.305  88.308  1.00  0.00     0.039 C 
BRANCH  21  22
HETATM   22  C7  UNL     1       4.868  16.759  88.021  1.00  0.00     0.156 C 
HETATM   23  O1  UNL     1       3.991  17.772  87.729  1.00  0.00    -0.351 OA
HETATM   24  C8  UNL     1       3.736  17.760  86.360  1.00  0.00     0.290 C 
HETATM   25  C10 UNL     1       3.630  16.248  86.111  1.00  0.00     0.204 C 
HETATM   26  C11 UNL     1       4.885  15.796  86.871  1.00  0.00     0.180 C 
BRANCH  24  27
HETATM   27  O2  UNL     1       4.833  18.278  85.711  1.00  0.00    -0.363 OA
HETATM   28  C9  UNL     1       4.730  19.634  85.453  1.00  0.00     0.204 C 
ENDBRANCH  24  27
BRANCH  25  29
HETATM   29  O3  UNL     1       2.554  15.733  86.788  1.00  0.00    -0.388 OA
ATOM     30  H3  UNL     1       1.919  15.382  86.174  1.00  0.00     0.210 HD
ENDBRANCH  25  29
BRANCH  26  31
HETATM   31  O4  UNL     1       4.824  14.476  87.232  1.00  0.00    -0.390 OA
ATOM     32  H4  UNL     1       4.608  13.881  86.523  1.00  0.00     0.210 HD
ENDBRANCH  26  31
ENDBRANCH  21  22
ENDBRANCH  20  21
ENDBRANCH   5  20
BRANCH   1  33
HETATM   33  N1  UNL     1      10.951  17.625  85.372  1.00  0.00    -0.230 N 
HETATM   34  C1  UNL     1       9.940  18.023  84.395  1.00  0.00     0.165 C 
ATOM     35  H1  UNL     1      11.907  17.422  85.080  1.00  0.00     0.177 HD
ENDBRANCH   1  33
TORSDOF 7
ENDMDL
