MODEL 2
REMARK VINA RESULT: -6.406215832      2.445      3.054
REMARK  6 active torsions:
REMARK  status: ('A' for Active; 'I' for Inactive)
REMARK    1  A    between atoms: N1_4  and  C4_5 
REMARK    2  A    between atoms: C6_7  and  N2_8 
REMARK    3  A    between atoms: N2_8  and  N3_10 
REMARK    4  A    between atoms: N3_10  and  N4_11 
REMARK    5  A    between atoms: C7_14  and  C8_15 
REMARK    6  A    between atoms: C8_15  and  O1_16 
ROOT
HETATM    1  C4  UNL     1      35.572 -12.533  -2.122  1.00  0.00     0.234 C 
HETATM    2  C5  UNL     1      35.176 -11.153  -2.525  1.00  0.00     0.084 C 
HETATM    3  C6  UNL     1      36.210 -10.303  -1.775  1.00  0.00     0.149 C 
HETATM    4  C7  UNL     1      36.795 -11.336  -0.832  1.00  0.00     0.172 C 
HETATM    5  O2  UNL     1      35.834 -12.362  -0.744  1.00  0.00    -0.357 OA
ENDROOT
BRANCH   1   6
HETATM    6  N1  UNL     1      34.626 -13.550  -2.393  1.00  0.00    -0.282 N 
HETATM    7  C3  UNL     1      33.299 -13.410  -2.309  1.00  0.00     0.110 A 
HETATM    8  C2  UNL     1      32.411 -14.453  -2.589  1.00  0.00     0.022 A 
HETATM    9  C1  UNL     1      30.942 -14.269  -2.488  1.00  0.00     0.056 C 
HETATM   10  C10 UNL     1      32.954 -15.664  -2.963  1.00  0.00     0.256 A 
HETATM   11  N5  UNL     1      34.285 -15.804  -3.046  1.00  0.00    -0.275 N 
HETATM   12  O4  UNL     1      32.145 -16.609  -3.217  1.00  0.00    -0.267 OA
HETATM   13  C9  UNL     1      35.095 -14.776  -2.769  1.00  0.00     0.331 A 
ATOM     14  H5  UNL     1      34.683 -16.701  -3.324  1.00  0.00     0.173 HD
HETATM   15  O3  UNL     1      36.332 -14.955  -2.860  1.00  0.00    -0.246 OA
ENDBRANCH   1   6
BRANCH   3  16
HETATM   16  N2  UNL     1      37.267  -9.874  -2.649  1.00  0.00    -0.245 N 
ATOM     17  H2  UNL     1      37.037  -9.351  -3.493  1.00  0.00     0.197 HD
BRANCH  16  18
HETATM   18  N3  UNL     1      38.433 -10.124  -2.399  1.00  0.00    -0.248 NA
BRANCH  18  19
HETATM   19  N4  UNL     1      39.644 -10.226  -2.329  1.00  0.00    -0.261 N 
ATOM     20  H42 UNL     1      39.694  -9.300  -1.904  1.00  0.00     0.193 HD
ATOM     21  H41 UNL     1      40.629 -10.489  -2.354  1.00  0.00     0.193 HD
ENDBRANCH  18  19
ENDBRANCH  16  18
ENDBRANCH   3  16
BRANCH   4  22
HETATM   22  C8  UNL     1      37.099 -10.749   0.524  1.00  0.00     0.198 C 
BRANCH  22  23
HETATM   23  O1  UNL     1      37.225  -9.384   0.497  1.00  0.00    -0.398 OA
ATOM     24  H1  UNL     1      37.165  -8.990   1.359  1.00  0.00     0.209 HD
ENDBRANCH  22  23
ENDBRANCH   4  22
TORSDOF 6
ENDMDL
