MODEL 1
REMARK VINA RESULT: -6.849580458      0.000      0.000
REMARK  6 active torsions:
REMARK  status: ('A' for Active; 'I' for Inactive)
REMARK    1  A    between atoms: N1_4  and  C4_5 
REMARK    2  A    between atoms: C6_7  and  N2_8 
REMARK    3  A    between atoms: N2_8  and  N3_10 
REMARK    4  A    between atoms: N3_10  and  N4_11 
REMARK    5  A    between atoms: C7_14  and  C8_15 
REMARK    6  A    between atoms: C8_15  and  O1_16 
ROOT
HETATM    1  C4  UNL     1      35.607 -12.587  -0.711  1.00  0.00     0.234 C 
HETATM    2  C5  UNL     1      36.692 -13.439  -0.144  1.00  0.00     0.084 C 
HETATM    3  C6  UNL     1      37.825 -12.419   0.032  1.00  0.00     0.149 C 
HETATM    4  C7  UNL     1      37.282 -11.252  -0.768  1.00  0.00     0.172 C 
HETATM    5  O2  UNL     1      36.321 -11.799  -1.641  1.00  0.00    -0.357 OA
ENDROOT
BRANCH   1   6
HETATM    6  N1  UNL     1      34.514 -13.280  -1.284  1.00  0.00    -0.282 N 
HETATM    7  C3  UNL     1      34.590 -14.465  -1.899  1.00  0.00     0.110 A 
HETATM    8  C2  UNL     1      33.474 -15.104  -2.448  1.00  0.00     0.022 A 
HETATM    9  C1  UNL     1      33.588 -16.419  -3.125  1.00  0.00     0.056 C 
HETATM   10  C10 UNL     1      32.258 -14.462  -2.336  1.00  0.00     0.256 A 
HETATM   11  N5  UNL     1      32.183 -13.274  -1.720  1.00  0.00    -0.275 N 
HETATM   12  O4  UNL     1      31.247 -15.044  -2.836  1.00  0.00    -0.267 OA
HETATM   13  C9  UNL     1      33.279 -12.702  -1.210  1.00  0.00     0.331 A 
ATOM     14  H5  UNL     1      31.282 -12.803  -1.638  1.00  0.00     0.173 HD
HETATM   15  O3  UNL     1      33.159 -11.590  -0.642  1.00  0.00    -0.246 OA
ENDBRANCH   1   6
BRANCH   3  16
HETATM   16  N2  UNL     1      37.933 -11.989   1.399  1.00  0.00    -0.245 N 
ATOM     17  H2  UNL     1      37.107 -12.008   1.996  1.00  0.00     0.197 HD
BRANCH  16  18
HETATM   18  N3  UNL     1      38.993 -11.602   1.856  1.00  0.00    -0.248 NA
BRANCH  18  19
HETATM   19  N4  UNL     1      40.082 -11.114   2.101  1.00  0.00    -0.261 N 
ATOM     20  H42 UNL     1      40.207 -10.907   1.110  1.00  0.00     0.193 HD
ATOM     21  H41 UNL     1      40.951 -10.754   2.493  1.00  0.00     0.193 HD
ENDBRANCH  18  19
ENDBRANCH  16  18
ENDBRANCH   3  16
BRANCH   4  22
HETATM   22  C8  UNL     1      38.371 -10.537  -1.527  1.00  0.00     0.198 C 
BRANCH  22  23
HETATM   23  O1  UNL     1      39.594 -10.624  -0.911  1.00  0.00    -0.398 OA
ATOM     24  H1  UNL     1      40.104 -11.368  -1.207  1.00  0.00     0.209 HD
ENDBRANCH  22  23
ENDBRANCH   4  22
TORSDOF 6
ENDMDL
