MODEL 3
REMARK VINA RESULT: -6.405050374      2.852      4.022
REMARK  6 active torsions:
REMARK  status: ('A' for Active; 'I' for Inactive)
REMARK    1  A    between atoms: N1_4  and  C4_5 
REMARK    2  A    between atoms: C6_7  and  N2_8 
REMARK    3  A    between atoms: N2_8  and  N3_10 
REMARK    4  A    between atoms: N3_10  and  N4_11 
REMARK    5  A    between atoms: C7_14  and  C8_15 
REMARK    6  A    between atoms: C8_15  and  O1_16 
ROOT
HETATM    1  C4  UNL     1      37.700 -10.886  -0.032  1.00  0.00     0.234 C 
HETATM    2  C5  UNL     1      37.968  -9.433  -0.231  1.00  0.00     0.084 C 
HETATM    3  C6  UNL     1      38.629  -9.055   1.101  1.00  0.00     0.149 C 
HETATM    4  C7  UNL     1      38.319 -10.286   1.930  1.00  0.00     0.172 C 
HETATM    5  O2  UNL     1      37.225 -10.907   1.299  1.00  0.00    -0.357 OA
ENDROOT
BRANCH   1   6
HETATM    6  N1  UNL     1      36.809 -11.482  -0.956  1.00  0.00    -0.282 N 
HETATM    7  C3  UNL     1      35.699 -10.911  -1.434  1.00  0.00     0.110 A 
HETATM    8  C2  UNL     1      34.855 -11.549  -2.348  1.00  0.00     0.022 A 
HETATM    9  C1  UNL     1      33.628 -10.891  -2.862  1.00  0.00     0.056 C 
HETATM   10  C10 UNL     1      35.207 -12.819  -2.755  1.00  0.00     0.256 A 
HETATM   11  N5  UNL     1      36.321 -13.391  -2.276  1.00  0.00    -0.275 N 
HETATM   12  O4  UNL     1      34.439 -13.396  -3.586  1.00  0.00    -0.267 OA
HETATM   13  C9  UNL     1      37.097 -12.740  -1.402  1.00  0.00     0.331 A 
ATOM     14  H5  UNL     1      36.578 -14.330  -2.580  1.00  0.00     0.173 HD
HETATM   15  O3  UNL     1      38.129 -13.316  -0.982  1.00  0.00    -0.246 OA
ENDBRANCH   1   6
BRANCH   3  16
HETATM   16  N2  UNL     1      40.058  -8.975   0.971  1.00  0.00    -0.245 N 
ATOM     17  H2  UNL     1      40.527  -9.524   0.252  1.00  0.00     0.197 HD
BRANCH  16  18
HETATM   18  N3  UNL     1      40.719  -8.261   1.704  1.00  0.00    -0.248 NA
BRANCH  18  19
HETATM   19  N4  UNL     1      41.169  -7.470   2.512  1.00  0.00    -0.261 N 
ATOM     20  H42 UNL     1      40.220  -7.224   2.795  1.00  0.00     0.193 HD
ATOM     21  H41 UNL     1      41.723  -6.867   3.121  1.00  0.00     0.193 HD
ENDBRANCH  18  19
ENDBRANCH  16  18
ENDBRANCH   3  16
BRANCH   4  22
HETATM   22  C8  UNL     1      38.002  -9.933   3.361  1.00  0.00     0.198 C 
BRANCH  22  23
HETATM   23  O1  UNL     1      36.659  -9.760   3.581  1.00  0.00    -0.398 OA
ATOM     24  H1  UNL     1      36.463  -8.962   4.059  1.00  0.00     0.209 HD
ENDBRANCH  22  23
ENDBRANCH   4  22
TORSDOF 6
ENDMDL
