MODEL 17
REMARK VINA RESULT: -6.008680391      5.590      7.021
REMARK  6 active torsions:
REMARK  status: ('A' for Active; 'I' for Inactive)
REMARK    1  A    between atoms: N1_4  and  C4_5 
REMARK    2  A    between atoms: C6_7  and  N2_8 
REMARK    3  A    between atoms: N2_8  and  N3_10 
REMARK    4  A    between atoms: N3_10  and  N4_11 
REMARK    5  A    between atoms: C7_14  and  C8_15 
REMARK    6  A    between atoms: C8_15  and  O1_16 
ROOT
HETATM    1  C4  UNL     1      31.075 -12.071  -4.189  1.00  0.00     0.234 C 
HETATM    2  C5  UNL     1      31.764 -10.902  -3.571  1.00  0.00     0.084 C 
HETATM    3  C6  UNL     1      31.137  -9.732  -4.339  1.00  0.00     0.149 C 
HETATM    4  C7  UNL     1      30.450 -10.471  -5.471  1.00  0.00     0.172 C 
HETATM    5  O2  UNL     1      31.094 -11.721  -5.557  1.00  0.00    -0.357 OA
ENDROOT
BRANCH   1   6
HETATM    6  N1  UNL     1      31.649 -13.337  -3.924  1.00  0.00    -0.282 N 
HETATM    7  C3  UNL     1      32.959 -13.580  -3.811  1.00  0.00     0.110 A 
HETATM    8  C2  UNL     1      33.471 -14.854  -3.548  1.00  0.00     0.022 A 
HETATM    9  C1  UNL     1      34.930 -15.095  -3.427  1.00  0.00     0.056 C 
HETATM   10  C10 UNL     1      32.563 -15.884  -3.405  1.00  0.00     0.256 A 
HETATM   11  N5  UNL     1      31.250 -15.639  -3.519  1.00  0.00    -0.275 N 
HETATM   12  O4  UNL     1      33.031 -17.040  -3.167  1.00  0.00    -0.267 OA
HETATM   13  C9  UNL     1      30.808 -14.402  -3.772  1.00  0.00     0.331 A 
ATOM     14  H5  UNL     1      30.583 -16.402  -3.413  1.00  0.00     0.173 HD
HETATM   15  O3  UNL     1      29.571 -14.222  -3.870  1.00  0.00    -0.246 OA
ENDBRANCH   1   6
BRANCH   3  16
HETATM   16  N2  UNL     1      30.112  -9.087  -3.565  1.00  0.00    -0.245 N 
ATOM     17  H2  UNL     1      29.399  -9.654  -3.107  1.00  0.00     0.197 HD
BRANCH  16  18
HETATM   18  N3  UNL     1      30.079  -7.875  -3.446  1.00  0.00    -0.248 NA
BRANCH  18  19
HETATM   19  N4  UNL     1      30.240  -6.668  -3.464  1.00  0.00    -0.261 N 
ATOM     20  H42 UNL     1      29.380  -6.565  -4.002  1.00  0.00     0.193 HD
ATOM     21  H41 UNL     1      30.538  -5.697  -3.374  1.00  0.00     0.193 HD
ENDBRANCH  18  19
ENDBRANCH  16  18
ENDBRANCH   3  16
BRANCH   4  22
HETATM   22  C8  UNL     1      30.540  -9.714  -6.772  1.00  0.00     0.198 C 
BRANCH  22  23
HETATM   23  O1  UNL     1      29.906  -8.498  -6.725  1.00  0.00    -0.398 OA
ATOM     24  H1  UNL     1      29.433  -8.359  -5.913  1.00  0.00     0.209 HD
ENDBRANCH  22  23
ENDBRANCH   4  22
TORSDOF 6
ENDMDL
