MODEL 9
REMARK VINA RESULT: -7.925409304      5.967      7.461
REMARK  8 active torsions:
REMARK  status: ('A' for Active; 'I' for Inactive)
REMARK    1  A    between atoms: N4_10  and  C5_11 
REMARK    2  A    between atoms: C6_13  and  C7_14 
REMARK    3  A    between atoms: C7_14  and  O2_15 
REMARK    4  A    between atoms: O2_15  and  P1_16 
REMARK    5  A    between atoms: P1_16  and  O5_19 
REMARK    6  A    between atoms: O5_19  and  P2_20 
REMARK    7  A    between atoms: C8_24  and  O9_25 
REMARK    8  A    between atoms: C9_27  and  O10_28 
ROOT
HETATM    1  C5  UNL     1      -1.234  42.343  28.963  1.00  0.00     0.262 C 
HETATM    2  O1  UNL     1      -2.616  42.261  29.125  1.00  0.00    -0.353 OA
HETATM    3  C6  UNL     1      -2.990  40.957  28.969  1.00  0.00     0.180 C 
HETATM    4  C8  UNL     1      -1.856  40.074  29.417  1.00  0.00     0.182 C 
HETATM    5  C9  UNL     1      -0.719  41.068  29.550  1.00  0.00     0.198 C 
ENDROOT
BRANCH   1   6
HETATM    6  N4  UNL     1      -0.816  43.517  29.724  1.00  0.00    -0.297 N 
HETATM    7  C2  UNL     1      -1.576  44.125  30.669  1.00  0.00     0.146 A 
HETATM    8  N2  UNL     1      -2.810  43.860  31.139  1.00  0.00    -0.314 N 
HETATM    9  C3  UNL     1      -0.816  45.184  31.140  1.00  0.00     0.146 A 
HETATM   10  C1  UNL     1      -3.305  44.650  32.088  1.00  0.00     0.196 A 
ATOM     11  H2  UNL     1      -3.351  43.075  30.777  1.00  0.00     0.170 HD
HETATM   12  N1  UNL     1      -4.603  44.388  32.597  1.00  0.00    -0.063 NA
HETATM   13  N5  UNL     1      -2.603  45.692  32.579  1.00  0.00    -0.295 N 
HETATM   14  C10 UNL     1      -1.367  45.981  32.128  1.00  0.00     0.278 A 
ATOM     15  H5  UNL     1      -3.018  46.274  33.307  1.00  0.00     0.171 HD
HETATM   16  O11 UNL     1      -0.704  46.970  32.593  1.00  0.00    -0.265 OA
HETATM   17  N3  UNL     1       0.378  45.216  30.495  1.00  0.00    -0.345 N 
HETATM   18  C4  UNL     1       0.361  44.187  29.629  1.00  0.00     0.188 A 
ATOM     19  H3  UNL     1       1.135  45.886  30.638  1.00  0.00     0.167 HD
ENDBRANCH   1   6
BRANCH   5  20
HETATM   20  O10 UNL     1       0.349  40.531  28.801  1.00  0.00    -0.388 OA
ATOM     21  H10 UNL     1       0.252  40.693  27.870  1.00  0.00     0.210 HD
ENDBRANCH   5  20
BRANCH   3  22
HETATM   22  C7  UNL     1      -4.207  40.589  29.769  1.00  0.00     0.216 C 
BRANCH  22  23
HETATM   23  O2  UNL     1      -4.922  39.638  29.042  1.00  0.00    -0.287 OA
BRANCH  23  24
HETATM   24  P1  UNL     1      -5.965  38.741  29.745  1.00  0.00     0.418 P 
HETATM   25  O3  UNL     1      -6.593  38.344  28.271  1.00  0.00    -0.624 OA
HETATM   26  O4  UNL     1      -4.664  37.833  30.309  1.00  0.00    -0.624 OA
BRANCH  24  27
HETATM   27  O5  UNL     1      -6.872  37.692  30.410  1.00  0.00    -0.173 OA
BRANCH  27  28
HETATM   28  P2  UNL     1      -6.770  36.164  30.549  1.00  0.00     0.431 P 
HETATM   29  O6  UNL     1      -6.730  34.621  30.402  1.00  0.00    -0.616 OA
HETATM   30  O7  UNL     1      -8.262  36.128  29.797  1.00  0.00    -0.616 OA
HETATM   31  O8  UNL     1      -6.771  36.178  32.178  1.00  0.00    -0.616 OA
ENDBRANCH  27  28
ENDBRANCH  24  27
ENDBRANCH  23  24
ENDBRANCH  22  23
ENDBRANCH   3  22
BRANCH   4  32
HETATM   32  O9  UNL     1      -1.626  39.150  28.393  1.00  0.00    -0.390 OA
ATOM     33  H9  UNL     1      -0.718  39.245  28.131  1.00  0.00     0.210 HD
ENDBRANCH   4  32
TORSDOF 8
ENDMDL
