MODEL 2
REMARK VINA RESULT: -8.861664408      0.713      1.061
REMARK  8 active torsions:
REMARK  status: ('A' for Active; 'I' for Inactive)
REMARK    1  A    between atoms: N4_10  and  C5_11 
REMARK    2  A    between atoms: C6_13  and  C7_14 
REMARK    3  A    between atoms: C7_14  and  O2_15 
REMARK    4  A    between atoms: O2_15  and  P1_16 
REMARK    5  A    between atoms: P1_16  and  O5_19 
REMARK    6  A    between atoms: O5_19  and  P2_20 
REMARK    7  A    between atoms: C8_24  and  O9_25 
REMARK    8  A    between atoms: C9_27  and  O10_28 
ROOT
HETATM    1  C5  UNL     1      -7.219  42.160  25.369  1.00  0.00     0.262 C 
HETATM    2  O1  UNL     1      -6.840  40.891  25.806  1.00  0.00    -0.353 OA
HETATM    3  C6  UNL     1      -5.492  40.764  25.637  1.00  0.00     0.180 C 
HETATM    4  C8  UNL     1      -4.859  42.123  25.779  1.00  0.00     0.182 C 
HETATM    5  C9  UNL     1      -6.068  43.036  25.746  1.00  0.00     0.198 C 
ENDROOT
BRANCH   1   6
HETATM    6  N4  UNL     1      -8.435  42.486  26.110  1.00  0.00    -0.297 N 
HETATM    7  C2  UNL     1      -9.387  43.349  25.673  1.00  0.00     0.146 A 
HETATM    8  N2  UNL     1      -9.488  44.085  24.550  1.00  0.00    -0.314 N 
HETATM    9  C3  UNL     1     -10.357  43.371  26.662  1.00  0.00     0.146 A 
HETATM   10  C1  UNL     1     -10.560  44.856  24.396  1.00  0.00     0.196 A 
ATOM     11  H2  UNL     1      -8.760  44.053  23.835  1.00  0.00     0.170 HD
HETATM   12  N1  UNL     1     -10.686  45.638  23.220  1.00  0.00    -0.063 NA
HETATM   13  N5  UNL     1     -11.532  44.910  25.330  1.00  0.00    -0.295 N 
HETATM   14  C10 UNL     1     -11.459  44.185  26.463  1.00  0.00     0.278 A 
ATOM     15  H5  UNL     1     -12.340  45.513  25.175  1.00  0.00     0.171 HD
HETATM   16  O11 UNL     1     -12.380  44.239  27.348  1.00  0.00    -0.265 OA
HETATM   17  N3  UNL     1     -10.002  42.539  27.674  1.00  0.00    -0.345 N 
HETATM   18  C4  UNL     1      -8.819  42.005  27.319  1.00  0.00     0.188 A 
ATOM     19  H3  UNL     1     -10.525  42.357  28.531  1.00  0.00     0.167 HD
ENDBRANCH   1   6
BRANCH   5  20
HETATM   20  O10 UNL     1      -5.791  44.004  24.757  1.00  0.00    -0.388 OA
ATOM     21  H10 UNL     1      -5.054  44.555  24.992  1.00  0.00     0.210 HD
ENDBRANCH   5  20
BRANCH   3  22
HETATM   22  C7  UNL     1      -4.851  39.848  26.641  1.00  0.00     0.216 C 
BRANCH  22  23
HETATM   23  O2  UNL     1      -5.719  39.733  27.726  1.00  0.00    -0.287 OA
BRANCH  23  24
HETATM   24  P1  UNL     1      -6.167  38.340  28.221  1.00  0.00     0.418 P 
HETATM   25  O3  UNL     1      -4.657  37.757  27.898  1.00  0.00    -0.624 OA
HETATM   26  O4  UNL     1      -6.420  39.060  29.723  1.00  0.00    -0.624 OA
BRANCH  24  27
HETATM   27  O5  UNL     1      -6.532  37.008  28.897  1.00  0.00    -0.173 OA
BRANCH  27  28
HETATM   28  P2  UNL     1      -6.882  36.635  30.347  1.00  0.00     0.431 P 
HETATM   29  O6  UNL     1      -6.951  36.315  31.862  1.00  0.00    -0.616 OA
HETATM   30  O7  UNL     1      -5.577  35.596  30.257  1.00  0.00    -0.616 OA
HETATM   31  O8  UNL     1      -8.341  36.013  29.977  1.00  0.00    -0.616 OA
ENDBRANCH  27  28
ENDBRANCH  24  27
ENDBRANCH  23  24
ENDBRANCH  22  23
ENDBRANCH   3  22
BRANCH   4  32
HETATM   32  O9  UNL     1      -4.032  42.309  24.667  1.00  0.00    -0.390 OA
ATOM     33  H9  UNL     1      -4.600  42.426  23.914  1.00  0.00     0.210 HD
ENDBRANCH   4  32
TORSDOF 8
ENDMDL
