MODEL 1
REMARK VINA RESULT: -9.149185667      0.000      0.000
REMARK  8 active torsions:
REMARK  status: ('A' for Active; 'I' for Inactive)
REMARK    1  A    between atoms: N4_10  and  C5_11 
REMARK    2  A    between atoms: C6_13  and  C7_14 
REMARK    3  A    between atoms: C7_14  and  O2_15 
REMARK    4  A    between atoms: O2_15  and  P1_16 
REMARK    5  A    between atoms: P1_16  and  O5_19 
REMARK    6  A    between atoms: O5_19  and  P2_20 
REMARK    7  A    between atoms: C8_24  and  O9_25 
REMARK    8  A    between atoms: C9_27  and  O10_28 
ROOT
HETATM    1  C5  UNL     1      -7.399  41.993  25.476  1.00  0.00     0.262 C 
HETATM    2  O1  UNL     1      -7.249  40.706  25.990  1.00  0.00    -0.353 OA
HETATM    3  C6  UNL     1      -5.930  40.365  25.912  1.00  0.00     0.180 C 
HETATM    4  C8  UNL     1      -5.101  41.615  26.035  1.00  0.00     0.182 C 
HETATM    5  C9  UNL     1      -6.148  42.701  25.887  1.00  0.00     0.198 C 
ENDROOT
BRANCH   1   6
HETATM    6  N4  UNL     1      -8.589  42.541  26.124  1.00  0.00    -0.297 N 
HETATM    7  C2  UNL     1      -9.411  43.460  25.559  1.00  0.00     0.146 A 
HETATM    8  N2  UNL     1      -9.384  44.078  24.362  1.00  0.00    -0.314 N 
HETATM    9  C3  UNL     1     -10.402  43.705  26.495  1.00  0.00     0.146 A 
HETATM   10  C1  UNL     1     -10.347  44.951  24.083  1.00  0.00     0.196 A 
ATOM     11  H2  UNL     1      -8.644  43.882  23.689  1.00  0.00     0.170 HD
HETATM   12  N1  UNL     1     -10.337  45.612  22.828  1.00  0.00    -0.063 NA
HETATM   13  N5  UNL     1     -11.334  45.222  24.962  1.00  0.00    -0.295 N 
HETATM   14  C10 UNL     1     -11.387  44.619  26.165  1.00  0.00     0.278 A 
ATOM     15  H5  UNL     1     -12.055  45.898  24.709  1.00  0.00     0.171 HD
HETATM   16  O11 UNL     1     -12.322  44.879  26.997  1.00  0.00    -0.265 OA
HETATM   17  N3  UNL     1     -10.186  42.950  27.603  1.00  0.00    -0.345 N 
HETATM   18  C4  UNL     1      -9.068  42.243  27.358  1.00  0.00     0.188 A 
ATOM     19  H3  UNL     1     -10.754  42.925  28.450  1.00  0.00     0.167 HD
ENDBRANCH   1   6
BRANCH   5  20
HETATM   20  O10 UNL     1      -5.668  43.562  24.877  1.00  0.00    -0.388 OA
ATOM     21  H10 UNL     1      -4.761  43.385  24.657  1.00  0.00     0.210 HD
ENDBRANCH   5  20
BRANCH   3  22
HETATM   22  C7  UNL     1      -5.498  39.415  26.993  1.00  0.00     0.216 C 
BRANCH  22  23
HETATM   23  O2  UNL     1      -6.170  39.767  28.162  1.00  0.00    -0.287 OA
BRANCH  23  24
HETATM   24  P1  UNL     1      -6.534  38.688  29.207  1.00  0.00     0.418 P 
HETATM   25  O3  UNL     1      -5.093  37.938  28.911  1.00  0.00    -0.624 OA
HETATM   26  O4  UNL     1      -6.548  39.929  30.345  1.00  0.00    -0.624 OA
BRANCH  24  27
HETATM   27  O5  UNL     1      -6.787  37.727  30.381  1.00  0.00    -0.173 OA
BRANCH  27  28
HETATM   28  P2  UNL     1      -6.687  36.199  30.518  1.00  0.00     0.431 P 
HETATM   29  O6  UNL     1      -6.634  34.657  30.366  1.00  0.00    -0.616 OA
HETATM   30  O7  UNL     1      -8.141  36.161  29.698  1.00  0.00    -0.616 OA
HETATM   31  O8  UNL     1      -6.763  36.205  32.145  1.00  0.00    -0.616 OA
ENDBRANCH  27  28
ENDBRANCH  24  27
ENDBRANCH  23  24
ENDBRANCH  22  23
ENDBRANCH   3  22
BRANCH   4  32
HETATM   32  O9  UNL     1      -4.195  41.613  24.970  1.00  0.00    -0.390 OA
ATOM     33  H9  UNL     1      -3.488  41.023  25.206  1.00  0.00     0.210 HD
ENDBRANCH   4  32
TORSDOF 8
ENDMDL
