MODEL 7
REMARK VINA RESULT: -8.180142818      1.341      1.750
REMARK  8 active torsions:
REMARK  status: ('A' for Active; 'I' for Inactive)
REMARK    1  A    between atoms: N4_10  and  C5_11 
REMARK    2  A    between atoms: C6_13  and  C7_14 
REMARK    3  A    between atoms: C7_14  and  O2_15 
REMARK    4  A    between atoms: O2_15  and  P1_16 
REMARK    5  A    between atoms: P1_16  and  O5_19 
REMARK    6  A    between atoms: O5_19  and  P2_20 
REMARK    7  A    between atoms: C8_24  and  O9_25 
REMARK    8  A    between atoms: C9_27  and  O10_28 
ROOT
HETATM    1  C5  UNL     1      -7.983  41.510  26.019  1.00  0.00     0.262 C 
HETATM    2  O1  UNL     1      -7.798  40.496  26.958  1.00  0.00    -0.353 OA
HETATM    3  C6  UNL     1      -6.506  40.065  26.876  1.00  0.00     0.180 C 
HETATM    4  C8  UNL     1      -5.642  41.216  26.436  1.00  0.00     0.182 C 
HETATM    5  C9  UNL     1      -6.676  42.236  26.002  1.00  0.00     0.198 C 
ENDROOT
BRANCH   1   6
HETATM    6  N4  UNL     1      -9.073  42.334  26.536  1.00  0.00    -0.297 N 
HETATM    7  C2  UNL     1      -9.708  43.295  25.820  1.00  0.00     0.146 A 
HETATM    8  N2  UNL     1      -9.546  43.733  24.556  1.00  0.00    -0.314 N 
HETATM    9  C3  UNL     1     -10.663  43.829  26.670  1.00  0.00     0.146 A 
HETATM   10  C1  UNL     1     -10.335  44.711  24.123  1.00  0.00     0.196 A 
ATOM     11  H2  UNL     1      -8.836  43.325  23.948  1.00  0.00     0.170 HD
HETATM   12  N1  UNL     1     -10.180  45.186  22.795  1.00  0.00    -0.063 NA
HETATM   13  N5  UNL     1     -11.279  45.262  24.913  1.00  0.00    -0.295 N 
HETATM   14  C10 UNL     1     -11.465  44.845  26.181  1.00  0.00     0.278 A 
ATOM     15  H5  UNL     1     -11.865  46.011  24.543  1.00  0.00     0.171 HD
HETATM   16  O11 UNL     1     -12.359  45.369  26.928  1.00  0.00    -0.265 OA
HETATM   17  N3  UNL     1     -10.607  43.204  27.875  1.00  0.00    -0.345 N 
HETATM   18  C4  UNL     1      -9.625  42.291  27.774  1.00  0.00     0.188 A 
ATOM     19  H3  UNL     1     -11.191  43.391  28.691  1.00  0.00     0.167 HD
ENDBRANCH   1   6
BRANCH   5  20
HETATM   20  O10 UNL     1      -6.303  42.630  24.699  1.00  0.00    -0.388 OA
ATOM     21  H10 UNL     1      -5.361  42.688  24.598  1.00  0.00     0.210 HD
ENDBRANCH   5  20
BRANCH   3  22
HETATM   22  C7  UNL     1      -5.967  39.555  28.183  1.00  0.00     0.216 C 
BRANCH  22  23
HETATM   23  O2  UNL     1      -6.775  38.496  28.592  1.00  0.00    -0.287 OA
BRANCH  23  24
HETATM   24  P1  UNL     1      -6.181  37.342  29.431  1.00  0.00     0.418 P 
HETATM   25  O3  UNL     1      -7.688  36.679  29.555  1.00  0.00    -0.624 OA
HETATM   26  O4  UNL     1      -5.267  36.950  28.072  1.00  0.00    -0.624 OA
BRANCH  24  27
HETATM   27  O5  UNL     1      -5.581  36.087  30.088  1.00  0.00    -0.173 OA
BRANCH  27  28
HETATM   28  P2  UNL     1      -4.569  35.037  29.600  1.00  0.00     0.431 P 
HETATM   29  O6  UNL     1      -3.771  33.885  28.939  1.00  0.00    -0.616 OA
HETATM   30  O7  UNL     1      -5.758  33.918  29.954  1.00  0.00    -0.616 OA
HETATM   31  O8  UNL     1      -3.481  35.345  30.772  1.00  0.00    -0.616 OA
ENDBRANCH  27  28
ENDBRANCH  24  27
ENDBRANCH  23  24
ENDBRANCH  22  23
ENDBRANCH   3  22
BRANCH   4  32
HETATM   32  O9  UNL     1      -4.872  40.762  25.360  1.00  0.00    -0.390 OA
ATOM     33  H9  UNL     1      -5.379  40.090  24.918  1.00  0.00     0.210 HD
ENDBRANCH   4  32
TORSDOF 8
ENDMDL
