MODEL 4
REMARK VINA RESULT: -8.428466685      1.370      1.917
REMARK  8 active torsions:
REMARK  status: ('A' for Active; 'I' for Inactive)
REMARK    1  A    between atoms: N4_10  and  C5_11 
REMARK    2  A    between atoms: C6_13  and  C7_14 
REMARK    3  A    between atoms: C7_14  and  O2_15 
REMARK    4  A    between atoms: O2_15  and  P1_16 
REMARK    5  A    between atoms: P1_16  and  O5_19 
REMARK    6  A    between atoms: O5_19  and  P2_20 
REMARK    7  A    between atoms: C8_24  and  O9_25 
REMARK    8  A    between atoms: C9_27  and  O10_28 
ROOT
HETATM    1  C5  UNL     1      -7.982  41.141  26.324  1.00  0.00     0.262 C 
HETATM    2  O1  UNL     1      -7.993  40.105  27.256  1.00  0.00    -0.353 OA
HETATM    3  C6  UNL     1      -6.758  39.522  27.264  1.00  0.00     0.180 C 
HETATM    4  C8  UNL     1      -5.732  40.565  26.910  1.00  0.00     0.182 C 
HETATM    5  C9  UNL     1      -6.601  41.705  26.418  1.00  0.00     0.198 C 
ENDROOT
BRANCH   1   6
HETATM    6  N4  UNL     1      -9.003  42.085  26.771  1.00  0.00    -0.297 N 
HETATM    7  C2  UNL     1      -9.596  43.005  25.969  1.00  0.00     0.146 A 
HETATM    8  N2  UNL     1      -9.440  43.295  24.663  1.00  0.00    -0.314 N 
HETATM    9  C3  UNL     1     -10.491  43.687  26.777  1.00  0.00     0.146 A 
HETATM   10  C1  UNL     1     -10.177  44.272  24.143  1.00  0.00     0.196 A 
ATOM     11  H2  UNL     1      -8.774  42.779  24.088  1.00  0.00     0.170 HD
HETATM   12  N1  UNL     1     -10.029  44.593  22.769  1.00  0.00    -0.063 NA
HETATM   13  N5  UNL     1     -11.063  44.965  24.888  1.00  0.00    -0.295 N 
HETATM   14  C10 UNL     1     -11.240  44.697  26.197  1.00  0.00     0.278 A 
ATOM     15  H5  UNL     1     -11.610  45.707  24.452  1.00  0.00     0.171 HD
HETATM   16  O11 UNL     1     -12.078  45.355  26.902  1.00  0.00    -0.265 OA
HETATM   17  N3  UNL     1     -10.442  43.192  28.040  1.00  0.00    -0.345 N 
HETATM   18  C4  UNL     1      -9.523  42.210  28.018  1.00  0.00     0.188 A 
ATOM     19  H3  UNL     1     -10.991  43.501  28.842  1.00  0.00     0.167 HD
ENDBRANCH   1   6
BRANCH   5  20
HETATM   20  O10 UNL     1      -6.085  42.063  25.154  1.00  0.00    -0.388 OA
ATOM     21  H10 UNL     1      -6.725  41.950  24.462  1.00  0.00     0.210 HD
ENDBRANCH   5  20
BRANCH   3  22
HETATM   22  C7  UNL     1      -6.386  38.940  28.599  1.00  0.00     0.216 C 
BRANCH  22  23
HETATM   23  O2  UNL     1      -7.140  37.783  28.783  1.00  0.00    -0.287 OA
BRANCH  23  24
HETATM   24  P1  UNL     1      -6.614  36.645  29.687  1.00  0.00     0.418 P 
HETATM   25  O3  UNL     1      -6.023  37.774  30.737  1.00  0.00    -0.624 OA
HETATM   26  O4  UNL     1      -8.221  36.176  29.870  1.00  0.00    -0.624 OA
BRANCH  24  27
HETATM   27  O5  UNL     1      -6.267  35.535  30.692  1.00  0.00    -0.173 OA
BRANCH  27  28
HETATM   28  P2  UNL     1      -5.394  34.273  30.592  1.00  0.00     0.431 P 
HETATM   29  O6  UNL     1      -4.753  32.862  30.594  1.00  0.00    -0.616 OA
HETATM   30  O7  UNL     1      -5.841  33.997  32.177  1.00  0.00    -0.616 OA
HETATM   31  O8  UNL     1      -4.005  35.089  30.354  1.00  0.00    -0.616 OA
ENDBRANCH  27  28
ENDBRANCH  24  27
ENDBRANCH  23  24
ENDBRANCH  22  23
ENDBRANCH   3  22
BRANCH   4  32
HETATM   32  O9  UNL     1      -4.941  40.031  25.888  1.00  0.00    -0.390 OA
ATOM     33  H9  UNL     1      -4.277  39.492  26.302  1.00  0.00     0.210 HD
ENDBRANCH   4  32
TORSDOF 8
ENDMDL
