MODEL 12
REMARK VINA RESULT: -7.840355350      5.810      7.039
REMARK  8 active torsions:
REMARK  status: ('A' for Active; 'I' for Inactive)
REMARK    1  A    between atoms: N4_10  and  C5_11 
REMARK    2  A    between atoms: C6_13  and  C7_14 
REMARK    3  A    between atoms: C7_14  and  O2_15 
REMARK    4  A    between atoms: O2_15  and  P1_16 
REMARK    5  A    between atoms: P1_16  and  O5_19 
REMARK    6  A    between atoms: O5_19  and  P2_20 
REMARK    7  A    between atoms: C8_24  and  O9_25 
REMARK    8  A    between atoms: C9_27  and  O10_28 
ROOT
HETATM    1  C5  UNL     1      -2.842  41.861  29.301  1.00  0.00     0.262 C 
HETATM    2  O1  UNL     1      -2.425  40.637  29.822  1.00  0.00    -0.353 OA
HETATM    3  C6  UNL     1      -2.747  39.658  28.927  1.00  0.00     0.180 C 
HETATM    4  C8  UNL     1      -2.710  40.242  27.540  1.00  0.00     0.182 C 
HETATM    5  C9  UNL     1      -2.622  41.727  27.829  1.00  0.00     0.198 C 
ENDROOT
BRANCH   1   6
HETATM    6  N4  UNL     1      -1.972  42.865  29.908  1.00  0.00    -0.297 N 
HETATM    7  C2  UNL     1      -2.408  43.866  30.713  1.00  0.00     0.146 A 
HETATM    8  N2  UNL     1      -3.637  44.201  31.149  1.00  0.00    -0.314 N 
HETATM    9  C3  UNL     1      -1.277  44.584  31.068  1.00  0.00     0.146 A 
HETATM   10  C1  UNL     1      -3.756  45.258  31.947  1.00  0.00     0.196 A 
ATOM     11  H2  UNL     1      -4.456  43.658  30.875  1.00  0.00     0.170 HD
HETATM   12  N1  UNL     1      -5.043  45.627  32.418  1.00  0.00    -0.063 NA
HETATM   13  N5  UNL     1      -2.684  45.988  32.320  1.00  0.00    -0.295 N 
HETATM   14  C10 UNL     1      -1.443  45.677  31.900  1.00  0.00     0.278 A 
ATOM     15  H5  UNL     1      -2.817  46.791  32.934  1.00  0.00     0.171 HD
HETATM   16  O11 UNL     1      -0.429  46.370  32.254  1.00  0.00    -0.265 OA
HETATM   17  N3  UNL     1      -0.180  44.029  30.490  1.00  0.00    -0.345 N 
HETATM   18  C4  UNL     1      -0.626  42.976  29.782  1.00  0.00     0.188 A 
ATOM     19  H3  UNL     1       0.786  44.347  30.576  1.00  0.00     0.167 HD
ENDBRANCH   1   6
BRANCH   5  20
HETATM   20  O10 UNL     1      -3.657  42.326  27.079  1.00  0.00    -0.388 OA
ATOM     21  H10 UNL     1      -3.509  43.254  26.943  1.00  0.00     0.210 HD
ENDBRANCH   5  20
BRANCH   3  22
HETATM   22  C7  UNL     1      -1.804  38.488  28.962  1.00  0.00     0.216 C 
BRANCH  22  23
HETATM   23  O2  UNL     1      -2.570  37.328  29.056  1.00  0.00    -0.287 OA
BRANCH  23  24
HETATM   24  P1  UNL     1      -3.929  37.348  29.790  1.00  0.00     0.418 P 
HETATM   25  O3  UNL     1      -4.328  35.924  29.057  1.00  0.00    -0.624 OA
HETATM   26  O4  UNL     1      -3.049  37.268  31.223  1.00  0.00    -0.624 OA
BRANCH  24  27
HETATM   27  O5  UNL     1      -5.192  37.247  30.662  1.00  0.00    -0.173 OA
BRANCH  27  28
HETATM   28  P2  UNL     1      -6.596  36.676  30.402  1.00  0.00     0.431 P 
HETATM   29  O6  UNL     1      -7.997  36.254  29.891  1.00  0.00    -0.616 OA
HETATM   30  O7  UNL     1      -7.046  38.260  30.122  1.00  0.00    -0.616 OA
HETATM   31  O8  UNL     1      -6.795  36.115  31.919  1.00  0.00    -0.616 OA
ENDBRANCH  27  28
ENDBRANCH  24  27
ENDBRANCH  23  24
ENDBRANCH  22  23
ENDBRANCH   3  22
BRANCH   4  32
HETATM   32  O9  UNL     1      -3.915  39.900  26.919  1.00  0.00    -0.390 OA
ATOM     33  H9  UNL     1      -3.795  39.040  26.533  1.00  0.00     0.210 HD
ENDBRANCH   4  32
TORSDOF 8
ENDMDL
