MODEL 5
REMARK VINA RESULT: -8.239096231      6.276      7.817
REMARK  8 active torsions:
REMARK  status: ('A' for Active; 'I' for Inactive)
REMARK    1  A    between atoms: N4_10  and  C5_11 
REMARK    2  A    between atoms: C6_13  and  C7_14 
REMARK    3  A    between atoms: C7_14  and  O2_15 
REMARK    4  A    between atoms: O2_15  and  P1_16 
REMARK    5  A    between atoms: P1_16  and  O5_19 
REMARK    6  A    between atoms: O5_19  and  P2_20 
REMARK    7  A    between atoms: C8_24  and  O9_25 
REMARK    8  A    between atoms: C9_27  and  O10_28 
ROOT
HETATM    1  C5  UNL     1      -0.158  42.299  29.086  1.00  0.00     0.262 C 
HETATM    2  O1  UNL     1      -1.497  42.065  28.777  1.00  0.00    -0.353 OA
HETATM    3  C6  UNL     1      -1.672  40.722  28.617  1.00  0.00     0.180 C 
HETATM    4  C8  UNL     1      -0.689  39.999  29.498  1.00  0.00     0.182 C 
HETATM    5  C9  UNL     1       0.236  41.123  29.922  1.00  0.00     0.198 C 
ENDROOT
BRANCH   1   6
HETATM    6  N4  UNL     1      -0.138  43.550  29.839  1.00  0.00    -0.297 N 
HETATM    7  C2  UNL     1      -1.124  43.950  30.682  1.00  0.00     0.146 A 
HETATM    8  N2  UNL     1      -2.290  43.378  31.039  1.00  0.00    -0.314 N 
HETATM    9  C3  UNL     1      -0.717  45.175  31.184  1.00  0.00     0.146 A 
HETATM   10  C1  UNL     1      -3.068  44.021  31.905  1.00  0.00     0.196 A 
ATOM     11  H2  UNL     1      -2.569  42.474  30.656  1.00  0.00     0.170 HD
HETATM   12  N1  UNL     1      -4.299  43.436  32.294  1.00  0.00    -0.063 NA
HETATM   13  N5  UNL     1      -2.714  45.217  32.422  1.00  0.00    -0.295 N 
HETATM   14  C10 UNL     1      -1.554  45.812  32.083  1.00  0.00     0.278 A 
ATOM     15  H5  UNL     1      -3.338  45.678  33.083  1.00  0.00     0.171 HD
HETATM   16  O11 UNL     1      -1.222  46.945  32.572  1.00  0.00    -0.265 OA
HETATM   17  N3  UNL     1       0.489  45.511  30.658  1.00  0.00    -0.345 N 
HETATM   18  C4  UNL     1       0.828  44.502  29.834  1.00  0.00     0.188 A 
ATOM     19  H3  UNL     1       1.028  46.356  30.848  1.00  0.00     0.167 HD
ENDBRANCH   1   6
BRANCH   5  20
HETATM   20  O10 UNL     1       1.542  40.677  29.629  1.00  0.00    -0.388 OA
ATOM     21  H10 UNL     1       1.575  40.162  28.832  1.00  0.00     0.210 HD
ENDBRANCH   5  20
BRANCH   3  22
HETATM   22  C7  UNL     1      -3.053  40.255  28.985  1.00  0.00     0.216 C 
BRANCH  22  23
HETATM   23  O2  UNL     1      -3.028  38.863  29.047  1.00  0.00    -0.287 OA
BRANCH  23  24
HETATM   24  P1  UNL     1      -4.172  38.094  29.745  1.00  0.00     0.418 P 
HETATM   25  O3  UNL     1      -3.159  37.765  31.006  1.00  0.00    -0.624 OA
HETATM   26  O4  UNL     1      -5.008  39.555  29.776  1.00  0.00    -0.624 OA
BRANCH  24  27
HETATM   27  O5  UNL     1      -5.348  37.505  30.542  1.00  0.00    -0.173 OA
BRANCH  27  28
HETATM   28  P2  UNL     1      -6.631  36.771  30.118  1.00  0.00     0.431 P 
HETATM   29  O6  UNL     1      -8.059  36.218  29.874  1.00  0.00    -0.616 OA
HETATM   30  O7  UNL     1      -6.925  36.612  31.755  1.00  0.00    -0.616 OA
HETATM   31  O8  UNL     1      -5.849  35.541  29.392  1.00  0.00    -0.616 OA
ENDBRANCH  27  28
ENDBRANCH  24  27
ENDBRANCH  23  24
ENDBRANCH  22  23
ENDBRANCH   3  22
BRANCH   4  32
HETATM   32  O9  UNL     1      -0.035  39.058  28.697  1.00  0.00    -0.390 OA
ATOM     33  H9  UNL     1      -0.557  38.264  28.717  1.00  0.00     0.210 HD
ENDBRANCH   4  32
TORSDOF 8
ENDMDL
