MODEL 2
REMARK VINA RESULT: -8.147501188      6.018      8.738
REMARK  8 active torsions:
REMARK  status: ('A' for Active; 'I' for Inactive)
REMARK    1  A    between atoms: N5_13  and  C6_14 
REMARK    2  A    between atoms: C7_16  and  C8_17 
REMARK    3  A    between atoms: C8_17  and  O2_18 
REMARK    4  A    between atoms: O2_18  and  P1_19 
REMARK    5  A    between atoms: P1_19  and  O5_22 
REMARK    6  A    between atoms: O5_22  and  P2_23 
REMARK    7  A    between atoms: C9_27  and  O9_28 
REMARK    8  A    between atoms: C10_30  and  O10_31 
ROOT
HETATM    1  C6  UNL     1      57.029  15.752  48.084  1.00  0.00     0.262 C 
HETATM    2  O1  UNL     1      56.050  16.740  48.198  1.00  0.00    -0.353 OA
HETATM    3  C7  UNL     1      56.309  17.215  49.483  1.00  0.00     0.180 C 
HETATM    4  C9  UNL     1      57.800  17.393  49.572  1.00  0.00     0.182 C 
HETATM    5  C10 UNL     1      58.283  16.536  48.394  1.00  0.00     0.198 C 
ENDROOT
BRANCH   1   6
HETATM    6  N5  UNL     1      57.054  15.137  46.787  1.00  0.00    -0.297 N 
HETATM    7  C3  UNL     1      56.553  15.722  45.679  1.00  0.00     0.142 A 
HETATM    8  N3  UNL     1      55.950  16.921  45.490  1.00  0.00    -0.336 N 
HETATM    9  C4  UNL     1      56.729  14.884  44.599  1.00  0.00     0.119 A 
HETATM   10  C2  UNL     1      55.513  17.330  44.284  1.00  0.00     0.183 A 
ATOM     11  H3  UNL     1      55.823  17.538  46.293  1.00  0.00     0.168 HD
HETATM   12  N2  UNL     1      55.682  16.519  43.245  1.00  0.00    -0.339 N 
HETATM   13  C1  UNL     1      56.279  15.310  43.375  1.00  0.00     0.148 A 
ATOM     14  H2  UNL     1      55.355  16.815  42.325  1.00  0.00     0.167 HD
HETATM   15  N1  UNL     1      56.437  14.492  42.253  1.00  0.00    -0.080 NA
HETATM   16  N4  UNL     1      57.343  13.793  45.091  1.00  0.00    -0.346 N 
HETATM   17  C5  UNL     1      57.534  13.958  46.413  1.00  0.00     0.188 A 
ATOM     18  H4  UNL     1      57.619  12.974  44.549  1.00  0.00     0.167 HD
ENDBRANCH   1   6
BRANCH   5  19
HETATM   19  O10 UNL     1      59.350  15.745  48.751  1.00  0.00    -0.388 OA
ATOM     20  H10 UNL     1      59.818  16.063  49.513  1.00  0.00     0.210 HD
ENDBRANCH   5  19
BRANCH   3  21
HETATM   21  C8  UNL     1      55.555  18.491  49.778  1.00  0.00     0.216 C 
BRANCH  21  22
HETATM   22  O2  UNL     1      54.642  18.681  48.787  1.00  0.00    -0.287 OA
BRANCH  22  23
HETATM   23  P1  UNL     1      54.943  19.831  47.663  1.00  0.00     0.418 P 
HETATM   24  O3  UNL     1      55.551  20.808  48.667  1.00  0.00    -0.624 OA
HETATM   25  O4  UNL     1      56.471  19.777  46.880  1.00  0.00    -0.624 OA
BRANCH  23  26
HETATM   26  O5  UNL     1      53.810  20.848  47.142  1.00  0.00    -0.173 OA
BRANCH  26  27
HETATM   27  P2  UNL     1      52.452  20.248  46.432  1.00  0.00     0.431 P 
HETATM   28  O6  UNL     1      51.082  20.092  47.275  1.00  0.00    -0.616 OA
HETATM   29  O7  UNL     1      52.581  19.581  44.884  1.00  0.00    -0.616 OA
HETATM   30  O8  UNL     1      52.154  21.601  45.785  1.00  0.00    -0.616 OA
ENDBRANCH  26  27
ENDBRANCH  23  26
ENDBRANCH  22  23
ENDBRANCH  21  22
ENDBRANCH   3  21
BRANCH   4  31
HETATM   31  O9  UNL     1      58.306  16.770  50.722  1.00  0.00    -0.390 OA
ATOM     32  H9  UNL     1      58.613  17.416  51.347  1.00  0.00     0.210 HD
ENDBRANCH   4  31
TORSDOF 8
ENDMDL
