MODEL 1
REMARK VINA RESULT: -8.151855040      0.000      0.000
REMARK  8 active torsions:
REMARK  status: ('A' for Active; 'I' for Inactive)
REMARK    1  A    between atoms: N5_13  and  C6_14 
REMARK    2  A    between atoms: C7_16  and  C8_17 
REMARK    3  A    between atoms: C8_17  and  O2_18 
REMARK    4  A    between atoms: O2_18  and  P1_19 
REMARK    5  A    between atoms: P1_19  and  O5_22 
REMARK    6  A    between atoms: O5_22  and  P2_23 
REMARK    7  A    between atoms: C9_27  and  O9_28 
REMARK    8  A    between atoms: C10_30  and  O10_31 
ROOT
HETATM    1  C6  UNL     1      52.913  22.277  47.780  1.00  0.00     0.262 C 
HETATM    2  O1  UNL     1      54.146  21.657  47.581  1.00  0.00    -0.353 OA
HETATM    3  C7  UNL     1      53.738  20.358  47.280  1.00  0.00     0.180 C 
HETATM    4  C9  UNL     1      52.612  20.489  46.292  1.00  0.00     0.182 C 
HETATM    5  C10 UNL     1      52.203  21.956  46.486  1.00  0.00     0.198 C 
ENDROOT
BRANCH   1   6
HETATM    6  N5  UNL     1      53.029  23.687  48.025  1.00  0.00    -0.297 N 
HETATM    7  C3  UNL     1      53.921  24.219  48.887  1.00  0.00     0.142 A 
HETATM    8  N3  UNL     1      54.857  23.643  49.679  1.00  0.00    -0.336 N 
HETATM    9  C4  UNL     1      53.785  25.590  48.898  1.00  0.00     0.119 A 
HETATM   10  C2  UNL     1      55.665  24.361  50.483  1.00  0.00     0.183 A 
ATOM     11  H3  UNL     1      54.954  22.628  49.667  1.00  0.00     0.168 HD
HETATM   12  N2  UNL     1      55.532  25.683  50.493  1.00  0.00    -0.339 N 
HETATM   13  C1  UNL     1      54.613  26.311  49.720  1.00  0.00     0.148 A 
ATOM     14  H2  UNL     1      56.136  26.239  51.098  1.00  0.00     0.167 HD
HETATM   15  N1  UNL     1      54.510  27.705  49.763  1.00  0.00    -0.080 NA
HETATM   16  N4  UNL     1      52.796  25.857  48.027  1.00  0.00    -0.346 N 
HETATM   17  C5  UNL     1      52.348  24.700  47.506  1.00  0.00     0.188 A 
ATOM     18  H4  UNL     1      52.443  26.787  47.798  1.00  0.00     0.167 HD
ENDBRANCH   1   6
BRANCH   5  19
HETATM   19  O10 UNL     1      50.836  22.090  46.562  1.00  0.00    -0.388 OA
ATOM     20  H10 UNL     1      50.434  22.346  45.740  1.00  0.00     0.210 HD
ENDBRANCH   5  19
BRANCH   3  21
HETATM   21  C8  UNL     1      54.876  19.514  46.753  1.00  0.00     0.216 C 
BRANCH  21  22
HETATM   22  O2  UNL     1      54.533  19.070  45.514  1.00  0.00    -0.287 OA
BRANCH  22  23
HETATM   23  P1  UNL     1      54.796  17.495  45.154  1.00  0.00     0.418 P 
HETATM   24  O3  UNL     1      56.180  17.465  45.798  1.00  0.00    -0.624 OA
HETATM   25  O4  UNL     1      54.295  16.334  46.318  1.00  0.00    -0.624 OA
BRANCH  23  26
HETATM   26  O5  UNL     1      55.300  17.012  43.705  1.00  0.00    -0.173 OA
BRANCH  26  27
HETATM   27  P2  UNL     1      56.403  15.795  43.600  1.00  0.00     0.431 P 
HETATM   28  O6  UNL     1      56.037  14.305  44.108  1.00  0.00    -0.616 OA
HETATM   29  O7  UNL     1      57.992  16.184  43.174  1.00  0.00    -0.616 OA
HETATM   30  O8  UNL     1      56.092  15.598  42.115  1.00  0.00    -0.616 OA
ENDBRANCH  26  27
ENDBRANCH  23  26
ENDBRANCH  22  23
ENDBRANCH  21  22
ENDBRANCH   3  21
BRANCH   4  31
HETATM   31  O9  UNL     1      51.504  19.732  46.700  1.00  0.00    -0.390 OA
ATOM     32  H9  UNL     1      50.697  20.213  46.556  1.00  0.00     0.210 HD
ENDBRANCH   4  31
TORSDOF 8
ENDMDL
