MODEL 10
REMARK VINA RESULT: -7.702268163      3.541      5.725
REMARK  8 active torsions:
REMARK  status: ('A' for Active; 'I' for Inactive)
REMARK    1  A    between atoms: N5_13  and  C6_14 
REMARK    2  A    between atoms: C7_16  and  C8_17 
REMARK    3  A    between atoms: C8_17  and  O2_18 
REMARK    4  A    between atoms: O2_18  and  P1_19 
REMARK    5  A    between atoms: P1_19  and  O5_22 
REMARK    6  A    between atoms: O5_22  and  P2_23 
REMARK    7  A    between atoms: C9_27  and  O9_28 
REMARK    8  A    between atoms: C10_30  and  O10_31 
ROOT
HETATM    1  C6  UNL     1      51.512  25.273  47.615  1.00  0.00     0.262 C 
HETATM    2  O1  UNL     1      52.082  24.071  47.197  1.00  0.00    -0.353 OA
HETATM    3  C7  UNL     1      53.417  24.284  47.535  1.00  0.00     0.180 C 
HETATM    4  C9  UNL     1      53.412  24.857  48.926  1.00  0.00     0.182 C 
HETATM    5  C10 UNL     1      51.958  25.331  49.058  1.00  0.00     0.198 C 
ENDROOT
BRANCH   1   6
HETATM    6  N5  UNL     1      50.085  25.298  47.465  1.00  0.00    -0.297 N 
HETATM    7  C3  UNL     1      49.450  24.901  46.341  1.00  0.00     0.142 A 
HETATM    8  N3  UNL     1      49.922  24.420  45.166  1.00  0.00    -0.336 N 
HETATM    9  C4  UNL     1      48.090  25.044  46.509  1.00  0.00     0.119 A 
HETATM   10  C2  UNL     1      49.111  24.074  44.148  1.00  0.00     0.183 A 
ATOM     11  H3  UNL     1      50.930  24.316  45.047  1.00  0.00     0.168 HD
HETATM   12  N2  UNL     1      47.800  24.214  44.311  1.00  0.00    -0.339 N 
HETATM   13  C1  UNL     1      47.273  24.688  45.465  1.00  0.00     0.148 A 
ATOM     14  H2  UNL     1      47.173  23.957  43.548  1.00  0.00     0.167 HD
HETATM   15  N1  UNL     1      45.887  24.817  45.592  1.00  0.00    -0.080 NA
HETATM   16  N4  UNL     1      47.933  25.532  47.752  1.00  0.00    -0.346 N 
HETATM   17  C5  UNL     1      49.144  25.682  48.319  1.00  0.00     0.188 A 
ATOM     18  H4  UNL     1      47.040  25.754  48.194  1.00  0.00     0.167 HD
ENDBRANCH   1   6
BRANCH   5  19
HETATM   19  O10 UNL     1      51.887  26.590  49.604  1.00  0.00    -0.388 OA
ATOM     20  H10 UNL     1      52.408  26.692  50.392  1.00  0.00     0.210 HD
ENDBRANCH   5  19
BRANCH   3  21
HETATM   21  C8  UNL     1      54.237  23.019  47.433  1.00  0.00     0.216 C 
BRANCH  21  22
HETATM   22  O2  UNL     1      53.595  22.043  48.130  1.00  0.00    -0.287 OA
BRANCH  22  23
HETATM   23  P1  UNL     1      53.173  20.673  47.340  1.00  0.00     0.418 P 
HETATM   24  O3  UNL     1      53.495  19.762  48.523  1.00  0.00    -0.624 OA
HETATM   25  O4  UNL     1      51.536  20.169  47.473  1.00  0.00    -0.624 OA
BRANCH  23  26
HETATM   26  O5  UNL     1      54.160  19.928  46.311  1.00  0.00    -0.173 OA
BRANCH  26  27
HETATM   27  P2  UNL     1      53.583  18.694  45.390  1.00  0.00     0.431 P 
HETATM   28  O6  UNL     1      52.919  18.985  43.945  1.00  0.00    -0.616 OA
HETATM   29  O7  UNL     1      53.481  17.153  46.079  1.00  0.00    -0.616 OA
HETATM   30  O8  UNL     1      54.994  18.347  44.912  1.00  0.00    -0.616 OA
ENDBRANCH  26  27
ENDBRANCH  23  26
ENDBRANCH  22  23
ENDBRANCH  21  22
ENDBRANCH   3  21
BRANCH   4  31
HETATM   31  O9  UNL     1      54.193  26.020  48.987  1.00  0.00    -0.390 OA
ATOM     32  H9  UNL     1      55.083  25.841  48.707  1.00  0.00     0.210 HD
ENDBRANCH   4  31
TORSDOF 8
ENDMDL
