MODEL 1
REMARK VINA RESULT: -9.231234171      0.000      0.000
REMARK  8 active torsions:
REMARK  status: ('A' for Active; 'I' for Inactive)
REMARK    1  A    between atoms: N5_13  and  C6_14 
REMARK    2  A    between atoms: C7_16  and  C8_17 
REMARK    3  A    between atoms: C8_17  and  O2_18 
REMARK    4  A    between atoms: O2_18  and  P1_19 
REMARK    5  A    between atoms: P1_19  and  O5_22 
REMARK    6  A    between atoms: O5_22  and  P2_23 
REMARK    7  A    between atoms: C9_27  and  O9_28 
REMARK    8  A    between atoms: C10_30  and  O10_31 
ROOT
HETATM    1  C6  UNL     1      -7.251  30.047  -7.439  1.00  0.00     0.262 C 
HETATM    2  O1  UNL     1      -6.327  29.945  -6.399  1.00  0.00    -0.353 OA
HETATM    3  C7  UNL     1      -6.187  28.560  -6.311  1.00  0.00     0.180 C 
HETATM    4  C9  UNL     1      -6.033  28.062  -7.722  1.00  0.00     0.182 C 
HETATM    5  C10 UNL     1      -6.566  29.255  -8.528  1.00  0.00     0.198 C 
ENDROOT
BRANCH   1   6
HETATM    6  N5  UNL     1      -7.523  31.405  -7.814  1.00  0.00    -0.297 N 
HETATM    7  C3  UNL     1      -7.854  32.368  -6.928  1.00  0.00     0.142 A 
HETATM    8  N3  UNL     1      -8.010  32.334  -5.582  1.00  0.00    -0.336 N 
HETATM    9  C4  UNL     1      -8.050  33.557  -7.596  1.00  0.00     0.119 A 
HETATM   10  C2  UNL     1      -8.350  33.423  -4.866  1.00  0.00     0.183 A 
ATOM     11  H3  UNL     1      -7.863  31.451  -5.093  1.00  0.00     0.168 HD
HETATM   12  N2  UNL     1      -8.539  34.568  -5.512  1.00  0.00    -0.339 N 
HETATM   13  C1  UNL     1      -8.396  34.660  -6.856  1.00  0.00     0.148 A 
ATOM     14  H2  UNL     1      -8.798  35.401  -4.983  1.00  0.00     0.167 HD
HETATM   15  N1  UNL     1      -8.604  35.887  -7.493  1.00  0.00    -0.080 NA
HETATM   16  N4  UNL     1      -7.827  33.279  -8.893  1.00  0.00    -0.346 N 
HETATM   17  C5  UNL     1      -7.510  31.977  -9.012  1.00  0.00     0.188 A 
ATOM     18  H4  UNL     1      -7.889  33.947  -9.661  1.00  0.00     0.167 HD
ENDBRANCH   1   6
BRANCH   5  19
HETATM   19  O10 UNL     1      -7.418  28.845  -9.527  1.00  0.00    -0.388 OA
ATOM     20  H10 UNL     1      -6.982  28.377 -10.229  1.00  0.00     0.210 HD
ENDBRANCH   5  19
BRANCH   3  21
HETATM   21  C8  UNL     1      -5.028  28.163  -5.427  1.00  0.00     0.216 C 
BRANCH  21  22
HETATM   22  O2  UNL     1      -4.280  27.245  -6.097  1.00  0.00    -0.287 OA
BRANCH  22  23
HETATM   23  P1  UNL     1      -4.243  25.711  -5.530  1.00  0.00     0.418 P 
HETATM   24  O3  UNL     1      -5.759  25.618  -5.367  1.00  0.00    -0.624 OA
HETATM   25  O4  UNL     1      -4.350  24.447  -6.690  1.00  0.00    -0.624 OA
BRANCH  23  26
HETATM   26  O5  UNL     1      -3.912  25.363  -3.995  1.00  0.00    -0.173 OA
BRANCH  26  27
HETATM   27  P2  UNL     1      -3.680  23.795  -3.555  1.00  0.00     0.431 P 
HETATM   28  O6  UNL     1      -2.199  23.244  -3.218  1.00  0.00    -0.616 OA
HETATM   29  O7  UNL     1      -4.978  22.720  -3.692  1.00  0.00    -0.616 OA
HETATM   30  O8  UNL     1      -4.129  24.096  -2.123  1.00  0.00    -0.616 OA
ENDBRANCH  26  27
ENDBRANCH  23  26
ENDBRANCH  22  23
ENDBRANCH  21  22
ENDBRANCH   3  21
BRANCH   4  31
HETATM   31  O9  UNL     1      -6.922  27.008  -7.976  1.00  0.00    -0.390 OA
ATOM     32  H9  UNL     1      -6.875  26.742  -8.887  1.00  0.00     0.210 HD
ENDBRANCH   4  31
TORSDOF 8
ENDMDL
