MODEL 4
REMARK VINA RESULT: -8.898026211      1.244      1.769
REMARK  8 active torsions:
REMARK  status: ('A' for Active; 'I' for Inactive)
REMARK    1  A    between atoms: N5_13  and  C6_14 
REMARK    2  A    between atoms: C7_16  and  C8_17 
REMARK    3  A    between atoms: C8_17  and  O2_18 
REMARK    4  A    between atoms: O2_18  and  P1_19 
REMARK    5  A    between atoms: P1_19  and  O5_22 
REMARK    6  A    between atoms: O5_22  and  P2_23 
REMARK    7  A    between atoms: C9_27  and  O9_28 
REMARK    8  A    between atoms: C10_30  and  O10_31 
ROOT
HETATM    1  C6  UNL     1      -7.329  30.103  -7.076  1.00  0.00     0.262 C 
HETATM    2  O1  UNL     1      -6.358  29.950  -6.086  1.00  0.00    -0.353 OA
HETATM    3  C7  UNL     1      -6.158  28.571  -6.129  1.00  0.00     0.180 C 
HETATM    4  C9  UNL     1      -6.044  28.208  -7.585  1.00  0.00     0.182 C 
HETATM    5  C10 UNL     1      -6.659  29.442  -8.258  1.00  0.00     0.198 C 
ENDROOT
BRANCH   1   6
HETATM    6  N5  UNL     1      -7.671  31.476  -7.316  1.00  0.00    -0.297 N 
HETATM    7  C3  UNL     1      -8.777  31.858  -7.989  1.00  0.00     0.142 A 
HETATM    8  N3  UNL     1      -9.770  31.139  -8.567  1.00  0.00    -0.336 N 
HETATM    9  C4  UNL     1      -8.824  33.234  -8.051  1.00  0.00     0.119 A 
HETATM   10  C2  UNL     1     -10.806  31.717  -9.203  1.00  0.00     0.183 A 
ATOM     11  H3  UNL     1      -9.731  30.120  -8.518  1.00  0.00     0.168 HD
HETATM   12  N2  UNL     1     -10.848  33.044  -9.262  1.00  0.00    -0.339 N 
HETATM   13  C1  UNL     1      -9.884  33.812  -8.701  1.00  0.00     0.148 A 
ATOM     14  H2  UNL     1     -11.627  33.496  -9.742  1.00  0.00     0.167 HD
HETATM   15  N1  UNL     1      -9.971  35.205  -8.788  1.00  0.00    -0.080 NA
HETATM   16  N4  UNL     1      -7.725  33.657  -7.401  1.00  0.00    -0.346 N 
HETATM   17  C5  UNL     1      -7.038  32.587  -6.962  1.00  0.00     0.188 A 
ATOM     18  H4  UNL     1      -7.457  34.632  -7.263  1.00  0.00     0.167 HD
ENDBRANCH   1   6
BRANCH   5  19
HETATM   19  O10 UNL     1      -7.535  29.086  -9.256  1.00  0.00    -0.388 OA
ATOM     20  H10 UNL     1      -7.251  28.332  -9.759  1.00  0.00     0.210 HD
ENDBRANCH   5  19
BRANCH   3  21
HETATM   21  C8  UNL     1      -4.947  28.149  -5.330  1.00  0.00     0.216 C 
BRANCH  21  22
HETATM   22  O2  UNL     1      -4.264  27.224  -6.056  1.00  0.00    -0.287 OA
BRANCH  22  23
HETATM   23  P1  UNL     1      -4.214  25.684  -5.503  1.00  0.00     0.418 P 
HETATM   24  O3  UNL     1      -5.730  25.572  -5.357  1.00  0.00    -0.624 OA
HETATM   25  O4  UNL     1      -4.293  24.431  -6.676  1.00  0.00    -0.624 OA
BRANCH  23  26
HETATM   26  O5  UNL     1      -3.894  25.326  -3.968  1.00  0.00    -0.173 OA
BRANCH  26  27
HETATM   27  P2  UNL     1      -3.669  23.755  -3.536  1.00  0.00     0.431 P 
HETATM   28  O6  UNL     1      -2.191  23.197  -3.195  1.00  0.00    -0.616 OA
HETATM   29  O7  UNL     1      -4.969  22.685  -3.684  1.00  0.00    -0.616 OA
HETATM   30  O8  UNL     1      -4.123  24.049  -2.105  1.00  0.00    -0.616 OA
ENDBRANCH  26  27
ENDBRANCH  23  26
ENDBRANCH  22  23
ENDBRANCH  21  22
ENDBRANCH   3  21
BRANCH   4  31
HETATM   31  O9  UNL     1      -6.899  27.142  -7.899  1.00  0.00    -0.390 OA
ATOM     32  H9  UNL     1      -6.459  26.510  -8.453  1.00  0.00     0.210 HD
ENDBRANCH   4  31
TORSDOF 8
ENDMDL
