MODEL 5
REMARK VINA RESULT: -8.786822758      2.662      3.748
REMARK  8 active torsions:
REMARK  status: ('A' for Active; 'I' for Inactive)
REMARK    1  A    between atoms: N5_13  and  C6_14 
REMARK    2  A    between atoms: C7_16  and  C8_17 
REMARK    3  A    between atoms: C8_17  and  O2_18 
REMARK    4  A    between atoms: O2_18  and  P1_19 
REMARK    5  A    between atoms: P1_19  and  O5_22 
REMARK    6  A    between atoms: O5_22  and  P2_23 
REMARK    7  A    between atoms: C9_27  and  O9_28 
REMARK    8  A    between atoms: C10_30  and  O10_31 
ROOT
HETATM    1  C6  UNL     1      -7.692  29.855  -7.878  1.00  0.00     0.262 C 
HETATM    2  O1  UNL     1      -7.703  28.491  -7.584  1.00  0.00    -0.353 OA
HETATM    3  C7  UNL     1      -6.363  28.285  -7.260  1.00  0.00     0.180 C 
HETATM    4  C9  UNL     1      -5.972  29.414  -6.345  1.00  0.00     0.182 C 
HETATM    5  C10 UNL     1      -7.090  30.430  -6.617  1.00  0.00     0.198 C 
ENDROOT
BRANCH   1   6
HETATM    6  N5  UNL     1      -8.998  30.375  -8.168  1.00  0.00    -0.297 N 
HETATM    7  C3  UNL     1      -9.767  29.925  -9.182  1.00  0.00     0.142 A 
HETATM    8  N3  UNL     1      -9.554  28.964 -10.113  1.00  0.00    -0.336 N 
HETATM    9  C4  UNL     1     -10.957  30.621  -9.197  1.00  0.00     0.119 A 
HETATM   10  C2  UNL     1     -10.463  28.658 -11.058  1.00  0.00     0.183 A 
ATOM     11  H3  UNL     1      -8.672  28.452 -10.097  1.00  0.00     0.168 HD
HETATM   12  N2  UNL     1     -11.609  29.331 -11.072  1.00  0.00    -0.339 N 
HETATM   13  C1  UNL     1     -11.876  30.301 -10.165  1.00  0.00     0.148 A 
ATOM     14  H2  UNL     1     -12.307  29.111 -11.783  1.00  0.00     0.167 HD
HETATM   15  N1  UNL     1     -13.096  30.981 -10.217  1.00  0.00    -0.080 NA
HETATM   16  N4  UNL     1     -10.876  31.489  -8.173  1.00  0.00    -0.346 N 
HETATM   17  C5  UNL     1      -9.688  31.331  -7.560  1.00  0.00     0.188 A 
ATOM     18  H4  UNL     1     -11.597  32.159  -7.906  1.00  0.00     0.167 HD
ENDBRANCH   1   6
BRANCH   5  19
HETATM   19  O10 UNL     1      -6.587  31.699  -6.778  1.00  0.00    -0.388 OA
ATOM     20  H10 UNL     1      -5.732  31.821  -6.383  1.00  0.00     0.210 HD
ENDBRANCH   5  19
BRANCH   3  21
HETATM   21  C8  UNL     1      -6.134  26.928  -6.636  1.00  0.00     0.216 C 
BRANCH  21  22
HETATM   22  O2  UNL     1      -5.503  27.112  -5.445  1.00  0.00    -0.287 OA
BRANCH  22  23
HETATM   23  P1  UNL     1      -4.372  26.021  -4.988  1.00  0.00     0.418 P 
HETATM   24  O3  UNL     1      -5.044  24.857  -5.712  1.00  0.00    -0.624 OA
HETATM   25  O4  UNL     1      -3.022  25.813  -6.032  1.00  0.00    -0.624 OA
BRANCH  23  26
HETATM   26  O5  UNL     1      -4.383  25.317  -3.542  1.00  0.00    -0.173 OA
BRANCH  26  27
HETATM   27  P2  UNL     1      -3.849  23.768  -3.395  1.00  0.00     0.431 P 
HETATM   28  O6  UNL     1      -2.274  23.424  -3.510  1.00  0.00    -0.616 OA
HETATM   29  O7  UNL     1      -4.992  22.523  -3.360  1.00  0.00    -0.616 OA
HETATM   30  O8  UNL     1      -3.941  23.846  -1.870  1.00  0.00    -0.616 OA
ENDBRANCH  26  27
ENDBRANCH  23  26
ENDBRANCH  22  23
ENDBRANCH  21  22
ENDBRANCH   3  21
BRANCH   4  31
HETATM   31  O9  UNL     1      -4.791  30.026  -6.789  1.00  0.00    -0.390 OA
ATOM     32  H9  UNL     1      -4.458  30.627  -6.134  1.00  0.00     0.210 HD
ENDBRANCH   4  31
TORSDOF 8
ENDMDL
