MODEL 13
REMARK VINA RESULT: -5.598293133      1.999      2.723
REMARK  7 active torsions:
REMARK  status: ('A' for Active; 'I' for Inactive)
REMARK    1  A    between atoms: C3_4  and  O1_5 
REMARK    2  A    between atoms: O1_5  and  C4_6 
REMARK    3  A    between atoms: C5_8  and  C6_9 
REMARK    4  A    between atoms: C6_9  and  O3_10 
REMARK    5  A    between atoms: C7_12  and  O4_13 
REMARK    6  A    between atoms: C8_15  and  O5_16 
REMARK    7  A    between atoms: C9_18  and  O6_19 
ROOT
HETATM    1  C4  UNL     1      17.410  10.607  35.290  1.00  0.00     0.298 C 
HETATM    2  O2  UNL     1      16.924  10.838  33.982  1.00  0.00    -0.348 OA
HETATM    3  C5  UNL     1      17.916  11.147  33.091  1.00  0.00     0.179 C 
HETATM    4  C7  UNL     1      18.644   9.900  32.706  1.00  0.00     0.180 C 
HETATM    5  C8  UNL     1      18.920   9.114  33.970  1.00  0.00     0.183 C 
HETATM    6  C9  UNL     1      18.793   9.952  35.205  1.00  0.00     0.205 C 
ENDROOT
BRANCH   1   7
HETATM    7  O1  UNL     1      16.589   9.740  35.904  1.00  0.00    -0.315 OA
BRANCH   7   8
HETATM    8  C3  UNL     1      15.843   9.626  37.007  1.00  0.00     0.100 A 
HETATM    9  C2  UNL     1      14.532  10.167  37.159  1.00  0.00     0.128 A 
HETATM   10  N1  UNL     1      14.076   9.875  38.371  1.00  0.00    -0.358 N 
HETATM   11  C1  UNL     1      12.766  10.262  38.892  1.00  0.00     0.156 C 
HETATM   12  C15 UNL     1      14.986   9.168  39.063  1.00  0.00     0.047 A 
HETATM   13  C10 UNL     1      16.092   9.008  38.219  1.00  0.00     0.026 A 
HETATM   14  C14 UNL     1      14.937   8.658  40.344  1.00  0.00     0.030 A 
HETATM   15  C11 UNL     1      17.186   8.307  38.694  1.00  0.00     0.016 A 
HETATM   16  C12 UNL     1      17.152   7.786  39.987  1.00  0.00     0.001 A 
HETATM   17  C13 UNL     1      16.046   7.970  40.769  1.00  0.00     0.002 A 
ENDBRANCH   7   8
ENDBRANCH   1   7
BRANCH   6  18
HETATM   18  O6  UNL     1      19.819  10.877  35.342  1.00  0.00    -0.388 OA
ATOM     19  H6  UNL     1      20.381  10.683  36.083  1.00  0.00     0.210 HD
ENDBRANCH   6  18
BRANCH   3  20
HETATM   20  C6  UNL     1      17.371  11.901  31.903  1.00  0.00     0.198 C 
BRANCH  20  21
HETATM   21  O3  UNL     1      18.166  11.778  30.777  1.00  0.00    -0.398 OA
ATOM     22  H3  UNL     1      17.794  12.204  30.014  1.00  0.00     0.209 HD
ENDBRANCH  20  21
ENDBRANCH   3  20
BRANCH   5  23
HETATM   23  O5  UNL     1      17.978   8.074  34.028  1.00  0.00    -0.390 OA
ATOM     24  H5  UNL     1      18.114   7.616  34.849  1.00  0.00     0.210 HD
ENDBRANCH   5  23
BRANCH   4  25
HETATM   25  O4  UNL     1      17.920   9.137  31.781  1.00  0.00    -0.390 OA
ATOM     26  H4  UNL     1      18.332   8.298  31.615  1.00  0.00     0.210 HD
ENDBRANCH   4  25
TORSDOF 7
ENDMDL
