MODEL 14
REMARK VINA RESULT: -5.563787738      3.855      6.324
REMARK  7 active torsions:
REMARK  status: ('A' for Active; 'I' for Inactive)
REMARK    1  A    between atoms: C3_4  and  O1_5 
REMARK    2  A    between atoms: O1_5  and  C4_6 
REMARK    3  A    between atoms: C5_8  and  C6_9 
REMARK    4  A    between atoms: C6_9  and  O3_10 
REMARK    5  A    between atoms: C7_12  and  O4_13 
REMARK    6  A    between atoms: C8_15  and  O5_16 
REMARK    7  A    between atoms: C9_18  and  O6_19 
ROOT
HETATM    1  C4  UNL     1      19.959   7.772  35.584  1.00  0.00     0.298 C 
HETATM    2  O2  UNL     1      19.792   6.436  35.152  1.00  0.00    -0.348 OA
HETATM    3  C5  UNL     1      20.737   5.589  35.664  1.00  0.00     0.179 C 
HETATM    4  C7  UNL     1      20.404   5.273  37.085  1.00  0.00     0.180 C 
HETATM    5  C8  UNL     1      20.036   6.570  37.775  1.00  0.00     0.183 C 
HETATM    6  C9  UNL     1      20.503   7.775  37.016  1.00  0.00     0.205 C 
ENDROOT
BRANCH   1   7
HETATM    7  O1  UNL     1      18.756   8.368  35.608  1.00  0.00    -0.315 OA
BRANCH   7   8
HETATM    8  C3  UNL     1      18.127   9.448  35.134  1.00  0.00     0.100 A 
HETATM    9  C2  UNL     1      17.070  10.130  35.806  1.00  0.00     0.128 A 
HETATM   10  N1  UNL     1      16.670  11.156  35.065  1.00  0.00    -0.358 N 
HETATM   11  C1  UNL     1      15.604  12.089  35.425  1.00  0.00     0.156 C 
HETATM   12  C15 UNL     1      17.384  11.226  33.928  1.00  0.00     0.047 A 
HETATM   13  C10 UNL     1      18.295  10.164  33.963  1.00  0.00     0.026 A 
HETATM   14  C14 UNL     1      17.311  12.120  32.879  1.00  0.00     0.030 A 
HETATM   15  C11 UNL     1      19.162  10.004  32.896  1.00  0.00     0.016 A 
HETATM   16  C12 UNL     1      19.100  10.900  31.829  1.00  0.00     0.001 A 
HETATM   17  C13 UNL     1      18.191  11.921  31.845  1.00  0.00     0.002 A 
ENDBRANCH   7   8
ENDBRANCH   1   7
BRANCH   6  18
HETATM   18  O6  UNL     1      21.882   7.938  37.052  1.00  0.00    -0.388 OA
ATOM     19  H6  UNL     1      22.165   8.709  36.576  1.00  0.00     0.210 HD
ENDBRANCH   6  18
BRANCH   3  20
HETATM   20  C6  UNL     1      20.889   4.355  34.807  1.00  0.00     0.198 C 
BRANCH  20  21
HETATM   21  O3  UNL     1      19.694   3.940  34.246  1.00  0.00    -0.398 OA
ATOM     22  H3  UNL     1      19.582   4.240  33.351  1.00  0.00     0.209 HD
ENDBRANCH  20  21
ENDBRANCH   3  20
BRANCH   5  23
HETATM   23  O5  UNL     1      18.635   6.609  37.869  1.00  0.00    -0.390 OA
ATOM     24  H5  UNL     1      18.288   6.241  37.065  1.00  0.00     0.210 HD
ENDBRANCH   5  23
BRANCH   4  25
HETATM   25  O4  UNL     1      19.370   4.335  37.184  1.00  0.00    -0.390 OA
ATOM     26  H4  UNL     1      18.830   4.481  37.952  1.00  0.00     0.210 HD
ENDBRANCH   4  25
TORSDOF 7
ENDMDL
