MODEL 12
REMARK VINA RESULT: -5.679263510      3.837      6.916
REMARK  7 active torsions:
REMARK  status: ('A' for Active; 'I' for Inactive)
REMARK    1  A    between atoms: C3_4  and  O1_5 
REMARK    2  A    between atoms: O1_5  and  C4_6 
REMARK    3  A    between atoms: C5_8  and  C6_9 
REMARK    4  A    between atoms: C6_9  and  O3_10 
REMARK    5  A    between atoms: C7_12  and  O4_13 
REMARK    6  A    between atoms: C8_15  and  O5_16 
REMARK    7  A    between atoms: C9_18  and  O6_19 
ROOT
HETATM    1  C4  UNL     1      19.659   9.931  33.645  1.00  0.00     0.298 C 
HETATM    2  O2  UNL     1      19.050  11.026  32.987  1.00  0.00    -0.348 OA
HETATM    3  C5  UNL     1      17.772  10.757  32.577  1.00  0.00     0.179 C 
HETATM    4  C7  UNL     1      16.850  10.824  33.751  1.00  0.00     0.180 C 
HETATM    5  C8  UNL     1      17.498  10.072  34.894  1.00  0.00     0.183 C 
HETATM    6  C9  UNL     1      18.594   9.161  34.432  1.00  0.00     0.205 C 
ENDROOT
BRANCH   1   7
HETATM    7  O1  UNL     1      20.550  10.406  34.529  1.00  0.00    -0.315 OA
BRANCH   7   8
HETATM    8  C3  UNL     1      21.317  11.479  34.750  1.00  0.00     0.100 A 
HETATM    9  C2  UNL     1      21.358  12.207  35.976  1.00  0.00     0.128 A 
HETATM   10  N1  UNL     1      22.219  13.211  35.860  1.00  0.00    -0.358 N 
HETATM   11  C1  UNL     1      22.531  14.178  36.911  1.00  0.00     0.156 C 
HETATM   12  C15 UNL     1      22.774  13.221  34.636  1.00  0.00     0.047 A 
HETATM   13  C10 UNL     1      22.217  12.143  33.937  1.00  0.00     0.026 A 
HETATM   14  C14 UNL     1      23.708  14.073  34.084  1.00  0.00     0.030 A 
HETATM   15  C11 UNL     1      22.622  11.924  32.632  1.00  0.00     0.016 A 
HETATM   16  C12 UNL     1      23.565  12.777  32.060  1.00  0.00     0.001 A 
HETATM   17  C13 UNL     1      24.079  13.815  32.787  1.00  0.00     0.002 A 
ENDBRANCH   7   8
ENDBRANCH   1   7
BRANCH   6  18
HETATM   18  O6  UNL     1      18.124   8.056  33.735  1.00  0.00    -0.388 OA
ATOM     19  H6  UNL     1      18.175   7.259  34.249  1.00  0.00     0.210 HD
ENDBRANCH   6  18
BRANCH   3  20
HETATM   20  C6  UNL     1      17.355  11.668  31.448  1.00  0.00     0.198 C 
BRANCH  20  21
HETATM   21  O3  UNL     1      18.034  12.874  31.452  1.00  0.00    -0.398 OA
ATOM     22  H3  UNL     1      18.737  12.904  30.813  1.00  0.00     0.209 HD
ENDBRANCH  20  21
ENDBRANCH   3  20
BRANCH   5  23
HETATM   23  O5  UNL     1      18.040  11.029  35.768  1.00  0.00    -0.390 OA
ATOM     24  H5  UNL     1      18.915  10.737  35.997  1.00  0.00     0.210 HD
ENDBRANCH   5  23
BRANCH   4  25
HETATM   25  O4  UNL     1      16.559  12.145  34.112  1.00  0.00    -0.390 OA
ATOM     26  H4  UNL     1      17.206  12.500  34.709  1.00  0.00     0.210 HD
ENDBRANCH   4  25
TORSDOF 7
ENDMDL
