MODEL 17
REMARK VINA RESULT: -5.497494281      2.247      2.986
REMARK  7 active torsions:
REMARK  status: ('A' for Active; 'I' for Inactive)
REMARK    1  A    between atoms: C3_4  and  O1_5 
REMARK    2  A    between atoms: O1_5  and  C4_6 
REMARK    3  A    between atoms: C5_8  and  C6_9 
REMARK    4  A    between atoms: C6_9  and  O3_10 
REMARK    5  A    between atoms: C7_12  and  O4_13 
REMARK    6  A    between atoms: C8_15  and  O5_16 
REMARK    7  A    between atoms: C9_18  and  O6_19 
ROOT
HETATM    1  C4  UNL     1      18.709  11.503  34.952  1.00  0.00     0.298 C 
HETATM    2  O2  UNL     1      18.565  11.650  33.553  1.00  0.00    -0.348 OA
HETATM    3  C5  UNL     1      19.153  10.636  32.847  1.00  0.00     0.179 C 
HETATM    4  C7  UNL     1      18.286   9.421  32.907  1.00  0.00     0.180 C 
HETATM    5  C8  UNL     1      17.837   9.241  34.341  1.00  0.00     0.183 C 
HETATM    6  C9  UNL     1      18.683  10.013  35.308  1.00  0.00     0.205 C 
ENDROOT
BRANCH   1   7
HETATM    7  O1  UNL     1      17.658  12.080  35.554  1.00  0.00    -0.315 OA
BRANCH   7   8
HETATM    8  C3  UNL     1      17.147  13.289  35.809  1.00  0.00     0.100 A 
HETATM    9  C2  UNL     1      17.921  14.467  36.029  1.00  0.00     0.128 A 
HETATM   10  N1  UNL     1      17.107  15.490  36.254  1.00  0.00    -0.358 N 
HETATM   11  C1  UNL     1      17.535  16.863  36.521  1.00  0.00     0.156 C 
HETATM   12  C15 UNL     1      15.823  15.095  36.204  1.00  0.00     0.047 A 
HETATM   13  C10 UNL     1      15.839  13.723  35.926  1.00  0.00     0.026 A 
HETATM   14  C14 UNL     1      14.658  15.815  36.376  1.00  0.00     0.030 A 
HETATM   15  C11 UNL     1      14.630  13.059  35.820  1.00  0.00     0.016 A 
HETATM   16  C12 UNL     1      13.444  13.772  35.991  1.00  0.00     0.001 A 
HETATM   17  C13 UNL     1      13.485  15.112  36.260  1.00  0.00     0.002 A 
ENDBRANCH   7   8
ENDBRANCH   1   7
BRANCH   6  18
HETATM   18  O6  UNL     1      19.960   9.486  35.452  1.00  0.00    -0.388 OA
ATOM     19  H6  UNL     1      19.985   8.773  36.078  1.00  0.00     0.210 HD
ENDBRANCH   6  18
BRANCH   3  20
HETATM   20  C6  UNL     1      19.471  11.064  31.435  1.00  0.00     0.198 C 
BRANCH  20  21
HETATM   21  O3  UNL     1      18.445  11.783  30.847  1.00  0.00    -0.398 OA
ATOM     22  H3  UNL     1      18.546  12.722  30.950  1.00  0.00     0.209 HD
ENDBRANCH  20  21
ENDBRANCH   3  20
BRANCH   5  23
HETATM   23  O5  UNL     1      16.514   9.705  34.426  1.00  0.00    -0.390 OA
ATOM     24  H5  UNL     1      15.997   9.013  34.821  1.00  0.00     0.210 HD
ENDBRANCH   5  23
BRANCH   4  25
HETATM   25  O4  UNL     1      17.191   9.518  32.040  1.00  0.00    -0.390 OA
ATOM     26  H4  UNL     1      16.566  10.172  32.330  1.00  0.00     0.210 HD
ENDBRANCH   4  25
TORSDOF 7
ENDMDL
