MODEL 1
REMARK VINA RESULT: -6.460441679      0.000      0.000
REMARK  8 active torsions:
REMARK  status: ('A' for Active; 'I' for Inactive)
REMARK    1  A    between atoms: O1_1  and  C1_3 
REMARK    2  A    between atoms: C1_3  and  C2_4 
REMARK    3  A    between atoms: C3_6  and  O3_7 
REMARK    4  A    between atoms: O3_7  and  C4_8 
REMARK    5  A    between atoms: C12_17  and  O5_18 
REMARK    6  A    between atoms: C16_25  and  O6_26 
REMARK    7  A    between atoms: C17_28  and  O7_29 
REMARK    8  A    between atoms: C18_31  and  O8_32 
ROOT
HETATM    1  C4  UNL     1      12.926  17.970  36.641  1.00  0.00     0.075 A 
HETATM    2  C5  UNL     1      12.482  17.610  37.885  1.00  0.00     0.039 A 
HETATM    3  C6  UNL     1      12.698  16.317  38.382  1.00  0.00     0.035 A 
HETATM    4  C7  UNL     1      13.365  15.371  37.634  1.00  0.00     0.067 A 
HETATM    5  C8  UNL     1      13.820  15.722  36.371  1.00  0.00     0.105 A 
HETATM    6  C9  UNL     1      13.603  16.994  35.891  1.00  0.00     0.076 A 
HETATM    7  O4  UNL     1      14.497  14.800  35.579  1.00  0.00    -0.306 OA
HETATM    8  C10 UNL     1      14.730  13.498  36.047  1.00  0.00     0.105 A 
HETATM    9  C11 UNL     1      15.411  12.587  35.241  1.00  0.00     0.076 A 
HETATM   10  C12 UNL     1      15.664  11.299  35.654  1.00  0.00     0.068 A 
HETATM   11  C13 UNL     1      15.221  10.925  36.906  1.00  0.00     0.039 A 
HETATM   12  C14 UNL     1      14.544  11.792  37.738  1.00  0.00     0.035 A 
HETATM   13  C15 UNL     1      14.303  13.083  37.295  1.00  0.00     0.067 A 
HETATM   14  N1  UNL     1      13.612  14.048  38.085  1.00  0.00    -0.352 N 
ATOM     15  H1  UNL     1      13.282  13.776  39.012  1.00  0.00     0.166 HD
ENDROOT
BRANCH   1  16
HETATM   16  O3  UNL     1      12.765  19.185  36.081  1.00  0.00    -0.318 OA
BRANCH  16  17
HETATM   17  C3  UNL     1      11.739  19.638  35.251  1.00  0.00     0.298 C 
HETATM   18  O2  UNL     1      10.667  18.754  35.383  1.00  0.00    -0.348 OA
HETATM   19  C2  UNL     1       9.498  19.307  34.853  1.00  0.00     0.179 C 
HETATM   20  C18 UNL     1       9.730  19.553  33.399  1.00  0.00     0.180 C 
HETATM   21  C17 UNL     1      11.108  19.082  32.960  1.00  0.00     0.183 C 
HETATM   22  C16 UNL     1      12.179  19.737  33.804  1.00  0.00     0.205 C 
BRANCH  19  23
HETATM   23  C1  UNL     1       8.391  18.271  35.078  1.00  0.00     0.198 C 
BRANCH  23  24
HETATM   24  O1  UNL     1       8.893  16.989  34.875  1.00  0.00    -0.398 OA
ATOM     25  H1  UNL     1       8.787  16.740  33.965  1.00  0.00     0.209 HD
ENDBRANCH  23  24
ENDBRANCH  19  23
BRANCH  20  26
HETATM   26  O8  UNL     1       8.797  18.823  32.648  1.00  0.00    -0.390 OA
ATOM     27  H8  UNL     1       9.198  18.540  31.834  1.00  0.00     0.210 HD
ENDBRANCH  20  26
BRANCH  21  28
HETATM   28  O7  UNL     1      11.181  17.702  33.118  1.00  0.00    -0.390 OA
ATOM     29  H7  UNL     1      10.869  17.280  32.325  1.00  0.00     0.210 HD
ENDBRANCH  21  28
BRANCH  22  30
HETATM   30  O6  UNL     1      12.272  21.097  33.438  1.00  0.00    -0.388 OA
ATOM     31  H6  UNL     1      12.079  21.185  32.512  1.00  0.00     0.210 HD
ENDBRANCH  22  30
ENDBRANCH  16  17
ENDBRANCH   1  16
BRANCH  10  32
HETATM   32  O5  UNL     1      16.351  10.396  34.828  1.00  0.00    -0.361 OA
ATOM     33  H5  UNL     1      17.030   9.831  35.178  1.00  0.00     0.217 HD
ENDBRANCH  10  32
TORSDOF 8
ENDMDL
