MODEL 3
REMARK VINA RESULT: -6.196033008      1.930      2.540
REMARK  8 active torsions:
REMARK  status: ('A' for Active; 'I' for Inactive)
REMARK    1  A    between atoms: O1_1  and  C1_3 
REMARK    2  A    between atoms: C1_3  and  C2_4 
REMARK    3  A    between atoms: C3_6  and  O3_7 
REMARK    4  A    between atoms: O3_7  and  C4_8 
REMARK    5  A    between atoms: C12_17  and  O5_18 
REMARK    6  A    between atoms: C16_25  and  O6_26 
REMARK    7  A    between atoms: C17_28  and  O7_29 
REMARK    8  A    between atoms: C18_31  and  O8_32 
ROOT
HETATM    1  C4  UNL     1      13.853  16.755  36.352  1.00  0.00     0.075 A 
HETATM    2  C5  UNL     1      15.013  17.483  36.373  1.00  0.00     0.039 A 
HETATM    3  C6  UNL     1      16.239  16.897  36.026  1.00  0.00     0.035 A 
HETATM    4  C7  UNL     1      16.312  15.573  35.653  1.00  0.00     0.067 A 
HETATM    5  C8  UNL     1      15.144  14.823  35.629  1.00  0.00     0.105 A 
HETATM    6  C9  UNL     1      13.946  15.407  35.971  1.00  0.00     0.076 A 
HETATM    7  O4  UNL     1      15.170  13.481  35.260  1.00  0.00    -0.306 OA
HETATM    8  C10 UNL     1      16.380  12.865  34.907  1.00  0.00     0.105 A 
HETATM    9  C11 UNL     1      16.388  11.520  34.540  1.00  0.00     0.076 A 
HETATM   10  C12 UNL     1      17.548  10.870  34.185  1.00  0.00     0.068 A 
HETATM   11  C13 UNL     1      18.722  11.594  34.202  1.00  0.00     0.039 A 
HETATM   12  C14 UNL     1      18.763  12.926  34.558  1.00  0.00     0.035 A 
HETATM   13  C15 UNL     1      17.579  13.554  34.911  1.00  0.00     0.067 A 
HETATM   14  N1  UNL     1      17.524  14.926  35.292  1.00  0.00    -0.352 N 
ATOM     15  H1  UNL     1      18.390  15.466  35.307  1.00  0.00     0.166 HD
ENDROOT
BRANCH   1  16
HETATM   16  O3  UNL     1      12.633  17.231  36.669  1.00  0.00    -0.318 OA
BRANCH  16  17
HETATM   17  C3  UNL     1      11.908  18.256  36.063  1.00  0.00     0.298 C 
HETATM   18  O2  UNL     1      10.615  17.781  35.833  1.00  0.00    -0.348 OA
HETATM   19  C2  UNL     1       9.744  18.834  35.540  1.00  0.00     0.179 C 
HETATM   20  C18 UNL     1      10.231  19.494  34.293  1.00  0.00     0.180 C 
HETATM   21  C17 UNL     1      11.456  18.794  33.725  1.00  0.00     0.183 C 
HETATM   22  C16 UNL     1      12.548  18.719  34.769  1.00  0.00     0.205 C 
BRANCH  19  23
HETATM   23  C1  UNL     1       8.361  18.203  35.337  1.00  0.00     0.198 C 
BRANCH  23  24
HETATM   24  O1  UNL     1       8.480  17.023  34.608  1.00  0.00    -0.398 OA
ATOM     25  H1  UNL     1       7.961  16.339  35.013  1.00  0.00     0.209 HD
ENDBRANCH  23  24
ENDBRANCH  19  23
BRANCH  20  26
HETATM   26  O8  UNL     1       9.235  19.425  33.308  1.00  0.00    -0.390 OA
ATOM     27  H8  UNL     1       9.128  20.280  32.907  1.00  0.00     0.210 HD
ENDBRANCH  20  26
BRANCH  21  28
HETATM   28  O7  UNL     1      11.098  17.504  33.344  1.00  0.00    -0.390 OA
ATOM     29  H7  UNL     1      10.557  17.549  32.564  1.00  0.00     0.210 HD
ENDBRANCH  21  28
BRANCH  22  30
HETATM   30  O6  UNL     1      13.085  20.011  34.953  1.00  0.00    -0.388 OA
ATOM     31  H6  UNL     1      13.992  19.937  35.226  1.00  0.00     0.210 HD
ENDBRANCH  22  30
ENDBRANCH  16  17
ENDBRANCH   1  16
BRANCH  10  32
HETATM   32  O5  UNL     1      17.536   9.516  33.818  1.00  0.00    -0.361 OA
ATOM     33  H5  UNL     1      17.149   9.234  32.997  1.00  0.00     0.217 HD
ENDBRANCH  10  32
TORSDOF 8
ENDMDL
