MODEL 4
REMARK VINA RESULT: -6.185562967      2.249      3.526
REMARK  8 active torsions:
REMARK  status: ('A' for Active; 'I' for Inactive)
REMARK    1  A    between atoms: O1_1  and  C1_3 
REMARK    2  A    between atoms: C1_3  and  C2_4 
REMARK    3  A    between atoms: C3_6  and  O3_7 
REMARK    4  A    between atoms: O3_7  and  C4_8 
REMARK    5  A    between atoms: C12_17  and  O5_18 
REMARK    6  A    between atoms: C16_25  and  O6_26 
REMARK    7  A    between atoms: C17_28  and  O7_29 
REMARK    8  A    between atoms: C18_31  and  O8_32 
ROOT
HETATM    1  C4  UNL     1      14.018  16.254  36.121  1.00  0.00     0.075 A 
HETATM    2  C5  UNL     1      15.157  17.014  36.164  1.00  0.00     0.039 A 
HETATM    3  C6  UNL     1      16.405  16.463  35.837  1.00  0.00     0.035 A 
HETATM    4  C7  UNL     1      16.521  15.142  35.463  1.00  0.00     0.067 A 
HETATM    5  C8  UNL     1      15.375  14.360  35.416  1.00  0.00     0.105 A 
HETATM    6  C9  UNL     1      14.155  14.910  35.738  1.00  0.00     0.076 A 
HETATM    7  O4  UNL     1      15.445  13.020  35.045  1.00  0.00    -0.306 OA
HETATM    8  C10 UNL     1      16.678  12.439  34.712  1.00  0.00     0.105 A 
HETATM    9  C11 UNL     1      16.729  11.096  34.341  1.00  0.00     0.076 A 
HETATM   10  C12 UNL     1      17.913  10.480  34.006  1.00  0.00     0.068 A 
HETATM   11  C13 UNL     1      19.066  11.236  34.045  1.00  0.00     0.039 A 
HETATM   12  C14 UNL     1      19.064  12.568  34.405  1.00  0.00     0.035 A 
HETATM   13  C15 UNL     1      17.857  13.162  34.738  1.00  0.00     0.067 A 
HETATM   14  N1  UNL     1      17.757  14.531  35.122  1.00  0.00    -0.352 N 
ATOM     15  H1  UNL     1      18.607  15.094  35.153  1.00  0.00     0.166 HD
ENDROOT
BRANCH   1  16
HETATM   16  O3  UNL     1      12.780  16.695  36.417  1.00  0.00    -0.318 OA
BRANCH  16  17
HETATM   17  C3  UNL     1      11.690  16.881  35.568  1.00  0.00     0.298 C 
HETATM   18  O2  UNL     1      11.891  18.079  34.878  1.00  0.00    -0.348 OA
HETATM   19  C2  UNL     1      11.027  18.173  33.783  1.00  0.00     0.179 C 
HETATM   20  C18 UNL     1       9.628  18.158  34.304  1.00  0.00     0.180 C 
HETATM   21  C17 UNL     1       9.592  18.103  35.824  1.00  0.00     0.183 C 
HETATM   22  C16 UNL     1      10.377  16.910  36.324  1.00  0.00     0.205 C 
BRANCH  19  23
HETATM   23  C1  UNL     1      11.354  19.500  33.091  1.00  0.00     0.198 C 
BRANCH  23  24
HETATM   24  O1  UNL     1      11.668  20.467  34.042  1.00  0.00    -0.398 OA
ATOM     25  H1  UNL     1      12.125  20.067  34.772  1.00  0.00     0.209 HD
ENDBRANCH  23  24
ENDBRANCH  19  23
BRANCH  20  26
HETATM   26  O8  UNL     1       8.978  19.342  33.929  1.00  0.00    -0.390 OA
ATOM     27  H8  UNL     1       9.082  19.478  32.995  1.00  0.00     0.210 HD
ENDBRANCH  20  26
BRANCH  21  28
HETATM   28  O7  UNL     1      10.162  19.268  36.328  1.00  0.00    -0.390 OA
ATOM     29  H7  UNL     1       9.539  19.695  36.905  1.00  0.00     0.210 HD
ENDBRANCH  21  28
BRANCH  22  30
HETATM   30  O6  UNL     1       9.647  15.737  36.034  1.00  0.00    -0.388 OA
ATOM     31  H6  UNL     1       9.040  15.915  35.324  1.00  0.00     0.210 HD
ENDBRANCH  22  30
ENDBRANCH  16  17
ENDBRANCH   1  16
BRANCH  10  32
HETATM   32  O5  UNL     1      17.945   9.127  33.635  1.00  0.00    -0.361 OA
ATOM     33  H5  UNL     1      18.447   8.494  34.134  1.00  0.00     0.217 HD
ENDBRANCH  10  32
TORSDOF 8
ENDMDL
