MODEL 19
REMARK VINA RESULT: -5.727593278      4.699      8.965
REMARK  8 active torsions:
REMARK  status: ('A' for Active; 'I' for Inactive)
REMARK    1  A    between atoms: O1_1  and  C1_3 
REMARK    2  A    between atoms: C1_3  and  C2_4 
REMARK    3  A    between atoms: C3_6  and  O3_7 
REMARK    4  A    between atoms: O3_7  and  C4_8 
REMARK    5  A    between atoms: C12_17  and  O5_18 
REMARK    6  A    between atoms: C16_25  and  O6_26 
REMARK    7  A    between atoms: C17_28  and  O7_29 
REMARK    8  A    between atoms: C18_31  and  O8_32 
ROOT
HETATM    1  C4  UNL     1      17.635  14.358  36.129  1.00  0.00     0.075 A 
HETATM    2  C5  UNL     1      16.289  14.195  36.321  1.00  0.00     0.039 A 
HETATM    3  C6  UNL     1      15.412  15.287  36.244  1.00  0.00     0.035 A 
HETATM    4  C7  UNL     1      15.879  16.555  35.974  1.00  0.00     0.067 A 
HETATM    5  C8  UNL     1      17.242  16.735  35.778  1.00  0.00     0.105 A 
HETATM    6  C9  UNL     1      18.094  15.657  35.855  1.00  0.00     0.076 A 
HETATM    7  O4  UNL     1      17.759  17.997  35.504  1.00  0.00    -0.306 OA
HETATM    8  C10 UNL     1      16.909  19.110  35.421  1.00  0.00     0.105 A 
HETATM    9  C11 UNL     1      17.444  20.367  35.144  1.00  0.00     0.076 A 
HETATM   10  C12 UNL     1      16.653  21.489  35.052  1.00  0.00     0.068 A 
HETATM   11  C13 UNL     1      15.295  21.337  35.243  1.00  0.00     0.039 A 
HETATM   12  C14 UNL     1      14.721  20.113  35.518  1.00  0.00     0.035 A 
HETATM   13  C15 UNL     1      15.543  19.001  35.605  1.00  0.00     0.067 A 
HETATM   14  N1  UNL     1      15.039  17.697  35.885  1.00  0.00    -0.352 N 
ATOM     15  H1  UNL     1      14.036  17.579  36.027  1.00  0.00     0.166 HD
ENDROOT
BRANCH   1  16
HETATM   16  O3  UNL     1      18.551  13.371  36.184  1.00  0.00    -0.318 OA
BRANCH  16  17
HETATM   17  C3  UNL     1      18.788  12.345  35.270  1.00  0.00     0.298 C 
HETATM   18  O2  UNL     1      18.404  12.804  34.009  1.00  0.00    -0.348 OA
HETATM   19  C2  UNL     1      18.909  11.976  33.003  1.00  0.00     0.179 C 
HETATM   20  C18 UNL     1      18.335  10.614  33.203  1.00  0.00     0.180 C 
HETATM   21  C17 UNL     1      17.364  10.577  34.373  1.00  0.00     0.183 C 
HETATM   22  C16 UNL     1      18.040  11.077  35.631  1.00  0.00     0.205 C 
BRANCH  19  23
HETATM   23  C1  UNL     1      18.453  12.588  31.673  1.00  0.00     0.198 C 
BRANCH  23  24
HETATM   24  O1  UNL     1      17.243  13.252  31.847  1.00  0.00    -0.398 OA
ATOM     25  H1  UNL     1      17.033  13.754  31.068  1.00  0.00     0.209 HD
ENDBRANCH  23  24
ENDBRANCH  19  23
BRANCH  20  26
HETATM   26  O8  UNL     1      17.605  10.242  32.064  1.00  0.00    -0.390 OA
ATOM     27  H8  UNL     1      16.694  10.113  32.300  1.00  0.00     0.210 HD
ENDBRANCH  20  26
BRANCH  21  28
HETATM   28  O7  UNL     1      16.278  11.396  34.081  1.00  0.00    -0.390 OA
ATOM     29  H7  UNL     1      15.511  10.856  33.933  1.00  0.00     0.210 HD
ENDBRANCH  21  28
BRANCH  22  30
HETATM   30  O6  UNL     1      18.963  10.101  36.065  1.00  0.00    -0.388 OA
ATOM     31  H6  UNL     1      18.570   9.586  36.760  1.00  0.00     0.210 HD
ENDBRANCH  22  30
ENDBRANCH  16  17
ENDBRANCH   1  16
BRANCH  10  32
HETATM   32  O5  UNL     1      17.210  22.746  34.773  1.00  0.00    -0.361 OA
ATOM     33  H5  UNL     1      16.822  23.542  35.119  1.00  0.00     0.217 HD
ENDBRANCH  10  32
TORSDOF 8
ENDMDL
