MODEL 2
REMARK VINA RESULT: -5.917252307      2.190      6.598
REMARK  16 active torsions:
REMARK  status: ('A' for Active; 'I' for Inactive)
REMARK       I    between atoms: C2_2  and  N1_4 
REMARK    1  A    between atoms: N1_4  and  C3_6 
REMARK    2  A    between atoms: C4_7  and  O2_8 
REMARK    3  A    between atoms: C6_11  and  O3_12 
REMARK    4  A    between atoms: C6_11  and  C13_28 
REMARK    5  A    between atoms: O3_12  and  C7_13 
REMARK    6  A    between atoms: C7_13  and  C8_14 
REMARK    7  A    between atoms: C9_16  and  O5_17 
REMARK    8  A    between atoms: C10_19  and  O6_20 
REMARK    9  A    between atoms: C11_22  and  O7_23 
REMARK   10  A    between atoms: C12_25  and  O8_26 
REMARK   11  A    between atoms: C14_32  and  C15_33 
REMARK   12  A    between atoms: C15_33  and  O12_34 
REMARK   13  A    between atoms: C15_33  and  C16_36 
REMARK   14  A    between atoms: C16_36  and  O13_37 
REMARK   15  A    between atoms: C16_36  and  C17_39 
REMARK   16  A    between atoms: C17_39  and  O14_40 
ROOT
HETATM    1  C3  UNL     1     -24.662   4.652  10.183  1.00  0.00     0.145 C 
HETATM    2  C4  UNL     1     -23.458   4.633  11.144  1.00  0.00     0.149 C 
HETATM    3  C5  UNL     1     -22.743   3.317  11.168  1.00  0.00     0.114 C 
HETATM    4  C6  UNL     1     -23.576   2.127  10.985  1.00  0.00     0.258 C 
HETATM    5  O11 UNL     1     -24.709   2.370  10.174  1.00  0.00    -0.336 OA
HETATM    6  C14 UNL     1     -24.464   3.465   9.293  1.00  0.00     0.182 C 
ENDROOT
BRANCH   4   7
HETATM    7  O3  UNL     1     -24.047   1.573  12.143  1.00  0.00    -0.344 OA
BRANCH   7   8
HETATM    8  C7  UNL     1     -25.402   1.526  12.254  1.00  0.00     0.207 C 
BRANCH   8   9
HETATM    9  C8  UNL     1     -25.865   0.130  12.733  1.00  0.00     0.180 C 
HETATM   10  O4  UNL     1     -26.493   0.216  13.964  1.00  0.00    -0.349 OA
HETATM   11  C9  UNL     1     -27.324  -0.876  14.157  1.00  0.00     0.288 C 
HETATM   12  C10 UNL     1     -28.593  -0.644  13.365  1.00  0.00     0.204 C 
HETATM   13  C11 UNL     1     -28.209  -0.312  11.950  1.00  0.00     0.183 C 
HETATM   14  C12 UNL     1     -26.744  -0.467  11.687  1.00  0.00     0.180 C 
BRANCH  11  15
HETATM   15  O5  UNL     1     -27.604  -0.993  15.528  1.00  0.00    -0.369 OA
ATOM     16  H5  UNL     1     -28.476  -0.655  15.692  1.00  0.00     0.212 HD
ENDBRANCH  11  15
BRANCH  12  17
HETATM   17  O6  UNL     1     -29.335  -1.836  13.387  1.00  0.00    -0.388 OA
ATOM     18  H6  UNL     1     -30.135  -1.689  12.896  1.00  0.00     0.210 HD
ENDBRANCH  12  17
BRANCH  13  19
HETATM   19  O7  UNL     1     -28.640   0.972  11.661  1.00  0.00    -0.390 OA
ATOM     20  H7  UNL     1     -29.356   0.921  11.038  1.00  0.00     0.210 HD
ENDBRANCH  13  19
BRANCH  14  21
HETATM   21  O8  UNL     1     -26.426   0.125  10.465  1.00  0.00    -0.390 OA
ATOM     22  H8  UNL     1     -26.634  -0.494   9.775  1.00  0.00     0.210 HD
ENDBRANCH  14  21
ENDBRANCH   8   9
ENDBRANCH   7   8
ENDBRANCH   4   7
BRANCH   4  23
HETATM   23  C13 UNL     1     -22.859   1.044  10.234  1.00  0.00     0.239 C 
HETATM   24  O9  UNL     1     -21.713   0.647  10.535  1.00  0.00    -0.644 OA
HETATM   25  O10 UNL     1     -23.478   0.446   9.153  1.00  0.00    -0.644 OA
ENDBRANCH   4  23
BRANCH   2  26
HETATM   26  O2  UNL     1     -23.844   5.070  12.411  1.00  0.00    -0.393 OA
ATOM     27  H2  UNL     1     -24.341   4.394  12.856  1.00  0.00     0.210 HD
ENDBRANCH   2  26
BRANCH   6  28
HETATM   28  C15 UNL     1     -25.406   3.353   8.128  1.00  0.00     0.180 C 
BRANCH  28  29
HETATM   29  O12 UNL     1     -25.786   1.989   7.977  1.00  0.00    -0.390 OA
ATOM     30  H12 UNL     1     -25.631   1.727   7.078  1.00  0.00     0.210 HD
ENDBRANCH  28  29
BRANCH  28  31
HETATM   31  C16 UNL     1     -24.877   3.784   6.807  1.00  0.00     0.173 C 
BRANCH  31  32
HETATM   32  O13 UNL     1     -23.676   4.522   7.033  1.00  0.00    -0.391 OA
ATOM     33  H13 UNL     1     -23.164   4.499   6.234  1.00  0.00     0.210 HD
ENDBRANCH  31  32
BRANCH  31  34
HETATM   34  C17 UNL     1     -25.785   4.698   6.046  1.00  0.00     0.198 C 
BRANCH  34  35
HETATM   35  O14 UNL     1     -25.753   5.954   6.658  1.00  0.00    -0.398 OA
ATOM     36  H14 UNL     1     -25.261   6.544   6.100  1.00  0.00     0.209 HD
ENDBRANCH  34  35
ENDBRANCH  31  34
ENDBRANCH  28  31
ENDBRANCH   6  28
BRANCH   1  37
HETATM   37  N1  UNL     1     -24.731   5.928   9.541  1.00  0.00    -0.352 N 
HETATM   38  C2  UNL     1     -25.631   6.933  10.058  1.00  0.00     0.214 C 
HETATM   39  C1  UNL     1     -25.701   8.259   9.389  1.00  0.00     0.117 C 
HETATM   40  O1  UNL     1     -26.350   6.692  11.065  1.00  0.00    -0.274 OA
ATOM     41  H1  UNL     1     -24.151   6.128   8.727  1.00  0.00     0.163 HD
ENDBRANCH   1  37
TORSDOF 16
ENDMDL
