MODEL 1
REMARK VINA RESULT: -5.923963273      0.000      0.000
REMARK  16 active torsions:
REMARK  status: ('A' for Active; 'I' for Inactive)
REMARK       I    between atoms: C2_2  and  N1_4 
REMARK    1  A    between atoms: N1_4  and  C3_6 
REMARK    2  A    between atoms: C4_7  and  O2_8 
REMARK    3  A    between atoms: C6_11  and  O3_12 
REMARK    4  A    between atoms: C6_11  and  C13_28 
REMARK    5  A    between atoms: O3_12  and  C7_13 
REMARK    6  A    between atoms: C7_13  and  C8_14 
REMARK    7  A    between atoms: C9_16  and  O5_17 
REMARK    8  A    between atoms: C10_19  and  O6_20 
REMARK    9  A    between atoms: C11_22  and  O7_23 
REMARK   10  A    between atoms: C12_25  and  O8_26 
REMARK   11  A    between atoms: C14_32  and  C15_33 
REMARK   12  A    between atoms: C15_33  and  O12_34 
REMARK   13  A    between atoms: C15_33  and  C16_36 
REMARK   14  A    between atoms: C16_36  and  O13_37 
REMARK   15  A    between atoms: C16_36  and  C17_39 
REMARK   16  A    between atoms: C17_39  and  O14_40 
ROOT
HETATM    1  C3  UNL     1     -27.179   1.562  11.546  1.00  0.00     0.145 C 
HETATM    2  C4  UNL     1     -26.794   1.410  10.062  1.00  0.00     0.149 C 
HETATM    3  C5  UNL     1     -25.587   0.550   9.850  1.00  0.00     0.114 C 
HETATM    4  C6  UNL     1     -24.557   0.616  10.890  1.00  0.00     0.258 C 
HETATM    5  O11 UNL     1     -25.089   0.891  12.171  1.00  0.00    -0.336 OA
HETATM    6  C14 UNL     1     -26.448   0.463  12.249  1.00  0.00     0.182 C 
ENDROOT
BRANCH   4   7
HETATM    7  O3  UNL     1     -23.582   1.549  10.672  1.00  0.00    -0.344 OA
BRANCH   7   8
HETATM    8  C7  UNL     1     -23.761   2.735  11.314  1.00  0.00     0.207 C 
BRANCH   8   9
HETATM    9  C8  UNL     1     -23.395   3.920  10.390  1.00  0.00     0.180 C 
HETATM   10  O4  UNL     1     -24.000   3.783   9.153  1.00  0.00    -0.349 OA
HETATM   11  C9  UNL     1     -24.101   5.015   8.528  1.00  0.00     0.288 C 
HETATM   12  C10 UNL     1     -25.267   5.758   9.143  1.00  0.00     0.204 C 
HETATM   13  C11 UNL     1     -25.090   5.755  10.635  1.00  0.00     0.183 C 
HETATM   14  C12 UNL     1     -23.774   5.191  11.070  1.00  0.00     0.180 C 
BRANCH  11  15
HETATM   15  O5  UNL     1     -24.307   4.809   7.153  1.00  0.00    -0.369 OA
ATOM     16  H5  UNL     1     -23.542   4.377   6.791  1.00  0.00     0.212 HD
ENDBRANCH  11  15
BRANCH  12  17
HETATM   17  O6  UNL     1     -25.234   7.078   8.665  1.00  0.00    -0.388 OA
ATOM     18  H6  UNL     1     -25.588   7.641   9.343  1.00  0.00     0.210 HD
ENDBRANCH  12  17
BRANCH  13  19
HETATM   19  O7  UNL     1     -26.147   5.067  11.208  1.00  0.00    -0.390 OA
ATOM     20  H7  UNL     1     -26.961   5.485  10.949  1.00  0.00     0.210 HD
ENDBRANCH  13  19
BRANCH  14  21
HETATM   21  O8  UNL     1     -23.800   4.956  12.444  1.00  0.00    -0.390 OA
ATOM     22  H8  UNL     1     -23.078   5.432  12.838  1.00  0.00     0.210 HD
ENDBRANCH  14  21
ENDBRANCH   8   9
ENDBRANCH   7   8
ENDBRANCH   4   7
BRANCH   4  23
HETATM   23  C13 UNL     1     -23.873  -0.704  11.094  1.00  0.00     0.239 C 
HETATM   24  O9  UNL     1     -23.485  -1.425  10.151  1.00  0.00    -0.644 OA
HETATM   25  O10 UNL     1     -23.653  -1.161  12.378  1.00  0.00    -0.644 OA
ENDBRANCH   4  23
BRANCH   2  26
HETATM   26  O2  UNL     1     -26.685   2.664   9.459  1.00  0.00    -0.393 OA
ATOM     27  H2  UNL     1     -25.845   2.749   9.026  1.00  0.00     0.210 HD
ENDBRANCH   2  26
BRANCH   6  28
HETATM   28  C15 UNL     1     -26.797   0.261  13.696  1.00  0.00     0.180 C 
BRANCH  28  29
HETATM   29  O12 UNL     1     -25.602  -0.017  14.420  1.00  0.00    -0.390 OA
ATOM     30  H12 UNL     1     -25.747   0.186  15.336  1.00  0.00     0.210 HD
ENDBRANCH  28  29
BRANCH  28  31
HETATM   31  C16 UNL     1     -27.735  -0.851  14.001  1.00  0.00     0.173 C 
BRANCH  31  32
HETATM   32  O13 UNL     1     -27.553  -1.216  15.369  1.00  0.00    -0.391 OA
ATOM     33  H13 UNL     1     -28.395  -1.153  15.804  1.00  0.00     0.210 HD
ENDBRANCH  31  32
BRANCH  31  34
HETATM   34  C17 UNL     1     -27.496  -2.097  13.207  1.00  0.00     0.198 C 
BRANCH  34  35
HETATM   35  O14 UNL     1     -26.213  -2.564  13.504  1.00  0.00    -0.398 OA
ATOM     36  H14 UNL     1     -25.734  -2.653  12.689  1.00  0.00     0.209 HD
ENDBRANCH  34  35
ENDBRANCH  31  34
ENDBRANCH  28  31
ENDBRANCH   6  28
BRANCH   1  37
HETATM   37  N1  UNL     1     -28.604   1.561  11.664  1.00  0.00    -0.352 N 
HETATM   38  C2  UNL     1     -29.316   2.818  11.670  1.00  0.00     0.214 C 
HETATM   39  C1  UNL     1     -30.797   2.814  11.794  1.00  0.00     0.117 C 
HETATM   40  O1  UNL     1     -28.691   3.909  11.571  1.00  0.00    -0.274 OA
ATOM     41  H1  UNL     1     -29.114   0.681  11.744  1.00  0.00     0.163 HD
ENDBRANCH   1  37
TORSDOF 16
ENDMDL
