MODEL 3
REMARK VINA RESULT: -5.844033215      1.688      2.154
REMARK  16 active torsions:
REMARK  status: ('A' for Active; 'I' for Inactive)
REMARK       I    between atoms: C2_2  and  N1_4 
REMARK    1  A    between atoms: N1_4  and  C3_6 
REMARK    2  A    between atoms: C4_7  and  O2_8 
REMARK    3  A    between atoms: C6_11  and  O3_12 
REMARK    4  A    between atoms: C6_11  and  C13_28 
REMARK    5  A    between atoms: O3_12  and  C7_13 
REMARK    6  A    between atoms: C7_13  and  C8_14 
REMARK    7  A    between atoms: C9_16  and  O5_17 
REMARK    8  A    between atoms: C10_19  and  O6_20 
REMARK    9  A    between atoms: C11_22  and  O7_23 
REMARK   10  A    between atoms: C12_25  and  O8_26 
REMARK   11  A    between atoms: C14_32  and  C15_33 
REMARK   12  A    between atoms: C15_33  and  O12_34 
REMARK   13  A    between atoms: C15_33  and  C16_36 
REMARK   14  A    between atoms: C16_36  and  O13_37 
REMARK   15  A    between atoms: C16_36  and  C17_39 
REMARK   16  A    between atoms: C17_39  and  O14_40 
ROOT
HETATM    1  C3  UNL     1     -25.656   0.570  10.089  1.00  0.00     0.145 C 
HETATM    2  C4  UNL     1     -24.452   0.163   9.219  1.00  0.00     0.149 C 
HETATM    3  C5  UNL     1     -23.192  -0.022  10.006  1.00  0.00     0.114 C 
HETATM    4  C6  UNL     1     -23.018   0.857  11.164  1.00  0.00     0.258 C 
HETATM    5  O11 UNL     1     -24.246   1.229  11.758  1.00  0.00    -0.336 OA
HETATM    6  C14 UNL     1     -25.247   0.248  11.491  1.00  0.00     0.182 C 
ENDROOT
BRANCH   4   7
HETATM    7  O3  UNL     1     -22.351   2.021  10.905  1.00  0.00    -0.344 OA
BRANCH   7   8
HETATM    8  C7  UNL     1     -22.886   3.136  11.472  1.00  0.00     0.207 C 
BRANCH   8   9
HETATM    9  C8  UNL     1     -23.221   4.194  10.395  1.00  0.00     0.180 C 
HETATM   10  O4  UNL     1     -23.632   3.586   9.221  1.00  0.00    -0.349 OA
HETATM   11  C9  UNL     1     -24.387   4.466   8.463  1.00  0.00     0.288 C 
HETATM   12  C10 UNL     1     -25.779   4.522   9.057  1.00  0.00     0.204 C 
HETATM   13  C11 UNL     1     -25.650   4.812  10.526  1.00  0.00     0.183 C 
HETATM   14  C12 UNL     1     -24.248   5.125  10.943  1.00  0.00     0.180 C 
BRANCH  11  15
HETATM   15  O5  UNL     1     -24.426   4.002   7.138  1.00  0.00    -0.369 OA
ATOM     16  H5  UNL     1     -23.814   4.510   6.619  1.00  0.00     0.212 HD
ENDBRANCH  11  15
BRANCH  12  17
HETATM   17  O6  UNL     1     -26.472   5.567   8.426  1.00  0.00    -0.388 OA
ATOM     18  H6  UNL     1     -27.367   5.556   8.745  1.00  0.00     0.210 HD
ENDBRANCH  12  17
BRANCH  13  19
HETATM   19  O7  UNL     1     -26.161   3.740  11.239  1.00  0.00    -0.390 OA
ATOM     20  H7  UNL     1     -27.051   3.577  10.951  1.00  0.00     0.210 HD
ENDBRANCH  13  19
BRANCH  14  21
HETATM   21  O8  UNL     1     -24.158   5.097  12.334  1.00  0.00    -0.390 OA
ATOM     22  H8  UNL     1     -25.040   5.040  12.685  1.00  0.00     0.210 HD
ENDBRANCH  14  21
ENDBRANCH   8   9
ENDBRANCH   7   8
ENDBRANCH   4   7
BRANCH   4  23
HETATM   23  C13 UNL     1     -22.300   0.174  12.291  1.00  0.00     0.239 C 
HETATM   24  O9  UNL     1     -22.890  -0.445  13.202  1.00  0.00    -0.644 OA
HETATM   25  O10 UNL     1     -20.921   0.223  12.344  1.00  0.00    -0.644 OA
ENDBRANCH   4  23
BRANCH   2  26
HETATM   26  O2  UNL     1     -24.305   1.050   8.152  1.00  0.00    -0.393 OA
ATOM     27  H2  UNL     1     -24.832   0.768   7.414  1.00  0.00     0.210 HD
ENDBRANCH   2  26
BRANCH   6  28
HETATM   28  C15 UNL     1     -26.320   0.371  12.535  1.00  0.00     0.180 C 
BRANCH  28  29
HETATM   29  O12 UNL     1     -26.271   1.683  13.087  1.00  0.00    -0.390 OA
ATOM     30  H12 UNL     1     -27.065   1.833  13.587  1.00  0.00     0.210 HD
ENDBRANCH  28  29
BRANCH  28  31
HETATM   31  C16 UNL     1     -26.234  -0.566  13.686  1.00  0.00     0.173 C 
BRANCH  31  32
HETATM   32  O13 UNL     1     -25.511  -1.721  13.259  1.00  0.00    -0.391 OA
ATOM     33  H13 UNL     1     -26.131  -2.432  13.155  1.00  0.00     0.210 HD
ENDBRANCH  31  32
BRANCH  31  34
HETATM   34  C17 UNL     1     -27.557  -1.067  14.175  1.00  0.00     0.198 C 
BRANCH  34  35
HETATM   35  O14 UNL     1     -27.537  -1.058  15.572  1.00  0.00    -0.398 OA
ATOM     36  H14 UNL     1     -27.298  -1.928  15.871  1.00  0.00     0.209 HD
ENDBRANCH  34  35
ENDBRANCH  31  34
ENDBRANCH  28  31
ENDBRANCH   6  28
BRANCH   1  37
HETATM   37  N1  UNL     1     -26.831  -0.082   9.600  1.00  0.00    -0.352 N 
HETATM   38  C2  UNL     1     -28.048   0.679   9.435  1.00  0.00     0.214 C 
HETATM   39  C1  UNL     1     -29.268  -0.001   8.926  1.00  0.00     0.117 C 
HETATM   40  O1  UNL     1     -28.079   1.907   9.719  1.00  0.00    -0.274 OA
ATOM     41  H1  UNL     1     -26.811  -1.075   9.369  1.00  0.00     0.163 HD
ENDBRANCH   1  37
TORSDOF 16
ENDMDL
