MODEL 3
REMARK VINA RESULT: -6.412221181      3.283      5.228
REMARK  6 active torsions:
REMARK  status: ('A' for Active; 'I' for Inactive)
REMARK    1  A    between atoms: O1_2  and  C2_3 
REMARK    2  A    between atoms: C2_3  and  C3_4 
REMARK    3  A    between atoms: C3_4  and  N1_5 
REMARK    4  A    between atoms: C8_12  and  C9_13 
REMARK    5  A    between atoms: C9_13  and  N3_14 
REMARK    6  A    between atoms: C10_18  and  C11_19 
ROOT
HETATM    1  N1  UNL     1      51.533  51.335  34.076  1.00  0.00    -0.340 N 
HETATM    2  C4  UNL     1      51.438  50.476  35.225  1.00  0.00     0.184 C 
HETATM    3  C5  UNL     1      50.003  50.624  35.656  1.00  0.00     0.044 A 
HETATM    4  N2  UNL     1      49.351  50.398  36.803  1.00  0.00    -0.360 N 
ATOM      5  H2  UNL     1      49.894  50.238  37.653  1.00  0.00     0.165 HD
HETATM    6  C6  UNL     1      48.014  50.375  36.880  1.00  0.00     0.014 A 
HETATM    7  C7  UNL     1      47.349  50.102  38.172  1.00  0.00     0.068 C 
HETATM    8  C8  UNL     1      47.294  50.600  35.713  1.00  0.00     0.002 A 
HETATM    9  C10 UNL     1      47.830  50.846  34.526  1.00  0.00     0.003 A 
HETATM   10  C17 UNL     1      49.297  50.852  34.533  1.00  0.00     0.068 A 
HETATM   11  C18 UNL     1      50.176  51.292  33.520  1.00  0.00     0.257 C 
HETATM   12  O2  UNL     1      49.893  51.589  32.322  1.00  0.00    -0.267 OA
ENDROOT
BRANCH   9  13
HETATM   13  C11 UNL     1      47.244  51.066  33.215  1.00  0.00    -0.002 A 
HETATM   14  C12 UNL     1      46.843  52.371  32.931  1.00  0.00     0.016 A 
HETATM   15  C13 UNL     1      46.111  52.693  31.805  1.00  0.00     0.025 A 
HETATM   16  C14 UNL     1      45.756  51.724  30.932  1.00  0.00     0.035 A 
HETATM   17 CL1  UNL     1      44.788  52.115  29.497  1.00  0.00    -0.084 Cl
HETATM   18  C15 UNL     1      46.140  50.417  31.185  1.00  0.00     0.048 A 
HETATM   19  C16 UNL     1      46.894  50.121  32.337  1.00  0.00     0.046 A 
HETATM   20 CL2  UNL     1      47.343  48.400  32.509  1.00  0.00    -0.083 Cl
ENDBRANCH   9  13
BRANCH   8  21
HETATM   21  C9  UNL     1      45.803  50.580  35.952  1.00  0.00     0.271 C 
BRANCH  21  22
HETATM   22  N3  UNL     1      45.247  51.919  36.076  1.00  0.00    -0.075 N 
ATOM     23  H33 UNL     1      45.155  52.190  37.054  1.00  0.00     0.274 HD
ATOM     24  H32 UNL     1      45.917  52.626  35.773  1.00  0.00     0.274 HD
ATOM     25  H31 UNL     1      44.360  52.016  35.581  1.00  0.00     0.274 HD
ENDBRANCH  21  22
ENDBRANCH   8  21
BRANCH   1  26
HETATM   26  C3  UNL     1      52.584  52.195  33.646  1.00  0.00     0.152 C 
BRANCH  26  27
HETATM   27  C2  UNL     1      53.159  52.984  34.827  1.00  0.00     0.187 C 
BRANCH  27  28
HETATM   28  O1  UNL     1      52.385  54.181  34.770  1.00  0.00    -0.394 OA
HETATM   29  C1  UNL     1      53.122  55.258  35.150  1.00  0.00     0.201 C 
ENDBRANCH  27  28
ENDBRANCH  26  27
ENDBRANCH   1  26
TORSDOF 6
ENDMDL
