MODEL 1
REMARK VINA RESULT: -7.138212193      0.000      0.000
REMARK  6 active torsions:
REMARK  status: ('A' for Active; 'I' for Inactive)
REMARK    1  A    between atoms: O1_2  and  C2_3 
REMARK    2  A    between atoms: C2_3  and  C3_4 
REMARK    3  A    between atoms: C3_4  and  N1_5 
REMARK    4  A    between atoms: C8_12  and  C9_13 
REMARK    5  A    between atoms: C9_13  and  N3_14 
REMARK    6  A    between atoms: C10_18  and  C11_19 
ROOT
HETATM    1  N1  UNL     1      51.017  49.727  33.962  1.00  0.00    -0.340 N 
HETATM    2  C4  UNL     1      50.629  50.870  33.181  1.00  0.00     0.184 C 
HETATM    3  C5  UNL     1      49.148  50.976  33.425  1.00  0.00     0.044 A 
HETATM    4  N2  UNL     1      48.139  51.562  32.768  1.00  0.00    -0.360 N 
ATOM      5  H2  UNL     1      48.301  51.895  31.817  1.00  0.00     0.165 HD
HETATM    6  C6  UNL     1      46.926  51.727  33.310  1.00  0.00     0.014 A 
HETATM    7  C7  UNL     1      45.855  52.399  32.542  1.00  0.00     0.068 C 
HETATM    8  C8  UNL     1      46.725  51.262  34.604  1.00  0.00     0.002 A 
HETATM    9  C10 UNL     1      47.643  50.657  35.344  1.00  0.00     0.003 A 
HETATM   10  C17 UNL     1      48.941  50.518  34.674  1.00  0.00     0.068 A 
HETATM   11  C18 UNL     1      50.052  49.743  35.068  1.00  0.00     0.257 C 
HETATM   12  O2  UNL     1      50.237  49.159  36.177  1.00  0.00    -0.267 OA
ENDROOT
BRANCH   9  13
HETATM   13  C11 UNL     1      47.622  50.145  36.703  1.00  0.00    -0.002 A 
HETATM   14  C12 UNL     1      46.948  48.939  36.897  1.00  0.00     0.016 A 
HETATM   15  C13 UNL     1      46.692  48.427  38.154  1.00  0.00     0.025 A 
HETATM   16  C14 UNL     1      47.098  49.103  39.252  1.00  0.00     0.035 A 
HETATM   17 CL1  UNL     1      46.749  48.475  40.875  1.00  0.00    -0.084 Cl
HETATM   18  C15 UNL     1      47.771  50.303  39.093  1.00  0.00     0.048 A 
HETATM   19  C16 UNL     1      48.025  50.795  37.799  1.00  0.00     0.046 A 
HETATM   20 CL2  UNL     1      48.932  52.335  37.754  1.00  0.00    -0.083 Cl
ENDBRANCH   9  13
BRANCH   8  21
HETATM   21  C9  UNL     1      45.307  51.482  35.074  1.00  0.00     0.271 C 
BRANCH  21  22
HETATM   22  N3  UNL     1      45.239  52.386  36.213  1.00  0.00    -0.075 N 
ATOM     23  H33 UNL     1      46.169  52.699  36.490  1.00  0.00     0.274 HD
ATOM     24  H32 UNL     1      44.836  53.285  35.948  1.00  0.00     0.274 HD
ATOM     25  H31 UNL     1      44.738  51.976  37.002  1.00  0.00     0.274 HD
ENDBRANCH  21  22
ENDBRANCH   8  21
BRANCH   1  26
HETATM   26  C3  UNL     1      51.955  48.691  33.688  1.00  0.00     0.152 C 
BRANCH  26  27
HETATM   27  C2  UNL     1      53.374  49.128  34.067  1.00  0.00     0.187 C 
BRANCH  27  28
HETATM   28  O1  UNL     1      53.535  48.492  35.334  1.00  0.00    -0.394 OA
HETATM   29  C1  UNL     1      53.878  49.393  36.293  1.00  0.00     0.201 C 
ENDBRANCH  27  28
ENDBRANCH  26  27
ENDBRANCH   1  26
TORSDOF 6
ENDMDL
