MODEL 5
REMARK VINA RESULT: -6.189928841      3.296      6.033
REMARK  6 active torsions:
REMARK  status: ('A' for Active; 'I' for Inactive)
REMARK    1  A    between atoms: O1_2  and  C2_3 
REMARK    2  A    between atoms: C2_3  and  C3_4 
REMARK    3  A    between atoms: C3_4  and  N1_5 
REMARK    4  A    between atoms: C8_12  and  C9_13 
REMARK    5  A    between atoms: C9_13  and  N3_14 
REMARK    6  A    between atoms: C10_18  and  C11_19 
ROOT
HETATM    1  N1  UNL     1      47.046  50.292  37.210  1.00  0.00    -0.340 N 
HETATM    2  C4  UNL     1      48.138  51.218  37.349  1.00  0.00     0.184 C 
HETATM    3  C5  UNL     1      48.925  51.025  36.081  1.00  0.00     0.044 A 
HETATM    4  N2  UNL     1      50.188  51.290  35.723  1.00  0.00    -0.360 N 
ATOM      5  H2  UNL     1      50.863  51.532  36.449  1.00  0.00     0.165 HD
HETATM    6  C6  UNL     1      50.599  51.250  34.450  1.00  0.00     0.014 A 
HETATM    7  C7  UNL     1      52.003  51.571  34.113  1.00  0.00     0.068 C 
HETATM    8  C8  UNL     1      49.666  50.914  33.477  1.00  0.00     0.002 A 
HETATM    9  C10 UNL     1      48.395  50.620  33.713  1.00  0.00     0.003 A 
HETATM   10  C17 UNL     1      48.030  50.690  35.133  1.00  0.00     0.068 A 
HETATM   11  C18 UNL     1      46.851  50.231  35.757  1.00  0.00     0.257 C 
HETATM   12  O2  UNL     1      45.780  49.843  35.203  1.00  0.00    -0.267 OA
ENDROOT
BRANCH   9  13
HETATM   13  C11 UNL     1      47.288  50.287  32.834  1.00  0.00    -0.002 A 
HETATM   14  C12 UNL     1      47.167  48.943  32.478  1.00  0.00     0.016 A 
HETATM   15  C13 UNL     1      46.280  48.509  31.513  1.00  0.00     0.025 A 
HETATM   16  C14 UNL     1      45.491  49.401  30.873  1.00  0.00     0.035 A 
HETATM   17 CL1  UNL     1      44.369  48.864  29.608  1.00  0.00    -0.084 Cl
HETATM   18  C15 UNL     1      45.587  50.743  31.204  1.00  0.00     0.048 A 
HETATM   19  C16 UNL     1      46.494  51.154  32.199  1.00  0.00     0.046 A 
HETATM   20 CL2  UNL     1      46.479  52.909  32.539  1.00  0.00    -0.083 Cl
ENDBRANCH   9  13
BRANCH   8  21
HETATM   21  C9  UNL     1      50.274  50.874  32.095  1.00  0.00     0.271 C 
BRANCH  21  22
HETATM   22  N3  UNL     1      50.590  49.518  31.672  1.00  0.00    -0.075 N 
ATOM     23  H33 UNL     1      50.371  48.843  32.404  1.00  0.00     0.274 HD
ATOM     24  H32 UNL     1      49.940  49.194  30.954  1.00  0.00     0.274 HD
ATOM     25  H31 UNL     1      51.557  49.425  31.362  1.00  0.00     0.274 HD
ENDBRANCH  21  22
ENDBRANCH   8  21
BRANCH   1  26
HETATM   26  C3  UNL     1      46.406  49.462  38.174  1.00  0.00     0.152 C 
BRANCH  26  27
HETATM   27  C2  UNL     1      47.198  48.168  38.388  1.00  0.00     0.187 C 
BRANCH  27  28
HETATM   28  O1  UNL     1      47.871  48.448  39.615  1.00  0.00    -0.394 OA
HETATM   29  C1  UNL     1      46.983  48.706  40.611  1.00  0.00     0.201 C 
ENDBRANCH  27  28
ENDBRANCH  26  27
ENDBRANCH   1  26
TORSDOF 6
ENDMDL
