MODEL 4
REMARK VINA RESULT: -6.392937686      4.258      6.248
REMARK  6 active torsions:
REMARK  status: ('A' for Active; 'I' for Inactive)
REMARK    1  A    between atoms: O1_2  and  C2_3 
REMARK    2  A    between atoms: C2_3  and  C3_4 
REMARK    3  A    between atoms: C3_4  and  N1_5 
REMARK    4  A    between atoms: C8_12  and  C9_13 
REMARK    5  A    between atoms: C9_13  and  N3_14 
REMARK    6  A    between atoms: C10_18  and  C11_19 
ROOT
HETATM    1  N1  UNL     1      46.505  46.405  32.703  1.00  0.00    -0.340 N 
HETATM    2  C4  UNL     1      46.011  46.173  34.033  1.00  0.00     0.184 C 
HETATM    3  C5  UNL     1      46.297  47.468  34.745  1.00  0.00     0.044 A 
HETATM    4  N2  UNL     1      46.419  47.812  36.033  1.00  0.00    -0.360 N 
ATOM      5  H2  UNL     1      46.500  47.073  36.732  1.00  0.00     0.165 HD
HETATM    6  C6  UNL     1      46.439  49.088  36.439  1.00  0.00     0.014 A 
HETATM    7  C7  UNL     1      46.557  49.407  37.879  1.00  0.00     0.068 C 
HETATM    8  C8  UNL     1      46.332  50.079  35.471  1.00  0.00     0.002 A 
HETATM    9  C10 UNL     1      46.220  49.859  34.169  1.00  0.00     0.003 A 
HETATM   10  C17 UNL     1      46.206  48.435  33.812  1.00  0.00     0.068 A 
HETATM   11  C18 UNL     1      46.325  47.852  32.533  1.00  0.00     0.257 C 
HETATM   12  O2  UNL     1      46.272  48.430  31.408  1.00  0.00    -0.267 OA
ENDROOT
BRANCH   9  13
HETATM   13  C11 UNL     1      46.066  50.753  33.035  1.00  0.00    -0.002 A 
HETATM   14  C12 UNL     1      47.219  51.414  32.610  1.00  0.00     0.016 A 
HETATM   15  C13 UNL     1      47.189  52.423  31.668  1.00  0.00     0.025 A 
HETATM   16  C14 UNL     1      46.012  52.805  31.125  1.00  0.00     0.035 A 
HETATM   17 CL1  UNL     1      45.953  54.123  29.938  1.00  0.00    -0.084 Cl
HETATM   18  C15 UNL     1      44.849  52.168  31.526  1.00  0.00     0.048 A 
HETATM   19  C16 UNL     1      44.911  51.136  32.481  1.00  0.00     0.046 A 
HETATM   20 CL2  UNL     1      43.335  50.388  32.871  1.00  0.00    -0.083 Cl
ENDBRANCH   9  13
BRANCH   8  21
HETATM   21  C9  UNL     1      46.404  51.465  36.065  1.00  0.00     0.271 C 
BRANCH  21  22
HETATM   22  N3  UNL     1      45.109  52.131  36.067  1.00  0.00    -0.075 N 
ATOM     23  H33 UNL     1      44.614  51.972  36.944  1.00  0.00     0.274 HD
ATOM     24  H32 UNL     1      45.215  53.144  36.121  1.00  0.00     0.274 HD
ATOM     25  H31 UNL     1      44.536  51.862  35.266  1.00  0.00     0.274 HD
ENDBRANCH  21  22
ENDBRANCH   8  21
BRANCH   1  26
HETATM   26  C3  UNL     1      47.190  45.538  31.804  1.00  0.00     0.152 C 
BRANCH  26  27
HETATM   27  C2  UNL     1      48.674  45.909  31.715  1.00  0.00     0.187 C 
BRANCH  27  28
HETATM   28  O1  UNL     1      49.265  44.643  31.428  1.00  0.00    -0.394 OA
HETATM   29  C1  UNL     1      48.904  44.203  30.193  1.00  0.00     0.201 C 
ENDBRANCH  27  28
ENDBRANCH  26  27
ENDBRANCH   1  26
TORSDOF 6
ENDMDL
