MODEL 2
REMARK VINA RESULT: -7.036962068      0.982      1.441
REMARK  6 active torsions:
REMARK  status: ('A' for Active; 'I' for Inactive)
REMARK    1  A    between atoms: O1_2  and  C2_3 
REMARK    2  A    between atoms: C2_3  and  C3_4 
REMARK    3  A    between atoms: C3_4  and  N1_5 
REMARK    4  A    between atoms: C8_12  and  C9_13 
REMARK    5  A    between atoms: C9_13  and  N3_14 
REMARK    6  A    between atoms: C10_18  and  C11_19 
ROOT
HETATM    1  N1  UNL     1      51.082  49.796  34.025  1.00  0.00    -0.340 N 
HETATM    2  C4  UNL     1      50.687  50.933  33.239  1.00  0.00     0.184 C 
HETATM    3  C5  UNL     1      49.201  51.015  33.461  1.00  0.00     0.044 A 
HETATM    4  N2  UNL     1      48.193  51.585  32.790  1.00  0.00    -0.360 N 
ATOM      5  H2  UNL     1      48.363  51.923  31.842  1.00  0.00     0.165 HD
HETATM    6  C6  UNL     1      46.969  51.730  33.314  1.00  0.00     0.014 A 
HETATM    7  C7  UNL     1      45.899  52.386  32.531  1.00  0.00     0.068 C 
HETATM    8  C8  UNL     1      46.756  51.260  34.604  1.00  0.00     0.002 A 
HETATM    9  C10 UNL     1      47.673  50.669  35.357  1.00  0.00     0.003 A 
HETATM   10  C17 UNL     1      48.983  50.553  34.706  1.00  0.00     0.068 A 
HETATM   11  C18 UNL     1      50.100  49.794  35.116  1.00  0.00     0.257 C 
HETATM   12  O2  UNL     1      50.279  49.213  36.227  1.00  0.00    -0.267 OA
ENDROOT
BRANCH   9  13
HETATM   13  C11 UNL     1      47.641  50.155  36.715  1.00  0.00    -0.002 A 
HETATM   14  C12 UNL     1      46.983  48.938  36.898  1.00  0.00     0.016 A 
HETATM   15  C13 UNL     1      46.717  48.421  38.150  1.00  0.00     0.025 A 
HETATM   16  C14 UNL     1      47.095  49.101  39.255  1.00  0.00     0.035 A 
HETATM   17 CL1  UNL     1      46.732  48.466  40.872  1.00  0.00    -0.084 Cl
HETATM   18  C15 UNL     1      47.750  50.313  39.108  1.00  0.00     0.048 A 
HETATM   19  C16 UNL     1      48.015  50.811  37.818  1.00  0.00     0.046 A 
HETATM   20 CL2  UNL     1      48.896  52.366  37.788  1.00  0.00    -0.083 Cl
ENDBRANCH   9  13
BRANCH   8  21
HETATM   21  C9  UNL     1      45.328  51.458  35.053  1.00  0.00     0.271 C 
BRANCH  21  22
HETATM   22  N3  UNL     1      45.227  52.368  36.184  1.00  0.00    -0.075 N 
ATOM     23  H33 UNL     1      44.346  52.242  36.681  1.00  0.00     0.274 HD
ATOM     24  H32 UNL     1      45.873  52.104  36.929  1.00  0.00     0.274 HD
ATOM     25  H31 UNL     1      45.360  53.341  35.910  1.00  0.00     0.274 HD
ENDBRANCH  21  22
ENDBRANCH   8  21
BRANCH   1  26
HETATM   26  C3  UNL     1      52.040  48.775  33.763  1.00  0.00     0.152 C 
BRANCH  26  27
HETATM   27  C2  UNL     1      51.442  47.683  32.871  1.00  0.00     0.187 C 
BRANCH  27  28
HETATM   28  O1  UNL     1      52.451  46.678  32.939  1.00  0.00    -0.394 OA
HETATM   29  C1  UNL     1      52.106  45.588  32.203  1.00  0.00     0.201 C 
ENDBRANCH  27  28
ENDBRANCH  26  27
ENDBRANCH   1  26
TORSDOF 6
ENDMDL
