MODEL 3
REMARK VINA RESULT: -5.529787450      2.497      3.737
REMARK  0 active torsions:
REMARK  status: ('A' for Active; 'I' for Inactive)
ROOT
HETATM    1  N1  UNL     1       8.145   9.514  43.298  1.00  0.00    -0.082 NA
HETATM    2  C1  UNL     1       7.177  10.268  44.014  1.00  0.00     0.133 A 
HETATM    3  N2  UNL     1       6.462  11.262  43.446  1.00  0.00    -0.324 N 
ATOM      4  H2  UNL     1       6.623  11.482  42.463  1.00  0.00     0.169 HD
HETATM    5  C2  UNL     1       5.543  11.978  44.129  1.00  0.00     0.158 A 
HETATM    6  S1  UNL     1       4.618  13.293  43.323  1.00  0.00    -0.013 SA
HETATM    7  N3  UNL     1       5.337  11.682  45.427  1.00  0.00    -0.320 N 
ATOM      8  H3  UNL     1       4.647  12.209  45.963  1.00  0.00     0.169 HD
HETATM    9  C3  UNL     1       6.036  10.694  46.023  1.00  0.00     0.137 A 
HETATM   10  N4  UNL     1       6.034  10.196  47.274  1.00  0.00    -0.285 N 
ATOM     11  H4  UNL     1       5.441  10.529  48.034  1.00  0.00     0.188 HD
HETATM   12  N5  UNL     1       6.916   9.208  47.377  1.00  0.00    -0.309 N 
ATOM     13  H5  UNL     1       7.096   8.676  48.229  1.00  0.00     0.186 HD
HETATM   14  C4  UNL     1       7.540   9.007  46.199  1.00  0.00     0.126 A 
HETATM   15  C5  UNL     1       6.979   9.951  45.342  1.00  0.00     0.067 A 
ENDROOT
TORSDOF 0
ENDMDL
