MODEL 5
REMARK VINA RESULT: -5.348804347      3.244      3.980
REMARK  0 active torsions:
REMARK  status: ('A' for Active; 'I' for Inactive)
ROOT
HETATM    1  N1  UNL     1       6.228  10.741  43.008  1.00  0.00    -0.082 NA
HETATM    2  C1  UNL     1       6.728   9.707  43.843  1.00  0.00     0.133 A 
HETATM    3  N2  UNL     1       7.386   8.633  43.358  1.00  0.00    -0.324 N 
ATOM      4  H2  UNL     1       7.532   8.561  42.351  1.00  0.00     0.169 HD
HETATM    5  C2  UNL     1       7.860   7.650  44.153  1.00  0.00     0.158 A 
HETATM    6  S1  UNL     1       8.732   6.241  43.454  1.00  0.00    -0.013 SA
HETATM    7  N3  UNL     1       7.664   7.753  45.482  1.00  0.00    -0.320 N 
ATOM      8  H3  UNL     1       8.013   7.023  46.103  1.00  0.00     0.169 HD
HETATM    9  C3  UNL     1       7.009   8.813  45.998  1.00  0.00     0.137 A 
HETATM   10  N4  UNL     1       6.680   9.165  47.255  1.00  0.00    -0.285 N 
ATOM     11  H4  UNL     1       6.902   8.622  48.089  1.00  0.00     0.188 HD
HETATM   12  N5  UNL     1       6.026  10.320  47.254  1.00  0.00    -0.309 N 
ATOM     13  H5  UNL     1       5.672  10.789  48.088  1.00  0.00     0.186 HD
HETATM   14  C4  UNL     1       5.892  10.786  45.995  1.00  0.00     0.126 A 
HETATM   15  C5  UNL     1       6.518   9.828  45.201  1.00  0.00     0.067 A 
ENDROOT
TORSDOF 0
ENDMDL
