MODEL 7
REMARK VINA RESULT: -5.318448465      1.665      1.868
REMARK  0 active torsions:
REMARK  status: ('A' for Active; 'I' for Inactive)
ROOT
HETATM    1  N1  UNL     1       4.715  11.920  43.463  1.00  0.00    -0.082 NA
HETATM    2  C1  UNL     1       5.198  11.392  44.690  1.00  0.00     0.133 A 
HETATM    3  N2  UNL     1       6.071  10.364  44.748  1.00  0.00    -0.324 N 
ATOM      4  H2  UNL     1       6.398   9.949  43.876  1.00  0.00     0.169 HD
HETATM    5  C2  UNL     1       6.527   9.864  45.916  1.00  0.00     0.158 A 
HETATM    6  S1  UNL     1       7.691   8.493  45.938  1.00  0.00    -0.013 SA
HETATM    7  N3  UNL     1       6.090  10.418  47.064  1.00  0.00    -0.320 N 
ATOM      8  H3  UNL     1       6.421  10.057  47.959  1.00  0.00     0.169 HD
HETATM    9  C3  UNL     1       5.217  11.446  47.039  1.00  0.00     0.137 A 
HETATM   10  N4  UNL     1       4.628  12.173  48.007  1.00  0.00    -0.285 N 
ATOM     11  H4  UNL     1       4.773  12.037  49.008  1.00  0.00     0.188 HD
HETATM   12  N5  UNL     1       3.833  13.093  47.473  1.00  0.00    -0.309 N 
ATOM     13  H5  UNL     1       3.279  13.763  48.007  1.00  0.00     0.186 HD
HETATM   14  C4  UNL     1       3.859  13.017  46.128  1.00  0.00     0.126 A 
HETATM   15  C5  UNL     1       4.739  11.971  45.855  1.00  0.00     0.067 A 
ENDROOT
TORSDOF 0
ENDMDL
