MODEL 3
REMARK VINA RESULT: -9.784359809      2.195      9.206
REMARK  13 active torsions:
REMARK  status: ('A' for Active; 'I' for Inactive)
REMARK    1  A    between atoms: C2_2  and  C4_4 
REMARK    2  A    between atoms: C4_4  and  N1_5 
REMARK    3  A    between atoms: N1_5  and  C5_6 
REMARK    4  A    between atoms: N1_5  and  S1_31 
REMARK    5  A    between atoms: C5_6  and  C6_7 
REMARK    6  A    between atoms: C6_7  and  O1_8 
REMARK    7  A    between atoms: C6_7  and  C7_10 
REMARK    8  A    between atoms: C7_10  and  C8_11 
REMARK    9  A    between atoms: C7_10  and  N2_18 
REMARK   10  A    between atoms: C8_11  and  C9_12 
REMARK       I    between atoms: N2_18  and  C15_20 
REMARK   11  A    between atoms: C15_20  and  O3_22 
REMARK   12  A    between atoms: O3_22  and  C16_23 
REMARK   13  A    between atoms: S1_31  and  C22_34 
ROOT
HETATM    1  C7  UNL     1      -9.664  15.745  26.877  1.00  0.00     0.029 C 
ENDROOT
BRANCH   1   2
HETATM    2  C6  UNL     1      -9.288  17.203  26.799  1.00  0.00     0.203 C 
BRANCH   2   3
HETATM    3  C5  UNL     1      -8.605  17.615  25.559  1.00  0.00     0.119 C 
BRANCH   3   4
HETATM    4  N1  UNL     1      -7.212  17.475  25.503  1.00  0.00    -0.262 N 
BRANCH   4   5
HETATM    5  C4  UNL     1      -6.376  17.988  26.496  1.00  0.00     0.085 C 
BRANCH   5   6
HETATM    6  C2  UNL     1      -5.521  16.963  27.231  1.00  0.00     0.017 C 
HETATM    7  C1  UNL     1      -4.176  17.491  27.642  1.00  0.00     0.015 C 
HETATM    8  C3  UNL     1      -6.241  16.393  28.431  1.00  0.00     0.015 C 
ENDBRANCH   5   6
ENDBRANCH   4   5
BRANCH   4   9
HETATM    9  S1  UNL     1      -6.657  16.192  24.554  1.00  0.00     0.267 S 
HETATM   10  O6  UNL     1      -5.158  16.363  24.366  1.00  0.00    -0.200 OA
HETATM   11  O7  UNL     1      -6.910  14.839  25.207  1.00  0.00    -0.200 OA
BRANCH   9  12
HETATM   12  C22 UNL     1      -7.378  16.134  22.950  1.00  0.00     0.080 A 
HETATM   13  C23 UNL     1      -8.311  15.191  22.574  1.00  0.00     0.027 A 
HETATM   14  C24 UNL     1      -8.860  15.163  21.306  1.00  0.00     0.028 A 
HETATM   15  C25 UNL     1      -8.490  16.091  20.356  1.00  0.00     0.046 A 
HETATM   16  N3  UNL     1      -9.059  16.065  19.035  1.00  0.00    -0.102 NA
HETATM   17  C26 UNL     1      -7.559  17.040  20.715  1.00  0.00     0.028 A 
HETATM   18  C27 UNL     1      -7.016  17.063  21.980  1.00  0.00     0.027 A 
ENDBRANCH   9  12
ENDBRANCH   4   9
ENDBRANCH   3   4
ENDBRANCH   2   3
BRANCH   2  19
HETATM   19  O1  UNL     1     -10.509  17.915  26.883  1.00  0.00    -0.385 OA
ATOM     20  H1  UNL     1     -10.680  18.303  26.033  1.00  0.00     0.211 HD
ENDBRANCH   2  19
ENDBRANCH   1   2
BRANCH   1  21
HETATM   21  C8  UNL     1     -10.475  15.282  25.698  1.00  0.00     0.094 C 
BRANCH  21  22
HETATM   22  C9  UNL     1     -11.465  14.243  25.981  1.00  0.00    -0.053 A 
HETATM   23  C10 UNL     1     -11.223  12.947  25.524  1.00  0.00     0.007 A 
HETATM   24  C11 UNL     1     -12.090  11.902  25.701  1.00  0.00     0.001 A 
HETATM   25  C12 UNL     1     -13.277  12.134  26.371  1.00  0.00     0.000 A 
HETATM   26  C13 UNL     1     -13.560  13.394  26.838  1.00  0.00     0.001 A 
HETATM   27  C14 UNL     1     -12.642  14.437  26.634  1.00  0.00     0.007 A 
ENDBRANCH  21  22
ENDBRANCH   1  21
BRANCH   1  28
HETATM   28  N2  UNL     1     -10.012  15.273  28.158  1.00  0.00    -0.307 N 
HETATM   29  C15 UNL     1      -9.321  14.261  28.869  1.00  0.00     0.365 C 
HETATM   30  O2  UNL     1      -8.334  13.715  28.363  1.00  0.00    -0.238 OA
ATOM     31  H2  UNL     1     -10.824  15.693  28.609  1.00  0.00     0.170 HD
BRANCH  29  32
HETATM   32  O3  UNL     1      -9.738  13.863  30.143  1.00  0.00    -0.296 OA
BRANCH  32  33
HETATM   33  C16 UNL     1     -10.727  14.589  30.856  1.00  0.00     0.166 C 
HETATM   34  C17 UNL     1     -11.694  13.690  31.552  1.00  0.00     0.204 C 
HETATM   35  O4  UNL     1     -11.920  14.163  32.817  1.00  0.00    -0.358 OA
HETATM   36  C18 UNL     1     -11.175  15.315  33.017  1.00  0.00     0.266 C 
HETATM   37  O5  UNL     1     -10.536  15.339  34.251  1.00  0.00    -0.361 OA
HETATM   38  C21 UNL     1     -10.034  15.263  32.023  1.00  0.00     0.075 C 
HETATM   39  C19 UNL     1      -9.440  14.513  34.197  1.00  0.00     0.171 C 
HETATM   40  C20 UNL     1      -9.047  14.386  32.721  1.00  0.00     0.038 C 
ENDBRANCH  32  33
ENDBRANCH  29  32
ENDBRANCH   1  28
TORSDOF 13
ENDMDL
