MODEL 2
REMARK VINA RESULT: -9.878280480      2.027      3.227
REMARK  13 active torsions:
REMARK  status: ('A' for Active; 'I' for Inactive)
REMARK    1  A    between atoms: C2_2  and  C4_4 
REMARK    2  A    between atoms: C4_4  and  N1_5 
REMARK    3  A    between atoms: N1_5  and  C5_6 
REMARK    4  A    between atoms: N1_5  and  S1_31 
REMARK    5  A    between atoms: C5_6  and  C6_7 
REMARK    6  A    between atoms: C6_7  and  O1_8 
REMARK    7  A    between atoms: C6_7  and  C7_10 
REMARK    8  A    between atoms: C7_10  and  C8_11 
REMARK    9  A    between atoms: C7_10  and  N2_18 
REMARK   10  A    between atoms: C8_11  and  C9_12 
REMARK       I    between atoms: N2_18  and  C15_20 
REMARK   11  A    between atoms: C15_20  and  O3_22 
REMARK   12  A    between atoms: O3_22  and  C16_23 
REMARK   13  A    between atoms: S1_31  and  C22_34 
ROOT
HETATM    1  C7  UNL     1      -8.741  16.158  26.470  1.00  0.00     0.029 C 
ENDROOT
BRANCH   1   2
HETATM    2  C6  UNL     1     -10.212  16.489  26.486  1.00  0.00     0.203 C 
BRANCH   2   3
HETATM    3  C5  UNL     1     -10.986  15.880  27.583  1.00  0.00     0.119 C 
BRANCH   3   4
HETATM    4  N1  UNL     1     -10.704  14.550  27.921  1.00  0.00    -0.262 N 
BRANCH   4   5
HETATM    5  C4  UNL     1      -9.999  14.212  29.078  1.00  0.00     0.085 C 
BRANCH   5   6
HETATM    6  C2  UNL     1     -10.225  15.125  30.276  1.00  0.00     0.017 C 
HETATM    7  C1  UNL     1     -11.332  14.661  31.181  1.00  0.00     0.015 C 
HETATM    8  C3  UNL     1      -8.957  15.325  31.073  1.00  0.00     0.015 C 
ENDBRANCH   5   6
ENDBRANCH   4   5
BRANCH   4   9
HETATM    9  S1  UNL     1     -11.735  13.401  27.231  1.00  0.00     0.267 S 
HETATM   10  O6  UNL     1     -12.624  14.116  26.225  1.00  0.00    -0.200 OA
HETATM   11  O7  UNL     1     -10.971  12.302  26.505  1.00  0.00    -0.200 OA
BRANCH   9  12
HETATM   12  C22 UNL     1     -12.795  12.614  28.393  1.00  0.00     0.080 A 
HETATM   13  C23 UNL     1     -12.528  11.378  28.944  1.00  0.00     0.027 A 
HETATM   14  C24 UNL     1     -13.379  10.777  29.852  1.00  0.00     0.028 A 
HETATM   15  C25 UNL     1     -14.544  11.400  30.246  1.00  0.00     0.046 A 
HETATM   16  N3  UNL     1     -15.433  10.776  31.191  1.00  0.00    -0.102 NA
HETATM   17  C26 UNL     1     -14.827  12.634  29.706  1.00  0.00     0.028 A 
HETATM   18  C27 UNL     1     -13.975  13.228  28.802  1.00  0.00     0.027 A 
ENDBRANCH   9  12
ENDBRANCH   4   9
ENDBRANCH   3   4
ENDBRANCH   2   3
BRANCH   2  19
HETATM   19  O1  UNL     1     -10.283  17.896  26.631  1.00  0.00    -0.385 OA
ATOM     20  H1  UNL     1     -10.596  18.260  25.811  1.00  0.00     0.211 HD
ENDBRANCH   2  19
ENDBRANCH   1   2
BRANCH   1  21
HETATM   21  C8  UNL     1      -7.984  16.787  27.606  1.00  0.00     0.094 C 
BRANCH  21  22
HETATM   22  C9  UNL     1      -6.587  17.121  27.327  1.00  0.00    -0.053 A 
HETATM   23  C10 UNL     1      -5.587  16.292  27.836  1.00  0.00     0.007 A 
HETATM   24  C11 UNL     1      -4.248  16.519  27.667  1.00  0.00     0.001 A 
HETATM   25  C12 UNL     1      -3.852  17.634  26.950  1.00  0.00     0.000 A 
HETATM   26  C13 UNL     1      -4.800  18.480  26.430  1.00  0.00     0.001 A 
HETATM   27  C14 UNL     1      -6.164  18.208  26.629  1.00  0.00     0.007 A 
ENDBRANCH  21  22
ENDBRANCH   1  21
BRANCH   1  28
HETATM   28  N2  UNL     1      -8.138  16.126  25.197  1.00  0.00    -0.307 N 
HETATM   29  C15 UNL     1      -8.113  15.002  24.335  1.00  0.00     0.365 C 
HETATM   30  O2  UNL     1      -8.643  13.942  24.689  1.00  0.00    -0.238 OA
ATOM     31  H2  UNL     1      -7.684  16.979  24.870  1.00  0.00     0.170 HD
BRANCH  29  32
HETATM   32  O3  UNL     1      -7.495  15.068  23.083  1.00  0.00    -0.296 OA
BRANCH  32  33
HETATM   33  C16 UNL     1      -7.308  16.307  22.417  1.00  0.00     0.166 C 
HETATM   34  C17 UNL     1      -6.116  16.289  21.518  1.00  0.00     0.204 C 
HETATM   35  O4  UNL     1      -6.440  16.883  20.327  1.00  0.00    -0.358 OA
HETATM   36  C18 UNL     1      -7.761  17.299  20.366  1.00  0.00     0.266 C 
HETATM   37  O5  UNL     1      -8.459  16.994  19.204  1.00  0.00    -0.361 OA
HETATM   38  C21 UNL     1      -8.443  16.458  21.425  1.00  0.00     0.075 C 
HETATM   39  C19 UNL     1      -8.769  15.655  19.214  1.00  0.00     0.171 C 
HETATM   40  C20 UNL     1      -8.757  15.204  20.678  1.00  0.00     0.038 C 
ENDBRANCH  32  33
ENDBRANCH  29  32
ENDBRANCH   1  28
TORSDOF 13
ENDMDL
