MODEL 1
REMARK VINA RESULT: -9.900729880      0.000      0.000
REMARK  13 active torsions:
REMARK  status: ('A' for Active; 'I' for Inactive)
REMARK    1  A    between atoms: C2_2  and  C4_4 
REMARK    2  A    between atoms: C4_4  and  N1_5 
REMARK    3  A    between atoms: N1_5  and  C5_6 
REMARK    4  A    between atoms: N1_5  and  S1_31 
REMARK    5  A    between atoms: C5_6  and  C6_7 
REMARK    6  A    between atoms: C6_7  and  O1_8 
REMARK    7  A    between atoms: C6_7  and  C7_10 
REMARK    8  A    between atoms: C7_10  and  C8_11 
REMARK    9  A    between atoms: C7_10  and  N2_18 
REMARK   10  A    between atoms: C8_11  and  C9_12 
REMARK       I    between atoms: N2_18  and  C15_20 
REMARK   11  A    between atoms: C15_20  and  O3_22 
REMARK   12  A    between atoms: O3_22  and  C16_23 
REMARK   13  A    between atoms: S1_31  and  C22_34 
ROOT
HETATM    1  C7  UNL     1      -8.816  16.200  26.412  1.00  0.00     0.029 C 
ENDROOT
BRANCH   1   2
HETATM    2  C6  UNL     1     -10.261  16.623  26.493  1.00  0.00     0.203 C 
BRANCH   2   3
HETATM    3  C5  UNL     1     -10.960  16.254  27.737  1.00  0.00     0.119 C 
BRANCH   3   4
HETATM    4  N1  UNL     1     -11.541  14.980  27.807  1.00  0.00    -0.262 N 
BRANCH   4   5
HETATM    5  C4  UNL     1     -12.397  14.502  26.814  1.00  0.00     0.085 C 
BRANCH   5   6
HETATM    6  C2  UNL     1     -11.961  13.210  26.134  1.00  0.00     0.017 C 
HETATM    7  C1  UNL     1     -13.109  12.333  25.725  1.00  0.00     0.015 C 
HETATM    8  C3  UNL     1     -11.068  13.479  24.946  1.00  0.00     0.015 C 
ENDBRANCH   5   6
ENDBRANCH   4   5
BRANCH   4   9
HETATM    9  S1  UNL     1     -10.717  13.869  28.777  1.00  0.00     0.267 S 
HETATM   10  O6  UNL     1     -11.623  12.664  28.982  1.00  0.00    -0.200 OA
HETATM   11  O7  UNL     1      -9.420  13.392  28.136  1.00  0.00    -0.200 OA
BRANCH   9  12
HETATM   12  C22 UNL     1     -10.308  14.488  30.372  1.00  0.00     0.080 A 
HETATM   13  C23 UNL     1      -9.040  14.903  30.721  1.00  0.00     0.027 A 
HETATM   14  C24 UNL     1      -8.742  15.381  31.983  1.00  0.00     0.028 A 
HETATM   15  C25 UNL     1      -9.717  15.462  32.954  1.00  0.00     0.046 A 
HETATM   16  N3  UNL     1      -9.410  15.959  34.270  1.00  0.00    -0.102 NA
HETATM   17  C26 UNL     1     -10.988  15.052  32.624  1.00  0.00     0.028 A 
HETATM   18  C27 UNL     1     -11.279  14.576  31.365  1.00  0.00     0.027 A 
ENDBRANCH   9  12
ENDBRANCH   4   9
ENDBRANCH   3   4
ENDBRANCH   2   3
BRANCH   2  19
HETATM   19  O1  UNL     1     -10.248  18.036  26.402  1.00  0.00    -0.385 OA
ATOM     20  H1  UNL     1      -9.341  18.320  26.388  1.00  0.00     0.211 HD
ENDBRANCH   2  19
ENDBRANCH   1   2
BRANCH   1  21
HETATM   21  C8  UNL     1      -7.998  16.674  27.581  1.00  0.00     0.094 C 
BRANCH  21  22
HETATM   22  C9  UNL     1      -6.610  17.027  27.281  1.00  0.00    -0.053 A 
HETATM   23  C10 UNL     1      -5.598  16.147  27.665  1.00  0.00     0.007 A 
HETATM   24  C11 UNL     1      -4.264  16.384  27.465  1.00  0.00     0.001 A 
HETATM   25  C12 UNL     1      -3.888  17.562  26.846  1.00  0.00     0.000 A 
HETATM   26  C13 UNL     1      -4.848  18.459  26.450  1.00  0.00     0.001 A 
HETATM   27  C14 UNL     1      -6.205  18.176  26.675  1.00  0.00     0.007 A 
ENDBRANCH  21  22
ENDBRANCH   1  21
BRANCH   1  28
HETATM   28  N2  UNL     1      -8.239  16.242  25.127  1.00  0.00    -0.307 N 
HETATM   29  C15 UNL     1      -7.699  15.128  24.440  1.00  0.00     0.365 C 
HETATM   30  O2  UNL     1      -7.706  14.012  24.972  1.00  0.00    -0.238 OA
ATOM     31  H2  UNL     1      -8.208  17.146  24.656  1.00  0.00     0.170 HD
BRANCH  29  32
HETATM   32  O3  UNL     1      -7.153  15.267  23.160  1.00  0.00    -0.296 OA
BRANCH  32  33
HETATM   33  C16 UNL     1      -7.146  16.519  22.493  1.00  0.00     0.166 C 
HETATM   34  C17 UNL     1      -5.942  16.690  21.628  1.00  0.00     0.204 C 
HETATM   35  O4  UNL     1      -6.322  17.224  20.425  1.00  0.00    -0.358 OA
HETATM   36  C18 UNL     1      -7.693  17.425  20.424  1.00  0.00     0.266 C 
HETATM   37  O5  UNL     1      -8.300  17.011  19.245  1.00  0.00    -0.361 OA
HETATM   38  C21 UNL     1      -8.262  16.487  21.469  1.00  0.00     0.075 C 
HETATM   39  C19 UNL     1      -8.394  15.640  19.254  1.00  0.00     0.171 C 
HETATM   40  C20 UNL     1      -8.352  15.198  20.720  1.00  0.00     0.038 C 
ENDBRANCH  32  33
ENDBRANCH  29  32
ENDBRANCH   1  28
TORSDOF 13
ENDMDL
