MODEL 6
REMARK VINA RESULT: -6.436732170      1.970      3.273
REMARK  0 active torsions:
REMARK  status: ('A' for Active; 'I' for Inactive)
ROOT
HETATM    1  N1  UNL     1       3.080  15.138  45.241  1.00  0.00    -0.082 NA
HETATM    2  C1  UNL     1       3.456  14.398  44.095  1.00  0.00     0.128 A 
HETATM    3  N2  UNL     1       3.206  14.751  42.820  1.00  0.00    -0.332 N 
ATOM      4  H2  UNL     1       2.719  15.585  42.494  1.00  0.00     0.168 HD
HETATM    5  C2  UNL     1       3.734  13.770  42.065  1.00  0.00     0.128 A 
HETATM    6  N3  UNL     1       3.704  13.727  40.651  1.00  0.00    -0.082 NA
HETATM    7  C3  UNL     1       4.316  12.800  42.845  1.00  0.00     0.019 A 
HETATM    8  C4  UNL     1       4.983  11.610  42.587  1.00  0.00     0.016 A 
HETATM    9  C5  UNL     1       5.470  10.822  43.606  1.00  0.00     0.001 A 
HETATM   10  C6  UNL     1       5.291  11.226  44.921  1.00  0.00     0.001 A 
HETATM   11  C7  UNL     1       4.630  12.407  45.173  1.00  0.00     0.016 A 
HETATM   12  C8  UNL     1       4.139  13.201  44.148  1.00  0.00     0.019 A 
ENDROOT
TORSDOF 0
ENDMDL
