MODEL 16
REMARK VINA RESULT: -5.936261287      2.074      3.090
REMARK  0 active torsions:
REMARK  status: ('A' for Active; 'I' for Inactive)
ROOT
HETATM    1  N1  UNL     1       3.609  14.146  45.351  1.00  0.00    -0.082 NA
HETATM    2  C1  UNL     1       3.716  13.891  43.964  1.00  0.00     0.128 A 
HETATM    3  N2  UNL     1       3.258  14.692  42.983  1.00  0.00    -0.332 N 
ATOM      4  H2  UNL     1       2.776  15.584  43.090  1.00  0.00     0.168 HD
HETATM    5  C2  UNL     1       3.570  14.068  41.833  1.00  0.00     0.128 A 
HETATM    6  N3  UNL     1       3.276  14.555  40.538  1.00  0.00    -0.082 NA
HETATM    7  C3  UNL     1       4.220  12.881  42.071  1.00  0.00     0.019 A 
HETATM    8  C4  UNL     1       4.747  11.878  41.268  1.00  0.00     0.016 A 
HETATM    9  C5  UNL     1       5.360  10.770  41.809  1.00  0.00     0.001 A 
HETATM   10  C6  UNL     1       5.455  10.653  43.188  1.00  0.00     0.001 A 
HETATM   11  C7  UNL     1       4.933  11.650  43.982  1.00  0.00     0.016 A 
HETATM   12  C8  UNL     1       4.315  12.765  43.438  1.00  0.00     0.019 A 
ENDROOT
TORSDOF 0
ENDMDL
