MODEL 7
REMARK VINA RESULT: -6.424687077      1.981      3.252
REMARK  0 active torsions:
REMARK  status: ('A' for Active; 'I' for Inactive)
ROOT
HETATM    1  N1  UNL     1       3.853  13.557  40.718  1.00  0.00    -0.082 NA
HETATM    2  C1  UNL     1       3.808  13.670  42.127  1.00  0.00     0.128 A 
HETATM    3  N2  UNL     1       3.203  14.659  42.814  1.00  0.00    -0.332 N 
ATOM      4  H2  UNL     1       2.696  15.456  42.430  1.00  0.00     0.168 HD
HETATM    5  C2  UNL     1       3.406  14.371  44.112  1.00  0.00     0.128 A 
HETATM    6  N3  UNL     1       2.940  15.147  45.199  1.00  0.00    -0.082 NA
HETATM    7  C3  UNL     1       4.132  13.214  44.258  1.00  0.00     0.019 A 
HETATM    8  C4  UNL     1       4.606  12.489  45.344  1.00  0.00     0.016 A 
HETATM    9  C5  UNL     1       5.328  11.329  45.175  1.00  0.00     0.001 A 
HETATM   10  C6  UNL     1       5.590  10.874  43.891  1.00  0.00     0.001 A 
HETATM   11  C7  UNL     1       5.119  11.595  42.817  1.00  0.00     0.016 A 
HETATM   12  C8  UNL     1       4.392  12.762  42.986  1.00  0.00     0.019 A 
ENDROOT
TORSDOF 0
ENDMDL
