MODEL 20
REMARK VINA RESULT: -5.752608357      2.319      3.950
REMARK  0 active torsions:
REMARK  status: ('A' for Active; 'I' for Inactive)
ROOT
HETATM    1  N1  UNL     1       2.963  14.787  40.137  1.00  0.00    -0.082 NA
HETATM    2  C1  UNL     1       3.388  14.203  41.353  1.00  0.00     0.128 A 
HETATM    3  N2  UNL     1       3.173  14.710  42.582  1.00  0.00    -0.332 N 
ATOM      4  H2  UNL     1       2.683  15.573  42.817  1.00  0.00     0.168 HD
HETATM    5  C2  UNL     1       3.743  13.840  43.435  1.00  0.00     0.128 A 
HETATM    6  N3  UNL     1       3.759  13.974  44.844  1.00  0.00    -0.082 NA
HETATM    7  C3  UNL     1       4.316  12.787  42.764  1.00  0.00     0.019 A 
HETATM    8  C4  UNL     1       5.011  11.647  43.146  1.00  0.00     0.016 A 
HETATM    9  C5  UNL     1       5.479  10.744  42.218  1.00  0.00     0.001 A 
HETATM   10  C6  UNL     1       5.252  10.977  40.870  1.00  0.00     0.001 A 
HETATM   11  C7  UNL     1       4.561  12.108  40.494  1.00  0.00     0.016 A 
HETATM   12  C8  UNL     1       4.090  13.018  41.427  1.00  0.00     0.019 A 
ENDROOT
TORSDOF 0
ENDMDL
