MODEL 4
REMARK VINA RESULT: -6.515165118      2.297      3.331
REMARK  0 active torsions:
REMARK  status: ('A' for Active; 'I' for Inactive)
ROOT
HETATM    1  C1  UNL     1       4.571  12.039  47.405  1.00  0.00     0.089 C 
HETATM    2  C2  UNL     1       4.447  12.384  45.962  1.00  0.00     0.080 A 
HETATM    3  N1  UNL     1       3.930  13.556  45.549  1.00  0.00    -0.313 N 
ATOM      4  H1  UNL     1       3.615  14.226  46.252  1.00  0.00     0.170 HD
HETATM    5  C3  UNL     1       3.810  13.885  44.245  1.00  0.00     0.259 A 
HETATM    6  O1  UNL     1       3.324  14.988  43.862  1.00  0.00    -0.267 OA
HETATM    7  C4  UNL     1       4.224  13.004  43.267  1.00  0.00     0.059 A 
HETATM    8  C5  UNL     1       4.127  13.285  41.920  1.00  0.00     0.019 A 
HETATM    9  C6  UNL     1       4.540  12.406  40.946  1.00  0.00     0.001 A 
HETATM   10  C7  UNL     1       5.076  11.189  41.369  1.00  0.00     0.002 A 
HETATM   11  C8  UNL     1       5.169  10.921  42.719  1.00  0.00     0.030 A 
HETATM   12  C9  UNL     1       4.753  11.803  43.693  1.00  0.00     0.049 A 
HETATM   13  N2  UNL     1       4.851  11.525  45.011  1.00  0.00    -0.345 N 
ATOM     14  H2  UNL     1       5.247  10.629  45.295  1.00  0.00     0.167 HD
ENDROOT
TORSDOF 0
ENDMDL
