MODEL 17
REMARK VINA RESULT: -6.104457341      2.777      4.469
REMARK  0 active torsions:
REMARK  status: ('A' for Active; 'I' for Inactive)
ROOT
HETATM    1  C1  UNL     1       3.550  14.310  40.760  1.00  0.00     0.089 C 
HETATM    2  C2  UNL     1       3.973  13.613  42.005  1.00  0.00     0.080 A 
HETATM    3  N1  UNL     1       4.777  12.534  41.983  1.00  0.00    -0.313 N 
ATOM      4  H1  UNL     1       5.103  12.187  41.081  1.00  0.00     0.170 HD
HETATM    5  C3  UNL     1       5.170  11.890  43.102  1.00  0.00     0.259 A 
HETATM    6  O1  UNL     1       5.925  10.876  43.076  1.00  0.00    -0.267 OA
HETATM    7  C4  UNL     1       4.747  12.330  44.340  1.00  0.00     0.059 A 
HETATM    8  C5  UNL     1       5.116  11.713  45.517  1.00  0.00     0.019 A 
HETATM    9  C6  UNL     1       4.694  12.153  46.751  1.00  0.00     0.001 A 
HETATM   10  C7  UNL     1       3.861  13.272  46.779  1.00  0.00     0.002 A 
HETATM   11  C8  UNL     1       3.499  13.880  45.595  1.00  0.00     0.030 A 
HETATM   12  C9  UNL     1       3.924  13.437  44.360  1.00  0.00     0.049 A 
HETATM   13  N2  UNL     1       3.560  14.044  43.210  1.00  0.00    -0.345 N 
ATOM     14  H2  UNL     1       2.951  14.860  43.257  1.00  0.00     0.167 HD
ENDROOT
TORSDOF 0
ENDMDL
