MODEL 5
REMARK VINA RESULT: -5.220382649      1.833      2.406
REMARK  1 active torsions:
REMARK  status: ('A' for Active; 'I' for Inactive)
REMARK    1  A    between atoms: C7_8  and  O1_9 
ROOT
HETATM    1  C1  UNL     1       3.112  14.339  41.233  1.00  0.00     0.051 C 
HETATM    2  C2  UNL     1       3.476  13.601  42.476  1.00  0.00    -0.027 A 
HETATM    3  C3  UNL     1       4.204  12.437  42.378  1.00  0.00     0.036 A 
HETATM    4  C4  UNL     1       4.528  11.774  43.539  1.00  0.00     0.047 A 
HETATM    5  N1  UNL     1       5.274  10.586  43.405  1.00  0.00    -0.102 NA
HETATM    6  C5  UNL     1       4.152  12.232  44.780  1.00  0.00     0.029 A 
HETATM    7  C6  UNL     1       3.422  13.402  44.839  1.00  0.00     0.039 A 
HETATM    8  C7  UNL     1       3.077  14.099  43.694  1.00  0.00     0.071 A 
ENDROOT
BRANCH   8   9
HETATM    9  O1  UNL     1       2.351  15.254  43.830  1.00  0.00    -0.360 OA
ATOM     10  H1  UNL     1       2.536  16.045  43.337  1.00  0.00     0.217 HD
ENDBRANCH   8   9
TORSDOF 1
ENDMDL
