MODEL 16
REMARK VINA RESULT: -4.954414382      1.150      1.449
REMARK  1 active torsions:
REMARK  status: ('A' for Active; 'I' for Inactive)
REMARK    1  A    between atoms: C7_8  and  O1_9 
ROOT
HETATM    1  C1  UNL     1       4.189  12.386  40.493  1.00  0.00     0.051 C 
HETATM    2  C2  UNL     1       3.939  12.900  41.869  1.00  0.00    -0.027 A 
HETATM    3  C3  UNL     1       4.437  12.204  42.947  1.00  0.00     0.036 A 
HETATM    4  C4  UNL     1       4.193  12.699  44.208  1.00  0.00     0.047 A 
HETATM    5  N1  UNL     1       4.717  11.964  45.291  1.00  0.00    -0.102 NA
HETATM    6  C5  UNL     1       3.477  13.853  44.423  1.00  0.00     0.029 A 
HETATM    7  C6  UNL     1       2.993  14.524  43.318  1.00  0.00     0.039 A 
HETATM    8  C7  UNL     1       3.217  14.059  42.033  1.00  0.00     0.071 A 
ENDROOT
BRANCH   8   9
HETATM    9  O1  UNL     1       2.706  14.779  40.983  1.00  0.00    -0.360 OA
ATOM     10  H1  UNL     1       2.459  15.693  41.052  1.00  0.00     0.217 HD
ENDBRANCH   8   9
TORSDOF 1
ENDMDL
