MODEL 3
REMARK VINA RESULT: -5.341771751      1.510      1.932
REMARK  1 active torsions:
REMARK  status: ('A' for Active; 'I' for Inactive)
REMARK    1  A    between atoms: C7_8  and  O1_9 
ROOT
HETATM    1  C1  UNL     1       3.319  14.097  41.948  1.00  0.00     0.051 C 
HETATM    2  C2  UNL     1       3.505  13.560  43.326  1.00  0.00    -0.027 A 
HETATM    3  C3  UNL     1       4.275  12.434  43.510  1.00  0.00     0.036 A 
HETATM    4  C4  UNL     1       4.433  11.957  44.791  1.00  0.00     0.047 A 
HETATM    5  N1  UNL     1       5.226  10.803  44.947  1.00  0.00    -0.102 NA
HETATM    6  C5  UNL     1       3.852  12.564  45.881  1.00  0.00     0.029 A 
HETATM    7  C6  UNL     1       3.087  13.691  45.657  1.00  0.00     0.039 A 
HETATM    8  C7  UNL     1       2.905  14.202  44.384  1.00  0.00     0.071 A 
ENDROOT
BRANCH   8   9
HETATM    9  O1  UNL     1       2.132  15.325  44.238  1.00  0.00    -0.360 OA
ATOM     10  H1  UNL     1       2.008  15.963  44.931  1.00  0.00     0.217 HD
ENDBRANCH   8   9
TORSDOF 1
ENDMDL
