MODEL 12
REMARK VINA RESULT: -4.594329505      1.716      2.373
REMARK  0 active torsions:
REMARK  status: ('A' for Active; 'I' for Inactive)
ROOT
HETATM    1  C1  UNL     1       4.045  13.286  40.991  1.00  0.00     0.068 C 
HETATM    2  C2  UNL     1       4.158  13.133  42.467  1.00  0.00     0.009 A 
HETATM    3  C3  UNL     1       4.886  12.081  42.945  1.00  0.00     0.049 A 
HETATM    4  C4  UNL     1       5.025  11.889  44.299  1.00  0.00     0.009 A 
HETATM    5  C5  UNL     1       5.828  10.728  44.829  1.00  0.00     0.068 C 
HETATM    6  N1  UNL     1       4.434  12.748  45.138  1.00  0.00    -0.335 N 
ATOM      7  H1  UNL     1       4.530  12.615  46.145  1.00  0.00     0.168 HD
HETATM    8  C6  UNL     1       3.710  13.795  44.666  1.00  0.00     0.192 A 
HETATM    9  N2  UNL     1       3.071  14.726  45.515  1.00  0.00    -0.063 NA
HETATM   10  N3  UNL     1       3.585  13.967  43.336  1.00  0.00    -0.335 N 
ATOM     11  H3  UNL     1       3.039  14.755  42.986  1.00  0.00     0.168 HD
ENDROOT
TORSDOF 0
ENDMDL
