MODEL 13
REMARK VINA RESULT: -4.580595637      1.710      3.293
REMARK  0 active torsions:
REMARK  status: ('A' for Active; 'I' for Inactive)
ROOT
HETATM    1  C1  UNL     1       5.876  10.880  44.883  1.00  0.00     0.068 C 
HETATM    2  C2  UNL     1       5.040  11.994  44.361  1.00  0.00     0.009 A 
HETATM    3  C3  UNL     1       4.923  12.123  43.006  1.00  0.00     0.049 A 
HETATM    4  C4  UNL     1       4.164  13.133  42.466  1.00  0.00     0.009 A 
HETATM    5  C5  UNL     1       4.033  13.277  40.970  1.00  0.00     0.068 C 
HETATM    6  N1  UNL     1       3.544  13.987  43.289  1.00  0.00    -0.335 N 
ATOM      7  H1  UNL     1       2.978  14.742  42.899  1.00  0.00     0.168 HD
HETATM    8  C6  UNL     1       3.658  13.862  44.636  1.00  0.00     0.192 A 
HETATM    9  N2  UNL     1       3.021  14.740  45.541  1.00  0.00    -0.063 NA
HETATM   10  N3  UNL     1       4.406  12.866  45.147  1.00  0.00    -0.335 N 
ATOM     11  H3  UNL     1       4.490  12.776  46.160  1.00  0.00     0.168 HD
ENDROOT
TORSDOF 0
ENDMDL
