MODEL 2
REMARK VINA RESULT: -6.415262535      1.520      1.958
REMARK  1 active torsions:
REMARK  status: ('A' for Active; 'I' for Inactive)
REMARK    1  A    between atoms: N1_2  and  C1_4 
ROOT
HETATM    1  C1  UNL     1       3.811  13.761  43.456  1.00  0.00     0.103 A 
HETATM    2  C2  UNL     1       2.974  14.601  44.140  1.00  0.00     0.038 A 
HETATM    3  C3  UNL     1       2.876  14.447  45.507  1.00  0.00     0.034 A 
HETATM    4  C4  UNL     1       3.579  13.487  46.212  1.00  0.00     0.059 A 
HETATM    5  N2  UNL     1       3.682  13.116  47.489  1.00  0.00    -0.300 N 
ATOM      6  H2  UNL     1       3.179  13.549  48.264  1.00  0.00     0.187 HD
HETATM    7  N3  UNL     1       4.534  12.098  47.607  1.00  0.00    -0.311 N 
ATOM      8  H3  UNL     1       4.779  11.638  48.484  1.00  0.00     0.186 HD
HETATM    9  C5  UNL     1       5.021  11.768  46.406  1.00  0.00     0.120 A 
HETATM   10  C6  UNL     1       4.436  12.628  45.507  1.00  0.00     0.011 A 
HETATM   11  C7  UNL     1       4.529  12.790  44.133  1.00  0.00     0.051 A 
ENDROOT
BRANCH   1  12
HETATM   12  N1  UNL     1       3.960  13.864  42.049  1.00  0.00    -0.116 N 
HETATM   13  O1  UNL     1       4.008  12.876  41.298  1.00  0.00    -0.532 OA
HETATM   14  O2  UNL     1       4.058  15.108  41.491  1.00  0.00    -0.532 OA
ENDBRANCH   1  12
TORSDOF 1
ENDMDL
