MODEL 5
REMARK VINA RESULT: -6.210326840      0.950      2.005
REMARK  1 active torsions:
REMARK  status: ('A' for Active; 'I' for Inactive)
REMARK    1  A    between atoms: N1_2  and  C1_4 
ROOT
HETATM    1  C1  UNL     1       4.345  13.497  43.906  1.00  0.00     0.103 A 
HETATM    2  C2  UNL     1       5.390  12.751  43.428  1.00  0.00     0.038 A 
HETATM    3  C3  UNL     1       5.974  11.835  44.278  1.00  0.00     0.034 A 
HETATM    4  C4  UNL     1       5.554  11.638  45.581  1.00  0.00     0.059 A 
HETATM    5  N2  UNL     1       5.913  10.853  46.597  1.00  0.00    -0.300 N 
ATOM      6  H2  UNL     1       6.671  10.170  46.567  1.00  0.00     0.187 HD
HETATM    7  N3  UNL     1       5.141  11.088  47.659  1.00  0.00    -0.311 N 
ATOM      8  H3  UNL     1       5.222  10.614  48.558  1.00  0.00     0.186 HD
HETATM    9  C5  UNL     1       4.246  12.039  47.371  1.00  0.00     0.120 A 
HETATM   10  C6  UNL     1       4.483  12.404  46.066  1.00  0.00     0.011 A 
HETATM   11  C7  UNL     1       3.903  13.323  45.205  1.00  0.00     0.051 A 
ENDROOT
BRANCH   1  12
HETATM   12  N1  UNL     1       3.700  14.458  43.086  1.00  0.00    -0.116 N 
HETATM   13  O1  UNL     1       2.520  14.810  43.255  1.00  0.00    -0.532 OA
HETATM   14  O2  UNL     1       4.405  15.024  42.061  1.00  0.00    -0.532 OA
ENDBRANCH   1  12
TORSDOF 1
ENDMDL
