MODEL 1
REMARK VINA RESULT: -6.454437766      0.000      0.000
REMARK  1 active torsions:
REMARK  status: ('A' for Active; 'I' for Inactive)
REMARK    1  A    between atoms: N1_2  and  C1_4 
ROOT
HETATM    1  C1  UNL     1       3.993  13.735  44.785  1.00  0.00     0.103 A 
HETATM    2  C2  UNL     1       3.277  13.799  45.951  1.00  0.00     0.038 A 
HETATM    3  C3  UNL     1       3.582  12.898  46.950  1.00  0.00     0.034 A 
HETATM    4  C4  UNL     1       4.572  11.940  46.826  1.00  0.00     0.059 A 
HETATM    5  N2  UNL     1       5.071  10.971  47.595  1.00  0.00    -0.300 N 
ATOM      6  H2  UNL     1       4.752  10.753  48.540  1.00  0.00     0.187 HD
HETATM    7  N3  UNL     1       6.048  10.329  46.953  1.00  0.00    -0.311 N 
ATOM      8  H3  UNL     1       6.583   9.548  47.333  1.00  0.00     0.186 HD
HETATM    9  C5  UNL     1       6.221  10.859  45.738  1.00  0.00     0.120 A 
HETATM   10  C6  UNL     1       5.303  11.878  45.631  1.00  0.00     0.011 A 
HETATM   11  C7  UNL     1       4.990  12.786  44.632  1.00  0.00     0.051 A 
ENDROOT
BRANCH   1  12
HETATM   12  N1  UNL     1       3.731  14.630  43.717  1.00  0.00    -0.116 N 
HETATM   13  O1  UNL     1       2.929  14.378  42.802  1.00  0.00    -0.532 OA
HETATM   14  O2  UNL     1       4.393  15.826  43.688  1.00  0.00    -0.532 OA
ENDBRANCH   1  12
TORSDOF 1
ENDMDL
