MODEL 8
REMARK VINA RESULT: -6.272198407      2.925      3.768
REMARK  1 active torsions:
REMARK  status: ('A' for Active; 'I' for Inactive)
REMARK    1  A    between atoms: N1_2  and  C1_4 
ROOT
HETATM    1  C1  UNL     1       5.458  11.552  44.765  1.00  0.00     0.115 A 
HETATM    2  C2  UNL     1       5.206  11.676  46.148  1.00  0.00     0.037 A 
HETATM    3  C3  UNL     1       4.382  12.663  46.620  1.00  0.00     0.005 A 
HETATM    4  C4  UNL     1       3.806  13.531  45.724  1.00  0.00     0.030 A 
HETATM    5  C5  UNL     1       4.025  13.452  44.353  1.00  0.00     0.044 A 
HETATM    6  N2  UNL     1       3.447  14.344  43.520  1.00  0.00    -0.365 N 
ATOM      7  H2  UNL     1       2.834  15.072  43.887  1.00  0.00     0.165 HD
HETATM    8  C6  UNL     1       3.691  14.258  42.193  1.00  0.00     0.088 A 
HETATM    9  C7  UNL     1       4.506  13.295  41.676  1.00  0.00     0.018 A 
HETATM   10  C8  UNL     1       5.092  12.385  42.542  1.00  0.00     0.017 A 
HETATM   11  C9  UNL     1       4.863  12.442  43.914  1.00  0.00     0.024 A 
ENDROOT
BRANCH   1  12
HETATM   12  N1  UNL     1       6.311  10.508  44.375  1.00  0.00    -0.115 N 
HETATM   13  O1  UNL     1       7.575  10.681  44.389  1.00  0.00    -0.532 OA
HETATM   14  O2  UNL     1       5.858   9.297  43.978  1.00  0.00    -0.532 OA
ENDBRANCH   1  12
TORSDOF 1
ENDMDL
