MODEL 14
REMARK VINA RESULT: -6.037493682      2.341      3.857
REMARK  1 active torsions:
REMARK  status: ('A' for Active; 'I' for Inactive)
REMARK    1  A    between atoms: N1_2  and  C1_4 
ROOT
HETATM    1  C1  UNL     1       5.360  12.941  43.422  1.00  0.00     0.115 A 
HETATM    2  C2  UNL     1       6.505  12.375  42.820  1.00  0.00     0.037 A 
HETATM    3  C3  UNL     1       7.302  11.507  43.519  1.00  0.00     0.005 A 
HETATM    4  C4  UNL     1       6.969  11.198  44.816  1.00  0.00     0.030 A 
HETATM    5  C5  UNL     1       5.854  11.730  45.454  1.00  0.00     0.044 A 
HETATM    6  N2  UNL     1       5.585  11.405  46.737  1.00  0.00    -0.365 N 
ATOM      7  H2  UNL     1       6.188  10.755  47.242  1.00  0.00     0.165 HD
HETATM    8  C6  UNL     1       4.506  11.952  47.341  1.00  0.00     0.088 A 
HETATM    9  C7  UNL     1       3.685  12.822  46.688  1.00  0.00     0.018 A 
HETATM   10  C8  UNL     1       3.972  13.146  45.371  1.00  0.00     0.017 A 
HETATM   11  C9  UNL     1       5.073  12.603  44.716  1.00  0.00     0.024 A 
ENDROOT
BRANCH   1  12
HETATM   12  N1  UNL     1       4.602  13.814  42.628  1.00  0.00    -0.115 N 
HETATM   13  O1  UNL     1       3.833  13.346  41.724  1.00  0.00    -0.532 OA
HETATM   14  O2  UNL     1       4.639  15.158  42.772  1.00  0.00    -0.532 OA
ENDBRANCH   1  12
TORSDOF 1
ENDMDL
