MODEL 18
REMARK VINA RESULT: -5.266700727      0.735      2.018
REMARK  2 active torsions:
REMARK  status: ('A' for Active; 'I' for Inactive)
REMARK    1  A    between atoms: O1_1  and  C1_3 
REMARK    2  A    between atoms: C1_3  and  C2_4 
ROOT
HETATM    1  C2  UNL     1       4.352  12.744  45.659  1.00  0.00    -0.032 A 
HETATM    2  C3  UNL     1       4.958  11.627  45.124  1.00  0.00     0.012 A 
HETATM    3  C4  UNL     1       5.036  11.495  43.741  1.00  0.00     0.040 A 
HETATM    4  C5  UNL     1       4.529  12.438  42.892  1.00  0.00     0.102 A 
HETATM    5  C6  UNL     1       3.924  13.551  43.418  1.00  0.00     0.102 A 
HETATM    6  C7  UNL     1       3.839  13.697  44.804  1.00  0.00     0.049 A 
HETATM    7  O2  UNL     1       3.407  14.512  42.563  1.00  0.00    -0.346 OA
HETATM    8  C8  UNL     1       3.391  14.375  41.175  1.00  0.00     0.202 C 
HETATM    9  C9  UNL     1       4.458  13.442  40.647  1.00  0.00     0.202 C 
HETATM   10  O3  UNL     1       4.600  12.318  41.492  1.00  0.00    -0.346 OA
ENDROOT
BRANCH   1  11
HETATM   11  C1  UNL     1       4.265  12.890  47.150  1.00  0.00     0.203 C 
BRANCH  11  12
HETATM   12  O1  UNL     1       5.412  12.367  47.748  1.00  0.00    -0.396 OA
ATOM     13  H1  UNL     1       5.397  12.536  48.683  1.00  0.00     0.209 HD
ENDBRANCH  11  12
ENDBRANCH   1  11
TORSDOF 2
ENDMDL
