MODEL 2
REMARK VINA RESULT: -5.806546617      1.813      4.466
REMARK  2 active torsions:
REMARK  status: ('A' for Active; 'I' for Inactive)
REMARK    1  A    between atoms: O1_1  and  C1_3 
REMARK    2  A    between atoms: C1_3  and  C2_4 
ROOT
HETATM    1  C2  UNL     1       4.051  13.514  42.108  1.00  0.00    -0.032 A 
HETATM    2  C3  UNL     1       3.831  14.082  43.344  1.00  0.00     0.012 A 
HETATM    3  C4  UNL     1       4.269  13.416  44.485  1.00  0.00     0.040 A 
HETATM    4  C5  UNL     1       4.913  12.212  44.420  1.00  0.00     0.102 A 
HETATM    5  C6  UNL     1       5.134  11.641  43.193  1.00  0.00     0.102 A 
HETATM    6  C7  UNL     1       4.701  12.298  42.040  1.00  0.00     0.049 A 
HETATM    7  O2  UNL     1       5.787  10.419  43.120  1.00  0.00    -0.346 OA
HETATM    8  C8  UNL     1       6.164   9.683  44.243  1.00  0.00     0.202 C 
HETATM    9  C9  UNL     1       6.357  10.528  45.483  1.00  0.00     0.202 C 
HETATM   10  O3  UNL     1       5.361  11.527  45.564  1.00  0.00    -0.346 OA
ENDROOT
BRANCH   1  11
HETATM   11  C1  UNL     1       3.580  14.228  40.875  1.00  0.00     0.203 C 
BRANCH  11  12
HETATM   12  O1  UNL     1       4.158  15.496  40.809  1.00  0.00    -0.396 OA
ATOM     13  H1  UNL     1       4.728  15.554  40.050  1.00  0.00     0.209 HD
ENDBRANCH  11  12
ENDBRANCH   1  11
TORSDOF 2
ENDMDL
