MODEL 7
REMARK VINA RESULT: -5.630408840      1.319      4.462
REMARK  2 active torsions:
REMARK  status: ('A' for Active; 'I' for Inactive)
REMARK    1  A    between atoms: O1_1  and  C1_3 
REMARK    2  A    between atoms: C1_3  and  C2_4 
ROOT
HETATM    1  C2  UNL     1       4.115  13.787  42.568  1.00  0.00    -0.032 A 
HETATM    2  C3  UNL     1       3.411  14.660  43.370  1.00  0.00     0.012 A 
HETATM    3  C4  UNL     1       3.372  14.438  44.743  1.00  0.00     0.040 A 
HETATM    4  C5  UNL     1       4.009  13.380  45.326  1.00  0.00     0.102 A 
HETATM    5  C6  UNL     1       4.711  12.507  44.533  1.00  0.00     0.102 A 
HETATM    6  C7  UNL     1       4.760  12.717  43.154  1.00  0.00     0.049 A 
HETATM    7  O2  UNL     1       5.361  11.430  45.118  1.00  0.00    -0.346 OA
HETATM    8  C8  UNL     1       5.274  11.128  46.477  1.00  0.00     0.202 C 
HETATM    9  C9  UNL     1       4.942  12.322  47.342  1.00  0.00     0.202 C 
HETATM   10  O3  UNL     1       3.978  13.142  46.712  1.00  0.00    -0.346 OA
ENDROOT
BRANCH   1  11
HETATM   11  C1  UNL     1       4.160  14.022  41.087  1.00  0.00     0.203 C 
BRANCH  11  12
HETATM   12  O1  UNL     1       4.163  15.392  40.821  1.00  0.00    -0.396 OA
ATOM     13  H1  UNL     1       3.871  15.551  39.931  1.00  0.00     0.209 HD
ENDBRANCH  11  12
ENDBRANCH   1  11
TORSDOF 2
ENDMDL
