MODEL 8
REMARK VINA RESULT: -5.623505658      2.331      4.468
REMARK  2 active torsions:
REMARK  status: ('A' for Active; 'I' for Inactive)
REMARK    1  A    between atoms: O1_1  and  C1_3 
REMARK    2  A    between atoms: C1_3  and  C2_4 
ROOT
HETATM    1  C2  UNL     1       4.370  13.118  44.099  1.00  0.00    -0.032 A 
HETATM    2  C3  UNL     1       4.236  13.178  45.470  1.00  0.00     0.012 A 
HETATM    3  C4  UNL     1       4.845  12.203  46.254  1.00  0.00     0.040 A 
HETATM    4  C5  UNL     1       5.573  11.183  45.710  1.00  0.00     0.102 A 
HETATM    5  C6  UNL     1       5.710  11.117  44.346  1.00  0.00     0.102 A 
HETATM    6  C7  UNL     1       5.105  12.089  43.546  1.00  0.00     0.049 A 
HETATM    7  O2  UNL     1       6.448  10.085  43.786  1.00  0.00    -0.346 OA
HETATM    8  C8  UNL     1       7.000   9.045  44.533  1.00  0.00     0.202 C 
HETATM    9  C9  UNL     1       7.253   9.406  45.979  1.00  0.00     0.202 C 
HETATM   10  O3  UNL     1       6.194  10.191  46.489  1.00  0.00    -0.346 OA
ENDROOT
BRANCH   1  11
HETATM   11  C1  UNL     1       3.715  14.166  43.249  1.00  0.00     0.203 C 
BRANCH  11  12
HETATM   12  O1  UNL     1       3.043  15.083  44.058  1.00  0.00    -0.396 OA
ATOM     13  H1  UNL     1       3.157  14.854  44.973  1.00  0.00     0.209 HD
ENDBRANCH  11  12
ENDBRANCH   1  11
TORSDOF 2
ENDMDL
