MODEL 1
REMARK VINA RESULT: -6.538878007      0.000      0.000
REMARK  1 active torsions:
REMARK  status: ('A' for Active; 'I' for Inactive)
REMARK    1  A    between atoms: C2_2  and  C3_4 
ROOT
HETATM    1  C3  UNL     1       4.613  12.791  42.890  1.00  0.00     0.012 A 
HETATM    2  C4  UNL     1       4.888  11.931  43.936  1.00  0.00     0.018 A 
HETATM    3  C5  UNL     1       4.962  12.442  45.219  1.00  0.00     0.040 A 
HETATM    4  C6  UNL     1       4.764  13.794  45.460  1.00  0.00     0.102 A 
HETATM    5  C7  UNL     1       4.489  14.667  44.429  1.00  0.00     0.103 A 
HETATM    6  C8  UNL     1       4.421  14.130  43.152  1.00  0.00     0.054 A 
HETATM    7  O2  UNL     1       4.285  16.040  44.646  1.00  0.00    -0.346 OA
HETATM    8  C9  UNL     1       4.109  16.502  45.968  1.00  0.00     0.202 C 
HETATM    9  C10 UNL     1       5.010  15.726  46.914  1.00  0.00     0.202 C 
HETATM   10  O3  UNL     1       4.835  14.326  46.749  1.00  0.00    -0.346 OA
ENDROOT
BRANCH   1  11
HETATM   11  C2  UNL     1       4.536  12.253  41.538  1.00  0.00     0.155 C 
HETATM   12  C1  UNL     1       4.908  10.827  41.347  1.00  0.00     0.096 C 
HETATM   13  O1  UNL     1       4.176  12.944  40.573  1.00  0.00    -0.293 OA
ENDBRANCH   1  11
TORSDOF 1
ENDMDL
