MODEL 4
REMARK VINA RESULT: -6.466695464      1.086      1.204
REMARK  1 active torsions:
REMARK  status: ('A' for Active; 'I' for Inactive)
REMARK    1  A    between atoms: C2_2  and  C3_4 
ROOT
HETATM    1  C3  UNL     1       4.260  13.495  42.634  1.00  0.00     0.012 A 
HETATM    2  C4  UNL     1       4.591  12.286  43.215  1.00  0.00     0.018 A 
HETATM    3  C5  UNL     1       5.030  12.274  44.527  1.00  0.00     0.040 A 
HETATM    4  C6  UNL     1       5.140  13.452  45.252  1.00  0.00     0.102 A 
HETATM    5  C7  UNL     1       4.815  14.667  44.688  1.00  0.00     0.103 A 
HETATM    6  C8  UNL     1       4.377  14.652  43.372  1.00  0.00     0.054 A 
HETATM    7  O2  UNL     1       4.917  15.873  45.400  1.00  0.00    -0.346 OA
HETATM    8  C9  UNL     1       5.116  15.826  46.797  1.00  0.00     0.202 C 
HETATM    9  C10 UNL     1       6.041  14.673  47.151  1.00  0.00     0.202 C 
HETATM   10  O3  UNL     1       5.581  13.458  46.576  1.00  0.00    -0.346 OA
ENDROOT
BRANCH   1  11
HETATM   11  C2  UNL     1       3.798  13.507  41.252  1.00  0.00     0.155 C 
HETATM   12  C1  UNL     1       4.184  12.360  40.390  1.00  0.00     0.096 C 
HETATM   13  O1  UNL     1       3.107  14.431  40.796  1.00  0.00    -0.293 OA
ENDBRANCH   1  11
TORSDOF 1
ENDMDL
