MODEL 15
REMARK VINA RESULT: -6.139656430      1.843      4.627
REMARK  1 active torsions:
REMARK  status: ('A' for Active; 'I' for Inactive)
REMARK    1  A    between atoms: C2_2  and  C3_4 
ROOT
HETATM    1  C3  UNL     1       4.759  12.510  45.168  1.00  0.00     0.012 A 
HETATM    2  C4  UNL     1       5.262  11.332  44.649  1.00  0.00     0.018 A 
HETATM    3  C5  UNL     1       5.224  11.137  43.280  1.00  0.00     0.040 A 
HETATM    4  C6  UNL     1       4.692  12.102  42.437  1.00  0.00     0.102 A 
HETATM    5  C7  UNL     1       4.186  13.282  42.937  1.00  0.00     0.103 A 
HETATM    6  C8  UNL     1       4.236  13.454  44.312  1.00  0.00     0.054 A 
HETATM    7  O2  UNL     1       3.642  14.274  42.105  1.00  0.00    -0.346 OA
HETATM    8  C9  UNL     1       3.840  14.179  40.711  1.00  0.00     0.202 C 
HETATM    9  C10 UNL     1       3.773  12.725  40.275  1.00  0.00     0.202 C 
HETATM   10  O3  UNL     1       4.647  11.919  41.054  1.00  0.00    -0.346 OA
ENDROOT
BRANCH   1  11
HETATM   11  C2  UNL     1       4.799  12.716  46.610  1.00  0.00     0.155 C 
HETATM   12  C1  UNL     1       3.638  12.233  47.403  1.00  0.00     0.096 C 
HETATM   13  O1  UNL     1       5.756  13.272  47.171  1.00  0.00    -0.293 OA
ENDBRANCH   1  11
TORSDOF 1
ENDMDL
