MODEL 5
REMARK VINA RESULT: -6.433925441      2.723      4.386
REMARK  1 active torsions:
REMARK  status: ('A' for Active; 'I' for Inactive)
REMARK    1  A    between atoms: C2_2  and  C3_4 
ROOT
HETATM    1  C3  UNL     1       4.619  12.711  43.851  1.00  0.00     0.012 A 
HETATM    2  C4  UNL     1       4.802  13.169  45.142  1.00  0.00     0.018 A 
HETATM    3  C5  UNL     1       5.433  12.347  46.058  1.00  0.00     0.040 A 
HETATM    4  C6  UNL     1       5.878  11.084  45.695  1.00  0.00     0.102 A 
HETATM    5  C7  UNL     1       5.703  10.611  44.412  1.00  0.00     0.103 A 
HETATM    6  C8  UNL     1       5.067  11.453  43.513  1.00  0.00     0.054 A 
HETATM    7  O2  UNL     1       6.143   9.336  44.020  1.00  0.00    -0.346 OA
HETATM    8  C9  UNL     1       7.003   8.617  44.877  1.00  0.00     0.202 C 
HETATM    9  C10 UNL     1       6.609   8.854  46.326  1.00  0.00     0.202 C 
HETATM   10  O3  UNL     1       6.517  10.243  46.608  1.00  0.00    -0.346 OA
ENDROOT
BRANCH   1  11
HETATM   11  C2  UNL     1       3.953  13.576  42.886  1.00  0.00     0.155 C 
HETATM   12  C1  UNL     1       4.066  13.214  41.450  1.00  0.00     0.096 C 
HETATM   13  O1  UNL     1       3.313  14.581  43.233  1.00  0.00    -0.293 OA
ENDBRANCH   1  11
TORSDOF 1
ENDMDL
