MODEL 11
REMARK VINA RESULT: -5.722825589      2.638      3.697
REMARK  0 active torsions:
REMARK  status: ('A' for Active; 'I' for Inactive)
ROOT
HETATM    1  O1  UNL     1       5.411  10.725  43.096  1.00  0.00    -0.267 OA
HETATM    2  C1  UNL     1       4.822  11.779  42.783  1.00  0.00     0.258 A 
HETATM    3  N1  UNL     1       4.735  12.109  41.487  1.00  0.00    -0.319 N 
ATOM      4  H1  UNL     1       5.141  11.513  40.766  1.00  0.00     0.169 HD
HETATM    5  C2  UNL     1       4.092  13.260  41.160  1.00  0.00     0.183 A 
HETATM    6  N2  UNL     1       3.565  14.031  42.115  1.00  0.00    -0.351 N 
ATOM      7  H2  UNL     1       3.089  14.887  41.830  1.00  0.00     0.166 HD
HETATM    8  C3  UNL     1       3.622  13.748  43.428  1.00  0.00     0.048 A 
HETATM    9  C4  UNL     1       3.073  14.557  44.401  1.00  0.00     0.030 A 
HETATM   10  C5  UNL     1       3.146  14.246  45.742  1.00  0.00     0.002 A 
HETATM   11  C6  UNL     1       3.797  13.081  46.077  1.00  0.00     0.001 A 
HETATM   12  C7  UNL     1       4.353  12.259  45.119  1.00  0.00     0.019 A 
HETATM   13  C8  UNL     1       4.283  12.566  43.772  1.00  0.00     0.059 A 
ENDROOT
TORSDOF 0
ENDMDL
