MODEL 1
REMARK VINA RESULT: -5.193410479      0.000      0.000
REMARK  12 active torsions:
REMARK  status: ('A' for Active; 'I' for Inactive)
REMARK    1  A    between atoms: O1_1  and  C1_3 
REMARK    2  A    between atoms: C1_3  and  C2_4 
REMARK    3  A    between atoms: C3_6  and  O3_7 
REMARK    4  A    between atoms: O3_7  and  C4_8 
REMARK    5  A    between atoms: C5_9  and  C6_10 
REMARK    6  A    between atoms: C6_10  and  O4_11 
REMARK    7  A    between atoms: C7_14  and  O6_15 
REMARK    8  A    between atoms: C8_17  and  O7_18 
REMARK    9  A    between atoms: C9_20  and  O8_21 
REMARK   10  A    between atoms: C10_23  and  O9_24 
REMARK   11  A    between atoms: C11_26  and  O10_27 
REMARK   12  A    between atoms: C12_29  and  O11_30 
ROOT
HETATM    1  O3  UNL     1      26.766 -35.287  11.264  1.00  0.00    -0.348 OA
ENDROOT
BRANCH   1   2
HETATM    2  C3  UNL     1      27.313 -35.848  12.416  1.00  0.00     0.292 C 
HETATM    3  O2  UNL     1      27.276 -37.224  12.409  1.00  0.00    -0.348 OA
HETATM    4  C2  UNL     1      28.327 -37.677  13.203  1.00  0.00     0.179 C 
HETATM    5  C12 UNL     1      28.336 -37.012  14.561  1.00  0.00     0.180 C 
HETATM    6  C11 UNL     1      27.060 -36.238  14.813  1.00  0.00     0.183 C 
HETATM    7  C10 UNL     1      26.689 -35.335  13.669  1.00  0.00     0.204 C 
BRANCH   4   8
HETATM    8  C1  UNL     1      28.341 -39.185  13.311  1.00  0.00     0.198 C 
BRANCH   8   9
HETATM    9  O1  UNL     1      29.625 -39.705  13.381  1.00  0.00    -0.398 OA
ATOM     10  H1  UNL     1      29.885 -40.151  12.584  1.00  0.00     0.209 HD
ENDBRANCH   8   9
ENDBRANCH   4   8
BRANCH   5  11
HETATM   11  O11 UNL     1      28.373 -38.036  15.518  1.00  0.00    -0.390 OA
ATOM     12  H11 UNL     1      27.914 -37.715  16.286  1.00  0.00     0.210 HD
ENDBRANCH   5  11
BRANCH   6  13
HETATM   13  O10 UNL     1      27.307 -35.435  15.950  1.00  0.00    -0.390 OA
ATOM     14  H10 UNL     1      27.804 -35.949  16.575  1.00  0.00     0.210 HD
ENDBRANCH   6  13
BRANCH   7  15
HETATM   15  O9  UNL     1      25.284 -35.317  13.592  1.00  0.00    -0.388 OA
ATOM     16  H9  UNL     1      24.936 -34.433  13.605  1.00  0.00     0.210 HD
ENDBRANCH   7  15
ENDBRANCH   1   2
BRANCH   1  17
HETATM   17  C4  UNL     1      27.575 -34.334  10.682  1.00  0.00     0.187 C 
HETATM   18  C5  UNL     1      26.981 -32.969  10.928  1.00  0.00     0.180 C 
HETATM   19  O5  UNL     1      27.627 -31.962  10.232  1.00  0.00    -0.349 OA
HETATM   20  C7  UNL     1      27.681 -32.184   8.867  1.00  0.00     0.288 C 
HETATM   21  C8  UNL     1      28.332 -33.504   8.522  1.00  0.00     0.204 C 
HETATM   22  C9  UNL     1      27.681 -34.659   9.209  1.00  0.00     0.183 C 
BRANCH  18  23
HETATM   23  C6  UNL     1      25.482 -32.968  10.675  1.00  0.00     0.198 C 
BRANCH  23  24
HETATM   24  O4  UNL     1      24.836 -32.931  11.910  1.00  0.00    -0.398 OA
ATOM     25  H4  UNL     1      25.069 -33.718  12.388  1.00  0.00     0.209 HD
ENDBRANCH  23  24
ENDBRANCH  18  23
BRANCH  20  26
HETATM   26  O6  UNL     1      28.463 -31.177   8.303  1.00  0.00    -0.369 OA
ATOM     27  H6  UNL     1      28.774 -31.490   7.461  1.00  0.00     0.212 HD
ENDBRANCH  20  26
BRANCH  21  28
HETATM   28  O7  UNL     1      28.267 -33.654   7.139  1.00  0.00    -0.388 OA
ATOM     29  H7  UNL     1      28.977 -34.228   6.880  1.00  0.00     0.210 HD
ENDBRANCH  21  28
BRANCH  22  30
HETATM   30  O8  UNL     1      26.477 -35.037   8.657  1.00  0.00    -0.390 OA
ATOM     31  H8  UNL     1      25.934 -34.296   8.415  1.00  0.00     0.210 HD
ENDBRANCH  22  30
ENDBRANCH   1  17
TORSDOF 12
ENDMDL
