MODEL 3
REMARK VINA RESULT: -4.979148007      1.735      6.389
REMARK  12 active torsions:
REMARK  status: ('A' for Active; 'I' for Inactive)
REMARK    1  A    between atoms: O1_1  and  C1_3 
REMARK    2  A    between atoms: C1_3  and  C2_4 
REMARK    3  A    between atoms: C3_6  and  O3_7 
REMARK    4  A    between atoms: O3_7  and  C4_8 
REMARK    5  A    between atoms: C5_9  and  C6_10 
REMARK    6  A    between atoms: C6_10  and  O4_11 
REMARK    7  A    between atoms: C7_14  and  O6_15 
REMARK    8  A    between atoms: C8_17  and  O7_18 
REMARK    9  A    between atoms: C9_20  and  O8_21 
REMARK   10  A    between atoms: C10_23  and  O9_24 
REMARK   11  A    between atoms: C11_26  and  O10_27 
REMARK   12  A    between atoms: C12_29  and  O11_30 
ROOT
HETATM    1  O3  UNL     1      27.704 -35.887  12.451  1.00  0.00    -0.348 OA
ENDROOT
BRANCH   1   2
HETATM    2  C3  UNL     1      27.249 -35.016  11.465  1.00  0.00     0.292 C 
HETATM    3  O2  UNL     1      28.223 -34.147  11.029  1.00  0.00    -0.348 OA
HETATM    4  C2  UNL     1      27.914 -33.791   9.718  1.00  0.00     0.179 C 
HETATM    5  C12 UNL     1      26.484 -33.319   9.583  1.00  0.00     0.180 C 
HETATM    6  C11 UNL     1      25.840 -33.092  10.935  1.00  0.00     0.183 C 
HETATM    7  C10 UNL     1      26.039 -34.247  11.878  1.00  0.00     0.204 C 
BRANCH   4   8
HETATM    8  C1  UNL     1      28.896 -32.787   9.161  1.00  0.00     0.198 C 
BRANCH   8   9
HETATM    9  O1  UNL     1      29.228 -31.796  10.074  1.00  0.00    -0.398 OA
ATOM     10  H1  UNL     1      29.749 -31.102   9.690  1.00  0.00     0.209 HD
ENDBRANCH   8   9
ENDBRANCH   4   8
BRANCH   5  11
HETATM   11  O11 UNL     1      26.524 -32.070   8.950  1.00  0.00    -0.390 OA
ATOM     12  H11 UNL     1      27.411 -31.741   9.039  1.00  0.00     0.210 HD
ENDBRANCH   5  11
BRANCH   6  13
HETATM   13  O10 UNL     1      24.455 -32.953  10.690  1.00  0.00    -0.390 OA
ATOM     14  H10 UNL     1      23.984 -33.437  11.358  1.00  0.00     0.210 HD
ENDBRANCH   6  13
BRANCH   7  15
HETATM   15  O9  UNL     1      26.168 -33.710  13.172  1.00  0.00    -0.388 OA
ATOM     16  H9  UNL     1      26.417 -32.794  13.156  1.00  0.00     0.210 HD
ENDBRANCH   7  15
ENDBRANCH   1   2
BRANCH   1  17
HETATM   17  C4  UNL     1      26.831 -36.922  12.713  1.00  0.00     0.187 C 
HETATM   18  C5  UNL     1      26.418 -36.861  14.163  1.00  0.00     0.180 C 
HETATM   19  O5  UNL     1      25.680 -37.963  14.564  1.00  0.00    -0.349 OA
HETATM   20  C7  UNL     1      26.322 -39.167  14.335  1.00  0.00     0.288 C 
HETATM   21  C8  UNL     1      26.710 -39.348  12.885  1.00  0.00     0.204 C 
HETATM   22  C9  UNL     1      27.535 -38.215  12.369  1.00  0.00     0.183 C 
BRANCH  18  23
HETATM   23  C6  UNL     1      27.615 -36.615  15.066  1.00  0.00     0.198 C 
BRANCH  23  24
HETATM   24  O4  UNL     1      27.515 -35.319  15.571  1.00  0.00    -0.398 OA
ATOM     25  H4  UNL     1      27.127 -34.771  14.900  1.00  0.00     0.209 HD
ENDBRANCH  23  24
ENDBRANCH  18  23
BRANCH  20  26
HETATM   26  O6  UNL     1      25.432 -40.191  14.656  1.00  0.00    -0.369 OA
ATOM     27  H6  UNL     1      25.935 -40.904  15.032  1.00  0.00     0.212 HD
ENDBRANCH  20  26
BRANCH  21  28
HETATM   28  O7  UNL     1      27.407 -40.549  12.786  1.00  0.00    -0.388 OA
ATOM     29  H7  UNL     1      26.859 -41.159  12.306  1.00  0.00     0.210 HD
ENDBRANCH  21  28
BRANCH  22  30
HETATM   30  O8  UNL     1      28.847 -38.237  12.788  1.00  0.00    -0.390 OA
ATOM     31  H8  UNL     1      29.405 -38.760  12.223  1.00  0.00     0.210 HD
ENDBRANCH  22  30
ENDBRANCH   1  17
TORSDOF 12
ENDMDL
