MODEL 2
REMARK VINA RESULT: -5.111309720      1.598      6.348
REMARK  12 active torsions:
REMARK  status: ('A' for Active; 'I' for Inactive)
REMARK    1  A    between atoms: O1_1  and  C1_3 
REMARK    2  A    between atoms: C1_3  and  C2_4 
REMARK    3  A    between atoms: C3_6  and  O3_7 
REMARK    4  A    between atoms: O3_7  and  C4_8 
REMARK    5  A    between atoms: C5_9  and  C6_10 
REMARK    6  A    between atoms: C6_10  and  O4_11 
REMARK    7  A    between atoms: C7_14  and  O6_15 
REMARK    8  A    between atoms: C8_17  and  O7_18 
REMARK    9  A    between atoms: C9_20  and  O8_21 
REMARK   10  A    between atoms: C10_23  and  O9_24 
REMARK   11  A    between atoms: C11_26  and  O10_27 
REMARK   12  A    between atoms: C12_29  and  O11_30 
ROOT
HETATM    1  O3  UNL     1      26.855 -34.819  12.313  1.00  0.00    -0.348 OA
ENDROOT
BRANCH   1   2
HETATM    2  C3  UNL     1      26.827 -34.196  11.068  1.00  0.00     0.292 C 
HETATM    3  O2  UNL     1      27.807 -33.240  10.927  1.00  0.00    -0.348 OA
HETATM    4  C2  UNL     1      28.106 -33.140   9.571  1.00  0.00     0.179 C 
HETATM    5  C12 UNL     1      26.862 -32.956   8.731  1.00  0.00     0.180 C 
HETATM    6  C11 UNL     1      25.649 -32.654   9.585  1.00  0.00     0.183 C 
HETATM    7  C10 UNL     1      25.497 -33.605  10.741  1.00  0.00     0.204 C 
BRANCH   4   8
HETATM    8  C1  UNL     1      29.136 -32.068   9.299  1.00  0.00     0.198 C 
BRANCH   8   9
HETATM    9  O1  UNL     1      30.346 -32.314   9.932  1.00  0.00    -0.398 OA
ATOM     10  H1  UNL     1      30.367 -33.156  10.370  1.00  0.00     0.209 HD
ENDBRANCH   8   9
ENDBRANCH   4   8
BRANCH   5  11
HETATM   11  O11 UNL     1      27.073 -31.825   7.930  1.00  0.00    -0.390 OA
ATOM     12  H11 UNL     1      27.435 -32.132   7.106  1.00  0.00     0.210 HD
ENDBRANCH   5  11
BRANCH   6  13
HETATM   13  O10 UNL     1      24.527 -32.801   8.739  1.00  0.00    -0.390 OA
ATOM     14  H10 UNL     1      23.860 -33.286   9.210  1.00  0.00     0.210 HD
ENDBRANCH   6  13
BRANCH   7  15
HETATM   15  O9  UNL     1      24.965 -32.871  11.817  1.00  0.00    -0.388 OA
ATOM     16  H9  UNL     1      24.019 -32.943  11.865  1.00  0.00     0.210 HD
ENDBRANCH   7  15
ENDBRANCH   1   2
BRANCH   1  17
HETATM   17  C4  UNL     1      27.035 -36.184  12.239  1.00  0.00     0.187 C 
HETATM   18  C5  UNL     1      25.718 -36.868  12.512  1.00  0.00     0.180 C 
HETATM   19  O5  UNL     1      25.835 -38.243  12.633  1.00  0.00    -0.349 OA
HETATM   20  C7  UNL     1      26.748 -38.634  13.596  1.00  0.00     0.288 C 
HETATM   21  C8  UNL     1      28.123 -38.052  13.360  1.00  0.00     0.204 C 
HETATM   22  C9  UNL     1      28.100 -36.563  13.242  1.00  0.00     0.183 C 
BRANCH  18  23
HETATM   23  C6  UNL     1      25.014 -36.248  13.707  1.00  0.00     0.198 C 
BRANCH  23  24
HETATM   24  O4  UNL     1      24.009 -35.408  13.228  1.00  0.00    -0.398 OA
ATOM     25  H4  UNL     1      24.172 -35.252  12.305  1.00  0.00     0.209 HD
ENDBRANCH  23  24
ENDBRANCH  18  23
BRANCH  20  26
HETATM   26  O6  UNL     1      26.870 -40.022  13.528  1.00  0.00    -0.369 OA
ATOM     27  H6  UNL     1      27.759 -40.221  13.260  1.00  0.00     0.212 HD
ENDBRANCH  20  26
BRANCH  21  28
HETATM   28  O7  UNL     1      28.934 -38.450  14.419  1.00  0.00    -0.388 OA
ATOM     29  H7  UNL     1      29.720 -37.917  14.394  1.00  0.00     0.210 HD
ENDBRANCH  21  28
BRANCH  22  30
HETATM   30  O8  UNL     1      27.960 -35.906  14.444  1.00  0.00    -0.390 OA
ATOM     31  H8  UNL     1      28.647 -36.121  15.064  1.00  0.00     0.210 HD
ENDBRANCH  22  30
ENDBRANCH   1  17
TORSDOF 12
ENDMDL
