MODEL 5
REMARK VINA RESULT: -8.338331012      2.762      4.797
REMARK  3 active torsions:
REMARK  status: ('A' for Active; 'I' for Inactive)
REMARK    1  A    between atoms: C4_7  and  C5_8 
REMARK    2  A    between atoms: C6_9  and  C7_10 
REMARK    3  A    between atoms: N4_20  and  C14_21 
ROOT
HETATM    1  C5  UNL     1      22.516 -23.391  26.755  1.00  0.00     0.090 A 
HETATM    2  C6  UNL     1      22.445 -23.851  28.049  1.00  0.00     0.073 A 
HETATM    3  N3  UNL     1      23.523 -24.654  28.292  1.00  0.00    -0.350 N 
ATOM      4  H3  UNL     1      23.735 -25.135  29.166  1.00  0.00     0.166 HD
HETATM    5  C13 UNL     1      24.251 -24.691  27.166  1.00  0.00     0.184 A 
HETATM    6  N4  UNL     1      23.630 -23.918  26.234  1.00  0.00    -0.334 N 
ENDROOT
BRANCH   1   7
HETATM    7  C4  UNL     1      21.563 -22.512  26.109  1.00  0.00     0.065 A 
HETATM    8  C3  UNL     1      20.597 -23.031  25.261  1.00  0.00     0.049 A 
HETATM    9  C2  UNL     1      19.729 -22.129  24.687  1.00  0.00     0.093 A 
HETATM   10  N2  UNL     1      19.801 -20.806  24.927  1.00  0.00    -0.340 N 
HETATM   11  C1  UNL     1      20.737 -20.300  25.749  1.00  0.00     0.192 A 
ATOM     12  H2  UNL     1      19.134 -20.178  24.479  1.00  0.00     0.167 HD
HETATM   13  N1  UNL     1      20.783 -18.895  25.980  1.00  0.00    -0.063 NA
HETATM   14  N6  UNL     1      21.587 -21.159  26.315  1.00  0.00    -0.328 N 
ATOM     15  H6  UNL     1      22.300 -20.784  26.940  1.00  0.00     0.168 HD
ENDBRANCH   1   7
BRANCH   2  16
HETATM   16  C7  UNL     1      21.424 -23.568  29.038  1.00  0.00    -0.007 A 
HETATM   17  C8  UNL     1      21.535 -22.544  29.947  1.00  0.00     0.017 A 
HETATM   18  C9  UNL     1      20.567 -22.273  30.889  1.00  0.00     0.043 A 
HETATM   19  C10 UNL     1      19.423 -23.038  30.956  1.00  0.00     0.116 A 
HETATM   20  F1  UNL     1      18.447 -22.797  31.874  1.00  0.00    -0.206 F 
HETATM   21  C11 UNL     1      19.290 -24.070  30.053  1.00  0.00     0.043 A 
HETATM   22  C12 UNL     1      20.281 -24.331  29.105  1.00  0.00     0.017 A 
ENDBRANCH   2  16
BRANCH   6  23
HETATM   23  C14 UNL     1      24.081 -23.690  24.894  1.00  0.00     0.094 C 
HETATM   24  C15 UNL     1      25.302 -24.595  24.661  1.00  0.00     0.053 C 
HETATM   25  C16 UNL     1      25.853 -24.401  23.271  1.00  0.00     0.234 C 
HETATM   26  N5  UNL     1      26.081 -23.020  22.944  1.00  0.00    -0.075 N 
HETATM   27  C17 UNL     1      24.984 -22.152  23.242  1.00  0.00     0.234 C 
ATOM     28  H52 UNL     1      26.932 -22.684  23.394  1.00  0.00     0.277 HD
ATOM     29  H51 UNL     1      26.352 -22.927  21.965  1.00  0.00     0.277 HD
HETATM   30  C18 UNL     1      24.643 -22.277  24.700  1.00  0.00     0.053 C 
ENDBRANCH   6  23
TORSDOF 3
ENDMDL
