MODEL 2
REMARK VINA RESULT: -9.178739462      0.698      1.297
REMARK  3 active torsions:
REMARK  status: ('A' for Active; 'I' for Inactive)
REMARK    1  A    between atoms: C4_7  and  C5_8 
REMARK    2  A    between atoms: C6_9  and  C7_10 
REMARK    3  A    between atoms: N4_20  and  C14_21 
ROOT
HETATM    1  C5  UNL     1      20.901 -21.480  29.090  1.00  0.00     0.090 A 
HETATM    2  C6  UNL     1      20.325 -20.971  30.231  1.00  0.00     0.073 A 
HETATM    3  N3  UNL     1      19.942 -19.681  29.994  1.00  0.00    -0.350 N 
ATOM      4  H3  UNL     1      19.487 -19.053  30.657  1.00  0.00     0.166 HD
HETATM    5  C13 UNL     1      20.276 -19.395  28.727  1.00  0.00     0.184 A 
HETATM    6  N4  UNL     1      20.859 -20.498  28.183  1.00  0.00    -0.334 N 
ENDROOT
BRANCH   1   7
HETATM    7  C4  UNL     1      21.436 -22.817  28.930  1.00  0.00     0.065 A 
HETATM    8  C3  UNL     1      22.766 -22.999  28.585  1.00  0.00     0.049 A 
HETATM    9  C2  UNL     1      23.197 -24.301  28.452  1.00  0.00     0.093 A 
HETATM   10  N2  UNL     1      22.380 -25.354  28.643  1.00  0.00    -0.340 N 
HETATM   11  C1  UNL     1      21.090 -25.179  28.977  1.00  0.00     0.192 A 
ATOM     12  H2  UNL     1      22.746 -26.300  28.533  1.00  0.00     0.167 HD
HETATM   13  N1  UNL     1      20.254 -26.317  29.172  1.00  0.00    -0.063 NA
HETATM   14  N6  UNL     1      20.654 -23.925  29.111  1.00  0.00    -0.328 N 
ATOM     15  H6  UNL     1      19.676 -23.783  29.365  1.00  0.00     0.168 HD
ENDBRANCH   1   7
BRANCH   2  16
HETATM   16  C7  UNL     1      20.127 -21.640  31.502  1.00  0.00    -0.007 A 
HETATM   17  C8  UNL     1      21.144 -22.278  32.171  1.00  0.00     0.017 A 
HETATM   18  C9  UNL     1      20.958 -22.915  33.378  1.00  0.00     0.043 A 
HETATM   19  C10 UNL     1      19.716 -22.936  33.974  1.00  0.00     0.116 A 
HETATM   20  F1  UNL     1      19.499 -23.556  35.166  1.00  0.00    -0.206 F 
HETATM   21  C11 UNL     1      18.682 -22.302  33.320  1.00  0.00     0.043 A 
HETATM   22  C12 UNL     1      18.888 -21.662  32.098  1.00  0.00     0.017 A 
ENDBRANCH   2  16
BRANCH   6  23
HETATM   23  C14 UNL     1      21.361 -20.612  26.846  1.00  0.00     0.094 C 
HETATM   24  C15 UNL     1      21.245 -19.225  26.194  1.00  0.00     0.053 C 
HETATM   25  C16 UNL     1      21.738 -19.262  24.769  1.00  0.00     0.234 C 
HETATM   26  N5  UNL     1      21.147 -20.321  23.997  1.00  0.00    -0.075 N 
HETATM   27  C17 UNL     1      21.166 -21.601  24.635  1.00  0.00     0.234 C 
ATOM     28  H52 UNL     1      20.195 -20.074  23.725  1.00  0.00     0.277 HD
ATOM     29  H51 UNL     1      21.583 -20.375  23.076  1.00  0.00     0.277 HD
HETATM   30  C18 UNL     1      20.473 -21.497  25.964  1.00  0.00     0.053 C 
ENDBRANCH   6  23
TORSDOF 3
ENDMDL
