MODEL 1
REMARK VINA RESULT: -9.697435328      0.000      0.000
REMARK  3 active torsions:
REMARK  status: ('A' for Active; 'I' for Inactive)
REMARK    1  A    between atoms: C4_7  and  C5_8 
REMARK    2  A    between atoms: C6_9  and  C7_10 
REMARK    3  A    between atoms: N4_20  and  C14_21 
ROOT
HETATM    1  C5  UNL     1      20.814 -21.734  29.121  1.00  0.00     0.090 A 
HETATM    2  C6  UNL     1      20.358 -21.144  30.277  1.00  0.00     0.073 A 
HETATM    3  N3  UNL     1      20.188 -19.806  30.053  1.00  0.00    -0.350 N 
ATOM      4  H3  UNL     1      19.860 -19.116  30.728  1.00  0.00     0.166 HD
HETATM    5  C13 UNL     1      20.534 -19.572  28.778  1.00  0.00     0.184 A 
HETATM    6  N4  UNL     1      20.913 -20.752  28.217  1.00  0.00    -0.334 N 
ENDROOT
BRANCH   1   7
HETATM    7  C4  UNL     1      21.116 -23.139  28.944  1.00  0.00     0.065 A 
HETATM    8  C3  UNL     1      20.100 -24.082  28.987  1.00  0.00     0.049 A 
HETATM    9  C2  UNL     1      20.470 -25.397  28.810  1.00  0.00     0.093 A 
HETATM   10  N2  UNL     1      21.749 -25.765  28.605  1.00  0.00    -0.340 N 
HETATM   11  C1  UNL     1      22.735 -24.853  28.564  1.00  0.00     0.192 A 
ATOM     12  H2  UNL     1      21.973 -26.752  28.479  1.00  0.00     0.167 HD
HETATM   13  N1  UNL     1      24.078 -25.279  28.345  1.00  0.00    -0.063 NA
HETATM   14  N6  UNL     1      22.396 -23.573  28.733  1.00  0.00    -0.328 N 
ATOM     15  H6  UNL     1      23.138 -22.874  28.702  1.00  0.00     0.168 HD
ENDBRANCH   1   7
BRANCH   2  16
HETATM   16  C7  UNL     1      20.083 -21.779  31.551  1.00  0.00    -0.007 A 
HETATM   17  C8  UNL     1      21.065 -22.359  32.317  1.00  0.00     0.017 A 
HETATM   18  C9  UNL     1      20.806 -22.964  33.528  1.00  0.00     0.043 A 
HETATM   19  C10 UNL     1      19.523 -23.010  34.027  1.00  0.00     0.116 A 
HETATM   20  F1  UNL     1      19.233 -23.600  35.218  1.00  0.00    -0.206 F 
HETATM   21  C11 UNL     1      18.523 -22.435  33.273  1.00  0.00     0.043 A 
HETATM   22  C12 UNL     1      18.802 -21.826  32.049  1.00  0.00     0.017 A 
ENDBRANCH   2  16
BRANCH   6  23
HETATM   23  C14 UNL     1      21.357 -20.939  26.868  1.00  0.00     0.094 C 
HETATM   24  C15 UNL     1      21.553 -19.543  26.253  1.00  0.00     0.053 C 
HETATM   25  C16 UNL     1      22.004 -19.651  24.819  1.00  0.00     0.234 C 
HETATM   26  N5  UNL     1      21.175 -20.523  24.032  1.00  0.00    -0.075 N 
HETATM   27  C17 UNL     1      20.909 -21.792  24.636  1.00  0.00     0.234 C 
ATOM     28  H52 UNL     1      20.301 -20.057  23.786  1.00  0.00     0.277 HD
ATOM     29  H51 UNL     1      21.574 -20.649  23.101  1.00  0.00     0.277 HD
HETATM   30  C18 UNL     1      20.277 -21.570  25.982  1.00  0.00     0.053 C 
ENDBRANCH   6  23
TORSDOF 3
ENDMDL
