MODEL 6
REMARK VINA RESULT: -7.981048255      2.521      4.865
REMARK  3 active torsions:
REMARK  status: ('A' for Active; 'I' for Inactive)
REMARK    1  A    between atoms: C4_7  and  C5_8 
REMARK    2  A    between atoms: C6_9  and  C7_10 
REMARK    3  A    between atoms: N4_20  and  C14_21 
ROOT
HETATM    1  C5  UNL     1      21.925 -20.778  26.943  1.00  0.00     0.090 A 
HETATM    2  C6  UNL     1      22.006 -21.330  28.200  1.00  0.00     0.073 A 
HETATM    3  N3  UNL     1      23.147 -22.079  28.281  1.00  0.00    -0.350 N 
ATOM      4  H3  UNL     1      23.469 -22.604  29.093  1.00  0.00     0.166 HD
HETATM    5  C13 UNL     1      23.762 -21.992  27.093  1.00  0.00     0.184 A 
HETATM    6  N4  UNL     1      23.011 -21.197  26.283  1.00  0.00    -0.334 N 
ENDROOT
BRANCH   1   7
HETATM    7  C4  UNL     1      20.866 -19.918  26.457  1.00  0.00     0.065 A 
HETATM    8  C3  UNL     1      19.703 -20.467  25.939  1.00  0.00     0.049 A 
HETATM    9  C2  UNL     1      18.745 -19.582  25.498  1.00  0.00     0.093 A 
HETATM   10  N2  UNL     1      18.913 -18.247  25.559  1.00  0.00    -0.340 N 
HETATM   11  C1  UNL     1      20.041 -17.713  26.059  1.00  0.00     0.192 A 
ATOM     12  H2  UNL     1      18.174 -17.632  25.220  1.00  0.00     0.167 HD
HETATM   13  N1  UNL     1      20.185 -16.295  26.108  1.00  0.00    -0.063 NA
HETATM   14  N6  UNL     1      20.981 -18.555  26.492  1.00  0.00    -0.328 N 
ATOM     15  H6  UNL     1      21.839 -18.158  26.874  1.00  0.00     0.168 HD
ENDBRANCH   1   7
BRANCH   2  16
HETATM   16  C7  UNL     1      21.072 -21.180  29.299  1.00  0.00    -0.007 A 
HETATM   17  C8  UNL     1      20.558 -19.963  29.674  1.00  0.00     0.017 A 
HETATM   18  C9  UNL     1      19.671 -19.817  30.718  1.00  0.00     0.043 A 
HETATM   19  C10 UNL     1      19.257 -20.914  31.442  1.00  0.00     0.116 A 
HETATM   20  F1  UNL     1      18.383 -20.805  32.479  1.00  0.00    -0.206 F 
HETATM   21  C11 UNL     1      19.761 -22.145  31.083  1.00  0.00     0.043 A 
HETATM   22  C12 UNL     1      20.659 -22.274  30.022  1.00  0.00     0.017 A 
ENDBRANCH   2  16
BRANCH   6  23
HETATM   23  C14 UNL     1      23.316 -20.850  24.927  1.00  0.00     0.094 C 
HETATM   24  C15 UNL     1      24.327 -21.883  24.405  1.00  0.00     0.053 C 
HETATM   25  C16 UNL     1      24.717 -21.577  22.982  1.00  0.00     0.234 C 
HETATM   26  N5  UNL     1      25.129 -20.213  22.792  1.00  0.00    -0.075 N 
HETATM   27  C17 UNL     1      24.241 -19.243  23.355  1.00  0.00     0.234 C 
ATOM     28  H52 UNL     1      26.076 -20.075  23.146  1.00  0.00     0.277 HD
ATOM     29  H51 UNL     1      25.283 -20.022  21.802  1.00  0.00     0.277 HD
HETATM   30  C18 UNL     1      24.076 -19.523  24.822  1.00  0.00     0.053 C 
ENDBRANCH   6  23
TORSDOF 3
ENDMDL
