MODEL 3
REMARK VINA RESULT: -8.757285659      2.895      6.234
REMARK  3 active torsions:
REMARK  status: ('A' for Active; 'I' for Inactive)
REMARK    1  A    between atoms: C4_7  and  C5_8 
REMARK    2  A    between atoms: C6_9  and  C7_10 
REMARK    3  A    between atoms: N4_20  and  C14_21 
ROOT
HETATM    1  C5  UNL     1      20.641 -21.785  29.825  1.00  0.00     0.090 A 
HETATM    2  C6  UNL     1      20.827 -20.617  29.122  1.00  0.00     0.073 A 
HETATM    3  N3  UNL     1      20.412 -19.567  29.891  1.00  0.00    -0.350 N 
ATOM      4  H3  UNL     1      20.430 -18.581  29.631  1.00  0.00     0.166 HD
HETATM    5  C13 UNL     1      19.974 -20.076  31.052  1.00  0.00     0.184 A 
HETATM    6  N4  UNL     1      20.118 -21.428  31.004  1.00  0.00    -0.334 N 
ENDROOT
BRANCH   1   7
HETATM    7  C4  UNL     1      20.957 -23.120  29.360  1.00  0.00     0.065 A 
HETATM    8  C3  UNL     1      19.944 -24.040  29.137  1.00  0.00     0.049 A 
HETATM    9  C2  UNL     1      20.328 -25.286  28.695  1.00  0.00     0.093 A 
HETATM   10  N2  UNL     1      21.618 -25.612  28.486  1.00  0.00    -0.340 N 
HETATM   11  C1  UNL     1      22.601 -24.721  28.702  1.00  0.00     0.192 A 
ATOM     12  H2  UNL     1      21.852 -26.549  28.158  1.00  0.00     0.167 HD
HETATM   13  N1  UNL     1      23.956 -25.101  28.470  1.00  0.00    -0.063 NA
HETATM   14  N6  UNL     1      22.249 -23.507  29.130  1.00  0.00    -0.328 N 
ATOM     15  H6  UNL     1      22.989 -22.825  29.296  1.00  0.00     0.168 HD
ENDBRANCH   1   7
BRANCH   2  16
HETATM   16  C7  UNL     1      21.369 -20.461  27.787  1.00  0.00    -0.007 A 
HETATM   17  C8  UNL     1      20.576 -20.380  26.668  1.00  0.00     0.017 A 
HETATM   18  C9  UNL     1      21.089 -20.232  25.398  1.00  0.00     0.043 A 
HETATM   19  C10 UNL     1      22.450 -20.158  25.198  1.00  0.00     0.116 A 
HETATM   20  F1  UNL     1      22.989 -20.013  23.957  1.00  0.00    -0.206 F 
HETATM   21  C11 UNL     1      23.265 -20.238  26.306  1.00  0.00     0.043 A 
HETATM   22  C12 UNL     1      22.728 -20.388  27.586  1.00  0.00     0.017 A 
ENDBRANCH   2  16
BRANCH   6  23
HETATM   23  C14 UNL     1      19.769 -22.350  32.044  1.00  0.00     0.094 C 
HETATM   24  C15 UNL     1      18.597 -21.734  32.826  1.00  0.00     0.053 C 
HETATM   25  C16 UNL     1      18.178 -22.638  33.958  1.00  0.00     0.234 C 
HETATM   26  N5  UNL     1      19.278 -23.051  34.785  1.00  0.00    -0.075 N 
HETATM   27  C17 UNL     1      20.412 -23.540  34.063  1.00  0.00     0.234 C 
ATOM     28  H52 UNL     1      19.555 -22.295  35.412  1.00  0.00     0.277 HD
ATOM     29  H51 UNL     1      18.968 -23.740  35.471  1.00  0.00     0.277 HD
HETATM   30  C18 UNL     1      20.872 -22.483  33.099  1.00  0.00     0.053 C 
ENDBRANCH   6  23
TORSDOF 3
ENDMDL
