MODEL 19
REMARK VINA RESULT: -5.722533902      2.135      3.236
REMARK  11 active torsions:
REMARK  status: ('A' for Active; 'I' for Inactive)
REMARK    1  A    between atoms: C2_2  and  C3_3 
REMARK    2  A    between atoms: C3_3  and  C4_4 
REMARK    3  A    between atoms: C5_5  and  C6_6 
REMARK    4  A    between atoms: C6_6  and  C7_7 
REMARK    5  A    between atoms: C7_7  and  O1_8 
REMARK    6  A    between atoms: O1_8  and  C8_9 
REMARK    7  A    between atoms: C9_11  and  C10_12 
REMARK    8  A    between atoms: C10_12  and  O3_13 
REMARK    9  A    between atoms: C11_15  and  O4_16 
REMARK   10  A    between atoms: C12_18  and  O5_19 
REMARK   11  A    between atoms: C13_21  and  O6_22 
ROOT
HETATM    1  C8  UNL     1      10.427  -6.492 -37.103  1.00  0.00     0.291 C 
HETATM    2  O2  UNL     1      11.761  -6.151 -37.142  1.00  0.00    -0.348 OA
HETATM    3  C9  UNL     1      12.485  -7.226 -36.665  1.00  0.00     0.179 C 
HETATM    4  C11 UNL     1      11.900  -7.877 -35.457  1.00  0.00     0.180 C 
HETATM    5  C12 UNL     1      10.806  -7.104 -34.793  1.00  0.00     0.183 C 
HETATM    6  C13 UNL     1       9.942  -6.301 -35.697  1.00  0.00     0.204 C 
ENDROOT
BRANCH   1   7
HETATM    7  O1  UNL     1       9.654  -5.853 -38.048  1.00  0.00    -0.358 OA
BRANCH   7   8
HETATM    8  C7  UNL     1      10.139  -5.957 -39.336  1.00  0.00     0.174 C 
BRANCH   8   9
HETATM    9  C6  UNL     1       9.350  -4.998 -40.213  1.00  0.00     0.053 C 
BRANCH   9  10
HETATM   10  C5  UNL     1       9.109  -3.697 -39.569  1.00  0.00    -0.029 C 
HETATM   11  C4  UNL     1       7.897  -3.173 -39.482  1.00  0.00    -0.031 C 
BRANCH  11  12
HETATM   12  C3  UNL     1       7.622  -1.855 -38.833  1.00  0.00     0.026 C 
BRANCH  12  13
HETATM   13  C2  UNL     1       8.902  -1.223 -38.299  1.00  0.00    -0.001 C 
HETATM   14  C1  UNL     1       8.499  -0.219 -37.250  1.00  0.00     0.005 C 
ENDBRANCH  12  13
ENDBRANCH  11  12
ENDBRANCH   9  10
ENDBRANCH   8   9
ENDBRANCH   7   8
ENDBRANCH   1   7
BRANCH   6  15
HETATM   15  O6  UNL     1       8.632  -6.798 -35.629  1.00  0.00    -0.388 OA
ATOM     16  H6  UNL     1       8.429  -6.948 -34.713  1.00  0.00     0.210 HD
ENDBRANCH   6  15
BRANCH   3  17
HETATM   17  C10 UNL     1      12.750  -8.259 -37.751  1.00  0.00     0.198 C 
BRANCH  17  18
HETATM   18  O3  UNL     1      13.004  -9.514 -37.212  1.00  0.00    -0.398 OA
ATOM     19  H3  UNL     1      12.335 -10.142 -37.458  1.00  0.00     0.209 HD
ENDBRANCH  17  18
ENDBRANCH   3  17
BRANCH   5  20
HETATM   20  O5  UNL     1      10.021  -7.925 -33.986  1.00  0.00    -0.390 OA
ATOM     21  H5  UNL     1       9.288  -8.287 -34.469  1.00  0.00     0.210 HD
ENDBRANCH   5  20
BRANCH   4  22
HETATM   22  O4  UNL     1      12.902  -8.170 -34.516  1.00  0.00    -0.390 OA
ATOM     23  H4  UNL     1      12.531  -8.597 -33.752  1.00  0.00     0.210 HD
ENDBRANCH   4  22
TORSDOF 11
ENDMDL
