MODEL 5
REMARK VINA RESULT: -6.301469830      1.774      2.792
REMARK  11 active torsions:
REMARK  status: ('A' for Active; 'I' for Inactive)
REMARK    1  A    between atoms: C2_2  and  C3_3 
REMARK    2  A    between atoms: C3_3  and  C4_4 
REMARK    3  A    between atoms: C5_5  and  C6_6 
REMARK    4  A    between atoms: C6_6  and  C7_7 
REMARK    5  A    between atoms: C7_7  and  O1_8 
REMARK    6  A    between atoms: O1_8  and  C8_9 
REMARK    7  A    between atoms: C9_11  and  C10_12 
REMARK    8  A    between atoms: C10_12  and  O3_13 
REMARK    9  A    between atoms: C11_15  and  O4_16 
REMARK   10  A    between atoms: C12_18  and  O5_19 
REMARK   11  A    between atoms: C13_21  and  O6_22 
ROOT
HETATM    1  C8  UNL     1      11.084  -5.775 -35.806  1.00  0.00     0.291 C 
HETATM    2  O2  UNL     1      10.808  -6.899 -36.552  1.00  0.00    -0.348 OA
HETATM    3  C9  UNL     1      10.403  -7.893 -35.682  1.00  0.00     0.179 C 
HETATM    4  C11 UNL     1      11.213  -7.987 -34.433  1.00  0.00     0.180 C 
HETATM    5  C12 UNL     1      12.486  -7.204 -34.447  1.00  0.00     0.183 C 
HETATM    6  C13 UNL     1      12.454  -5.934 -35.219  1.00  0.00     0.204 C 
ENDROOT
BRANCH   1   7
HETATM    7  O1  UNL     1      10.907  -4.590 -36.486  1.00  0.00    -0.358 OA
BRANCH   7   8
HETATM    8  C7  UNL     1      11.215  -4.660 -37.830  1.00  0.00     0.174 C 
BRANCH   8   9
HETATM    9  C6  UNL     1       9.917  -4.557 -38.614  1.00  0.00     0.053 C 
BRANCH   9  10
HETATM   10  C5  UNL     1       9.891  -5.429 -39.799  1.00  0.00    -0.029 C 
HETATM   11  C4  UNL     1      10.824  -6.341 -40.020  1.00  0.00    -0.031 C 
BRANCH  11  12
HETATM   12  C3  UNL     1      10.822  -7.239 -41.214  1.00  0.00     0.026 C 
BRANCH  12  13
HETATM   13  C2  UNL     1      12.161  -7.197 -41.942  1.00  0.00    -0.001 C 
HETATM   14  C1  UNL     1      13.237  -7.110 -40.891  1.00  0.00     0.005 C 
ENDBRANCH  12  13
ENDBRANCH  11  12
ENDBRANCH   9  10
ENDBRANCH   8   9
ENDBRANCH   7   8
ENDBRANCH   1   7
BRANCH   6  15
HETATM   15  O6  UNL     1      12.665  -4.865 -34.337  1.00  0.00    -0.388 OA
ATOM     16  H6  UNL     1      13.282  -5.155 -33.676  1.00  0.00     0.210 HD
ENDBRANCH   6  15
BRANCH   3  17
HETATM   17  C10 UNL     1       8.921  -7.788 -35.350  1.00  0.00     0.198 C 
BRANCH  17  18
HETATM   18  O3  UNL     1       8.714  -7.182 -34.118  1.00  0.00    -0.398 OA
ATOM     19  H3  UNL     1       8.429  -6.282 -34.214  1.00  0.00     0.209 HD
ENDBRANCH  17  18
ENDBRANCH   3  17
BRANCH   5  20
HETATM   20  O5  UNL     1      12.952  -6.967 -33.155  1.00  0.00    -0.390 OA
ATOM     21  H5  UNL     1      13.892  -6.834 -33.145  1.00  0.00     0.210 HD
ENDBRANCH   5  20
BRANCH   4  22
HETATM   22  O4  UNL     1      11.494  -9.329 -34.122  1.00  0.00    -0.390 OA
ATOM     23  H4  UNL     1      11.222  -9.533 -33.235  1.00  0.00     0.210 HD
ENDBRANCH   4  22
TORSDOF 11
ENDMDL
