MODEL 4
REMARK VINA RESULT: -6.341846997      1.303      1.992
REMARK  11 active torsions:
REMARK  status: ('A' for Active; 'I' for Inactive)
REMARK    1  A    between atoms: C2_2  and  C3_3 
REMARK    2  A    between atoms: C3_3  and  C4_4 
REMARK    3  A    between atoms: C5_5  and  C6_6 
REMARK    4  A    between atoms: C6_6  and  C7_7 
REMARK    5  A    between atoms: C7_7  and  O1_8 
REMARK    6  A    between atoms: O1_8  and  C8_9 
REMARK    7  A    between atoms: C9_11  and  C10_12 
REMARK    8  A    between atoms: C10_12  and  O3_13 
REMARK    9  A    between atoms: C11_15  and  O4_16 
REMARK   10  A    between atoms: C12_18  and  O5_19 
REMARK   11  A    between atoms: C13_21  and  O6_22 
ROOT
HETATM    1  C8  UNL     1      11.251  -5.768 -35.896  1.00  0.00     0.291 C 
HETATM    2  O2  UNL     1      10.943  -6.888 -36.637  1.00  0.00    -0.348 OA
HETATM    3  C9  UNL     1      10.445  -7.842 -35.770  1.00  0.00     0.179 C 
HETATM    4  C11 UNL     1      11.194  -7.960 -34.486  1.00  0.00     0.180 C 
HETATM    5  C12 UNL     1      12.509  -7.251 -34.457  1.00  0.00     0.183 C 
HETATM    6  C13 UNL     1      12.583  -5.995 -35.249  1.00  0.00     0.204 C 
ENDROOT
BRANCH   1   7
HETATM    7  O1  UNL     1      11.170  -4.587 -36.602  1.00  0.00    -0.358 OA
BRANCH   7   8
HETATM    8  C7  UNL     1      10.930  -4.752 -37.951  1.00  0.00     0.174 C 
BRANCH   8   9
HETATM    9  C6  UNL     1       9.508  -4.296 -38.233  1.00  0.00     0.053 C 
BRANCH   9  10
HETATM   10  C5  UNL     1       9.095  -4.527 -39.626  1.00  0.00    -0.029 C 
HETATM   11  C4  UNL     1       9.862  -5.179 -40.485  1.00  0.00    -0.031 C 
BRANCH  11  12
HETATM   12  C3  UNL     1       9.467  -5.429 -41.904  1.00  0.00     0.026 C 
BRANCH  12  13
HETATM   13  C2  UNL     1      10.332  -6.512 -42.538  1.00  0.00    -0.001 C 
HETATM   14  C1  UNL     1      10.960  -7.295 -41.415  1.00  0.00     0.005 C 
ENDBRANCH  12  13
ENDBRANCH  11  12
ENDBRANCH   9  10
ENDBRANCH   8   9
ENDBRANCH   7   8
ENDBRANCH   1   7
BRANCH   6  15
HETATM   15  O6  UNL     1      12.818  -4.924 -34.374  1.00  0.00    -0.388 OA
ATOM     16  H6  UNL     1      12.693  -5.243 -33.489  1.00  0.00     0.210 HD
ENDBRANCH   6  15
BRANCH   3  17
HETATM   17  C10 UNL     1       8.959  -7.648 -35.504  1.00  0.00     0.198 C 
BRANCH  17  18
HETATM   18  O3  UNL     1       8.716  -7.305 -34.180  1.00  0.00    -0.398 OA
ATOM     19  H3  UNL     1       8.210  -6.504 -34.113  1.00  0.00     0.209 HD
ENDBRANCH  17  18
ENDBRANCH   3  17
BRANCH   5  20
HETATM   20  O5  UNL     1      12.933  -7.018 -33.150  1.00  0.00    -0.390 OA
ATOM     21  H5  UNL     1      13.880  -7.064 -33.080  1.00  0.00     0.210 HD
ENDBRANCH   5  20
BRANCH   4  22
HETATM   22  O4  UNL     1      11.385  -9.310 -34.143  1.00  0.00    -0.390 OA
ATOM     23  H4  UNL     1      12.307  -9.536 -34.162  1.00  0.00     0.210 HD
ENDBRANCH   4  22
TORSDOF 11
ENDMDL
