MODEL 13
REMARK VINA RESULT: -8.443598432      3.309      5.620
REMARK  10 active torsions:
REMARK  status: ('A' for Active; 'I' for Inactive)
REMARK    1  A    between atoms: N2_5  and  C4_6 
REMARK    2  A    between atoms: C4_6  and  O1_7 
REMARK    3  A    between atoms: C4_6  and  C5_9 
REMARK    4  A    between atoms: C5_9  and  C6_10 
REMARK    5  A    between atoms: C5_9  and  N4_21 
REMARK    6  A    between atoms: C6_10  and  N3_11 
REMARK       I    between atoms: N3_11  and  C7_13 
REMARK    7  A    between atoms: C7_13  and  C8_15 
REMARK    8  A    between atoms: N4_21  and  S2_23 
REMARK    9  A    between atoms: S2_23  and  C12_26 
REMARK   10  A    between atoms: C16_31  and  N5_32 
ROOT
HETATM    1  C5  UNL     1      14.218 -14.831  14.793  1.00  0.00     0.185 C 
ENDROOT
BRANCH   1   2
HETATM    2  C4  UNL     1      14.285 -13.463  14.251  1.00  0.00     0.139 C 
BRANCH   2   3
HETATM    3  N2  UNL     1      15.151 -12.403  14.388  1.00  0.00    -0.360 N 
HETATM    4  C3  UNL     1      16.582 -12.341  14.341  1.00  0.00     0.155 C 
HETATM    5  C2  UNL     1      16.910 -11.668  12.986  1.00  0.00     0.291 C 
HETATM    6  N1  UNL     1      16.061 -10.537  12.801  1.00  0.00     0.087 N 
HETATM    7  C1  UNL     1      16.867  -9.481  12.201  1.00  0.00     0.310 C 
HETATM    8  C24 UNL     1      15.442 -10.032  13.997  1.00  0.00     0.291 C 
HETATM    9  C23 UNL     1      14.543 -11.040  14.646  1.00  0.00     0.155 C 
ENDBRANCH   2   3
BRANCH   2  10
HETATM   10  O1  UNL     1      13.261 -13.203  13.438  1.00  0.00    -0.348 OA
ATOM     11  H1  UNL     1      13.532 -12.865  12.592  1.00  0.00     0.219 HD
ENDBRANCH   2  10
ENDBRANCH   1   2
BRANCH   1  12
HETATM   12  C6  UNL     1      15.462 -15.611  14.799  1.00  0.00     0.157 C 
BRANCH  12  13
HETATM   13  N3  UNL     1      15.951 -15.967  16.140  1.00  0.00    -0.354 N 
HETATM   14  C7  UNL     1      15.512 -17.129  16.791  1.00  0.00     0.258 C 
HETATM   15  O2  UNL     1      14.696 -17.930  16.273  1.00  0.00    -0.267 OA
ATOM     16  H3  UNL     1      16.621 -15.356  16.606  1.00  0.00     0.162 HD
BRANCH  14  17
HETATM   17  C8  UNL     1      16.036 -17.423  18.147  1.00  0.00     0.074 A 
HETATM   18  C9  UNL     1      17.341 -17.378  18.561  1.00  0.00     0.027 A 
HETATM   19  C10 UNL     1      17.592 -17.676  19.839  1.00  0.00     0.033 A 
HETATM   20  C11 UNL     1      16.522 -18.003  20.629  1.00  0.00     0.075 A 
HETATM   21 CL1  UNL     1      16.544 -18.442  22.349  1.00  0.00    -0.076 Cl
HETATM   22  S1  UNL     1      15.202 -17.883  19.560  1.00  0.00    -0.072 SA
ENDBRANCH  14  17
ENDBRANCH  12  13
ENDBRANCH   1  12
BRANCH   1  23
HETATM   23  N4  UNL     1      13.071 -15.468  14.155  1.00  0.00    -0.301 N 
ATOM     24  H4  UNL     1      13.034 -15.711  13.165  1.00  0.00     0.173 HD
BRANCH  23  25
HETATM   25  S2  UNL     1      11.814 -15.757  15.239  1.00  0.00     0.261 S 
HETATM   26  O3  UNL     1      11.404 -17.212  15.126  1.00  0.00    -0.200 OA
HETATM   27  O4  UNL     1      12.247 -15.577  16.686  1.00  0.00    -0.200 OA
BRANCH  25  28
HETATM   28  C12 UNL     1      10.393 -14.796  15.032  1.00  0.00     0.106 A 
HETATM   29  C13 UNL     1       9.817 -13.979  15.947  1.00  0.00     0.069 A 
HETATM   30  C14 UNL     1       8.670 -13.272  15.636  1.00  0.00     0.120 A 
HETATM   31  F1  UNL     1       8.107 -12.461  16.540  1.00  0.00    -0.206 F 
HETATM   32  C15 UNL     1       8.054 -13.359  14.383  1.00  0.00     0.073 A 
HETATM   33  C16 UNL     1       8.643 -14.197  13.441  1.00  0.00     0.063 A 
HETATM   34  C22 UNL     1       9.780 -14.887  13.775  1.00  0.00     0.084 A 
HETATM   35 CL2  UNL     1      10.475 -15.936  12.525  1.00  0.00    -0.080 Cl
BRANCH  33  36
HETATM   36  N5  UNL     1       8.084 -14.366  12.121  1.00  0.00    -0.316 N 
HETATM   37  C17 UNL     1       8.479 -13.474  11.050  1.00  0.00     0.132 C 
HETATM   38  C18 UNL     1       7.500 -13.551   9.913  1.00  0.00     0.021 C 
HETATM   39  C19 UNL     1       7.304 -15.019   9.556  1.00  0.00     0.011 C 
HETATM   40  C20 UNL     1       6.461 -15.633  10.635  1.00  0.00     0.103 C 
HETATM   41  C21 UNL     1       7.157 -15.433  11.933  1.00  0.00     0.224 C 
HETATM   42  O5  UNL     1       6.944 -16.211  12.924  1.00  0.00    -0.273 OA
ENDBRANCH  33  36
ENDBRANCH  25  28
ENDBRANCH  23  25
ENDBRANCH   1  23
TORSDOF 10
ENDMDL
