MODEL 3
REMARK VINA RESULT: -9.321425409      1.357      1.743
REMARK  10 active torsions:
REMARK  status: ('A' for Active; 'I' for Inactive)
REMARK    1  A    between atoms: N2_5  and  C4_6 
REMARK    2  A    between atoms: C4_6  and  O1_7 
REMARK    3  A    between atoms: C4_6  and  C5_9 
REMARK    4  A    between atoms: C5_9  and  C6_10 
REMARK    5  A    between atoms: C5_9  and  N4_21 
REMARK    6  A    between atoms: C6_10  and  N3_11 
REMARK       I    between atoms: N3_11  and  C7_13 
REMARK    7  A    between atoms: C7_13  and  C8_15 
REMARK    8  A    between atoms: N4_21  and  S2_23 
REMARK    9  A    between atoms: S2_23  and  C12_26 
REMARK   10  A    between atoms: C16_31  and  N5_32 
ROOT
HETATM    1  C5  UNL     1      13.675 -15.252  14.951  1.00  0.00     0.185 C 
ENDROOT
BRANCH   1   2
HETATM    2  C4  UNL     1      12.734 -14.319  15.596  1.00  0.00     0.139 C 
BRANCH   2   3
HETATM    3  N2  UNL     1      11.405 -14.006  15.427  1.00  0.00    -0.360 N 
HETATM    4  C3  UNL     1      10.218 -14.781  15.634  1.00  0.00     0.155 C 
HETATM    5  C2  UNL     1       9.580 -14.202  16.921  1.00  0.00     0.291 C 
HETATM    6  N1  UNL     1       9.595 -12.777  16.856  1.00  0.00     0.087 N 
HETATM    7  C1  UNL     1       8.331 -12.303  17.405  1.00  0.00     0.310 C 
HETATM    8  C24 UNL     1       9.771 -12.223  15.540  1.00  0.00     0.291 C 
HETATM    9  C23 UNL     1      11.080 -12.615  14.924  1.00  0.00     0.155 C 
ENDBRANCH   2   3
BRANCH   2  10
HETATM   10  O1  UNL     1      13.318 -13.624  16.571  1.00  0.00    -0.348 OA
ATOM     11  H1  UNL     1      14.266 -13.615  16.509  1.00  0.00     0.219 HD
ENDBRANCH   2  10
ENDBRANCH   1   2
BRANCH   1  12
HETATM   12  C6  UNL     1      15.103 -14.917  15.019  1.00  0.00     0.157 C 
BRANCH  12  13
HETATM   13  N3  UNL     1      15.523 -13.856  14.091  1.00  0.00    -0.354 N 
HETATM   14  C7  UNL     1      15.833 -12.568  14.549  1.00  0.00     0.258 C 
HETATM   15  O2  UNL     1      15.781 -12.248  15.762  1.00  0.00    -0.267 OA
ATOM     16  H3  UNL     1      15.590 -14.061  13.094  1.00  0.00     0.162 HD
BRANCH  14  17
HETATM   17  C8  UNL     1      16.240 -11.541  13.559  1.00  0.00     0.074 A 
HETATM   18  C9  UNL     1      17.115 -11.694  12.516  1.00  0.00     0.027 A 
HETATM   19  C10 UNL     1      17.334 -10.632  11.736  1.00  0.00     0.033 A 
HETATM   20  C11 UNL     1      16.666  -9.477  12.045  1.00  0.00     0.075 A 
HETATM   21 CL1  UNL     1      16.754  -7.919  11.200  1.00  0.00    -0.076 Cl
HETATM   22  S1  UNL     1      15.753  -9.914  13.415  1.00  0.00    -0.072 SA
ENDBRANCH  14  17
ENDBRANCH  12  13
ENDBRANCH   1  12
BRANCH   1  23
HETATM   23  N4  UNL     1      13.145 -15.511  13.617  1.00  0.00    -0.301 N 
ATOM     24  H4  UNL     1      13.121 -14.816  12.871  1.00  0.00     0.173 HD
BRANCH  23  25
HETATM   25  S2  UNL     1      12.578 -17.089  13.447  1.00  0.00     0.261 S 
HETATM   26  O3  UNL     1      13.281 -17.730  12.268  1.00  0.00    -0.200 OA
HETATM   27  O4  UNL     1      12.931 -17.960  14.643  1.00  0.00    -0.200 OA
BRANCH  25  28
HETATM   28  C12 UNL     1      10.876 -17.265  13.202  1.00  0.00     0.106 A 
HETATM   29  C13 UNL     1      10.056 -18.175  13.781  1.00  0.00     0.069 A 
HETATM   30  C14 UNL     1       8.706 -18.197  13.480  1.00  0.00     0.120 A 
HETATM   31  F1  UNL     1       7.897 -19.093  14.058  1.00  0.00    -0.206 F 
HETATM   32  C15 UNL     1       8.126 -17.298  12.578  1.00  0.00     0.073 A 
HETATM   33  C16 UNL     1       8.966 -16.363  11.982  1.00  0.00     0.063 A 
HETATM   34  C22 UNL     1      10.301 -16.362  12.298  1.00  0.00     0.084 A 
HETATM   35 CL2  UNL     1      11.311 -15.142  11.500  1.00  0.00    -0.080 Cl
BRANCH  33  36
HETATM   36  N5  UNL     1       8.472 -15.395  11.032  1.00  0.00    -0.316 N 
HETATM   37  C17 UNL     1       8.351 -15.753   9.633  1.00  0.00     0.132 C 
HETATM   38  C18 UNL     1       8.230 -14.520   8.783  1.00  0.00     0.021 C 
HETATM   39  C19 UNL     1       7.130 -13.646   9.372  1.00  0.00     0.011 C 
HETATM   40  C20 UNL     1       7.679 -13.018  10.620  1.00  0.00     0.103 C 
HETATM   41  C21 UNL     1       8.113 -14.109  11.531  1.00  0.00     0.224 C 
HETATM   42  O5  UNL     1       8.179 -13.927  12.795  1.00  0.00    -0.273 OA
ENDBRANCH  33  36
ENDBRANCH  25  28
ENDBRANCH  23  25
ENDBRANCH   1  23
TORSDOF 10
ENDMDL
