MODEL 14
REMARK VINA RESULT: -8.436611677      1.409      1.739
REMARK  10 active torsions:
REMARK  status: ('A' for Active; 'I' for Inactive)
REMARK    1  A    between atoms: N2_5  and  C4_6 
REMARK    2  A    between atoms: C4_6  and  O1_7 
REMARK    3  A    between atoms: C4_6  and  C5_9 
REMARK    4  A    between atoms: C5_9  and  C6_10 
REMARK    5  A    between atoms: C5_9  and  N4_21 
REMARK    6  A    between atoms: C6_10  and  N3_11 
REMARK       I    between atoms: N3_11  and  C7_13 
REMARK    7  A    between atoms: C7_13  and  C8_15 
REMARK    8  A    between atoms: N4_21  and  S2_23 
REMARK    9  A    between atoms: S2_23  and  C12_26 
REMARK   10  A    between atoms: C16_31  and  N5_32 
ROOT
HETATM    1  C5  UNL     1      14.367 -15.011  15.675  1.00  0.00     0.185 C 
ENDROOT
BRANCH   1   2
HETATM    2  C4  UNL     1      13.311 -14.086  15.225  1.00  0.00     0.139 C 
BRANCH   2   3
HETATM    3  N2  UNL     1      12.471 -13.191  15.846  1.00  0.00    -0.360 N 
HETATM    4  C3  UNL     1      11.483 -12.299  15.316  1.00  0.00     0.155 C 
HETATM    5  C2  UNL     1      10.123 -12.934  15.699  1.00  0.00     0.291 C 
HETATM    6  N1  UNL     1      10.164 -13.352  17.062  1.00  0.00     0.087 N 
HETATM    7  C1  UNL     1       8.869 -13.038  17.652  1.00  0.00     0.310 C 
HETATM    8  C24 UNL     1      11.200 -12.751  17.858  1.00  0.00     0.291 C 
HETATM    9  C23 UNL     1      12.573 -13.077  17.352  1.00  0.00     0.155 C 
ENDBRANCH   2   3
BRANCH   2  10
HETATM   10  O1  UNL     1      13.141 -14.136  13.904  1.00  0.00    -0.348 OA
ATOM     11  H1  UNL     1      12.706 -14.929  13.612  1.00  0.00     0.219 HD
ENDBRANCH   2  10
ENDBRANCH   1   2
BRANCH   1  12
HETATM   12  C6  UNL     1      15.740 -14.493  15.712  1.00  0.00     0.157 C 
BRANCH  12  13
HETATM   13  N3  UNL     1      16.052 -13.522  14.652  1.00  0.00    -0.354 N 
HETATM   14  C7  UNL     1      15.939 -12.142  14.872  1.00  0.00     0.258 C 
HETATM   15  O2  UNL     1      15.578 -11.657  15.972  1.00  0.00    -0.267 OA
ATOM     16  H3  UNL     1      16.357 -13.859  13.739  1.00  0.00     0.162 HD
BRANCH  14  17
HETATM   17  C8  UNL     1      16.259 -11.217  13.758  1.00  0.00     0.074 A 
HETATM   18  C9  UNL     1      17.080 -11.458  12.688  1.00  0.00     0.027 A 
HETATM   19  C10 UNL     1      17.223 -10.480  11.789  1.00  0.00     0.033 A 
HETATM   20  C11 UNL     1      16.536  -9.316  12.012  1.00  0.00     0.075 A 
HETATM   21 CL1  UNL     1      16.530  -7.856  11.004  1.00  0.00    -0.076 Cl
HETATM   22  S1  UNL     1      15.714  -9.628  13.471  1.00  0.00    -0.072 SA
ENDBRANCH  14  17
ENDBRANCH  12  13
ENDBRANCH   1  12
BRANCH   1  23
HETATM   23  N4  UNL     1      14.173 -16.248  14.927  1.00  0.00    -0.301 N 
ATOM     24  H4  UNL     1      14.665 -16.472  14.062  1.00  0.00     0.173 HD
BRANCH  23  25
HETATM   25  S2  UNL     1      13.044 -17.267  15.653  1.00  0.00     0.261 S 
HETATM   26  O3  UNL     1      13.373 -18.697  15.278  1.00  0.00    -0.200 OA
HETATM   27  O4  UNL     1      13.124 -17.226  17.172  1.00  0.00    -0.200 OA
BRANCH  25  28
HETATM   28  C12 UNL     1      11.389 -16.985  15.245  1.00  0.00     0.106 A 
HETATM   29  C13 UNL     1      10.368 -16.726  16.098  1.00  0.00     0.069 A 
HETATM   30  C14 UNL     1       9.086 -16.526  15.619  1.00  0.00     0.120 A 
HETATM   31  F1  UNL     1       8.081 -16.264  16.464  1.00  0.00    -0.206 F 
HETATM   32  C15 UNL     1       8.779 -16.579  14.255  1.00  0.00     0.073 A 
HETATM   33  C16 UNL     1       9.825 -16.844  13.378  1.00  0.00     0.063 A 
HETATM   34  C22 UNL     1      11.088 -17.039  13.878  1.00  0.00     0.084 A 
HETATM   35 CL2  UNL     1      12.371 -17.374  12.700  1.00  0.00    -0.080 Cl
BRANCH  33  36
HETATM   36  N5  UNL     1       9.617 -16.929  11.952  1.00  0.00    -0.316 N 
HETATM   37  C17 UNL     1       9.278 -18.200  11.345  1.00  0.00     0.132 C 
HETATM   38  C18 UNL     1       9.516 -18.157   9.863  1.00  0.00     0.021 C 
HETATM   39  C19 UNL     1       8.825 -16.917   9.309  1.00  0.00     0.011 C 
HETATM   40  C20 UNL     1       9.646 -15.728   9.715  1.00  0.00     0.103 C 
HETATM   41  C21 UNL     1       9.753 -15.727  11.197  1.00  0.00     0.224 C 
HETATM   42  O5  UNL     1       9.971 -14.646  11.842  1.00  0.00    -0.273 OA
ENDBRANCH  33  36
ENDBRANCH  25  28
ENDBRANCH  23  25
ENDBRANCH   1  23
TORSDOF 10
ENDMDL
