MODEL 6
REMARK VINA RESULT: -9.012740028      1.452      1.747
REMARK  10 active torsions:
REMARK  status: ('A' for Active; 'I' for Inactive)
REMARK    1  A    between atoms: N2_5  and  C4_6 
REMARK    2  A    between atoms: C4_6  and  O1_7 
REMARK    3  A    between atoms: C4_6  and  C5_9 
REMARK    4  A    between atoms: C5_9  and  C6_10 
REMARK    5  A    between atoms: C5_9  and  N4_21 
REMARK    6  A    between atoms: C6_10  and  N3_11 
REMARK       I    between atoms: N3_11  and  C7_13 
REMARK    7  A    between atoms: C7_13  and  C8_15 
REMARK    8  A    between atoms: N4_21  and  S2_23 
REMARK    9  A    between atoms: S2_23  and  C12_26 
REMARK   10  A    between atoms: C16_31  and  N5_32 
ROOT
HETATM    1  C5  UNL     1      13.924 -16.181  14.770  1.00  0.00     0.185 C 
ENDROOT
BRANCH   1   2
HETATM    2  C4  UNL     1      13.004 -15.534  15.722  1.00  0.00     0.139 C 
BRANCH   2   3
HETATM    3  N2  UNL     1      12.446 -14.281  15.838  1.00  0.00    -0.360 N 
HETATM    4  C3  UNL     1      12.083 -13.314  14.845  1.00  0.00     0.155 C 
HETATM    5  C2  UNL     1      10.536 -13.350  14.796  1.00  0.00     0.291 C 
HETATM    6  N1  UNL     1      10.021 -13.353  16.126  1.00  0.00     0.087 N 
HETATM    7  C1  UNL     1       8.845 -12.492  16.139  1.00  0.00     0.310 C 
HETATM    8  C24 UNL     1      10.938 -12.909  17.142  1.00  0.00     0.291 C 
HETATM    9  C23 UNL     1      12.153 -13.781  17.236  1.00  0.00     0.155 C 
ENDBRANCH   2   3
BRANCH   2  10
HETATM   10  O1  UNL     1      12.629 -16.367  16.692  1.00  0.00    -0.348 OA
ATOM     11  H1  UNL     1      13.358 -16.705  17.198  1.00  0.00     0.219 HD
ENDBRANCH   2  10
ENDBRANCH   1   2
BRANCH   1  12
HETATM   12  C6  UNL     1      15.304 -15.683  14.728  1.00  0.00     0.157 C 
BRANCH  12  13
HETATM   13  N3  UNL     1      15.458 -14.373  14.077  1.00  0.00    -0.354 N 
HETATM   14  C7  UNL     1      15.756 -13.221  14.818  1.00  0.00     0.258 C 
HETATM   15  O2  UNL     1      15.916 -13.238  16.063  1.00  0.00    -0.267 OA
ATOM     16  H3  UNL     1      15.346 -14.301  13.065  1.00  0.00     0.162 HD
BRANCH  14  17
HETATM   17  C8  UNL     1      15.888 -11.930  14.101  1.00  0.00     0.074 A 
HETATM   18  C9  UNL     1      15.193 -10.774  14.338  1.00  0.00     0.027 A 
HETATM   19  C10 UNL     1      15.477  -9.717  13.571  1.00  0.00     0.033 A 
HETATM   20  C11 UNL     1      16.439  -9.878  12.610  1.00  0.00     0.075 A 
HETATM   21 CL1  UNL     1      17.023  -8.666  11.452  1.00  0.00    -0.076 Cl
HETATM   22  S1  UNL     1      16.915 -11.501  12.810  1.00  0.00    -0.072 SA
ENDBRANCH  14  17
ENDBRANCH  12  13
ENDBRANCH   1  12
BRANCH   1  23
HETATM   23  N4  UNL     1      13.225 -16.226  13.491  1.00  0.00    -0.301 N 
ATOM     24  H4  UNL     1      13.303 -15.504  12.775  1.00  0.00     0.173 HD
BRANCH  23  25
HETATM   25  S2  UNL     1      12.272 -17.606  13.329  1.00  0.00     0.261 S 
HETATM   26  O3  UNL     1      12.638 -18.296  12.030  1.00  0.00    -0.200 OA
HETATM   27  O4  UNL     1      12.553 -18.632  14.417  1.00  0.00    -0.200 OA
BRANCH  25  28
HETATM   28  C12 UNL     1      10.562 -17.356  13.325  1.00  0.00     0.106 A 
HETATM   29  C13 UNL     1       9.653 -17.899  14.171  1.00  0.00     0.069 A 
HETATM   30  C14 UNL     1       8.308 -17.607  14.039  1.00  0.00     0.120 A 
HETATM   31  F1  UNL     1       7.413 -18.140  14.881  1.00  0.00    -0.206 F 
HETATM   32  C15 UNL     1       7.821 -16.752  13.045  1.00  0.00     0.073 A 
HETATM   33  C16 UNL     1       8.752 -16.193  12.175  1.00  0.00     0.063 A 
HETATM   34  C22 UNL     1      10.080 -16.498  12.327  1.00  0.00     0.084 A 
HETATM   35 CL2  UNL     1      11.209 -15.750  11.182  1.00  0.00    -0.080 Cl
BRANCH  33  36
HETATM   36  N5  UNL     1       8.356 -15.303  11.109  1.00  0.00    -0.316 N 
HETATM   37  C17 UNL     1       8.311 -15.787   9.744  1.00  0.00     0.132 C 
HETATM   38  C18 UNL     1       8.290 -14.637   8.778  1.00  0.00     0.021 C 
HETATM   39  C19 UNL     1       7.190 -13.676   9.211  1.00  0.00     0.011 C 
HETATM   40  C20 UNL     1       7.683 -12.952  10.430  1.00  0.00     0.103 C 
HETATM   41  C21 UNL     1       8.016 -13.965  11.464  1.00  0.00     0.224 C 
HETATM   42  O5  UNL     1       8.009 -13.667  12.707  1.00  0.00    -0.273 OA
ENDBRANCH  33  36
ENDBRANCH  25  28
ENDBRANCH  23  25
ENDBRANCH   1  23
TORSDOF 10
ENDMDL
