MODEL 18
REMARK VINA RESULT: -8.232375764      3.002      7.557
REMARK  10 active torsions:
REMARK  status: ('A' for Active; 'I' for Inactive)
REMARK    1  A    between atoms: N2_5  and  C4_6 
REMARK    2  A    between atoms: C4_6  and  O1_7 
REMARK    3  A    between atoms: C4_6  and  C5_9 
REMARK    4  A    between atoms: C5_9  and  C6_10 
REMARK    5  A    between atoms: C5_9  and  N4_21 
REMARK    6  A    between atoms: C6_10  and  N3_11 
REMARK       I    between atoms: N3_11  and  C7_13 
REMARK    7  A    between atoms: C7_13  and  C8_15 
REMARK    8  A    between atoms: N4_21  and  S2_23 
REMARK    9  A    between atoms: S2_23  and  C12_26 
REMARK   10  A    between atoms: C16_31  and  N5_32 
ROOT
HETATM    1  C5  UNL     1      10.175 -13.850  15.692  1.00  0.00     0.185 C 
ENDROOT
BRANCH   1   2
HETATM    2  C4  UNL     1      10.641 -12.791  16.605  1.00  0.00     0.139 C 
BRANCH   2   3
HETATM    3  N2  UNL     1      11.053 -12.749  17.917  1.00  0.00    -0.360 N 
HETATM    4  C3  UNL     1      12.316 -13.054  18.521  1.00  0.00     0.155 C 
HETATM    5  C2  UNL     1      12.919 -11.681  18.906  1.00  0.00     0.291 C 
HETATM    6  N1  UNL     1      11.915 -10.882  19.529  1.00  0.00     0.087 N 
HETATM    7  C1  UNL     1      12.549 -10.168  20.630  1.00  0.00     0.310 C 
HETATM    8  C24 UNL     1      10.778 -11.606  20.033  1.00  0.00     0.291 C 
HETATM    9  C23 UNL     1      10.031 -12.324  18.950  1.00  0.00     0.155 C 
ENDBRANCH   2   3
BRANCH   2  10
HETATM   10  O1  UNL     1      10.668 -11.600  16.008  1.00  0.00    -0.348 OA
ATOM     11  H1  UNL     1      10.575 -10.875  16.614  1.00  0.00     0.219 HD
ENDBRANCH   2  10
ENDBRANCH   1   2
BRANCH   1  12
HETATM   12  C6  UNL     1       8.751 -13.849  15.335  1.00  0.00     0.157 C 
BRANCH  12  13
HETATM   13  N3  UNL     1       8.395 -14.779  14.253  1.00  0.00    -0.354 N 
HETATM   14  C7  UNL     1       8.491 -14.401  12.905  1.00  0.00     0.258 C 
HETATM   15  O2  UNL     1       8.889 -13.266  12.546  1.00  0.00    -0.267 OA
ATOM     16  H3  UNL     1       8.072 -15.718  14.486  1.00  0.00     0.162 HD
BRANCH  14  17
HETATM   17  C8  UNL     1       8.106 -15.383  11.864  1.00  0.00     0.074 A 
HETATM   18  C9  UNL     1       8.519 -15.415  10.558  1.00  0.00     0.027 A 
HETATM   19  C10 UNL     1       8.051 -16.400   9.788  1.00  0.00     0.033 A 
HETATM   20  C11 UNL     1       7.194 -17.299  10.368  1.00  0.00     0.075 A 
HETATM   21 CL1  UNL     1       6.418 -18.699   9.603  1.00  0.00    -0.076 Cl
HETATM   22  S1  UNL     1       7.073 -16.735  11.971  1.00  0.00    -0.072 SA
ENDBRANCH  14  17
ENDBRANCH  12  13
ENDBRANCH   1  12
BRANCH   1  23
HETATM   23  N4  UNL     1      10.697 -15.106  16.221  1.00  0.00    -0.301 N 
ATOM     24  H4  UNL     1      10.378 -15.531  17.091  1.00  0.00     0.173 HD
BRANCH  23  25
HETATM   25  S2  UNL     1      11.887 -15.773  15.233  1.00  0.00     0.261 S 
HETATM   26  O3  UNL     1      11.768 -17.283  15.287  1.00  0.00    -0.200 OA
HETATM   27  O4  UNL     1      11.689 -15.411  13.768  1.00  0.00    -0.200 OA
BRANCH  25  28
HETATM   28  C12 UNL     1      13.520 -15.362  15.620  1.00  0.00     0.106 A 
HETATM   29  C13 UNL     1      14.371 -16.054  16.416  1.00  0.00     0.069 A 
HETATM   30  C14 UNL     1      15.656 -15.594  16.639  1.00  0.00     0.120 A 
HETATM   31  F1  UNL     1      16.497 -16.283  17.420  1.00  0.00    -0.206 F 
HETATM   32  C15 UNL     1      16.138 -14.412  16.066  1.00  0.00     0.073 A 
HETATM   33  C16 UNL     1      15.266 -13.700  15.249  1.00  0.00     0.063 A 
HETATM   34  C22 UNL     1      13.997 -14.178  15.044  1.00  0.00     0.084 A 
HETATM   35 CL2  UNL     1      12.940 -13.217  13.991  1.00  0.00    -0.080 Cl
BRANCH  33  36
HETATM   36  N5  UNL     1      15.658 -12.463  14.615  1.00  0.00    -0.316 N 
HETATM   37  C17 UNL     1      16.252 -12.486  13.293  1.00  0.00     0.132 C 
HETATM   38  C18 UNL     1      16.951 -11.187  13.007  1.00  0.00     0.021 C 
HETATM   39  C19 UNL     1      15.982 -10.052  13.314  1.00  0.00     0.011 C 
HETATM   40  C20 UNL     1      15.881  -9.942  14.807  1.00  0.00     0.103 C 
HETATM   41  C21 UNL     1      15.431 -11.255  15.337  1.00  0.00     0.224 C 
HETATM   42  O5  UNL     1      14.825 -11.343  16.458  1.00  0.00    -0.273 OA
ENDBRANCH  33  36
ENDBRANCH  25  28
ENDBRANCH  23  25
ENDBRANCH   1  23
TORSDOF 10
ENDMDL
