MODEL 2
REMARK VINA RESULT: -9.564267462      0.776      1.287
REMARK  10 active torsions:
REMARK  status: ('A' for Active; 'I' for Inactive)
REMARK    1  A    between atoms: N2_5  and  C4_6 
REMARK    2  A    between atoms: C4_6  and  O1_7 
REMARK    3  A    between atoms: C4_6  and  C5_9 
REMARK    4  A    between atoms: C5_9  and  C6_10 
REMARK    5  A    between atoms: C5_9  and  N4_21 
REMARK    6  A    between atoms: C6_10  and  N3_11 
REMARK       I    between atoms: N3_11  and  C7_13 
REMARK    7  A    between atoms: C7_13  and  C8_15 
REMARK    8  A    between atoms: N4_21  and  S2_23 
REMARK    9  A    between atoms: S2_23  and  C12_26 
REMARK   10  A    between atoms: C16_31  and  N5_32 
ROOT
HETATM    1  C5  UNL     1      13.972 -15.412  14.695  1.00  0.00     0.185 C 
ENDROOT
BRANCH   1   2
HETATM    2  C4  UNL     1      12.941 -14.360  14.750  1.00  0.00     0.139 C 
BRANCH   2   3
HETATM    3  N2  UNL     1      12.113 -13.859  15.727  1.00  0.00    -0.360 N 
HETATM    4  C3  UNL     1      11.748 -14.376  17.012  1.00  0.00     0.155 C 
HETATM    5  C2  UNL     1      12.506 -13.491  18.031  1.00  0.00     0.291 C 
HETATM    6  N1  UNL     1      12.370 -12.120  17.661  1.00  0.00     0.087 N 
HETATM    7  C1  UNL     1      12.185 -11.355  18.887  1.00  0.00     0.310 C 
HETATM    8  C24 UNL     1      11.286 -11.832  16.760  1.00  0.00     0.291 C 
HETATM    9  C23 UNL     1      11.431 -12.537  15.446  1.00  0.00     0.155 C 
ENDBRANCH   2   3
BRANCH   2  10
HETATM   10  O1  UNL     1      12.785 -13.759  13.570  1.00  0.00    -0.348 OA
ATOM     11  H1  UNL     1      12.475 -14.345  12.890  1.00  0.00     0.219 HD
ENDBRANCH   2  10
ENDBRANCH   1   2
BRANCH   1  12
HETATM   12  C6  UNL     1      15.372 -14.985  14.812  1.00  0.00     0.157 C 
BRANCH  12  13
HETATM   13  N3  UNL     1      15.747 -13.877  13.920  1.00  0.00    -0.354 N 
HETATM   14  C7  UNL     1      15.954 -12.581  14.414  1.00  0.00     0.258 C 
HETATM   15  O2  UNL     1      15.842 -12.294  15.631  1.00  0.00    -0.267 OA
ATOM     16  H3  UNL     1      15.858 -14.054  12.922  1.00  0.00     0.162 HD
BRANCH  14  17
HETATM   17  C8  UNL     1      16.319 -11.507  13.459  1.00  0.00     0.074 A 
HETATM   18  C9  UNL     1      17.180 -11.597  12.398  1.00  0.00     0.027 A 
HETATM   19  C10 UNL     1      17.361 -10.501  11.657  1.00  0.00     0.033 A 
HETATM   20  C11 UNL     1      16.669  -9.375  12.021  1.00  0.00     0.075 A 
HETATM   21 CL1  UNL     1      16.706  -7.784  11.236  1.00  0.00    -0.076 Cl
HETATM   22  S1  UNL     1      15.790  -9.889  13.386  1.00  0.00    -0.072 SA
ENDBRANCH  14  17
ENDBRANCH  12  13
ENDBRANCH   1  12
BRANCH   1  23
HETATM   23  N4  UNL     1      13.654 -16.237  13.534  1.00  0.00    -0.301 N 
ATOM     24  H4  UNL     1      14.070 -16.105  12.613  1.00  0.00     0.173 HD
BRANCH  23  25
HETATM   25  S2  UNL     1      12.520 -17.432  13.889  1.00  0.00     0.261 S 
HETATM   26  O3  UNL     1      12.551 -18.468  12.784  1.00  0.00    -0.200 OA
HETATM   27  O4  UNL     1      12.865 -18.194  15.160  1.00  0.00    -0.200 OA
BRANCH  25  28
HETATM   28  C12 UNL     1      10.885 -16.903  14.066  1.00  0.00     0.106 A 
HETATM   29  C13 UNL     1      10.102 -17.017  15.167  1.00  0.00     0.069 A 
HETATM   30  C14 UNL     1       8.801 -16.548  15.156  1.00  0.00     0.120 A 
HETATM   31  F1  UNL     1       8.033 -16.657  16.247  1.00  0.00    -0.206 F 
HETATM   32  C15 UNL     1       8.233 -15.942  14.031  1.00  0.00     0.073 A 
HETATM   33  C16 UNL     1       9.034 -15.823  12.900  1.00  0.00     0.063 A 
HETATM   34  C22 UNL     1      10.321 -16.297  12.936  1.00  0.00     0.084 A 
HETATM   35 CL2  UNL     1      11.283 -16.112  11.457  1.00  0.00    -0.080 Cl
BRANCH  33  36
HETATM   36  N5  UNL     1       8.545 -15.221  11.682  1.00  0.00    -0.316 N 
HETATM   37  C17 UNL     1       8.674 -13.792  11.480  1.00  0.00     0.132 C 
HETATM   38  C18 UNL     1       7.755 -13.330  10.386  1.00  0.00     0.021 C 
HETATM   39  C19 UNL     1       7.976 -14.225   9.172  1.00  0.00     0.011 C 
HETATM   40  C20 UNL     1       7.338 -15.550   9.473  1.00  0.00     0.103 C 
HETATM   41  C21 UNL     1       7.950 -16.085  10.716  1.00  0.00     0.224 C 
HETATM   42  O5  UNL     1       7.963 -17.340  10.959  1.00  0.00    -0.273 OA
ENDBRANCH  33  36
ENDBRANCH  25  28
ENDBRANCH  23  25
ENDBRANCH   1  23
TORSDOF 10
ENDMDL
