MODEL 1
REMARK VINA RESULT: -9.820624977      0.000      0.000
REMARK  10 active torsions:
REMARK  status: ('A' for Active; 'I' for Inactive)
REMARK    1  A    between atoms: N2_5  and  C4_6 
REMARK    2  A    between atoms: C4_6  and  O1_7 
REMARK    3  A    between atoms: C4_6  and  C5_9 
REMARK    4  A    between atoms: C5_9  and  C6_10 
REMARK    5  A    between atoms: C5_9  and  N4_21 
REMARK    6  A    between atoms: C6_10  and  N3_11 
REMARK       I    between atoms: N3_11  and  C7_13 
REMARK    7  A    between atoms: C7_13  and  C8_15 
REMARK    8  A    between atoms: N4_21  and  S2_23 
REMARK    9  A    between atoms: S2_23  and  C12_26 
REMARK   10  A    between atoms: C16_31  and  N5_32 
ROOT
HETATM    1  C5  UNL     1      13.946 -15.200  14.685  1.00  0.00     0.185 C 
ENDROOT
BRANCH   1   2
HETATM    2  C4  UNL     1      12.959 -14.107  14.622  1.00  0.00     0.139 C 
BRANCH   2   3
HETATM    3  N2  UNL     1      12.215 -13.413  15.548  1.00  0.00    -0.360 N 
HETATM    4  C3  UNL     1      11.814 -12.039  15.599  1.00  0.00     0.155 C 
HETATM    5  C2  UNL     1      10.301 -12.051  15.269  1.00  0.00     0.291 C 
HETATM    6  N1  UNL     1       9.664 -13.091  16.009  1.00  0.00     0.087 N 
HETATM    7  C1  UNL     1       8.379 -12.576  16.466  1.00  0.00     0.310 C 
HETATM    8  C24 UNL     1      10.402 -13.578  17.143  1.00  0.00     0.291 C 
HETATM    9  C23 UNL     1      11.717 -14.183  16.753  1.00  0.00     0.155 C 
ENDBRANCH   2   3
BRANCH   2  10
HETATM   10  O1  UNL     1      12.748 -13.703  13.370  1.00  0.00    -0.348 OA
ATOM     11  H1  UNL     1      13.097 -14.301  12.720  1.00  0.00     0.219 HD
ENDBRANCH   2  10
ENDBRANCH   1   2
BRANCH   1  12
HETATM   12  C6  UNL     1      15.361 -14.821  14.779  1.00  0.00     0.157 C 
BRANCH  12  13
HETATM   13  N3  UNL     1      15.760 -13.728  13.878  1.00  0.00    -0.354 N 
HETATM   14  C7  UNL     1      15.937 -12.420  14.353  1.00  0.00     0.258 C 
HETATM   15  O2  UNL     1      15.778 -12.108  15.558  1.00  0.00    -0.267 OA
ATOM     16  H3  UNL     1      15.910 -13.925  12.889  1.00  0.00     0.162 HD
BRANCH  14  17
HETATM   17  C8  UNL     1      16.329 -11.363  13.389  1.00  0.00     0.074 A 
HETATM   18  C9  UNL     1      17.216 -11.473  12.352  1.00  0.00     0.027 A 
HETATM   19  C10 UNL     1      17.418 -10.389  11.597  1.00  0.00     0.033 A 
HETATM   20  C11 UNL     1      16.720  -9.257  11.924  1.00  0.00     0.075 A 
HETATM   21 CL1  UNL     1      16.780  -7.679  11.114  1.00  0.00    -0.076 Cl
HETATM   22  S1  UNL     1      15.805  -9.745  13.276  1.00  0.00    -0.072 SA
ENDBRANCH  14  17
ENDBRANCH  12  13
ENDBRANCH   1  12
BRANCH   1  23
HETATM   23  N4  UNL     1      13.605 -16.121  13.606  1.00  0.00    -0.301 N 
ATOM     24  H4  UNL     1      13.988 -16.057  12.663  1.00  0.00     0.173 HD
BRANCH  23  25
HETATM   25  S2  UNL     1      12.507 -17.302  14.094  1.00  0.00     0.261 S 
HETATM   26  O3  UNL     1      12.564 -18.450  13.107  1.00  0.00    -0.200 OA
HETATM   27  O4  UNL     1      12.877 -17.913  15.437  1.00  0.00    -0.200 OA
BRANCH  25  28
HETATM   28  C12 UNL     1      10.857 -16.803  14.223  1.00  0.00     0.106 A 
HETATM   29  C13 UNL     1      10.051 -16.913  15.307  1.00  0.00     0.069 A 
HETATM   30  C14 UNL     1       8.742 -16.470  15.258  1.00  0.00     0.120 A 
HETATM   31  F1  UNL     1       7.950 -16.575  16.332  1.00  0.00    -0.206 F 
HETATM   32  C15 UNL     1       8.189 -15.896  14.108  1.00  0.00     0.073 A 
HETATM   33  C16 UNL     1       9.015 -15.782  12.994  1.00  0.00     0.063 A 
HETATM   34  C22 UNL     1      10.309 -16.228  13.069  1.00  0.00     0.084 A 
HETATM   35 CL2  UNL     1      11.302 -16.051  11.610  1.00  0.00    -0.080 Cl
BRANCH  33  36
HETATM   36  N5  UNL     1       8.542 -15.212  11.754  1.00  0.00    -0.316 N 
HETATM   37  C17 UNL     1       8.658 -13.786  11.525  1.00  0.00     0.132 C 
HETATM   38  C18 UNL     1       7.755 -13.358  10.402  1.00  0.00     0.021 C 
HETATM   39  C19 UNL     1       8.013 -14.276   9.213  1.00  0.00     0.011 C 
HETATM   40  C20 UNL     1       7.385 -15.602   9.528  1.00  0.00     0.103 C 
HETATM   41  C21 UNL     1       7.979 -16.104  10.795  1.00  0.00     0.224 C 
HETATM   42  O5  UNL     1       8.003 -17.352  11.064  1.00  0.00    -0.273 OA
ENDBRANCH  33  36
ENDBRANCH  25  28
ENDBRANCH  23  25
ENDBRANCH   1  23
TORSDOF 10
ENDMDL
