MODEL 1
REMARK VINA RESULT: -8.375479113      0.000      0.000
REMARK  8 active torsions:
REMARK  status: ('A' for Active; 'I' for Inactive)
REMARK    1  A    between atoms: N4_10  and  C5_11 
REMARK    2  A    between atoms: C6_13  and  C7_14 
REMARK    3  A    between atoms: C7_14  and  O2_15 
REMARK    4  A    between atoms: O2_15  and  P1_16 
REMARK    5  A    between atoms: P1_16  and  O5_19 
REMARK    6  A    between atoms: O5_19  and  P2_20 
REMARK    7  A    between atoms: C8_24  and  O9_25 
REMARK    8  A    between atoms: C9_27  and  O10_28 
ROOT
HETATM    1  C5  UNL     1       6.399  -1.781  -1.234  1.00  0.00     0.262 C 
HETATM    2  O1  UNL     1       7.045  -3.010  -1.112  1.00  0.00    -0.353 OA
HETATM    3  C6  UNL     1       6.572  -3.841  -2.085  1.00  0.00     0.180 C 
HETATM    4  C8  UNL     1       6.176  -3.012  -3.277  1.00  0.00     0.182 C 
HETATM    5  C9  UNL     1       6.215  -1.608  -2.708  1.00  0.00     0.198 C 
ENDROOT
BRANCH   1   6
HETATM    6  N4  UNL     1       7.315  -0.794  -0.666  1.00  0.00    -0.297 N 
HETATM    7  C2  UNL     1       6.921   0.354  -0.060  1.00  0.00     0.146 A 
HETATM    8  N2  UNL     1       5.701   0.875   0.175  1.00  0.00    -0.314 N 
HETATM    9  C3  UNL     1       8.086   0.993   0.329  1.00  0.00     0.146 A 
HETATM   10  C1  UNL     1       5.627   2.044   0.804  1.00  0.00     0.196 A 
ATOM     11  H2  UNL     1       4.857   0.386  -0.122  1.00  0.00     0.170 HD
HETATM   12  N1  UNL     1       4.352   2.610   1.062  1.00  0.00    -0.063 NA
HETATM   13  N5  UNL     1       6.734   2.705   1.204  1.00  0.00    -0.295 N 
HETATM   14  C10 UNL     1       7.966   2.207   0.982  1.00  0.00     0.278 A 
ATOM     15  H5  UNL     1       6.635   3.599   1.684  1.00  0.00     0.171 HD
HETATM   16  O11 UNL     1       9.013   2.835   1.360  1.00  0.00    -0.265 OA
HETATM   17  N3  UNL     1       9.163   0.249  -0.032  1.00  0.00    -0.345 N 
HETATM   18  C4  UNL     1       8.671  -0.844  -0.642  1.00  0.00     0.188 A 
ATOM     19  H3  UNL     1      10.146   0.473   0.127  1.00  0.00     0.167 HD
ENDBRANCH   1   6
BRANCH   5  20
HETATM   20  O10 UNL     1       4.966  -1.031  -3.023  1.00  0.00    -0.388 OA
ATOM     21  H10 UNL     1       4.544  -1.467  -3.754  1.00  0.00     0.210 HD
ENDBRANCH   5  20
BRANCH   3  22
HETATM   22  C7  UNL     1       7.583  -4.855  -2.543  1.00  0.00     0.216 C 
BRANCH  22  23
HETATM   23  O2  UNL     1       8.779  -4.183  -2.788  1.00  0.00    -0.287 OA
BRANCH  23  24
HETATM   24  P1  UNL     1      10.068  -4.587  -2.038  1.00  0.00     0.418 P 
HETATM   25  O3  UNL     1       9.700  -6.175  -2.294  1.00  0.00    -0.624 OA
HETATM   26  O4  UNL     1      10.913  -3.777  -3.249  1.00  0.00    -0.624 OA
BRANCH  24  27
HETATM   27  O5  UNL     1      11.440  -5.000  -1.479  1.00  0.00    -0.173 OA
BRANCH  27  28
HETATM   28  P2  UNL     1      12.184  -6.345  -1.432  1.00  0.00     0.431 P 
HETATM   29  O6  UNL     1      12.799  -7.735  -1.126  1.00  0.00    -0.616 OA
HETATM   30  O7  UNL     1      12.682  -5.866   0.090  1.00  0.00    -0.616 OA
HETATM   31  O8  UNL     1      13.179  -5.991  -2.672  1.00  0.00    -0.616 OA
ENDBRANCH  27  28
ENDBRANCH  24  27
ENDBRANCH  23  24
ENDBRANCH  22  23
ENDBRANCH   3  22
BRANCH   4  32
HETATM   32  O9  UNL     1       4.879  -3.397  -3.632  1.00  0.00    -0.390 OA
ATOM     33  H9  UNL     1       4.948  -4.239  -4.067  1.00  0.00     0.210 HD
ENDBRANCH   4  32
TORSDOF 8
ENDMDL
