MODEL 16
REMARK VINA RESULT: -7.376408897      1.618      2.052
REMARK  8 active torsions:
REMARK  status: ('A' for Active; 'I' for Inactive)
REMARK    1  A    between atoms: N4_10  and  C5_11 
REMARK    2  A    between atoms: C6_13  and  C7_14 
REMARK    3  A    between atoms: C7_14  and  O2_15 
REMARK    4  A    between atoms: O2_15  and  P1_16 
REMARK    5  A    between atoms: P1_16  and  O5_19 
REMARK    6  A    between atoms: O5_19  and  P2_20 
REMARK    7  A    between atoms: C8_24  and  O9_25 
REMARK    8  A    between atoms: C9_27  and  O10_28 
ROOT
HETATM    1  C5  UNL     1       5.841  -2.580  -0.355  1.00  0.00     0.262 C 
HETATM    2  O1  UNL     1       6.351  -3.877  -0.319  1.00  0.00    -0.353 OA
HETATM    3  C6  UNL     1       5.418  -4.719  -0.851  1.00  0.00     0.180 C 
HETATM    4  C8  UNL     1       4.621  -3.966  -1.882  1.00  0.00     0.182 C 
HETATM    5  C9  UNL     1       5.044  -2.534  -1.619  1.00  0.00     0.198 C 
ENDROOT
BRANCH   1   6
HETATM    6  N4  UNL     1       7.005  -1.698  -0.396  1.00  0.00    -0.297 N 
HETATM    7  C2  UNL     1       7.020  -0.431   0.087  1.00  0.00     0.146 A 
HETATM    8  N2  UNL     1       6.072   0.317   0.684  1.00  0.00    -0.314 N 
HETATM    9  C3  UNL     1       8.300   0.046  -0.147  1.00  0.00     0.146 A 
HETATM   10  C1  UNL     1       6.388   1.554   1.056  1.00  0.00     0.196 A 
ATOM     11  H2  UNL     1       5.137  -0.055   0.846  1.00  0.00     0.170 HD
HETATM   12  N1  UNL     1       5.404   2.358   1.687  1.00  0.00    -0.063 NA
HETATM   13  N5  UNL     1       7.621   2.063   0.850  1.00  0.00    -0.295 N 
HETATM   14  C10 UNL     1       8.589   1.338   0.256  1.00  0.00     0.278 A 
ATOM     15  H5  UNL     1       7.824   3.016   1.151  1.00  0.00     0.171 HD
HETATM   16  O11 UNL     1       9.755   1.822   0.061  1.00  0.00    -0.265 OA
HETATM   17  N3  UNL     1       9.044  -0.912  -0.758  1.00  0.00    -0.345 N 
HETATM   18  C4  UNL     1       8.233  -1.975  -0.903  1.00  0.00     0.188 A 
ATOM     19  H3  UNL     1      10.019  -0.840  -1.048  1.00  0.00     0.167 HD
ENDBRANCH   1   6
BRANCH   5  20
HETATM   20  O10 UNL     1       3.848  -1.801  -1.468  1.00  0.00    -0.388 OA
ATOM     21  H10 UNL     1       3.080  -2.326  -1.659  1.00  0.00     0.210 HD
ENDBRANCH   5  20
BRANCH   3  22
HETATM   22  C7  UNL     1       6.019  -5.923  -1.520  1.00  0.00     0.216 C 
BRANCH  22  23
HETATM   23  O2  UNL     1       6.500  -5.522  -2.765  1.00  0.00    -0.287 OA
BRANCH  23  24
HETATM   24  P1  UNL     1       8.018  -5.347  -2.995  1.00  0.00     0.418 P 
HETATM   25  O3  UNL     1       8.028  -6.743  -3.876  1.00  0.00    -0.624 OA
HETATM   26  O4  UNL     1       7.636  -3.919  -3.801  1.00  0.00    -0.624 OA
BRANCH  24  27
HETATM   27  O5  UNL     1       9.477  -5.084  -3.403  1.00  0.00    -0.173 OA
BRANCH  27  28
HETATM   28  P2  UNL     1      10.817  -5.287  -2.675  1.00  0.00     0.431 P 
HETATM   29  O6  UNL     1      12.089  -5.252  -1.790  1.00  0.00    -0.616 OA
HETATM   30  O7  UNL     1      11.103  -3.680  -3.031  1.00  0.00    -0.616 OA
HETATM   31  O8  UNL     1      11.382  -6.384  -3.738  1.00  0.00    -0.616 OA
ENDBRANCH  27  28
ENDBRANCH  24  27
ENDBRANCH  23  24
ENDBRANCH  22  23
ENDBRANCH   3  22
BRANCH   4  32
HETATM   32  O9  UNL     1       3.270  -4.174  -1.588  1.00  0.00    -0.390 OA
ATOM     33  H9  UNL     1       2.971  -4.887  -2.140  1.00  0.00     0.210 HD
ENDBRANCH   4  32
TORSDOF 8
ENDMDL
