MODEL 7
REMARK VINA RESULT: -7.697410380      5.777      9.556
REMARK  8 active torsions:
REMARK  status: ('A' for Active; 'I' for Inactive)
REMARK    1  A    between atoms: N4_10  and  C5_11 
REMARK    2  A    between atoms: C6_13  and  C7_14 
REMARK    3  A    between atoms: C7_14  and  O2_15 
REMARK    4  A    between atoms: O2_15  and  P1_16 
REMARK    5  A    between atoms: P1_16  and  O5_19 
REMARK    6  A    between atoms: O5_19  and  P2_20 
REMARK    7  A    between atoms: C8_24  and  O9_25 
REMARK    8  A    between atoms: C9_27  and  O10_28 
ROOT
HETATM    1  C5  UNL     1      10.683  -6.889  -1.865  1.00  0.00     0.262 C 
HETATM    2  O1  UNL     1       9.374  -6.412  -1.913  1.00  0.00    -0.353 OA
HETATM    3  C6  UNL     1       9.408  -5.101  -2.292  1.00  0.00     0.180 C 
HETATM    4  C8  UNL     1      10.605  -4.888  -3.180  1.00  0.00     0.182 C 
HETATM    5  C9  UNL     1      11.373  -6.179  -2.985  1.00  0.00     0.198 C 
ENDROOT
BRANCH   1   6
HETATM    6  N4  UNL     1      10.588  -8.329  -2.090  1.00  0.00    -0.297 N 
HETATM    7  C2  UNL     1      11.633  -9.188  -1.987  1.00  0.00     0.146 A 
HETATM    8  N2  UNL     1      12.930  -8.996  -1.682  1.00  0.00    -0.314 N 
HETATM    9  C3  UNL     1      11.119 -10.442  -2.276  1.00  0.00     0.146 A 
HETATM   10  C1  UNL     1      13.736 -10.054  -1.660  1.00  0.00     0.196 A 
ATOM     11  H2  UNL     1      13.286  -8.063  -1.473  1.00  0.00     0.170 HD
HETATM   12  N1  UNL     1      15.106  -9.873  -1.340  1.00  0.00    -0.063 NA
HETATM   13  N5  UNL     1      13.282 -11.295  -1.933  1.00  0.00    -0.295 N 
HETATM   14  C10 UNL     1      11.989 -11.517  -2.241  1.00  0.00     0.278 A 
ATOM     15  H5  UNL     1      13.931 -12.081  -1.904  1.00  0.00     0.171 HD
HETATM   16  O11 UNL     1      11.561 -12.693  -2.500  1.00  0.00    -0.265 OA
HETATM   17  N3  UNL     1       9.792 -10.345  -2.546  1.00  0.00    -0.345 N 
HETATM   18  C4  UNL     1       9.483  -9.041  -2.427  1.00  0.00     0.188 A 
ATOM     19  H3  UNL     1       9.157 -11.106  -2.789  1.00  0.00     0.167 HD
ENDBRANCH   1   6
BRANCH   5  20
HETATM   20  O10 UNL     1      12.688  -5.796  -2.642  1.00  0.00    -0.388 OA
ATOM     21  H10 UNL     1      13.324  -6.469  -2.856  1.00  0.00     0.210 HD
ENDBRANCH   5  20
BRANCH   3  22
HETATM   22  C7  UNL     1       8.186  -4.670  -3.052  1.00  0.00     0.216 C 
BRANCH  22  23
HETATM   23  O2  UNL     1       7.309  -4.078  -2.145  1.00  0.00    -0.287 OA
BRANCH  23  24
HETATM   24  P1  UNL     1       7.769  -2.880  -1.284  1.00  0.00     0.418 P 
HETATM   25  O3  UNL     1       7.064  -1.853  -2.367  1.00  0.00    -0.624 OA
HETATM   26  O4  UNL     1       6.798  -3.509  -0.060  1.00  0.00    -0.624 OA
BRANCH  24  27
HETATM   27  O5  UNL     1       8.038  -1.695  -0.342  1.00  0.00    -0.173 OA
BRANCH  27  28
HETATM   28  P2  UNL     1       7.737  -0.191  -0.446  1.00  0.00     0.431 P 
HETATM   29  O6  UNL     1       7.697   1.341  -0.681  1.00  0.00    -0.616 OA
HETATM   30  O7  UNL     1       9.238   0.025   0.254  1.00  0.00    -0.616 OA
HETATM   31  O8  UNL     1       6.459  -0.240   0.563  1.00  0.00    -0.616 OA
ENDBRANCH  27  28
ENDBRANCH  24  27
ENDBRANCH  23  24
ENDBRANCH  22  23
ENDBRANCH   3  22
BRANCH   4  32
HETATM   32  O9  UNL     1      11.300  -3.785  -2.674  1.00  0.00    -0.390 OA
ATOM     33  H9  UNL     1      12.136  -3.752  -3.124  1.00  0.00     0.210 HD
ENDBRANCH   4  32
TORSDOF 8
ENDMDL
