MODEL 13
REMARK VINA RESULT: -7.496306285      1.551      2.027
REMARK  8 active torsions:
REMARK  status: ('A' for Active; 'I' for Inactive)
REMARK    1  A    between atoms: N4_10  and  C5_11 
REMARK    2  A    between atoms: C6_13  and  C7_14 
REMARK    3  A    between atoms: C7_14  and  O2_15 
REMARK    4  A    between atoms: O2_15  and  P1_16 
REMARK    5  A    between atoms: P1_16  and  O5_19 
REMARK    6  A    between atoms: O5_19  and  P2_20 
REMARK    7  A    between atoms: C8_24  and  O9_25 
REMARK    8  A    between atoms: C9_27  and  O10_28 
ROOT
HETATM    1  C5  UNL     1       5.660  -2.232  -2.371  1.00  0.00     0.262 C 
HETATM    2  O1  UNL     1       6.314  -3.215  -1.631  1.00  0.00    -0.353 OA
HETATM    3  C6  UNL     1       6.468  -4.317  -2.422  1.00  0.00     0.180 C 
HETATM    4  C8  UNL     1       6.592  -3.868  -3.853  1.00  0.00     0.182 C 
HETATM    5  C9  UNL     1       6.182  -2.411  -3.760  1.00  0.00     0.198 C 
ENDROOT
BRANCH   1   6
HETATM    6  N4  UNL     1       6.065  -0.958  -1.782  1.00  0.00    -0.297 N 
HETATM    7  C2  UNL     1       5.755  -0.568  -0.520  1.00  0.00     0.146 A 
HETATM    8  N2  UNL     1       5.056  -1.168   0.462  1.00  0.00    -0.314 N 
HETATM    9  C3  UNL     1       6.325   0.686  -0.363  1.00  0.00     0.146 A 
HETATM   10  C1  UNL     1       4.915  -0.526   1.618  1.00  0.00     0.196 A 
ATOM     11  H2  UNL     1       4.646  -2.092   0.324  1.00  0.00     0.170 HD
HETATM   12  N1  UNL     1       4.183  -1.141   2.666  1.00  0.00    -0.063 NA
HETATM   13  N5  UNL     1       5.452   0.696   1.819  1.00  0.00    -0.295 N 
HETATM   14  C10 UNL     1       6.156   1.321   0.855  1.00  0.00     0.278 A 
ATOM     15  H5  UNL     1       5.322   1.156   2.720  1.00  0.00     0.171 HD
HETATM   16  O11 UNL     1       6.662   2.478   1.047  1.00  0.00    -0.265 OA
HETATM   17  N3  UNL     1       6.966   1.046  -1.504  1.00  0.00    -0.345 N 
HETATM   18  C4  UNL     1       6.796   0.025  -2.364  1.00  0.00     0.188 A 
ATOM     19  H3  UNL     1       7.474   1.914  -1.675  1.00  0.00     0.167 HD
ENDBRANCH   1   6
BRANCH   5  20
HETATM   20  O10 UNL     1       5.177  -2.232  -4.734  1.00  0.00    -0.388 OA
ATOM     21  H10 UNL     1       4.700  -3.035  -4.908  1.00  0.00     0.210 HD
ENDBRANCH   5  20
BRANCH   3  22
HETATM   22  C7  UNL     1       7.690  -5.124  -2.083  1.00  0.00     0.216 C 
BRANCH  22  23
HETATM   23  O2  UNL     1       8.753  -4.621  -2.830  1.00  0.00    -0.287 OA
BRANCH  23  24
HETATM   24  P1  UNL     1      10.210  -4.939  -2.426  1.00  0.00     0.418 P 
HETATM   25  O3  UNL     1      10.735  -3.757  -3.452  1.00  0.00    -0.624 OA
HETATM   26  O4  UNL     1       9.776  -4.480  -0.865  1.00  0.00    -0.624 OA
BRANCH  24  27
HETATM   27  O5  UNL     1      11.641  -5.101  -1.887  1.00  0.00    -0.173 OA
BRANCH  27  28
HETATM   28  P2  UNL     1      12.512  -6.334  -1.595  1.00  0.00     0.431 P 
HETATM   29  O6  UNL     1      13.286  -7.677  -1.558  1.00  0.00    -0.616 OA
HETATM   30  O7  UNL     1      11.128  -7.220  -1.898  1.00  0.00    -0.616 OA
HETATM   31  O8  UNL     1      12.799  -5.932  -0.043  1.00  0.00    -0.616 OA
ENDBRANCH  27  28
ENDBRANCH  24  27
ENDBRANCH  23  24
ENDBRANCH  22  23
ENDBRANCH   3  22
BRANCH   4  32
HETATM   32  O9  UNL     1       5.680  -4.620  -4.599  1.00  0.00    -0.390 OA
ATOM     33  H9  UNL     1       5.834  -4.417  -5.515  1.00  0.00     0.210 HD
ENDBRANCH   4  32
TORSDOF 8
ENDMDL
