MODEL 8
REMARK VINA RESULT: -7.651789778      6.520     10.372
REMARK  8 active torsions:
REMARK  status: ('A' for Active; 'I' for Inactive)
REMARK    1  A    between atoms: N4_10  and  C5_11 
REMARK    2  A    between atoms: C6_13  and  C7_14 
REMARK    3  A    between atoms: C7_14  and  O2_15 
REMARK    4  A    between atoms: O2_15  and  P1_16 
REMARK    5  A    between atoms: P1_16  and  O5_19 
REMARK    6  A    between atoms: O5_19  and  P2_20 
REMARK    7  A    between atoms: C8_24  and  O9_25 
REMARK    8  A    between atoms: C9_27  and  O10_28 
ROOT
HETATM    1  C5  UNL     1      10.999  -8.268  -1.903  1.00  0.00     0.262 C 
HETATM    2  O1  UNL     1      10.357  -7.126  -2.380  1.00  0.00    -0.353 OA
HETATM    3  C6  UNL     1      10.931  -6.035  -1.795  1.00  0.00     0.180 C 
HETATM    4  C8  UNL     1      12.375  -6.347  -1.506  1.00  0.00     0.182 C 
HETATM    5  C9  UNL     1      12.423  -7.844  -1.735  1.00  0.00     0.198 C 
ENDROOT
BRANCH   1   6
HETATM    6  N4  UNL     1      10.836  -9.278  -2.945  1.00  0.00    -0.297 N 
HETATM    7  C2  UNL     1      11.330 -10.539  -2.870  1.00  0.00     0.146 A 
HETATM    8  N2  UNL     1      12.042 -11.172  -1.918  1.00  0.00    -0.314 N 
HETATM    9  C3  UNL     1      10.956 -11.161  -4.051  1.00  0.00     0.146 A 
HETATM   10  C1  UNL     1      12.392 -12.437  -2.131  1.00  0.00     0.196 A 
ATOM     11  H2  UNL     1      12.306 -10.694  -1.057  1.00  0.00     0.170 HD
HETATM   12  N1  UNL     1      13.141 -13.122  -1.140  1.00  0.00    -0.063 NA
HETATM   13  N5  UNL     1      12.051 -13.086  -3.264  1.00  0.00    -0.295 N 
HETATM   14  C10 UNL     1      11.339 -12.478  -4.233  1.00  0.00     0.278 A 
ATOM     15  H5  UNL     1      12.338 -14.056  -3.389  1.00  0.00     0.171 HD
HETATM   16  O11 UNL     1      11.018 -13.093  -5.306  1.00  0.00    -0.265 OA
HETATM   17  N3  UNL     1      10.251 -10.295  -4.824  1.00  0.00    -0.345 N 
HETATM   18  C4  UNL     1      10.187  -9.144  -4.130  1.00  0.00     0.188 A 
ATOM     19  H3  UNL     1       9.851 -10.480  -5.744  1.00  0.00     0.167 HD
ENDBRANCH   1   6
BRANCH   5  20
HETATM   20  O10 UNL     1      13.007  -8.392  -0.573  1.00  0.00    -0.388 OA
ATOM     21  H10 UNL     1      13.794  -7.927  -0.314  1.00  0.00     0.210 HD
ENDBRANCH   5  20
BRANCH   3  22
HETATM   22  C7  UNL     1      10.887  -4.806  -2.658  1.00  0.00     0.216 C 
BRANCH  22  23
HETATM   23  O2  UNL     1       9.669  -4.805  -3.335  1.00  0.00    -0.287 OA
BRANCH  23  24
HETATM   24  P1  UNL     1       8.354  -4.524  -2.573  1.00  0.00     0.418 P 
HETATM   25  O3  UNL     1       9.052  -3.190  -1.894  1.00  0.00    -0.624 OA
HETATM   26  O4  UNL     1       7.629  -4.342  -4.082  1.00  0.00    -0.624 OA
BRANCH  24  27
HETATM   27  O5  UNL     1       7.000  -4.115  -1.970  1.00  0.00    -0.173 OA
BRANCH  27  28
HETATM   28  P2  UNL     1       6.581  -2.982  -1.018  1.00  0.00     0.431 P 
HETATM   29  O6  UNL     1       6.367  -1.949   0.118  1.00  0.00    -0.616 OA
HETATM   30  O7  UNL     1       6.456  -4.180   0.140  1.00  0.00    -0.616 OA
HETATM   31  O8  UNL     1       5.223  -2.613  -1.838  1.00  0.00    -0.616 OA
ENDBRANCH  27  28
ENDBRANCH  24  27
ENDBRANCH  23  24
ENDBRANCH  22  23
ENDBRANCH   3  22
BRANCH   4  32
HETATM   32  O9  UNL     1      12.606  -6.015  -0.167  1.00  0.00    -0.390 OA
ATOM     33  H9  UNL     1      13.266  -6.616   0.159  1.00  0.00     0.210 HD
ENDBRANCH   4  32
TORSDOF 8
ENDMDL
