MODEL 2
REMARK VINA RESULT: -8.102063782      0.580      1.099
REMARK  8 active torsions:
REMARK  status: ('A' for Active; 'I' for Inactive)
REMARK    1  A    between atoms: N4_10  and  C5_11 
REMARK    2  A    between atoms: C6_13  and  C7_14 
REMARK    3  A    between atoms: C7_14  and  O2_15 
REMARK    4  A    between atoms: O2_15  and  P1_16 
REMARK    5  A    between atoms: P1_16  and  O5_19 
REMARK    6  A    between atoms: O5_19  and  P2_20 
REMARK    7  A    between atoms: C8_24  and  O9_25 
REMARK    8  A    between atoms: C9_27  and  O10_28 
ROOT
HETATM    1  C5  UNL     1       6.386  -1.860  -1.232  1.00  0.00     0.262 C 
HETATM    2  O1  UNL     1       6.988  -3.074  -0.904  1.00  0.00    -0.353 OA
HETATM    3  C6  UNL     1       6.631  -3.998  -1.842  1.00  0.00     0.180 C 
HETATM    4  C8  UNL     1       6.409  -3.292  -3.153  1.00  0.00     0.182 C 
HETATM    5  C9  UNL     1       6.399  -1.837  -2.727  1.00  0.00     0.198 C 
ENDROOT
BRANCH   1   6
HETATM    6  N4  UNL     1       7.238  -0.826  -0.650  1.00  0.00    -0.297 N 
HETATM    7  C2  UNL     1       6.773   0.317  -0.086  1.00  0.00     0.146 A 
HETATM    8  N2  UNL     1       5.526   0.793   0.089  1.00  0.00    -0.314 N 
HETATM    9  C3  UNL     1       7.896   1.011   0.336  1.00  0.00     0.146 A 
HETATM   10  C1  UNL     1       5.379   1.970   0.689  1.00  0.00     0.196 A 
ATOM     11  H2  UNL     1       4.714   0.264  -0.229  1.00  0.00     0.170 HD
HETATM   12  N1  UNL     1       4.073   2.489   0.884  1.00  0.00    -0.063 NA
HETATM   13  N5  UNL     1       6.441   2.684   1.118  1.00  0.00    -0.295 N 
HETATM   14  C10 UNL     1       7.701   2.233   0.956  1.00  0.00     0.278 A 
ATOM     15  H5  UNL     1       6.287   3.583   1.574  1.00  0.00     0.171 HD
HETATM   16  O11 UNL     1       8.706   2.911   1.362  1.00  0.00    -0.265 OA
HETATM   17  N3  UNL     1       9.015   0.305   0.034  1.00  0.00    -0.345 N 
HETATM   18  C4  UNL     1       8.592  -0.820  -0.571  1.00  0.00     0.188 A 
ATOM     19  H3  UNL     1       9.981   0.572   0.227  1.00  0.00     0.167 HD
ENDBRANCH   1   6
BRANCH   5  20
HETATM   20  O10 UNL     1       5.213  -1.289  -3.261  1.00  0.00    -0.388 OA
ATOM     21  H10 UNL     1       5.386  -0.697  -3.983  1.00  0.00     0.210 HD
ENDBRANCH   5  20
BRANCH   3  22
HETATM   22  C7  UNL     1       7.674  -5.058  -2.059  1.00  0.00     0.216 C 
BRANCH  22  23
HETATM   23  O2  UNL     1       8.747  -4.469  -2.724  1.00  0.00    -0.287 OA
BRANCH  23  24
HETATM   24  P1  UNL     1      10.198  -4.863  -2.365  1.00  0.00     0.418 P 
HETATM   25  O3  UNL     1      10.752  -3.703  -3.401  1.00  0.00    -0.624 OA
HETATM   26  O4  UNL     1       9.836  -4.393  -0.789  1.00  0.00    -0.624 OA
BRANCH  24  27
HETATM   27  O5  UNL     1      11.634  -5.100  -1.871  1.00  0.00    -0.173 OA
BRANCH  27  28
HETATM   28  P2  UNL     1      12.446  -6.378  -1.599  1.00  0.00     0.431 P 
HETATM   29  O6  UNL     1      13.145  -7.762  -1.577  1.00  0.00    -0.616 OA
HETATM   30  O7  UNL     1      11.005  -7.188  -1.840  1.00  0.00    -0.616 OA
HETATM   31  O8  UNL     1      12.813  -5.980  -0.063  1.00  0.00    -0.616 OA
ENDBRANCH  27  28
ENDBRANCH  24  27
ENDBRANCH  23  24
ENDBRANCH  22  23
ENDBRANCH   3  22
BRANCH   4  32
HETATM   32  O9  UNL     1       5.163  -3.704  -3.635  1.00  0.00    -0.390 OA
ATOM     33  H9  UNL     1       5.179  -4.654  -3.674  1.00  0.00     0.210 HD
ENDBRANCH   4  32
TORSDOF 8
ENDMDL
