MODEL 10
REMARK VINA RESULT: -8.507204985      3.032      7.381
REMARK  4 active torsions:
REMARK  status: ('A' for Active; 'I' for Inactive)
REMARK    1  A    between atoms: C1_2  and  O2_3 
REMARK    2  A    between atoms: C1_2  and  C13_17 
REMARK    3  A    between atoms: O2_3  and  C2_4 
REMARK    4  A    between atoms: C16_20  and  N1_21 
ROOT
HETATM    1  C2  UNL     1       5.635  14.868 -41.900  1.00  0.00     0.090 A 
HETATM    2  C3  UNL     1       5.708  13.911 -40.897  1.00  0.00     0.041 A 
HETATM    3  C4  UNL     1       5.597  12.550 -41.150  1.00  0.00     0.041 A 
HETATM    4  C5  UNL     1       5.404  12.117 -42.461  1.00  0.00     0.091 A 
HETATM    5  C6  UNL     1       5.331  13.065 -43.449  1.00  0.00     0.027 A 
HETATM    6  C7  UNL     1       5.141  12.541 -44.691  1.00  0.00     0.053 A 
HETATM    7  C8  UNL     1       5.048  13.394 -45.794  1.00  0.00     0.018 A 
HETATM    8  C9  UNL     1       5.159  14.746 -45.545  1.00  0.00     0.002 A 
HETATM    9  C10 UNL     1       5.354  15.279 -44.266  1.00  0.00     0.015 A 
HETATM   10  C11 UNL     1       5.441  14.410 -43.197  1.00  0.00     0.012 A 
HETATM   11  C12 UNL     1       5.085  11.100 -44.474  1.00  0.00     0.299 A 
HETATM   12  O3  UNL     1       4.923  10.221 -45.341  1.00  0.00    -0.259 OA
HETATM   13  O4  UNL     1       5.249  10.896 -43.109  1.00  0.00    -0.274 OA
ENDROOT
BRANCH   1  14
HETATM   14  O2  UNL     1       5.742  16.230 -41.685  1.00  0.00    -0.274 OA
BRANCH  14  15
HETATM   15  C1  UNL     1       4.690  17.001 -41.207  1.00  0.00     0.298 C 
HETATM   16  O1  UNL     1       4.349  17.984 -41.913  1.00  0.00    -0.259 OA
BRANCH  15  17
HETATM   17  C13 UNL     1       4.021  16.686 -39.954  1.00  0.00     0.040 A 
HETATM   18  C14 UNL     1       4.621  16.893 -38.732  1.00  0.00     0.020 A 
HETATM   19  C15 UNL     1       3.948  16.578 -37.590  1.00  0.00     0.037 A 
HETATM   20  C16 UNL     1       2.668  16.055 -37.647  1.00  0.00     0.102 A 
HETATM   21  C17 UNL     1       2.054  15.841 -38.860  1.00  0.00     0.037 A 
HETATM   22  C18 UNL     1       2.734  16.158 -40.015  1.00  0.00     0.020 A 
BRANCH  20  23
HETATM   23  N1  UNL     1       1.986  15.734 -36.438  1.00  0.00    -0.116 N 
HETATM   24  O5  UNL     1       2.589  15.801 -35.343  1.00  0.00    -0.532 OA
HETATM   25  O6  UNL     1       0.665  15.351 -36.456  1.00  0.00    -0.532 OA
ENDBRANCH  20  23
ENDBRANCH  15  17
ENDBRANCH  14  15
ENDBRANCH   1  14
TORSDOF 4
ENDMDL
