MODEL 4
REMARK VINA RESULT: -8.684427471      3.194      6.916
REMARK  4 active torsions:
REMARK  status: ('A' for Active; 'I' for Inactive)
REMARK    1  A    between atoms: C1_2  and  O2_3 
REMARK    2  A    between atoms: C1_2  and  C13_17 
REMARK    3  A    between atoms: O2_3  and  C2_4 
REMARK    4  A    between atoms: C16_20  and  N1_21 
ROOT
HETATM    1  C2  UNL     1       1.952  15.613 -39.876  1.00  0.00     0.090 A 
HETATM    2  C3  UNL     1       1.835  14.890 -38.696  1.00  0.00     0.041 A 
HETATM    3  C4  UNL     1       2.760  13.930 -38.310  1.00  0.00     0.041 A 
HETATM    4  C5  UNL     1       3.855  13.672 -39.134  1.00  0.00     0.091 A 
HETATM    5  C6  UNL     1       3.968  14.388 -40.299  1.00  0.00     0.027 A 
HETATM    6  C7  UNL     1       5.068  14.063 -41.031  1.00  0.00     0.053 A 
HETATM    7  C8  UNL     1       5.308  14.714 -42.244  1.00  0.00     0.018 A 
HETATM    8  C9  UNL     1       4.390  15.668 -42.628  1.00  0.00     0.002 A 
HETATM    9  C10 UNL     1       3.260  15.998 -41.871  1.00  0.00     0.015 A 
HETATM   10  C11 UNL     1       3.051  15.337 -40.678  1.00  0.00     0.012 A 
HETATM   11  C12 UNL     1       5.733  13.026 -40.250  1.00  0.00     0.299 A 
HETATM   12  O3  UNL     1       6.788  12.433 -40.541  1.00  0.00    -0.259 OA
HETATM   13  O4  UNL     1       4.960  12.827 -39.112  1.00  0.00    -0.274 OA
ENDROOT
BRANCH   1  14
HETATM   14  O2  UNL     1       1.050  16.576 -40.290  1.00  0.00    -0.274 OA
BRANCH  14  15
HETATM   15  C1  UNL     1       0.963  17.829 -39.700  1.00  0.00     0.298 C 
HETATM   16  O1  UNL     1      -0.153  18.144 -39.213  1.00  0.00    -0.259 OA
BRANCH  15  17
HETATM   17  C13 UNL     1       2.105  18.730 -39.650  1.00  0.00     0.040 A 
HETATM   18  C14 UNL     1       2.918  18.821 -38.543  1.00  0.00     0.020 A 
HETATM   19  C15 UNL     1       3.973  19.682 -38.552  1.00  0.00     0.037 A 
HETATM   20  C16 UNL     1       4.237  20.464 -39.663  1.00  0.00     0.102 A 
HETATM   21  C17 UNL     1       3.434  20.386 -40.779  1.00  0.00     0.037 A 
HETATM   22  C18 UNL     1       2.366  19.515 -40.770  1.00  0.00     0.020 A 
BRANCH  20  23
HETATM   23  N1  UNL     1       5.347  21.356 -39.647  1.00  0.00    -0.116 N 
HETATM   24  O5  UNL     1       5.174  22.573 -39.888  1.00  0.00    -0.532 OA
HETATM   25  O6  UNL     1       6.613  20.899 -39.369  1.00  0.00    -0.532 OA
ENDBRANCH  20  23
ENDBRANCH  15  17
ENDBRANCH  14  15
ENDBRANCH   1  14
TORSDOF 4
ENDMDL
