MODEL 7
REMARK VINA RESULT: -8.616686090      2.958      6.490
REMARK  4 active torsions:
REMARK  status: ('A' for Active; 'I' for Inactive)
REMARK    1  A    between atoms: C1_2  and  O2_3 
REMARK    2  A    between atoms: C1_2  and  C13_17 
REMARK    3  A    between atoms: O2_3  and  C2_4 
REMARK    4  A    between atoms: C16_20  and  N1_21 
ROOT
HETATM    1  C2  UNL     1       2.113  14.676 -39.074  1.00  0.00     0.090 A 
HETATM    2  C3  UNL     1       1.008  15.198 -39.734  1.00  0.00     0.041 A 
HETATM    3  C4  UNL     1       0.893  15.198 -41.117  1.00  0.00     0.041 A 
HETATM    4  C5  UNL     1       1.921  14.654 -41.884  1.00  0.00     0.091 A 
HETATM    5  C6  UNL     1       3.012  14.140 -41.229  1.00  0.00     0.027 A 
HETATM    6  C7  UNL     1       3.959  13.635 -42.066  1.00  0.00     0.053 A 
HETATM    7  C8  UNL     1       5.126  13.079 -41.534  1.00  0.00     0.018 A 
HETATM    8  C9  UNL     1       5.242  13.078 -40.160  1.00  0.00     0.002 A 
HETATM    9  C10 UNL     1       4.264  13.599 -39.304  1.00  0.00     0.015 A 
HETATM   10  C11 UNL     1       3.123  14.142 -39.861  1.00  0.00     0.012 A 
HETATM   11  C12 UNL     1       3.417  13.849 -43.402  1.00  0.00     0.299 A 
HETATM   12  O3  UNL     1       3.951  13.539 -44.484  1.00  0.00    -0.259 OA
HETATM   13  O4  UNL     1       2.184  14.468 -43.238  1.00  0.00    -0.274 OA
ENDROOT
BRANCH   1  14
HETATM   14  O2  UNL     1       2.261  14.660 -37.699  1.00  0.00    -0.274 OA
BRANCH  14  15
HETATM   15  C1  UNL     1       2.595  15.790 -36.964  1.00  0.00     0.298 C 
HETATM   16  O1  UNL     1       2.303  15.772 -35.741  1.00  0.00    -0.259 OA
BRANCH  15  17
HETATM   17  C13 UNL     1       3.250  16.934 -37.581  1.00  0.00     0.040 A 
HETATM   18  C14 UNL     1       4.562  16.890 -37.997  1.00  0.00     0.020 A 
HETATM   19  C15 UNL     1       5.124  17.992 -38.568  1.00  0.00     0.037 A 
HETATM   20  C16 UNL     1       4.390  19.152 -38.735  1.00  0.00     0.102 A 
HETATM   21  C17 UNL     1       3.077  19.214 -38.325  1.00  0.00     0.037 A 
HETATM   22  C18 UNL     1       2.508  18.100 -37.747  1.00  0.00     0.020 A 
BRANCH  20  23
HETATM   23  N1  UNL     1       5.001  20.290 -39.335  1.00  0.00    -0.116 N 
HETATM   24  O5  UNL     1       4.293  21.160 -39.891  1.00  0.00    -0.532 OA
HETATM   25  O6  UNL     1       6.367  20.450 -39.312  1.00  0.00    -0.532 OA
ENDBRANCH  20  23
ENDBRANCH  15  17
ENDBRANCH  14  15
ENDBRANCH   1  14
TORSDOF 4
ENDMDL
