MODEL 4
REMARK VINA RESULT: -8.462911114      0.408      1.564
REMARK  8 active torsions:
REMARK  status: ('A' for Active; 'I' for Inactive)
REMARK    1  A    between atoms: C6_6  and  N1_7 
REMARK    2  A    between atoms: C7_10  and  C8_11 
REMARK    3  A    between atoms: C10_15  and  C11_16 
REMARK    4  A    between atoms: C14_19  and  O3_20 
REMARK    5  A    between atoms: O3_20  and  C15_21 
REMARK    6  A    between atoms: C15_21  and  C16_22 
REMARK    7  A    between atoms: C19_25  and  C20_26 
REMARK    8  A    between atoms: C23_29  and  C24_30 
ROOT
HETATM    1  C11 UNL     1      -7.616  13.014 -24.669  1.00  0.00    -0.007 A 
HETATM    2  C12 UNL     1      -7.862  11.826 -25.372  1.00  0.00     0.016 A 
HETATM    3  C13 UNL     1      -9.136  11.334 -25.572  1.00  0.00     0.037 A 
HETATM    4  C14 UNL     1     -10.248  11.979 -25.090  1.00  0.00     0.069 A 
HETATM    5  C27 UNL     1     -10.033  13.143 -24.399  1.00  0.00     0.037 A 
HETATM    6  C28 UNL     1      -8.731  13.645 -24.196  1.00  0.00     0.016 A 
ENDROOT
BRANCH   1   7
HETATM    7  C10 UNL     1      -6.251  13.467 -24.483  1.00  0.00     0.069 A 
HETATM    8  N1  UNL     1      -5.199  12.862 -23.960  1.00  0.00    -0.255 N 
HETATM    9  N2  UNL     1      -4.124  13.686 -23.991  1.00  0.00    -0.287 N 
HETATM   10  C7  UNL     1      -4.446  14.853 -24.534  1.00  0.00     0.127 A 
ATOM     11  H2  UNL     1      -3.195  13.443 -23.644  1.00  0.00     0.188 HD
HETATM   12  C9  UNL     1      -5.793  14.744 -24.856  1.00  0.00     0.070 A 
BRANCH   8  13
HETATM   13  C6  UNL     1      -5.098  11.561 -23.416  1.00  0.00     0.057 A 
HETATM   14  C5  UNL     1      -4.576  10.474 -24.117  1.00  0.00     0.031 A 
HETATM   15  C4  UNL     1      -4.480   9.246 -23.509  1.00  0.00     0.003 A 
HETATM   16  C3  UNL     1      -4.900   9.073 -22.197  1.00  0.00     0.007 A 
HETATM   17  C2  UNL     1      -5.420  10.130 -21.480  1.00  0.00    -0.060 A 
HETATM   18  C1  UNL     1      -5.871   9.932 -20.062  1.00  0.00     0.048 C 
HETATM   19  C29 UNL     1      -5.508  11.337 -22.097  1.00  0.00     0.038 A 
ENDBRANCH   8  13
BRANCH  10  20
HETATM   20  C8  UNL     1      -3.625  16.039 -24.772  1.00  0.00     0.228 C 
HETATM   21  O1  UNL     1      -2.417  15.895 -24.991  1.00  0.00    -0.643 OA
HETATM   22  O2  UNL     1      -4.179  17.300 -24.757  1.00  0.00    -0.643 OA
ENDBRANCH  10  20
ENDBRANCH   1   7
BRANCH   4  23
HETATM   23  O3  UNL     1     -11.524  11.461 -25.306  1.00  0.00    -0.347 OA
BRANCH  23  24
HETATM   24  C15 UNL     1     -11.946  10.369 -24.511  1.00  0.00     0.214 C 
BRANCH  24  25
HETATM   25  C16 UNL     1     -13.051  10.755 -23.601  1.00  0.00    -0.034 A 
HETATM   26  C17 UNL     1     -12.715  11.384 -22.419  1.00  0.00     0.010 A 
HETATM   27  C18 UNL     1     -13.723  11.757 -21.557  1.00  0.00     0.015 A 
HETATM   28  C19 UNL     1     -15.063  11.541 -21.799  1.00  0.00    -0.002 A 
HETATM   29  C25 UNL     1     -15.379  10.909 -22.987  1.00  0.00     0.015 A 
HETATM   30  C26 UNL     1     -14.381  10.519 -23.880  1.00  0.00     0.010 A 
BRANCH  28  31
HETATM   31  C20 UNL     1     -16.091  11.953 -20.852  1.00  0.00     0.086 A 
HETATM   32  C21 UNL     1     -17.199  11.235 -20.452  1.00  0.00     0.041 A 
HETATM   33  C22 UNL     1     -17.897  12.005 -19.547  1.00  0.00     0.047 A 
HETATM   34  C23 UNL     1     -17.163  13.183 -19.436  1.00  0.00     0.152 A 
HETATM   35  O6  UNL     1     -16.115  13.103 -20.218  1.00  0.00    -0.303 OA
BRANCH  34  36
HETATM   36  C24 UNL     1     -17.522  14.309 -18.580  1.00  0.00     0.234 C 
HETATM   37  O4  UNL     1     -16.838  15.389 -18.660  1.00  0.00    -0.642 OA
HETATM   38  O5  UNL     1     -18.585  14.239 -17.683  1.00  0.00    -0.642 OA
ENDBRANCH  34  36
ENDBRANCH  28  31
ENDBRANCH  24  25
ENDBRANCH  23  24
ENDBRANCH   4  23
TORSDOF 8
ENDMDL
