MODEL 15
REMARK VINA RESULT: -7.157286937      4.405     11.077
REMARK  8 active torsions:
REMARK  status: ('A' for Active; 'I' for Inactive)
REMARK    1  A    between atoms: C6_6  and  N1_7 
REMARK    2  A    between atoms: C7_10  and  C8_11 
REMARK    3  A    between atoms: C10_15  and  C11_16 
REMARK    4  A    between atoms: C14_19  and  O3_20 
REMARK    5  A    between atoms: O3_20  and  C15_21 
REMARK    6  A    between atoms: C15_21  and  C16_22 
REMARK    7  A    between atoms: C19_25  and  C20_26 
REMARK    8  A    between atoms: C23_29  and  C24_30 
ROOT
HETATM    1  C11 UNL     1     -10.986  11.895 -24.112  1.00  0.00    -0.007 A 
HETATM    2  C12 UNL     1     -10.453  13.188 -24.220  1.00  0.00     0.016 A 
HETATM    3  C13 UNL     1      -9.095  13.427 -24.255  1.00  0.00     0.037 A 
HETATM    4  C14 UNL     1      -8.175  12.411 -24.187  1.00  0.00     0.069 A 
HETATM    5  C27 UNL     1      -8.672  11.138 -24.082  1.00  0.00     0.037 A 
HETATM    6  C28 UNL     1     -10.060  10.893 -24.045  1.00  0.00     0.016 A 
ENDROOT
BRANCH   1   7
HETATM    7  C10 UNL     1     -12.424  11.714 -24.065  1.00  0.00     0.069 A 
HETATM    8  N1  UNL     1     -13.306  11.515 -25.029  1.00  0.00    -0.255 N 
HETATM    9  N2  UNL     1     -14.552  11.409 -24.507  1.00  0.00    -0.287 N 
HETATM   10  C7  UNL     1     -14.517  11.538 -23.187  1.00  0.00     0.127 A 
ATOM     11  H2  UNL     1     -15.400  11.253 -25.053  1.00  0.00     0.188 HD
HETATM   12  C9  UNL     1     -13.177  11.734 -22.877  1.00  0.00     0.070 A 
BRANCH   8  13
HETATM   13  C6  UNL     1     -13.096  11.417 -26.424  1.00  0.00     0.057 A 
HETATM   14  C5  UNL     1     -12.912  12.523 -27.253  1.00  0.00     0.031 A 
HETATM   15  C4  UNL     1     -12.681  12.345 -28.595  1.00  0.00     0.003 A 
HETATM   16  C3  UNL     1     -12.627  11.070 -29.139  1.00  0.00     0.007 A 
HETATM   17  C2  UNL     1     -12.804   9.957 -28.344  1.00  0.00    -0.060 A 
HETATM   18  C1  UNL     1     -12.743   8.582 -28.942  1.00  0.00     0.048 C 
HETATM   19  C29 UNL     1     -13.033  10.152 -27.019  1.00  0.00     0.038 A 
ENDBRANCH   8  13
BRANCH  10  20
HETATM   20  C8  UNL     1     -15.602  11.498 -22.208  1.00  0.00     0.228 C 
HETATM   21  O1  UNL     1     -15.502  12.170 -21.177  1.00  0.00    -0.643 OA
HETATM   22  O2  UNL     1     -16.723  10.727 -22.423  1.00  0.00    -0.643 OA
ENDBRANCH  10  20
ENDBRANCH   1   7
BRANCH   4  23
HETATM   23  O3  UNL     1      -6.808  12.681 -24.225  1.00  0.00    -0.347 OA
BRANCH  23  24
HETATM   24  C15 UNL     1      -6.072  12.583 -23.021  1.00  0.00     0.214 C 
BRANCH  24  25
HETATM   25  C16 UNL     1      -5.514  11.223 -22.833  1.00  0.00    -0.034 A 
HETATM   26  C17 UNL     1      -4.786  10.682 -23.874  1.00  0.00     0.010 A 
HETATM   27  C18 UNL     1      -4.252   9.421 -23.724  1.00  0.00     0.015 A 
HETATM   28  C19 UNL     1      -4.399   8.652 -22.589  1.00  0.00    -0.002 A 
HETATM   29  C25 UNL     1      -5.132   9.211 -21.559  1.00  0.00     0.015 A 
HETATM   30  C26 UNL     1      -5.685  10.486 -21.680  1.00  0.00     0.010 A 
BRANCH  28  31
HETATM   31  C20 UNL     1      -3.816   7.321 -22.482  1.00  0.00     0.086 A 
HETATM   32  C21 UNL     1      -4.224   6.173 -23.128  1.00  0.00     0.041 A 
HETATM   33  C22 UNL     1      -3.391   5.147 -22.735  1.00  0.00     0.047 A 
HETATM   34  C23 UNL     1      -2.494   5.734 -21.846  1.00  0.00     0.152 A 
HETATM   35  O6  UNL     1      -2.784   7.007 -21.732  1.00  0.00    -0.303 OA
BRANCH  34  36
HETATM   36  C24 UNL     1      -1.415   5.028 -21.164  1.00  0.00     0.234 C 
HETATM   37  O4  UNL     1      -1.480   4.875 -19.894  1.00  0.00    -0.642 OA
HETATM   38  O5  UNL     1      -0.320   4.517 -21.857  1.00  0.00    -0.642 OA
ENDBRANCH  34  36
ENDBRANCH  28  31
ENDBRANCH  24  25
ENDBRANCH  23  24
ENDBRANCH   4  23
TORSDOF 8
ENDMDL
