MODEL 1
REMARK VINA RESULT: -8.682256189      0.000      0.000
REMARK  8 active torsions:
REMARK  status: ('A' for Active; 'I' for Inactive)
REMARK    1  A    between atoms: C6_6  and  N1_7 
REMARK    2  A    between atoms: C7_10  and  C8_11 
REMARK    3  A    between atoms: C10_15  and  C11_16 
REMARK    4  A    between atoms: C14_19  and  O3_20 
REMARK    5  A    between atoms: O3_20  and  C15_21 
REMARK    6  A    between atoms: C15_21  and  C16_22 
REMARK    7  A    between atoms: C19_25  and  C20_26 
REMARK    8  A    between atoms: C23_29  and  C24_30 
ROOT
HETATM    1  C11 UNL     1      -7.629  12.760 -24.560  1.00  0.00    -0.007 A 
HETATM    2  C12 UNL     1      -8.755  13.471 -24.118  1.00  0.00     0.016 A 
HETATM    3  C13 UNL     1     -10.044  13.059 -24.389  1.00  0.00     0.037 A 
HETATM    4  C14 UNL     1     -10.307  11.922 -25.112  1.00  0.00     0.069 A 
HETATM    5  C27 UNL     1      -9.222  11.210 -25.554  1.00  0.00     0.037 A 
HETATM    6  C28 UNL     1      -7.905  11.631 -25.277  1.00  0.00     0.016 A 
ENDROOT
BRANCH   1   7
HETATM    7  C10 UNL     1      -6.302  13.257 -24.253  1.00  0.00     0.069 A 
HETATM    8  N1  UNL     1      -5.324  12.734 -23.535  1.00  0.00    -0.255 N 
HETATM    9  N2  UNL     1      -4.257  13.570 -23.520  1.00  0.00    -0.287 N 
HETATM   10  C7  UNL     1      -4.512  14.664 -24.227  1.00  0.00     0.127 A 
ATOM     11  H2  UNL     1      -3.380  13.384 -23.032  1.00  0.00     0.188 HD
HETATM   12  C9  UNL     1      -5.805  14.493 -24.705  1.00  0.00     0.070 A 
BRANCH   8  13
HETATM   13  C6  UNL     1      -5.288  11.503 -22.840  1.00  0.00     0.057 A 
HETATM   14  C5  UNL     1      -5.636  11.369 -21.497  1.00  0.00     0.031 A 
HETATM   15  C4  UNL     1      -5.606  10.132 -20.900  1.00  0.00     0.003 A 
HETATM   16  C3  UNL     1      -5.231   9.008 -21.622  1.00  0.00     0.007 A 
HETATM   17  C2  UNL     1      -4.882   9.110 -22.952  1.00  0.00    -0.060 A 
HETATM   18  C1  UNL     1      -4.478   7.888 -23.724  1.00  0.00     0.048 C 
HETATM   19  C29 UNL     1      -4.916  10.341 -23.526  1.00  0.00     0.038 A 
ENDBRANCH   8  13
BRANCH  10  20
HETATM   20  C8  UNL     1      -3.672  15.831 -24.490  1.00  0.00     0.228 C 
HETATM   21  O1  UNL     1      -2.444  15.695 -24.495  1.00  0.00    -0.643 OA
HETATM   22  O2  UNL     1      -4.231  17.067 -24.730  1.00  0.00    -0.643 OA
ENDBRANCH  10  20
ENDBRANCH   1   7
BRANCH   4  23
HETATM   23  O3  UNL     1     -11.618  11.528 -25.371  1.00  0.00    -0.347 OA
BRANCH  23  24
HETATM   24  C15 UNL     1     -12.135  10.415 -24.667  1.00  0.00     0.214 C 
BRANCH  24  25
HETATM   25  C16 UNL     1     -13.113  10.832 -23.634  1.00  0.00    -0.034 A 
HETATM   26  C17 UNL     1     -14.454  10.734 -23.947  1.00  0.00     0.010 A 
HETATM   27  C18 UNL     1     -15.384  11.110 -23.003  1.00  0.00     0.015 A 
HETATM   28  C19 UNL     1     -15.061  11.587 -21.750  1.00  0.00    -0.002 A 
HETATM   29  C25 UNL     1     -13.714  11.679 -21.456  1.00  0.00     0.015 A 
HETATM   30  C26 UNL     1     -12.748  11.305 -22.391  1.00  0.00     0.010 A 
BRANCH  28  31
HETATM   31  C20 UNL     1     -16.084  11.976 -20.788  1.00  0.00     0.086 A 
HETATM   32  C21 UNL     1     -17.145  11.217 -20.340  1.00  0.00     0.041 A 
HETATM   33  C22 UNL     1     -17.858  11.977 -19.438  1.00  0.00     0.047 A 
HETATM   34  C23 UNL     1     -17.181  13.192 -19.379  1.00  0.00     0.152 A 
HETATM   35  O6  UNL     1     -16.150  13.141 -20.186  1.00  0.00    -0.303 OA
BRANCH  34  36
HETATM   36  C24 UNL     1     -17.573  14.324 -18.546  1.00  0.00     0.234 C 
HETATM   37  O4  UNL     1     -16.940  15.431 -18.668  1.00  0.00    -0.642 OA
HETATM   38  O5  UNL     1     -18.614  14.231 -17.625  1.00  0.00    -0.642 OA
ENDBRANCH  34  36
ENDBRANCH  28  31
ENDBRANCH  24  25
ENDBRANCH  23  24
ENDBRANCH   4  23
TORSDOF 8
ENDMDL
