MODEL 16
REMARK VINA RESULT: -7.154878427      5.778     11.939
REMARK  8 active torsions:
REMARK  status: ('A' for Active; 'I' for Inactive)
REMARK    1  A    between atoms: C6_6  and  N1_7 
REMARK    2  A    between atoms: C7_10  and  C8_11 
REMARK    3  A    between atoms: C10_15  and  C11_16 
REMARK    4  A    between atoms: C14_19  and  O3_20 
REMARK    5  A    between atoms: O3_20  and  C15_21 
REMARK    6  A    between atoms: C15_21  and  C16_22 
REMARK    7  A    between atoms: C19_25  and  C20_26 
REMARK    8  A    between atoms: C23_29  and  C24_30 
ROOT
HETATM    1  C11 UNL     1      -5.300  11.432 -23.835  1.00  0.00    -0.007 A 
HETATM    2  C12 UNL     1      -5.291  11.067 -22.481  1.00  0.00     0.016 A 
HETATM    3  C13 UNL     1      -5.224   9.752 -22.069  1.00  0.00     0.037 A 
HETATM    4  C14 UNL     1      -5.162   8.712 -22.963  1.00  0.00     0.069 A 
HETATM    5  C27 UNL     1      -5.169   9.043 -24.293  1.00  0.00     0.037 A 
HETATM    6  C28 UNL     1      -5.238  10.387 -24.714  1.00  0.00     0.016 A 
ENDROOT
BRANCH   1   7
HETATM    7  C10 UNL     1      -5.387  12.832 -24.200  1.00  0.00     0.069 A 
HETATM    8  N1  UNL     1      -6.396  13.547 -24.666  1.00  0.00    -0.255 N 
HETATM    9  N2  UNL     1      -6.004  14.828 -24.871  1.00  0.00    -0.287 N 
HETATM   10  C7  UNL     1      -4.727  14.984 -24.546  1.00  0.00     0.127 A 
ATOM     11  H2  UNL     1      -6.608  15.570 -25.227  1.00  0.00     0.188 HD
HETATM   12  C9  UNL     1      -4.308  13.731 -24.115  1.00  0.00     0.070 A 
BRANCH   8  13
HETATM   13  C6  UNL     1      -7.719  13.141 -24.951  1.00  0.00     0.057 A 
HETATM   14  C5  UNL     1      -8.804  13.422 -24.122  1.00  0.00     0.031 A 
HETATM   15  C4  UNL     1     -10.067  13.021 -24.483  1.00  0.00     0.003 A 
HETATM   16  C3  UNL     1     -10.278  12.335 -25.671  1.00  0.00     0.007 A 
HETATM   17  C2  UNL     1      -9.224  12.043 -26.511  1.00  0.00    -0.060 A 
HETATM   18  C1  UNL     1      -9.462  11.301 -27.794  1.00  0.00     0.048 C 
HETATM   19  C29 UNL     1      -7.982  12.447 -26.138  1.00  0.00     0.038 A 
ENDBRANCH   8  13
BRANCH  10  20
HETATM   20  C8  UNL     1      -3.881  16.174 -24.600  1.00  0.00     0.228 C 
HETATM   21  O1  UNL     1      -4.403  17.269 -24.834  1.00  0.00    -0.643 OA
HETATM   22  O2  UNL     1      -2.521  16.088 -24.394  1.00  0.00    -0.643 OA
ENDBRANCH  10  20
ENDBRANCH   1   7
BRANCH   4  23
HETATM   23  O3  UNL     1      -5.095   7.392 -22.520  1.00  0.00    -0.347 OA
BRANCH  23  24
HETATM   24  C15 UNL     1      -4.468   6.436 -23.353  1.00  0.00     0.214 C 
BRANCH  24  25
HETATM   25  C16 UNL     1      -3.256   5.869 -22.714  1.00  0.00    -0.034 A 
HETATM   26  C17 UNL     1      -2.087   6.598 -22.800  1.00  0.00     0.010 A 
HETATM   27  C18 UNL     1      -0.948   6.097 -22.211  1.00  0.00     0.015 A 
HETATM   28  C19 UNL     1      -0.896   4.898 -21.532  1.00  0.00    -0.002 A 
HETATM   29  C25 UNL     1      -2.076   4.182 -21.457  1.00  0.00     0.015 A 
HETATM   30  C26 UNL     1      -3.247   4.664 -22.044  1.00  0.00     0.010 A 
BRANCH  28  31
HETATM   31  C20 UNL     1       0.337   4.409 -20.928  1.00  0.00     0.086 A 
HETATM   32  C21 UNL     1       1.261   3.551 -21.486  1.00  0.00     0.041 A 
HETATM   33  C22 UNL     1       2.270   3.359 -20.566  1.00  0.00     0.047 A 
HETATM   34  C23 UNL     1       1.902   4.129 -19.465  1.00  0.00     0.152 A 
HETATM   35  O6  UNL     1       0.765   4.725 -19.727  1.00  0.00    -0.303 OA
BRANCH  34  36
HETATM   36  C24 UNL     1       2.675   4.240 -18.233  1.00  0.00     0.234 C 
HETATM   37  O4  UNL     1       2.082   4.056 -17.112  1.00  0.00    -0.642 OA
HETATM   38  O5  UNL     1       4.035   4.538 -18.244  1.00  0.00    -0.642 OA
ENDBRANCH  34  36
ENDBRANCH  28  31
ENDBRANCH  24  25
ENDBRANCH  23  24
ENDBRANCH   4  23
TORSDOF 8
ENDMDL
