MODEL 13
REMARK VINA RESULT: -7.215939566      1.161      1.595
REMARK  8 active torsions:
REMARK  status: ('A' for Active; 'I' for Inactive)
REMARK    1  A    between atoms: C6_6  and  N1_7 
REMARK    2  A    between atoms: C7_10  and  C8_11 
REMARK    3  A    between atoms: C10_15  and  C11_16 
REMARK    4  A    between atoms: C14_19  and  O3_20 
REMARK    5  A    between atoms: O3_20  and  C15_21 
REMARK    6  A    between atoms: C15_21  and  C16_22 
REMARK    7  A    between atoms: C19_25  and  C20_26 
REMARK    8  A    between atoms: C23_29  and  C24_30 
ROOT
HETATM    1  C11 UNL     1      -7.841  12.681 -24.333  1.00  0.00    -0.007 A 
HETATM    2  C12 UNL     1      -8.926  13.551 -24.151  1.00  0.00     0.016 A 
HETATM    3  C13 UNL     1     -10.233  13.155 -24.346  1.00  0.00     0.037 A 
HETATM    4  C14 UNL     1     -10.556  11.878 -24.734  1.00  0.00     0.069 A 
HETATM    5  C27 UNL     1      -9.512  11.009 -24.918  1.00  0.00     0.037 A 
HETATM    6  C28 UNL     1      -8.176  11.414 -24.718  1.00  0.00     0.016 A 
ENDROOT
BRANCH   1   7
HETATM    7  C10 UNL     1      -6.491  13.166 -24.124  1.00  0.00     0.069 A 
HETATM    8  N1  UNL     1      -5.467  12.634 -23.480  1.00  0.00    -0.255 N 
HETATM    9  N2  UNL     1      -4.395  13.461 -23.544  1.00  0.00    -0.287 N 
HETATM   10  C7  UNL     1      -4.691  14.557 -24.231  1.00  0.00     0.127 A 
ATOM     11  H2  UNL     1      -3.486  13.267 -23.122  1.00  0.00     0.188 HD
HETATM   12  C9  UNL     1      -6.017  14.398 -24.613  1.00  0.00     0.070 A 
BRANCH   8  13
HETATM   13  C6  UNL     1      -5.391  11.403 -22.789  1.00  0.00     0.057 A 
HETATM   14  C5  UNL     1      -5.698  11.261 -21.437  1.00  0.00     0.031 A 
HETATM   15  C4  UNL     1      -5.631  10.024 -20.844  1.00  0.00     0.003 A 
HETATM   16  C3  UNL     1      -5.258   8.907 -21.578  1.00  0.00     0.007 A 
HETATM   17  C2  UNL     1      -4.948   9.018 -22.918  1.00  0.00    -0.060 A 
HETATM   18  C1  UNL     1      -4.546   7.804 -23.704  1.00  0.00     0.048 C 
HETATM   19  C29 UNL     1      -5.020  10.248 -23.488  1.00  0.00     0.038 A 
ENDBRANCH   8  13
BRANCH  10  20
HETATM   20  C8  UNL     1      -3.863  15.717 -24.556  1.00  0.00     0.228 C 
HETATM   21  O1  UNL     1      -4.387  16.835 -24.586  1.00  0.00    -0.643 OA
HETATM   22  O2  UNL     1      -2.519  15.576 -24.824  1.00  0.00    -0.643 OA
ENDBRANCH  10  20
ENDBRANCH   1   7
BRANCH   4  23
HETATM   23  O3  UNL     1     -11.885  11.504 -24.925  1.00  0.00    -0.347 OA
BRANCH  23  24
HETATM   24  C15 UNL     1     -12.392  10.423 -24.167  1.00  0.00     0.214 C 
BRANCH  24  25
HETATM   25  C16 UNL     1     -13.477  10.859 -23.255  1.00  0.00    -0.034 A 
HETATM   26  C17 UNL     1     -14.765  10.470 -23.562  1.00  0.00     0.010 A 
HETATM   27  C18 UNL     1     -15.791  10.858 -22.729  1.00  0.00     0.015 A 
HETATM   28  C19 UNL     1     -15.615  11.621 -21.594  1.00  0.00    -0.002 A 
HETATM   29  C25 UNL     1     -14.319  12.002 -21.304  1.00  0.00     0.015 A 
HETATM   30  C26 UNL     1     -13.258  11.624 -22.128  1.00  0.00     0.010 A 
BRANCH  28  31
HETATM   31  C20 UNL     1     -16.736  12.008 -20.748  1.00  0.00     0.086 A 
HETATM   32  C21 UNL     1     -16.942  13.226 -20.135  1.00  0.00     0.041 A 
HETATM   33  C22 UNL     1     -18.127  13.152 -19.433  1.00  0.00     0.047 A 
HETATM   34  C23 UNL     1     -18.596  11.860 -19.658  1.00  0.00     0.152 A 
HETATM   35  O6  UNL     1     -17.748  11.231 -20.434  1.00  0.00    -0.303 OA
BRANCH  34  36
HETATM   36  C24 UNL     1     -19.834  11.318 -19.109  1.00  0.00     0.234 C 
HETATM   37  O4  UNL     1     -19.981  10.046 -19.052  1.00  0.00    -0.642 OA
HETATM   38  O5  UNL     1     -20.856  12.144 -18.648  1.00  0.00    -0.642 OA
ENDBRANCH  34  36
ENDBRANCH  28  31
ENDBRANCH  24  25
ENDBRANCH  23  24
ENDBRANCH   4  23
TORSDOF 8
ENDMDL
