MODEL 8
REMARK VINA RESULT: -7.689899033      2.616      4.752
REMARK  8 active torsions:
REMARK  status: ('A' for Active; 'I' for Inactive)
REMARK    1  A    between atoms: C6_6  and  N1_7 
REMARK    2  A    between atoms: C7_10  and  C8_11 
REMARK    3  A    between atoms: C10_15  and  C11_16 
REMARK    4  A    between atoms: C14_19  and  O3_20 
REMARK    5  A    between atoms: O3_20  and  C15_21 
REMARK    6  A    between atoms: C15_21  and  C16_22 
REMARK    7  A    between atoms: C19_25  and  C20_26 
REMARK    8  A    between atoms: C23_29  and  C24_30 
ROOT
HETATM    1  C11 UNL     1      -8.566  13.745 -25.103  1.00  0.00    -0.007 A 
HETATM    2  C12 UNL     1      -8.491  12.879 -24.002  1.00  0.00     0.016 A 
HETATM    3  C13 UNL     1      -9.329  11.793 -23.857  1.00  0.00     0.037 A 
HETATM    4  C14 UNL     1     -10.295  11.490 -24.784  1.00  0.00     0.069 A 
HETATM    5  C27 UNL     1     -10.388  12.322 -25.869  1.00  0.00     0.037 A 
HETATM    6  C28 UNL     1      -9.532  13.432 -26.018  1.00  0.00     0.016 A 
ENDROOT
BRANCH   1   7
HETATM    7  C10 UNL     1      -7.665  14.877 -25.187  1.00  0.00     0.069 A 
HETATM    8  N1  UNL     1      -7.903  16.167 -25.347  1.00  0.00    -0.255 N 
HETATM    9  N2  UNL     1      -6.737  16.857 -25.375  1.00  0.00    -0.287 N 
HETATM   10  C7  UNL     1      -5.705  16.035 -25.236  1.00  0.00     0.127 A 
ATOM     11  H2  UNL     1      -6.663  17.869 -25.488  1.00  0.00     0.188 HD
HETATM   12  C9  UNL     1      -6.264  14.769 -25.114  1.00  0.00     0.070 A 
BRANCH   8  13
HETATM   13  C6  UNL     1      -9.142  16.835 -25.485  1.00  0.00     0.057 A 
HETATM   14  C5  UNL     1     -10.200  16.681 -24.591  1.00  0.00     0.031 A 
HETATM   15  C4  UNL     1     -11.363  17.389 -24.774  1.00  0.00     0.003 A 
HETATM   16  C3  UNL     1     -11.497  18.260 -25.846  1.00  0.00     0.007 A 
HETATM   17  C2  UNL     1     -10.467  18.433 -26.746  1.00  0.00    -0.060 A 
HETATM   18  C1  UNL     1     -10.623  19.378 -27.902  1.00  0.00     0.048 C 
HETATM   19  C29 UNL     1      -9.325  17.724 -26.550  1.00  0.00     0.038 A 
ENDBRANCH   8  13
BRANCH  10  20
HETATM   20  C8  UNL     1      -4.272  16.320 -25.208  1.00  0.00     0.228 C 
HETATM   21  O1  UNL     1      -3.883  17.383 -24.712  1.00  0.00    -0.643 OA
HETATM   22  O2  UNL     1      -3.360  15.424 -25.721  1.00  0.00    -0.643 OA
ENDBRANCH  10  20
ENDBRANCH   1   7
BRANCH   4  23
HETATM   23  O3  UNL     1     -11.129  10.387 -24.612  1.00  0.00    -0.347 OA
BRANCH  23  24
HETATM   24  C15 UNL     1     -12.471  10.486 -25.049  1.00  0.00     0.214 C 
BRANCH  24  25
HETATM   25  C16 UNL     1     -13.374  10.887 -23.943  1.00  0.00    -0.034 A 
HETATM   26  C17 UNL     1     -14.730  10.714 -24.131  1.00  0.00     0.010 A 
HETATM   27  C18 UNL     1     -15.591  11.074 -23.118  1.00  0.00     0.015 A 
HETATM   28  C19 UNL     1     -15.183  11.604 -21.913  1.00  0.00    -0.002 A 
HETATM   29  C25 UNL     1     -13.822  11.770 -21.743  1.00  0.00     0.015 A 
HETATM   30  C26 UNL     1     -12.925  11.415 -22.751  1.00  0.00     0.010 A 
BRANCH  28  31
HETATM   31  C20 UNL     1     -16.136  11.973 -20.873  1.00  0.00     0.086 A 
HETATM   32  C21 UNL     1     -17.118  11.180 -20.317  1.00  0.00     0.041 A 
HETATM   33  C22 UNL     1     -17.784  11.932 -19.373  1.00  0.00     0.047 A 
HETATM   34  C23 UNL     1     -17.160  13.176 -19.400  1.00  0.00     0.152 A 
HETATM   35  O6  UNL     1     -16.202  13.149 -20.293  1.00  0.00    -0.303 OA
BRANCH  34  36
HETATM   36  C24 UNL     1     -17.530  14.310 -18.561  1.00  0.00     0.234 C 
HETATM   37  O4  UNL     1     -16.930  15.429 -18.732  1.00  0.00    -0.642 OA
HETATM   38  O5  UNL     1     -18.516  14.208 -17.582  1.00  0.00    -0.642 OA
ENDBRANCH  34  36
ENDBRANCH  28  31
ENDBRANCH  24  25
ENDBRANCH  23  24
ENDBRANCH   4  23
TORSDOF 8
ENDMDL
