MODEL 3
REMARK VINA RESULT: -8.521999237      0.412      1.123
REMARK  8 active torsions:
REMARK  status: ('A' for Active; 'I' for Inactive)
REMARK    1  A    between atoms: C6_6  and  N1_7 
REMARK    2  A    between atoms: C7_10  and  C8_11 
REMARK    3  A    between atoms: C10_15  and  C11_16 
REMARK    4  A    between atoms: C14_19  and  O3_20 
REMARK    5  A    between atoms: O3_20  and  C15_21 
REMARK    6  A    between atoms: C15_21  and  C16_22 
REMARK    7  A    between atoms: C19_25  and  C20_26 
REMARK    8  A    between atoms: C23_29  and  C24_30 
ROOT
HETATM    1  C11 UNL     1      -7.640  12.850 -24.841  1.00  0.00    -0.007 A 
HETATM    2  C12 UNL     1      -8.754  13.506 -24.297  1.00  0.00     0.016 A 
HETATM    3  C13 UNL     1     -10.046  13.071 -24.509  1.00  0.00     0.037 A 
HETATM    4  C14 UNL     1     -10.325  11.963 -25.270  1.00  0.00     0.069 A 
HETATM    5  C27 UNL     1      -9.252  11.305 -25.813  1.00  0.00     0.037 A 
HETATM    6  C28 UNL     1      -7.932  11.750 -25.596  1.00  0.00     0.016 A 
ENDROOT
BRANCH   1   7
HETATM    7  C10 UNL     1      -6.310  13.369 -24.591  1.00  0.00     0.069 A 
HETATM    8  N1  UNL     1      -5.259  12.819 -24.008  1.00  0.00    -0.255 N 
HETATM    9  N2  UNL     1      -4.223  13.693 -23.993  1.00  0.00    -0.287 N 
HETATM   10  C7  UNL     1      -4.571  14.839 -24.564  1.00  0.00     0.127 A 
ATOM     11  H2  UNL     1      -3.304  13.497 -23.597  1.00  0.00     0.188 HD
HETATM   12  C9  UNL     1      -5.893  14.663 -24.954  1.00  0.00     0.070 A 
BRANCH   8  13
HETATM   13  C6  UNL     1      -5.125  11.529 -23.446  1.00  0.00     0.057 A 
HETATM   14  C5  UNL     1      -4.574  10.446 -24.130  1.00  0.00     0.031 A 
HETATM   15  C4  UNL     1      -4.448   9.230 -23.504  1.00  0.00     0.003 A 
HETATM   16  C3  UNL     1      -4.865   9.065 -22.191  1.00  0.00     0.007 A 
HETATM   17  C2  UNL     1      -5.413  10.118 -21.489  1.00  0.00    -0.060 A 
HETATM   18  C1  UNL     1      -5.860   9.929 -20.069  1.00  0.00     0.048 C 
HETATM   19  C29 UNL     1      -5.531  11.313 -22.123  1.00  0.00     0.038 A 
ENDBRANCH   8  13
BRANCH  10  20
HETATM   20  C8  UNL     1      -3.796  16.060 -24.774  1.00  0.00     0.228 C 
HETATM   21  O1  UNL     1      -2.572  15.973 -24.917  1.00  0.00    -0.643 OA
HETATM   22  O2  UNL     1      -4.410  17.292 -24.815  1.00  0.00    -0.643 OA
ENDBRANCH  10  20
ENDBRANCH   1   7
BRANCH   4  23
HETATM   23  O3  UNL     1     -11.639  11.545 -25.469  1.00  0.00    -0.347 OA
BRANCH  23  24
HETATM   24  C15 UNL     1     -12.110  10.438 -24.724  1.00  0.00     0.214 C 
BRANCH  24  25
HETATM   25  C16 UNL     1     -13.090  10.855 -23.692  1.00  0.00    -0.034 A 
HETATM   26  C17 UNL     1     -14.430  10.721 -23.993  1.00  0.00     0.010 A 
HETATM   27  C18 UNL     1     -15.362  11.096 -23.050  1.00  0.00     0.015 A 
HETATM   28  C19 UNL     1     -15.040  11.604 -21.809  1.00  0.00    -0.002 A 
HETATM   29  C25 UNL     1     -13.693  11.731 -21.527  1.00  0.00     0.015 A 
HETATM   30  C26 UNL     1     -12.726  11.360 -22.461  1.00  0.00     0.010 A 
BRANCH  28  31
HETATM   31  C20 UNL     1     -16.065  11.990 -20.847  1.00  0.00     0.086 A 
HETATM   32  C21 UNL     1     -17.147  11.243 -20.431  1.00  0.00     0.041 A 
HETATM   33  C22 UNL     1     -17.852  11.995 -19.516  1.00  0.00     0.047 A 
HETATM   34  C23 UNL     1     -17.149  13.193 -19.417  1.00  0.00     0.152 A 
HETATM   35  O6  UNL     1     -16.111  13.140 -20.214  1.00  0.00    -0.303 OA
BRANCH  34  36
HETATM   36  C24 UNL     1     -17.525  14.309 -18.557  1.00  0.00     0.234 C 
HETATM   37  O4  UNL     1     -16.902  15.423 -18.680  1.00  0.00    -0.642 OA
HETATM   38  O5  UNL     1     -18.539  14.197 -17.609  1.00  0.00    -0.642 OA
ENDBRANCH  34  36
ENDBRANCH  28  31
ENDBRANCH  24  25
ENDBRANCH  23  24
ENDBRANCH   4  23
TORSDOF 8
ENDMDL
