MODEL 2
REMARK VINA RESULT: -8.603721447      0.129      1.099
REMARK  8 active torsions:
REMARK  status: ('A' for Active; 'I' for Inactive)
REMARK    1  A    between atoms: C6_6  and  N1_7 
REMARK    2  A    between atoms: C7_10  and  C8_11 
REMARK    3  A    between atoms: C10_15  and  C11_16 
REMARK    4  A    between atoms: C14_19  and  O3_20 
REMARK    5  A    between atoms: O3_20  and  C15_21 
REMARK    6  A    between atoms: C15_21  and  C16_22 
REMARK    7  A    between atoms: C19_25  and  C20_26 
REMARK    8  A    between atoms: C23_29  and  C24_30 
ROOT
HETATM    1  C11 UNL     1      -7.698  12.887 -24.458  1.00  0.00    -0.007 A 
HETATM    2  C12 UNL     1      -7.919  11.689 -25.153  1.00  0.00     0.016 A 
HETATM    3  C13 UNL     1      -9.186  11.201 -25.402  1.00  0.00     0.037 A 
HETATM    4  C14 UNL     1     -10.315  11.860 -24.982  1.00  0.00     0.069 A 
HETATM    5  C27 UNL     1     -10.123  13.034 -24.301  1.00  0.00     0.037 A 
HETATM    6  C28 UNL     1      -8.829  13.532 -24.047  1.00  0.00     0.016 A 
ENDROOT
BRANCH   1   7
HETATM    7  C10 UNL     1      -6.340  13.336 -24.218  1.00  0.00     0.069 A 
HETATM    8  N1  UNL     1      -5.347  12.777 -23.549  1.00  0.00    -0.255 N 
HETATM    9  N2  UNL     1      -4.251  13.574 -23.588  1.00  0.00    -0.287 N 
HETATM   10  C7  UNL     1      -4.501  14.677 -24.283  1.00  0.00     0.127 A 
ATOM     11  H2  UNL     1      -3.358  13.357 -23.145  1.00  0.00     0.188 HD
HETATM   12  C9  UNL     1      -5.822  14.553 -24.696  1.00  0.00     0.070 A 
BRANCH   8  13
HETATM   13  C6  UNL     1      -5.320  11.545 -22.856  1.00  0.00     0.057 A 
HETATM   14  C5  UNL     1      -5.674  11.411 -21.514  1.00  0.00     0.031 A 
HETATM   15  C4  UNL     1      -5.653  10.174 -20.918  1.00  0.00     0.003 A 
HETATM   16  C3  UNL     1      -5.283   9.048 -21.640  1.00  0.00     0.007 A 
HETATM   17  C2  UNL     1      -4.929   9.150 -22.969  1.00  0.00    -0.060 A 
HETATM   18  C1  UNL     1      -4.530   7.926 -23.742  1.00  0.00     0.048 C 
HETATM   19  C29 UNL     1      -4.954  10.382 -23.542  1.00  0.00     0.038 A 
ENDBRANCH   8  13
BRANCH  10  20
HETATM   20  C8  UNL     1      -3.634  15.813 -24.589  1.00  0.00     0.228 C 
HETATM   21  O1  UNL     1      -2.422  15.620 -24.725  1.00  0.00    -0.643 OA
HETATM   22  O2  UNL     1      -4.151  17.083 -24.726  1.00  0.00    -0.643 OA
ENDBRANCH  10  20
ENDBRANCH   1   7
BRANCH   4  23
HETATM   23  O3  UNL     1     -11.582  11.345 -25.246  1.00  0.00    -0.347 OA
BRANCH  23  24
HETATM   24  C15 UNL     1     -12.046  10.268 -24.455  1.00  0.00     0.214 C 
BRANCH  24  25
HETATM   25  C16 UNL     1     -13.145  10.690 -23.554  1.00  0.00    -0.034 A 
HETATM   26  C17 UNL     1     -12.798  11.268 -22.349  1.00  0.00     0.010 A 
HETATM   27  C18 UNL     1     -13.799  11.673 -21.495  1.00  0.00     0.015 A 
HETATM   28  C19 UNL     1     -15.145  11.537 -21.766  1.00  0.00    -0.002 A 
HETATM   29  C25 UNL     1     -15.472  10.956 -22.976  1.00  0.00     0.015 A 
HETATM   30  C26 UNL     1     -14.481  10.536 -23.862  1.00  0.00     0.010 A 
BRANCH  28  31
HETATM   31  C20 UNL     1     -16.166  11.980 -20.825  1.00  0.00     0.086 A 
HETATM   32  C21 UNL     1     -17.284  11.285 -20.414  1.00  0.00     0.041 A 
HETATM   33  C22 UNL     1     -17.971  12.080 -19.521  1.00  0.00     0.047 A 
HETATM   34  C23 UNL     1     -17.219  13.248 -19.429  1.00  0.00     0.152 A 
HETATM   35  O6  UNL     1     -16.173  13.140 -20.210  1.00  0.00    -0.303 OA
BRANCH  34  36
HETATM   36  C24 UNL     1     -17.560  14.393 -18.592  1.00  0.00     0.234 C 
HETATM   37  O4  UNL     1     -16.926  15.494 -18.759  1.00  0.00    -0.642 OA
HETATM   38  O5  UNL     1     -18.555  14.320 -17.619  1.00  0.00    -0.642 OA
ENDBRANCH  34  36
ENDBRANCH  28  31
ENDBRANCH  24  25
ENDBRANCH  23  24
ENDBRANCH   4  23
TORSDOF 8
ENDMDL
