MODEL 2
REMARK VINA RESULT: -8.307783377      1.068      1.709
REMARK  9 active torsions:
REMARK  status: ('A' for Active; 'I' for Inactive)
REMARK    1  A    between atoms: C5_8  and  C6_9 
REMARK    2  A    between atoms: C6_9  and  O1_10 
REMARK    3  A    between atoms: O1_10  and  C7_11 
REMARK    4  A    between atoms: C7_11  and  C8_12 
REMARK    5  A    between atoms: C8_12  and  N3_13 
REMARK    6  A    between atoms: C8_12  and  C9_17 
REMARK    7  A    between atoms: C9_17  and  O2_19 
REMARK    8  A    between atoms: O2_19  and  C11_20 
REMARK    9  A    between atoms: C11_20  and  C12_21 
ROOT
HETATM    1  C8  UNL     1       6.897  15.666  24.267  1.00  0.00     0.235 C 
ENDROOT
BRANCH   1   2
HETATM    2  C7  UNL     1       5.819  14.735  23.788  1.00  0.00     0.203 C 
BRANCH   2   3
HETATM    3  O1  UNL     1       4.633  15.354  23.615  1.00  0.00    -0.383 OA
BRANCH   3   4
HETATM    4  C6  UNL     1       4.531  16.558  23.019  1.00  0.00     0.224 C 
BRANCH   4   5
HETATM    5  C5  UNL     1       3.746  17.544  23.839  1.00  0.00     0.034 A 
HETATM    6  N2  UNL     1       3.519  18.780  23.408  1.00  0.00    -0.346 N 
HETATM    7  C4  UNL     1       2.825  19.701  24.096  1.00  0.00     0.117 A 
ATOM      8  H2  UNL     1       3.895  19.047  22.497  1.00  0.00     0.167 HD
HETATM    9  C3  UNL     1       2.326  19.325  25.320  1.00  0.00     0.051 A 
HETATM   10  N1  UNL     1       2.655  20.988  23.519  1.00  0.00    -0.083 NA
HETATM   11  C2  UNL     1       2.516  18.068  25.840  1.00  0.00    -0.057 A 
HETATM   12  C1  UNL     1       1.967  17.670  27.176  1.00  0.00     0.048 C 
HETATM   13  C18 UNL     1       3.239  17.173  25.076  1.00  0.00     0.034 A 
ENDBRANCH   4   5
ENDBRANCH   3   4
ENDBRANCH   2   3
ENDBRANCH   1   2
BRANCH   1  14
HETATM   14  N3  UNL     1       8.106  15.416  23.584  1.00  0.00    -0.071 N 
ATOM     15  H33 UNL     1       8.819  15.032  24.204  1.00  0.00     0.274 HD
ATOM     16  H32 UNL     1       8.023  14.629  22.941  1.00  0.00     0.274 HD
ATOM     17  H31 UNL     1       8.431  16.259  23.111  1.00  0.00     0.274 HD
ENDBRANCH   1  14
BRANCH   1  18
HETATM   18  C9  UNL     1       6.983  15.479  25.761  1.00  0.00     0.150 C 
HETATM   19  C10 UNL     1       6.517  16.784  26.403  1.00  0.00     0.042 C 
BRANCH  18  20
HETATM   20  O2  UNL     1       8.202  15.170  26.246  1.00  0.00    -0.378 OA
BRANCH  20  21
HETATM   21  C11 UNL     1       8.357  13.994  26.897  1.00  0.00     0.225 C 
BRANCH  21  22
HETATM   22  C12 UNL     1       9.112  13.049  26.033  1.00  0.00     0.035 A 
HETATM   23  C13 UNL     1       8.457  12.186  25.206  1.00  0.00     0.034 A 
HETATM   24  C14 UNL     1       9.096  11.293  24.387  1.00  0.00    -0.057 A 
HETATM   25  C15 UNL     1       8.304  10.372  23.503  1.00  0.00     0.048 C 
HETATM   26  C16 UNL     1      10.467  11.270  24.402  1.00  0.00     0.051 A 
HETATM   27  C17 UNL     1      11.142  12.152  25.247  1.00  0.00     0.117 A 
HETATM   28  N4  UNL     1      12.563  12.095  25.231  1.00  0.00    -0.083 NA
HETATM   29  N5  UNL     1      10.468  13.014  26.037  1.00  0.00    -0.346 N 
ATOM     30  H5  UNL     1      10.986  13.648  26.645  1.00  0.00     0.167 HD
ENDBRANCH  21  22
ENDBRANCH  20  21
ENDBRANCH  18  20
ENDBRANCH   1  18
TORSDOF 9
ENDMDL
