MODEL 3
REMARK VINA RESULT: -8.207024691      2.221      3.528
REMARK  9 active torsions:
REMARK  status: ('A' for Active; 'I' for Inactive)
REMARK    1  A    between atoms: C5_8  and  C6_9 
REMARK    2  A    between atoms: C6_9  and  O1_10 
REMARK    3  A    between atoms: O1_10  and  C7_11 
REMARK    4  A    between atoms: C7_11  and  C8_12 
REMARK    5  A    between atoms: C8_12  and  N3_13 
REMARK    6  A    between atoms: C8_12  and  C9_17 
REMARK    7  A    between atoms: C9_17  and  O2_19 
REMARK    8  A    between atoms: O2_19  and  C11_20 
REMARK    9  A    between atoms: C11_20  and  C12_21 
ROOT
HETATM    1  C8  UNL     1       8.563  14.460  22.620  1.00  0.00     0.235 C 
ENDROOT
BRANCH   1   2
HETATM    2  C7  UNL     1       7.487  13.410  22.636  1.00  0.00     0.203 C 
BRANCH   2   3
HETATM    3  O1  UNL     1       6.469  13.719  23.465  1.00  0.00    -0.383 OA
BRANCH   3   4
HETATM    4  C6  UNL     1       5.393  14.418  23.054  1.00  0.00     0.224 C 
BRANCH   4   5
HETATM    5  C5  UNL     1       5.186  15.679  23.847  1.00  0.00     0.034 A 
HETATM    6  N2  UNL     1       5.953  15.975  24.892  1.00  0.00    -0.346 N 
HETATM    7  C4  UNL     1       5.814  17.085  25.635  1.00  0.00     0.117 A 
ATOM      8  H2  UNL     1       6.692  15.319  25.146  1.00  0.00     0.167 HD
HETATM    9  C3  UNL     1       4.813  17.957  25.280  1.00  0.00     0.051 A 
HETATM   10  N1  UNL     1       6.702  17.281  26.726  1.00  0.00    -0.083 NA
HETATM   11  C2  UNL     1       3.977  17.726  24.215  1.00  0.00    -0.057 A 
HETATM   12  C1  UNL     1       2.889  18.685  23.838  1.00  0.00     0.048 C 
HETATM   13  C18 UNL     1       4.178  16.565  23.496  1.00  0.00     0.034 A 
ENDBRANCH   4   5
ENDBRANCH   3   4
ENDBRANCH   2   3
ENDBRANCH   1   2
BRANCH   1  14
HETATM   14  N3  UNL     1       8.376  15.343  21.536  1.00  0.00    -0.071 N 
ATOM     15  H33 UNL     1       8.409  14.856  20.641  1.00  0.00     0.274 HD
ATOM     16  H32 UNL     1       7.417  15.687  21.487  1.00  0.00     0.274 HD
ATOM     17  H31 UNL     1       9.051  16.107  21.576  1.00  0.00     0.274 HD
ENDBRANCH   1  14
BRANCH   1  18
HETATM   18  C9  UNL     1       9.875  13.718  22.593  1.00  0.00     0.150 C 
HETATM   19  C10 UNL     1       9.922  12.939  21.280  1.00  0.00     0.042 C 
BRANCH  18  20
HETATM   20  O2  UNL     1      10.088  12.860  23.611  1.00  0.00    -0.378 OA
BRANCH  20  21
HETATM   21  C11 UNL     1      10.810  13.288  24.673  1.00  0.00     0.225 C 
BRANCH  21  22
HETATM   22  C12 UNL     1       9.889  13.638  25.785  1.00  0.00     0.035 A 
HETATM   23  C13 UNL     1       8.771  12.896  26.024  1.00  0.00     0.034 A 
HETATM   24  C14 UNL     1       7.885  13.168  27.033  1.00  0.00    -0.057 A 
HETATM   25  C15 UNL     1       6.672  12.303  27.232  1.00  0.00     0.048 C 
HETATM   26  C16 UNL     1       8.140  14.243  27.844  1.00  0.00     0.051 A 
HETATM   27  C17 UNL     1       9.285  15.005  27.605  1.00  0.00     0.117 A 
HETATM   28  N4  UNL     1       9.512  16.112  28.469  1.00  0.00    -0.083 NA
HETATM   29  N5  UNL     1      10.128  14.698  26.597  1.00  0.00    -0.346 N 
ATOM     30  H5  UNL     1      10.957  15.272  26.443  1.00  0.00     0.167 HD
ENDBRANCH  21  22
ENDBRANCH  20  21
ENDBRANCH  18  20
ENDBRANCH   1  18
TORSDOF 9
ENDMDL
