MODEL 1
REMARK VINA RESULT: -8.327886327      0.000      0.000
REMARK  9 active torsions:
REMARK  status: ('A' for Active; 'I' for Inactive)
REMARK    1  A    between atoms: C5_8  and  C6_9 
REMARK    2  A    between atoms: C6_9  and  O1_10 
REMARK    3  A    between atoms: O1_10  and  C7_11 
REMARK    4  A    between atoms: C7_11  and  C8_12 
REMARK    5  A    between atoms: C8_12  and  N3_13 
REMARK    6  A    between atoms: C8_12  and  C9_17 
REMARK    7  A    between atoms: C9_17  and  O2_19 
REMARK    8  A    between atoms: O2_19  and  C11_20 
REMARK    9  A    between atoms: C11_20  and  C12_21 
ROOT
HETATM    1  C8  UNL     1       7.009  15.646  24.393  1.00  0.00     0.235 C 
ENDROOT
BRANCH   1   2
HETATM    2  C7  UNL     1       6.012  14.635  23.901  1.00  0.00     0.203 C 
BRANCH   2   3
HETATM    3  O1  UNL     1       4.773  15.149  23.759  1.00  0.00    -0.383 OA
BRANCH   3   4
HETATM    4  C6  UNL     1       4.535  16.262  23.038  1.00  0.00     0.224 C 
BRANCH   4   5
HETATM    5  C5  UNL     1       3.779  17.303  23.815  1.00  0.00     0.034 A 
HETATM    6  N2  UNL     1       3.240  17.030  24.999  1.00  0.00    -0.346 N 
HETATM    7  C4  UNL     1       2.556  17.920  25.737  1.00  0.00     0.117 A 
ATOM      8  H2  UNL     1       3.351  16.086  25.370  1.00  0.00     0.167 HD
HETATM    9  C3  UNL     1       2.414  19.186  25.222  1.00  0.00     0.051 A 
HETATM   10  N1  UNL     1       2.031  17.497  26.987  1.00  0.00    -0.083 NA
HETATM   11  C2  UNL     1       2.940  19.551  24.006  1.00  0.00    -0.057 A 
HETATM   12  C1  UNL     1       2.779  20.935  23.455  1.00  0.00     0.048 C 
HETATM   13  C18 UNL     1       3.632  18.584  23.303  1.00  0.00     0.034 A 
ENDBRANCH   4   5
ENDBRANCH   3   4
ENDBRANCH   2   3
ENDBRANCH   1   2
BRANCH   1  14
HETATM   14  N3  UNL     1       8.262  15.445  23.778  1.00  0.00    -0.071 N 
ATOM     15  H33 UNL     1       9.009  15.340  24.465  1.00  0.00     0.274 HD
ATOM     16  H32 UNL     1       8.327  14.525  23.342  1.00  0.00     0.274 HD
ATOM     17  H31 UNL     1       8.460  16.194  23.115  1.00  0.00     0.274 HD
ENDBRANCH   1  14
BRANCH   1  18
HETATM   18  C9  UNL     1       7.032  15.520  25.895  1.00  0.00     0.150 C 
HETATM   19  C10 UNL     1       6.560  16.857  26.464  1.00  0.00     0.042 C 
BRANCH  18  20
HETATM   20  O2  UNL     1       8.226  15.216  26.442  1.00  0.00    -0.378 OA
BRANCH  20  21
HETATM   21  C11 UNL     1       8.368  14.016  27.052  1.00  0.00     0.225 C 
BRANCH  21  22
HETATM   22  C12 UNL     1       9.107  13.092  26.153  1.00  0.00     0.035 A 
HETATM   23  C13 UNL     1       8.437  12.243  25.323  1.00  0.00     0.034 A 
HETATM   24  C14 UNL     1       9.062  11.369  24.472  1.00  0.00    -0.057 A 
HETATM   25  C15 UNL     1       8.253  10.463  23.586  1.00  0.00     0.048 C 
HETATM   26  C16 UNL     1      10.433  11.350  24.457  1.00  0.00     0.051 A 
HETATM   27  C17 UNL     1      11.123  12.218  25.305  1.00  0.00     0.117 A 
HETATM   28  N4  UNL     1      12.543  12.166  25.259  1.00  0.00    -0.083 NA
HETATM   29  N5  UNL     1      10.463  13.061  26.127  1.00  0.00    -0.346 N 
ATOM     30  H5  UNL     1      10.992  13.685  26.736  1.00  0.00     0.167 HD
ENDBRANCH  21  22
ENDBRANCH  20  21
ENDBRANCH  18  20
ENDBRANCH   1  18
TORSDOF 9
ENDMDL
