MODEL 1
REMARK VINA RESULT: -7.456829634      0.000      0.000
REMARK  10 active torsions:
REMARK  status: ('A' for Active; 'I' for Inactive)
REMARK    1  A    between atoms: N5_13  and  C6_14 
REMARK    2  A    between atoms: C7_16  and  C8_17 
REMARK    3  A    between atoms: C8_17  and  S1_18 
REMARK    4  A    between atoms: S1_18  and  C9_19 
REMARK    5  A    between atoms: C9_19  and  C10_20 
REMARK    6  A    between atoms: C10_20  and  C11_21 
REMARK    7  A    between atoms: C11_21  and  N6_22 
REMARK    8  A    between atoms: C11_21  and  C12_26 
REMARK    9  A    between atoms: C13_29  and  O4_30 
REMARK   10  A    between atoms: C14_32  and  O5_33 
ROOT
HETATM    1  C6  UNL     1      12.643  36.615 -20.392  1.00  0.00     0.262 C 
HETATM    2  O1  UNL     1      13.899  36.847 -19.824  1.00  0.00    -0.355 OA
HETATM    3  C7  UNL     1      14.223  38.171 -20.202  1.00  0.00     0.165 C 
HETATM    4  C13 UNL     1      12.927  38.869 -19.845  1.00  0.00     0.180 C 
HETATM    5  C14 UNL     1      11.950  37.922 -20.529  1.00  0.00     0.198 C 
ENDROOT
BRANCH   1   6
HETATM    6  N5  UNL     1      11.916  35.600 -19.697  1.00  0.00    -0.297 N 
HETATM    7  C3  UNL     1      12.301  34.776 -18.704  1.00  0.00     0.142 A 
HETATM    8  N3  UNL     1      13.493  34.689 -18.090  1.00  0.00    -0.336 N 
HETATM    9  C4  UNL     1      11.270  33.948 -18.331  1.00  0.00     0.119 A 
HETATM   10  C2  UNL     1      13.626  33.773 -17.115  1.00  0.00     0.183 A 
ATOM     11  H3  UNL     1      14.269  35.297 -18.355  1.00  0.00     0.168 HD
HETATM   12  N2  UNL     1      12.618  32.947 -16.736  1.00  0.00    -0.339 N 
HETATM   13  C1  UNL     1      11.414  33.003 -17.323  1.00  0.00     0.148 A 
ATOM     14  H2  UNL     1      12.780  32.271 -15.990  1.00  0.00     0.167 HD
HETATM   15  N1  UNL     1      10.315  32.183 -16.989  1.00  0.00    -0.080 NA
HETATM   16  N4  UNL     1      10.225  34.283 -19.127  1.00  0.00    -0.346 N 
HETATM   17  C5  UNL     1      10.614  35.274 -19.947  1.00  0.00     0.188 A 
ATOM     18  H4  UNL     1       9.300  33.855 -19.107  1.00  0.00     0.167 HD
ENDBRANCH   1   6
BRANCH   5  19
HETATM   19  O5  UNL     1      11.889  38.346 -21.869  1.00  0.00    -0.388 OA
ATOM     20  H5  UNL     1      11.308  39.089 -21.980  1.00  0.00     0.210 HD
ENDBRANCH   5  19
BRANCH   3  21
HETATM   21  C8  UNL     1      15.399  38.672 -19.418  1.00  0.00     0.108 C 
BRANCH  21  22
HETATM   22  S1  UNL     1      14.840  38.820 -17.679  1.00  0.00    -0.166 SA
BRANCH  22  23
HETATM   23  C9  UNL     1      15.510  37.399 -16.743  1.00  0.00     0.076 C 
BRANCH  23  24
HETATM   24  C10 UNL     1      15.520  37.689 -15.283  1.00  0.00     0.054 C 
BRANCH  24  25
HETATM   25  C11 UNL     1      15.871  39.118 -14.970  1.00  0.00     0.284 C 
BRANCH  25  26
HETATM   26  N6  UNL     1      17.225  39.226 -14.443  1.00  0.00    -0.065 N 
ATOM     27  H63 UNL     1      17.229  39.610 -13.498  1.00  0.00     0.275 HD
ATOM     28  H62 UNL     1      17.623  38.309 -14.242  1.00  0.00     0.275 HD
ATOM     29  H61 UNL     1      17.824  39.766 -15.068  1.00  0.00     0.275 HD
ENDBRANCH  25  26
BRANCH  25  30
HETATM   30  C12 UNL     1      14.961  39.772 -14.008  1.00  0.00     0.204 C 
HETATM   31  O2  UNL     1      14.393  39.096 -13.082  1.00  0.00    -0.646 OA
HETATM   32  O3  UNL     1      14.650  41.119 -14.015  1.00  0.00    -0.646 OA
ENDBRANCH  25  30
ENDBRANCH  24  25
ENDBRANCH  23  24
ENDBRANCH  22  23
ENDBRANCH  21  22
ENDBRANCH   3  21
BRANCH   4  33
HETATM   33  O4  UNL     1      12.861  40.145 -20.396  1.00  0.00    -0.390 OA
ATOM     34  H4  UNL     1      12.056  40.590 -20.157  1.00  0.00     0.210 HD
ENDBRANCH   4  33
TORSDOF 10
ENDMDL
