MODEL 3
REMARK VINA RESULT: -7.109634881      2.631      4.332
REMARK  10 active torsions:
REMARK  status: ('A' for Active; 'I' for Inactive)
REMARK    1  A    between atoms: N5_13  and  C6_14 
REMARK    2  A    between atoms: C7_16  and  C8_17 
REMARK    3  A    between atoms: C8_17  and  S1_18 
REMARK    4  A    between atoms: S1_18  and  C9_19 
REMARK    5  A    between atoms: C9_19  and  C10_20 
REMARK    6  A    between atoms: C10_20  and  C11_21 
REMARK    7  A    between atoms: C11_21  and  N6_22 
REMARK    8  A    between atoms: C11_21  and  C12_26 
REMARK    9  A    between atoms: C13_29  and  O4_30 
REMARK   10  A    between atoms: C14_32  and  O5_33 
ROOT
HETATM    1  C6  UNL     1      11.395  34.372 -18.936  1.00  0.00     0.262 C 
HETATM    2  O1  UNL     1      12.339  35.401 -18.996  1.00  0.00    -0.355 OA
HETATM    3  C7  UNL     1      13.294  35.070 -18.006  1.00  0.00     0.165 C 
HETATM    4  C13 UNL     1      13.523  33.612 -18.343  1.00  0.00     0.180 C 
HETATM    5  C14 UNL     1      12.074  33.154 -18.423  1.00  0.00     0.198 C 
ENDROOT
BRANCH   1   6
HETATM    6  N5  UNL     1      10.689  34.215 -20.168  1.00  0.00    -0.297 N 
HETATM    7  C3  UNL     1      11.119  34.319 -21.439  1.00  0.00     0.142 A 
HETATM    8  N3  UNL     1      12.350  34.601 -21.896  1.00  0.00    -0.336 N 
HETATM    9  C4  UNL     1      10.091  34.087 -22.321  1.00  0.00     0.119 A 
HETATM   10  C2  UNL     1      12.526  34.647 -23.228  1.00  0.00     0.183 A 
ATOM     11  H3  UNL     1      13.124  34.776 -21.255  1.00  0.00     0.168 HD
HETATM   12  N2  UNL     1      11.521  34.421 -24.112  1.00  0.00    -0.339 N 
HETATM   13  C1  UNL     1      10.279  34.135 -23.697  1.00  0.00     0.148 A 
ATOM     14  H2  UNL     1      11.715  34.471 -25.113  1.00  0.00     0.167 HD
HETATM   15  N1  UNL     1       9.180  33.888 -24.548  1.00  0.00    -0.080 NA
HETATM   16  N4  UNL     1       9.002  33.835 -21.556  1.00  0.00    -0.346 N 
HETATM   17  C5  UNL     1       9.361  33.913 -20.263  1.00  0.00     0.188 A 
ATOM     18  H4  UNL     1       8.066  33.622 -21.902  1.00  0.00     0.167 HD
ENDBRANCH   1   6
BRANCH   5  19
HETATM   19  O5  UNL     1      11.697  32.859 -17.101  1.00  0.00    -0.388 OA
ATOM     20  H5  UNL     1      11.694  31.925 -16.933  1.00  0.00     0.210 HD
ENDBRANCH   5  19
BRANCH   3  21
HETATM   21  C8  UNL     1      14.525  35.913 -18.155  1.00  0.00     0.108 C 
BRANCH  21  22
HETATM   22  S1  UNL     1      13.952  37.643 -18.344  1.00  0.00    -0.166 SA
BRANCH  22  23
HETATM   23  C9  UNL     1      15.145  38.734 -17.488  1.00  0.00     0.076 C 
BRANCH  23  24
HETATM   24  C10 UNL     1      15.185  38.428 -16.031  1.00  0.00     0.054 C 
BRANCH  24  25
HETATM   25  C11 UNL     1      15.780  39.542 -15.213  1.00  0.00     0.284 C 
BRANCH  25  26
HETATM   26  N6  UNL     1      17.052  39.145 -14.625  1.00  0.00    -0.065 N 
ATOM     27  H63 UNL     1      17.403  38.282 -15.041  1.00  0.00     0.275 HD
ATOM     28  H62 UNL     1      17.805  39.772 -14.905  1.00  0.00     0.275 HD
ATOM     29  H61 UNL     1      16.984  39.071 -13.611  1.00  0.00     0.275 HD
ENDBRANCH  25  26
BRANCH  25  30
HETATM   30  C12 UNL     1      14.911  40.026 -14.121  1.00  0.00     0.204 C 
HETATM   31  O2  UNL     1      14.549  41.253 -14.068  1.00  0.00    -0.646 OA
HETATM   32  O3  UNL     1      14.425  39.235 -13.097  1.00  0.00    -0.646 OA
ENDBRANCH  25  30
ENDBRANCH  24  25
ENDBRANCH  23  24
ENDBRANCH  22  23
ENDBRANCH  21  22
ENDBRANCH   3  21
BRANCH   4  33
HETATM   33  O4  UNL     1      14.205  32.950 -17.326  1.00  0.00    -0.390 OA
ATOM     34  H4  UNL     1      14.555  32.117 -17.621  1.00  0.00     0.210 HD
ENDBRANCH   4  33
TORSDOF 10
ENDMDL
