MODEL 4
REMARK VINA RESULT: -7.106708288      1.245      1.465
REMARK  10 active torsions:
REMARK  status: ('A' for Active; 'I' for Inactive)
REMARK    1  A    between atoms: N5_13  and  C6_14 
REMARK    2  A    between atoms: C7_16  and  C8_17 
REMARK    3  A    between atoms: C8_17  and  S1_18 
REMARK    4  A    between atoms: S1_18  and  C9_19 
REMARK    5  A    between atoms: C9_19  and  C10_20 
REMARK    6  A    between atoms: C10_20  and  C11_21 
REMARK    7  A    between atoms: C11_21  and  N6_22 
REMARK    8  A    between atoms: C11_21  and  C12_26 
REMARK    9  A    between atoms: C13_29  and  O4_30 
REMARK   10  A    between atoms: C14_32  and  O5_33 
ROOT
HETATM    1  C6  UNL     1      11.715  36.113 -20.742  1.00  0.00     0.262 C 
HETATM    2  O1  UNL     1      13.022  36.258 -20.270  1.00  0.00    -0.355 OA
HETATM    3  C7  UNL     1      13.206  37.656 -20.150  1.00  0.00     0.165 C 
HETATM    4  C13 UNL     1      11.934  38.023 -19.415  1.00  0.00     0.180 C 
HETATM    5  C14 UNL     1      10.930  37.292 -20.295  1.00  0.00     0.198 C 
ENDROOT
BRANCH   1   6
HETATM    6  N5  UNL     1      11.160  34.838 -20.409  1.00  0.00    -0.297 N 
HETATM    7  C3  UNL     1      11.316  34.080 -19.308  1.00  0.00     0.142 A 
HETATM    8  N3  UNL     1      12.047  34.326 -18.207  1.00  0.00    -0.336 N 
HETATM    9  C4  UNL     1      10.592  32.917 -19.411  1.00  0.00     0.119 A 
HETATM   10  C2  UNL     1      12.037  33.399 -17.233  1.00  0.00     0.183 A 
ATOM     11  H3  UNL     1      12.590  35.184 -18.114  1.00  0.00     0.168 HD
HETATM   12  N2  UNL     1      11.328  32.245 -17.320  1.00  0.00    -0.339 N 
HETATM   13  C1  UNL     1      10.586  31.963 -18.401  1.00  0.00     0.148 A 
ATOM     14  H2  UNL     1      11.360  31.578 -16.549  1.00  0.00     0.167 HD
HETATM   15  N1  UNL     1       9.821  30.789 -18.571  1.00  0.00    -0.080 NA
HETATM   16  N4  UNL     1       9.978  32.974 -20.618  1.00  0.00    -0.346 N 
HETATM   17  C5  UNL     1      10.320  34.128 -21.217  1.00  0.00     0.188 A 
ATOM     18  H4  UNL     1       9.360  32.262 -21.006  1.00  0.00     0.167 HD
ENDBRANCH   1   6
BRANCH   5  19
HETATM   19  O5  UNL     1      10.649  38.170 -21.358  1.00  0.00    -0.388 OA
ATOM     20  H5  UNL     1      11.382  38.245 -21.957  1.00  0.00     0.210 HD
ENDBRANCH   5  19
BRANCH   3  21
HETATM   21  C8  UNL     1      14.449  37.961 -19.369  1.00  0.00     0.108 C 
BRANCH  21  22
HETATM   22  S1  UNL     1      14.371  36.942 -17.848  1.00  0.00    -0.166 SA
BRANCH  22  23
HETATM   23  C9  UNL     1      15.734  37.461 -16.744  1.00  0.00     0.076 C 
BRANCH  23  24
HETATM   24  C10 UNL     1      15.199  37.955 -15.446  1.00  0.00     0.054 C 
BRANCH  24  25
HETATM   25  C11 UNL     1      15.741  39.306 -15.064  1.00  0.00     0.284 C 
BRANCH  25  26
HETATM   26  N6  UNL     1      17.097  39.204 -14.543  1.00  0.00    -0.065 N 
ATOM     27  H63 UNL     1      17.116  39.290 -13.527  1.00  0.00     0.275 HD
ATOM     28  H62 UNL     1      17.460  38.255 -14.627  1.00  0.00     0.275 HD
ATOM     29  H61 UNL     1      17.716  39.882 -14.987  1.00  0.00     0.275 HD
ENDBRANCH  25  26
BRANCH  25  30
HETATM   30  C12 UNL     1      14.928  40.027 -14.063  1.00  0.00     0.204 C 
HETATM   31  O2  UNL     1      14.768  41.294 -14.141  1.00  0.00    -0.646 OA
HETATM   32  O3  UNL     1      14.289  39.428 -12.993  1.00  0.00    -0.646 OA
ENDBRANCH  25  30
ENDBRANCH  24  25
ENDBRANCH  23  24
ENDBRANCH  22  23
ENDBRANCH  21  22
ENDBRANCH   3  21
BRANCH   4  33
HETATM   33  O4  UNL     1      11.710  39.397 -19.428  1.00  0.00    -0.390 OA
ATOM     34  H4  UNL     1      11.325  39.682 -20.248  1.00  0.00     0.210 HD
ENDBRANCH   4  33
TORSDOF 10
ENDMDL
