MODEL 10
REMARK VINA RESULT: -6.747917187      4.602      6.546
REMARK  10 active torsions:
REMARK  status: ('A' for Active; 'I' for Inactive)
REMARK    1  A    between atoms: N5_13  and  C6_14 
REMARK    2  A    between atoms: C7_16  and  C8_17 
REMARK    3  A    between atoms: C8_17  and  S1_18 
REMARK    4  A    between atoms: S1_18  and  C9_19 
REMARK    5  A    between atoms: C9_19  and  C10_20 
REMARK    6  A    between atoms: C10_20  and  C11_21 
REMARK    7  A    between atoms: C11_21  and  N6_22 
REMARK    8  A    between atoms: C11_21  and  C12_26 
REMARK    9  A    between atoms: C13_29  and  O4_30 
REMARK   10  A    between atoms: C14_32  and  O5_33 
ROOT
HETATM    1  C6  UNL     1      16.065  39.572 -21.340  1.00  0.00     0.262 C 
HETATM    2  O1  UNL     1      15.835  38.811 -20.191  1.00  0.00    -0.355 OA
HETATM    3  C7  UNL     1      14.665  39.365 -19.622  1.00  0.00     0.165 C 
HETATM    4  C13 UNL     1      13.784  39.432 -20.853  1.00  0.00     0.180 C 
HETATM    5  C14 UNL     1      14.759  40.106 -21.808  1.00  0.00     0.198 C 
ENDROOT
BRANCH   1   6
HETATM    6  N5  UNL     1      16.827  38.860 -22.317  1.00  0.00    -0.297 N 
HETATM    7  C3  UNL     1      18.107  39.012 -22.704  1.00  0.00     0.142 A 
HETATM    8  N3  UNL     1      19.026  39.890 -22.267  1.00  0.00    -0.336 N 
HETATM    9  C4  UNL     1      18.431  38.104 -23.684  1.00  0.00     0.119 A 
HETATM   10  C2  UNL     1      20.250  39.838 -22.820  1.00  0.00     0.183 A 
ATOM     11  H3  UNL     1      18.802  40.570 -21.540  1.00  0.00     0.168 HD
HETATM   12  N2  UNL     1      20.585  38.948 -23.788  1.00  0.00    -0.339 N 
HETATM   13  C1  UNL     1      19.698  38.056 -24.251  1.00  0.00     0.148 A 
ATOM     14  H2  UNL     1      21.530  38.958 -24.172  1.00  0.00     0.167 HD
HETATM   15  N1  UNL     1      19.963  37.098 -25.254  1.00  0.00    -0.080 NA
HETATM   16  N4  UNL     1      17.306  37.378 -23.895  1.00  0.00    -0.346 N 
HETATM   17  C5  UNL     1      16.344  37.833 -23.074  1.00  0.00     0.188 A 
ATOM     18  H4  UNL     1      17.207  36.614 -24.564  1.00  0.00     0.167 HD
ENDBRANCH   1   6
BRANCH   5  19
HETATM   19  O5  UNL     1      14.637  41.485 -21.561  1.00  0.00    -0.388 OA
ATOM     20  H5  UNL     1      14.100  41.916 -22.215  1.00  0.00     0.210 HD
ENDBRANCH   5  19
BRANCH   3  21
HETATM   21  C8  UNL     1      14.119  38.466 -18.553  1.00  0.00     0.108 C 
BRANCH  21  22
HETATM   22  S1  UNL     1      15.567  37.712 -17.718  1.00  0.00    -0.166 SA
BRANCH  22  23
HETATM   23  C9  UNL     1      15.348  37.909 -15.913  1.00  0.00     0.076 C 
BRANCH  23  24
HETATM   24  C10 UNL     1      15.527  39.332 -15.514  1.00  0.00     0.054 C 
BRANCH  24  25
HETATM   25  C11 UNL     1      15.374  39.550 -14.033  1.00  0.00     0.284 C 
BRANCH  25  26
HETATM   26  N6  UNL     1      15.400  40.969 -13.702  1.00  0.00    -0.065 N 
ATOM     27  H63 UNL     1      14.460  41.337 -13.559  1.00  0.00     0.275 HD
ATOM     28  H62 UNL     1      15.775  41.128 -12.768  1.00  0.00     0.275 HD
ATOM     29  H61 UNL     1      15.908  41.503 -14.406  1.00  0.00     0.275 HD
ENDBRANCH  25  26
BRANCH  25  30
HETATM   30  C12 UNL     1      16.398  38.877 -13.209  1.00  0.00     0.204 C 
HETATM   31  O2  UNL     1      17.643  39.104 -13.401  1.00  0.00    -0.646 OA
HETATM   32  O3  UNL     1      16.123  37.979 -12.195  1.00  0.00    -0.646 OA
ENDBRANCH  25  30
ENDBRANCH  24  25
ENDBRANCH  23  24
ENDBRANCH  22  23
ENDBRANCH  21  22
ENDBRANCH   3  21
BRANCH   4  33
HETATM   33  O4  UNL     1      12.660  40.224 -20.639  1.00  0.00    -0.390 OA
ATOM     34  H4  UNL     1      11.891  39.699 -20.450  1.00  0.00     0.210 HD
ENDBRANCH   4  33
TORSDOF 10
ENDMDL
