MODEL 1
REMARK VINA RESULT: -8.432228521      0.000      0.000
REMARK  5 active torsions:
REMARK  status: ('A' for Active; 'I' for Inactive)
REMARK    1  A    between atoms: C2_2  and  C5_5 
REMARK    2  A    between atoms: C7_9  and  C8_10 
REMARK       I    between atoms: C8_10  and  N2_12 
REMARK    3  A    between atoms: N2_12  and  C9_14 
REMARK    4  A    between atoms: C12_17  and  C13_18 
REMARK    5  A    between atoms: C16_23  and  C17_24 
ROOT
HETATM    1  C5  UNL     1     -12.320  19.048  -8.605  1.00  0.00     0.008 C 
HETATM    2  C6  UNL     1     -11.552  19.480  -7.485  1.00  0.00     0.026 C 
HETATM    3  N1  UNL     1     -10.461  20.407  -7.633  1.00  0.00    -0.378 N 
ATOM      4  H1  UNL     1      -9.989  20.740  -8.474  1.00  0.00     0.160 HD
HETATM    5  C7  UNL     1     -10.225  20.731  -6.234  1.00  0.00     0.184 C 
HETATM    6  C16 UNL     1     -10.565  19.573  -5.387  1.00  0.00     0.082 C 
HETATM    7  C23 UNL     1     -11.008  18.543  -6.461  1.00  0.00     0.122 A 
HETATM    8  C24 UNL     1      -9.907  17.685  -6.828  1.00  0.00     0.242 A 
HETATM    9  O3  UNL     1      -8.817  18.000  -7.347  1.00  0.00    -0.272 OA
HETATM   10  N4  UNL     1     -10.260  16.354  -6.495  1.00  0.00    -0.325 N 
ATOM     11  H4  UNL     1      -9.671  15.531  -6.622  1.00  0.00     0.169 HD
HETATM   12  C25 UNL     1     -11.583  16.361  -5.951  1.00  0.00     0.044 A 
HETATM   13  C26 UNL     1     -12.403  15.333  -5.484  1.00  0.00     0.054 A 
HETATM   14  C27 UNL     1     -13.650  15.616  -5.022  1.00  0.00     0.036 A 
HETATM   15 CL2  UNL     1     -14.674  14.324  -4.437  1.00  0.00    -0.084 Cl
HETATM   16  C28 UNL     1     -14.156  16.890  -4.992  1.00  0.00     0.024 A 
HETATM   17  C29 UNL     1     -13.358  17.910  -5.448  1.00  0.00     0.013 A 
HETATM   18  C30 UNL     1     -12.066  17.647  -5.930  1.00  0.00    -0.007 A 
ENDROOT
BRANCH   5  19
HETATM   19  C8  UNL     1     -11.154  21.869  -5.844  1.00  0.00     0.245 C 
HETATM   20  O1  UNL     1     -11.795  21.819  -4.797  1.00  0.00    -0.271 OA
HETATM   21  N2  UNL     1     -11.234  22.961  -6.735  1.00  0.00    -0.325 N 
ATOM     22  H2  UNL     1     -10.665  22.918  -7.581  1.00  0.00     0.169 HD
BRANCH  21  23
HETATM   23  C9  UNL     1     -12.037  24.111  -6.551  1.00  0.00     0.034 A 
HETATM   24  C10 UNL     1     -11.478  25.273  -6.004  1.00  0.00     0.030 A 
HETATM   25  C11 UNL     1     -12.186  26.426  -5.804  1.00  0.00     0.019 A 
HETATM   26  C12 UNL     1     -13.524  26.474  -6.149  1.00  0.00     0.029 A 
HETATM   27  C14 UNL     1     -14.107  25.346  -6.691  1.00  0.00     0.019 A 
HETATM   28  C15 UNL     1     -13.366  24.177  -6.888  1.00  0.00     0.030 A 
BRANCH  26  29
HETATM   29  C13 UNL     1     -14.264  27.689  -5.934  1.00  0.00     0.264 C 
HETATM   30  N3  UNL     1     -14.369  28.678  -6.938  1.00  0.00    -0.057 NA
HETATM   31  O2  UNL     1     -14.827  27.862  -4.814  1.00  0.00    -0.271 OA
ENDBRANCH  26  29
ENDBRANCH  21  23
ENDBRANCH   5  19
BRANCH   6  32
HETATM   32  C17 UNL     1      -9.480  19.006  -4.566  1.00  0.00    -0.009 A 
HETATM   33  C18 UNL     1      -8.128  19.128  -4.836  1.00  0.00     0.011 A 
HETATM   34  C19 UNL     1      -7.165  18.554  -4.050  1.00  0.00     0.002 A 
HETATM   35  C20 UNL     1      -7.497  17.822  -2.945  1.00  0.00     0.027 A 
HETATM   36  C21 UNL     1      -8.826  17.678  -2.646  1.00  0.00     0.073 A 
HETATM   37 CL1  UNL     1      -9.251  16.735  -1.220  1.00  0.00    -0.081 Cl
HETATM   38  C22 UNL     1      -9.786  18.262  -3.446  1.00  0.00     0.144 A 
HETATM   39  F1  UNL     1     -11.071  18.087  -3.070  1.00  0.00    -0.204 F 
ENDBRANCH   6  32
BRANCH   1  40
HETATM   40  C2  UNL     1     -11.838  18.360  -9.797  1.00  0.00    -0.032 C 
HETATM   41  C1  UNL     1     -11.313  16.970  -9.672  1.00  0.00     0.019 C 
HETATM   42  C3  UNL     1     -13.062  18.268 -10.742  1.00  0.00     0.019 C 
HETATM   43  C4  UNL     1     -10.811  19.135 -10.608  1.00  0.00     0.019 C 
ENDBRANCH   1  40
TORSDOF 5
ENDMDL
