MODEL 4
REMARK VINA RESULT: -8.056154334      3.358      6.943
REMARK  5 active torsions:
REMARK  status: ('A' for Active; 'I' for Inactive)
REMARK    1  A    between atoms: C2_2  and  C5_5 
REMARK    2  A    between atoms: C7_9  and  C8_10 
REMARK       I    between atoms: C8_10  and  N2_12 
REMARK    3  A    between atoms: N2_12  and  C9_14 
REMARK    4  A    between atoms: C12_17  and  C13_18 
REMARK    5  A    between atoms: C16_23  and  C17_24 
ROOT
HETATM    1  C5  UNL     1     -11.110  21.350  -7.542  1.00  0.00     0.008 C 
HETATM    2  C6  UNL     1     -12.053  20.284  -7.461  1.00  0.00     0.026 C 
HETATM    3  N1  UNL     1     -13.431  20.523  -7.120  1.00  0.00    -0.378 N 
ATOM      4  H1  UNL     1     -13.883  21.360  -6.752  1.00  0.00     0.160 HD
HETATM    5  C7  UNL     1     -13.993  19.222  -7.455  1.00  0.00     0.184 C 
HETATM    6  C16 UNL     1     -12.983  18.170  -7.239  1.00  0.00     0.082 C 
HETATM    7  C23 UNL     1     -11.783  19.013  -6.730  1.00  0.00     0.122 A 
HETATM    8  C24 UNL     1     -11.756  19.041  -5.287  1.00  0.00     0.242 A 
HETATM    9  O3  UNL     1     -12.615  19.493  -4.503  1.00  0.00    -0.272 OA
HETATM   10  N4  UNL     1     -10.543  18.445  -4.860  1.00  0.00    -0.325 N 
ATOM     11  H4  UNL     1     -10.255  18.307  -3.892  1.00  0.00     0.169 HD
HETATM   12  C25 UNL     1      -9.793  18.071  -6.020  1.00  0.00     0.044 A 
HETATM   13  C26 UNL     1      -8.542  17.471  -6.164  1.00  0.00     0.054 A 
HETATM   14  C27 UNL     1      -8.043  17.233  -7.407  1.00  0.00     0.036 A 
HETATM   15 CL2  UNL     1      -6.474  16.479  -7.584  1.00  0.00    -0.084 Cl
HETATM   16  C28 UNL     1      -8.721  17.561  -8.552  1.00  0.00     0.024 A 
HETATM   17  C29 UNL     1      -9.954  18.152  -8.421  1.00  0.00     0.013 A 
HETATM   18  C30 UNL     1     -10.494  18.409  -7.151  1.00  0.00    -0.007 A 
ENDROOT
BRANCH   5  19
HETATM   19  C8  UNL     1     -14.346  19.220  -8.933  1.00  0.00     0.245 C 
HETATM   20  O1  UNL     1     -15.511  19.367  -9.294  1.00  0.00    -0.271 OA
HETATM   21  N2  UNL     1     -13.282  19.044  -9.843  1.00  0.00    -0.325 N 
ATOM     22  H2  UNL     1     -12.346  18.929  -9.453  1.00  0.00     0.169 HD
BRANCH  21  23
HETATM   23  C9  UNL     1     -13.407  19.014 -11.251  1.00  0.00     0.034 A 
HETATM   24  C10 UNL     1     -12.974  17.890 -11.967  1.00  0.00     0.030 A 
HETATM   25  C11 UNL     1     -13.069  17.782 -13.327  1.00  0.00     0.019 A 
HETATM   26  C12 UNL     1     -13.615  18.820 -14.058  1.00  0.00     0.029 A 
HETATM   27  C14 UNL     1     -14.051  19.943 -13.385  1.00  0.00     0.019 A 
HETATM   28  C15 UNL     1     -13.946  20.036 -11.993  1.00  0.00     0.030 A 
BRANCH  26  29
HETATM   29  C13 UNL     1     -13.710  18.701 -15.489  1.00  0.00     0.264 C 
HETATM   30  N3  UNL     1     -13.567  19.824 -16.335  1.00  0.00    -0.057 NA
HETATM   31  O2  UNL     1     -13.927  17.558 -15.986  1.00  0.00    -0.271 OA
ENDBRANCH  26  29
ENDBRANCH  21  23
ENDBRANCH   5  19
BRANCH   6  32
HETATM   32  C17 UNL     1     -13.311  17.121  -6.257  1.00  0.00    -0.009 A 
HETATM   33  C18 UNL     1     -14.236  17.247  -5.234  1.00  0.00     0.011 A 
HETATM   34  C19 UNL     1     -14.478  16.245  -4.334  1.00  0.00     0.002 A 
HETATM   35  C20 UNL     1     -13.809  15.055  -4.401  1.00  0.00     0.027 A 
HETATM   36  C21 UNL     1     -12.885  14.894  -5.399  1.00  0.00     0.073 A 
HETATM   37 CL1  UNL     1     -12.025  13.359  -5.483  1.00  0.00    -0.081 Cl
HETATM   38  C22 UNL     1     -12.651  15.911  -6.301  1.00  0.00     0.144 A 
HETATM   39  F1  UNL     1     -11.738  15.664  -7.264  1.00  0.00    -0.204 F 
ENDBRANCH   6  32
BRANCH   1  40
HETATM   40  C2  UNL     1     -10.735  22.283  -6.487  1.00  0.00    -0.032 C 
HETATM   41  C1  UNL     1      -9.624  21.926  -5.560  1.00  0.00     0.019 C 
HETATM   42  C3  UNL     1     -10.281  23.571  -7.218  1.00  0.00     0.019 C 
HETATM   43  C4  UNL     1     -11.888  22.753  -5.612  1.00  0.00     0.019 C 
ENDBRANCH   1  40
TORSDOF 5
ENDMDL
