MODEL 3
REMARK VINA RESULT: -8.115695417      3.745      7.799
REMARK  5 active torsions:
REMARK  status: ('A' for Active; 'I' for Inactive)
REMARK    1  A    between atoms: C2_2  and  C5_5 
REMARK    2  A    between atoms: C7_9  and  C8_10 
REMARK       I    between atoms: C8_10  and  N2_12 
REMARK    3  A    between atoms: N2_12  and  C9_14 
REMARK    4  A    between atoms: C12_17  and  C13_18 
REMARK    5  A    between atoms: C16_23  and  C17_24 
ROOT
HETATM    1  C5  UNL     1     -12.202  20.374 -10.562  1.00  0.00     0.008 C 
HETATM    2  C6  UNL     1     -11.808  19.243  -9.789  1.00  0.00     0.026 C 
HETATM    3  N1  UNL     1     -12.123  17.902 -10.204  1.00  0.00    -0.378 N 
ATOM      4  H1  UNL     1     -12.752  17.569 -10.935  1.00  0.00     0.160 HD
HETATM    5  C7  UNL     1     -11.281  17.157  -9.279  1.00  0.00     0.184 C 
HETATM    6  C16 UNL     1     -11.145  17.903  -8.015  1.00  0.00     0.082 C 
HETATM    7  C23 UNL     1     -12.015  19.153  -8.315  1.00  0.00     0.122 A 
HETATM    8  C24 UNL     1     -13.357  18.970  -7.818  1.00  0.00     0.242 A 
HETATM    9  O3  UNL     1     -14.196  18.107  -8.146  1.00  0.00    -0.272 OA
HETATM   10  N4  UNL     1     -13.603  19.970  -6.844  1.00  0.00    -0.325 N 
ATOM     11  H4  UNL     1     -14.462  20.080  -6.305  1.00  0.00     0.169 HD
HETATM   12  C25 UNL     1     -12.441  20.798  -6.745  1.00  0.00     0.044 A 
HETATM   13  C26 UNL     1     -12.160  21.918  -5.962  1.00  0.00     0.054 A 
HETATM   14  C27 UNL     1     -10.956  22.541  -6.075  1.00  0.00     0.036 A 
HETATM   15 CL2  UNL     1     -10.608  23.945  -5.091  1.00  0.00    -0.084 Cl
HETATM   16  C28 UNL     1      -9.982  22.116  -6.939  1.00  0.00     0.024 A 
HETATM   17  C29 UNL     1     -10.247  21.013  -7.715  1.00  0.00     0.013 A 
HETATM   18  C30 UNL     1     -11.480  20.351  -7.618  1.00  0.00    -0.007 A 
ENDROOT
BRANCH   5  19
HETATM   19  C8  UNL     1      -9.894  17.033  -9.888  1.00  0.00     0.245 C 
HETATM   20  O1  UNL     1      -9.758  16.688 -11.059  1.00  0.00    -0.271 OA
HETATM   21  N2  UNL     1      -8.800  17.332  -9.049  1.00  0.00    -0.325 N 
ATOM     22  H2  UNL     1      -9.007  17.612  -8.090  1.00  0.00     0.169 HD
BRANCH  21  23
HETATM   23  C9  UNL     1      -7.439  17.277  -9.429  1.00  0.00     0.034 A 
HETATM   24  C10 UNL     1      -6.575  16.369  -8.803  1.00  0.00     0.030 A 
HETATM   25  C11 UNL     1      -5.250  16.250  -9.121  1.00  0.00     0.019 A 
HETATM   26  C12 UNL     1      -4.709  17.054 -10.106  1.00  0.00     0.029 A 
HETATM   27  C14 UNL     1      -5.532  17.961 -10.744  1.00  0.00     0.019 A 
HETATM   28  C15 UNL     1      -6.885  18.068 -10.405  1.00  0.00     0.030 A 
BRANCH  26  29
HETATM   29  C13 UNL     1      -3.314  16.926 -10.434  1.00  0.00     0.264 C 
HETATM   30  N3  UNL     1      -2.795  17.407 -11.657  1.00  0.00    -0.057 NA
HETATM   31  O2  UNL     1      -2.548  16.365  -9.598  1.00  0.00    -0.271 OA
ENDBRANCH  26  29
ENDBRANCH  21  23
ENDBRANCH   5  19
BRANCH   6  32
HETATM   32  C17 UNL     1     -11.628  17.238  -6.791  1.00  0.00    -0.009 A 
HETATM   33  C18 UNL     1     -12.595  16.248  -6.751  1.00  0.00     0.011 A 
HETATM   34  C19 UNL     1     -13.024  15.686  -5.579  1.00  0.00     0.002 A 
HETATM   35  C20 UNL     1     -12.513  16.081  -4.374  1.00  0.00     0.027 A 
HETATM   36  C21 UNL     1     -11.555  17.060  -4.375  1.00  0.00     0.073 A 
HETATM   37 CL1  UNL     1     -10.896  17.567  -2.821  1.00  0.00    -0.081 Cl
HETATM   38  C22 UNL     1     -11.130  17.618  -5.563  1.00  0.00     0.144 A 
HETATM   39  F1  UNL     1     -10.170  18.562  -5.476  1.00  0.00    -0.204 F 
ENDBRANCH   6  32
BRANCH   1  40
HETATM   40  C2  UNL     1     -13.556  20.761 -10.940  1.00  0.00    -0.032 C 
HETATM   41  C1  UNL     1     -14.354  21.616 -10.017  1.00  0.00     0.019 C 
HETATM   42  C3  UNL     1     -13.401  21.576 -12.248  1.00  0.00     0.019 C 
HETATM   43  C4  UNL     1     -14.459  19.604 -11.341  1.00  0.00     0.019 C 
ENDBRANCH   1  40
TORSDOF 5
ENDMDL
