MODEL 2
REMARK VINA RESULT: -8.207484755      3.828      7.888
REMARK  5 active torsions:
REMARK  status: ('A' for Active; 'I' for Inactive)
REMARK    1  A    between atoms: C2_2  and  C5_5 
REMARK    2  A    between atoms: C7_9  and  C8_10 
REMARK       I    between atoms: C8_10  and  N2_12 
REMARK    3  A    between atoms: N2_12  and  C9_14 
REMARK    4  A    between atoms: C12_17  and  C13_18 
REMARK    5  A    between atoms: C16_23  and  C17_24 
ROOT
HETATM    1  C5  UNL     1     -11.802  19.578 -10.875  1.00  0.00     0.008 C 
HETATM    2  C6  UNL     1     -11.539  18.858  -9.673  1.00  0.00     0.026 C 
HETATM    3  N1  UNL     1     -11.264  17.446  -9.686  1.00  0.00    -0.378 N 
ATOM      4  H1  UNL     1     -11.368  16.762 -10.435  1.00  0.00     0.160 HD
HETATM    5  C7  UNL     1     -10.794  17.277  -8.318  1.00  0.00     0.184 C 
HETATM    6  C16 UNL     1     -11.463  18.249  -7.435  1.00  0.00     0.082 C 
HETATM    7  C23 UNL     1     -12.381  18.985  -8.448  1.00  0.00     0.122 A 
HETATM    8  C24 UNL     1     -13.701  18.401  -8.457  1.00  0.00     0.242 A 
HETATM    9  O3  UNL     1     -14.033  17.236  -8.756  1.00  0.00    -0.272 OA
HETATM   10  N4  UNL     1     -14.623  19.398  -8.053  1.00  0.00    -0.325 N 
ATOM     11  H4  UNL     1     -15.629  19.272  -7.946  1.00  0.00     0.169 HD
HETATM   12  C25 UNL     1     -13.901  20.611  -7.820  1.00  0.00     0.044 A 
HETATM   13  C26 UNL     1     -14.320  21.882  -7.426  1.00  0.00     0.054 A 
HETATM   14  C27 UNL     1     -13.411  22.885  -7.289  1.00  0.00     0.036 A 
HETATM   15 CL2  UNL     1     -13.941  24.477  -6.794  1.00  0.00    -0.084 Cl
HETATM   16  C28 UNL     1     -12.073  22.707  -7.525  1.00  0.00     0.024 A 
HETATM   17  C29 UNL     1     -11.649  21.459  -7.912  1.00  0.00     0.013 A 
HETATM   18  C30 UNL     1     -12.565  20.406  -8.060  1.00  0.00    -0.007 A 
ENDROOT
BRANCH   5  19
HETATM   19  C8  UNL     1      -9.305  17.579  -8.284  1.00  0.00     0.245 C 
HETATM   20  O1  UNL     1      -8.879  18.540  -7.648  1.00  0.00    -0.271 OA
HETATM   21  N2  UNL     1      -8.461  16.710  -9.008  1.00  0.00    -0.325 N 
ATOM     22  H2  UNL     1      -8.901  15.937  -9.507  1.00  0.00     0.169 HD
BRANCH  21  23
HETATM   23  C9  UNL     1      -7.054  16.823  -9.098  1.00  0.00     0.034 A 
HETATM   24  C10 UNL     1      -6.248  16.373  -8.044  1.00  0.00     0.030 A 
HETATM   25  C11 UNL     1      -4.882  16.440  -8.061  1.00  0.00     0.019 A 
HETATM   26  C12 UNL     1      -4.238  16.973  -9.161  1.00  0.00     0.029 A 
HETATM   27  C14 UNL     1      -5.001  17.425 -10.218  1.00  0.00     0.019 A 
HETATM   28  C15 UNL     1      -6.397  17.349 -10.183  1.00  0.00     0.030 A 
BRANCH  26  29
HETATM   29  C13 UNL     1      -2.800  17.042  -9.171  1.00  0.00     0.264 C 
HETATM   30  N3  UNL     1      -2.021  16.110  -9.893  1.00  0.00    -0.057 NA
HETATM   31  O2  UNL     1      -2.237  17.963  -8.513  1.00  0.00    -0.271 OA
ENDBRANCH  26  29
ENDBRANCH  21  23
ENDBRANCH   5  19
BRANCH   6  32
HETATM   32  C17 UNL     1     -12.273  17.700  -6.331  1.00  0.00    -0.009 A 
HETATM   33  C18 UNL     1     -12.827  18.444  -5.303  1.00  0.00     0.011 A 
HETATM   34  C19 UNL     1     -13.548  17.874  -4.289  1.00  0.00     0.002 A 
HETATM   35  C20 UNL     1     -13.759  16.524  -4.241  1.00  0.00     0.027 A 
HETATM   36  C21 UNL     1     -13.225  15.756  -5.242  1.00  0.00     0.073 A 
HETATM   37 CL1  UNL     1     -13.499  14.017  -5.178  1.00  0.00    -0.081 Cl
HETATM   38  C22 UNL     1     -12.501  16.343  -6.258  1.00  0.00     0.144 A 
HETATM   39  F1  UNL     1     -12.026  15.516  -7.214  1.00  0.00    -0.204 F 
ENDBRANCH   6  32
BRANCH   1  40
HETATM   40  C2  UNL     1     -12.868  19.333 -11.838  1.00  0.00    -0.032 C 
HETATM   41  C1  UNL     1     -14.216  19.922 -11.597  1.00  0.00     0.019 C 
HETATM   42  C3  UNL     1     -12.368  19.946 -13.170  1.00  0.00     0.019 C 
HETATM   43  C4  UNL     1     -13.095  17.868 -12.178  1.00  0.00     0.019 C 
ENDBRANCH   1  40
TORSDOF 5
ENDMDL
