MODEL 16
REMARK VINA RESULT: -7.131676097      3.138      4.091
REMARK  9 active torsions:
REMARK  status: ('A' for Active; 'I' for Inactive)
REMARK    1  A    between atoms: C1_2  and  C2_3 
REMARK       I    between atoms: C1_2  and  N2_19 
REMARK    2  A    between atoms: C2_3  and  C3_4 
REMARK    3  A    between atoms: C3_4  and  C4_5 
REMARK    4  A    between atoms: C4_5  and  C5_6 
REMARK    5  A    between atoms: C5_6  and  C6_7 
REMARK    6  A    between atoms: C6_7  and  C7_8 
REMARK    7  A    between atoms: C7_8  and  C8_9 
REMARK       I    between atoms: C8_9  and  N1_11 
REMARK    8  A    between atoms: N1_11  and  C9_13 
REMARK    9  A    between atoms: N2_19  and  O3_21 
ROOT
HETATM    1  C6  UNL     1      26.174 -16.620  -1.095  1.00  0.00     0.009 C 
ENDROOT
BRANCH   1   2
HETATM    2  C5  UNL     1      25.194 -17.559  -0.505  1.00  0.00     0.000 C 
BRANCH   2   3
HETATM    3  C4  UNL     1      23.753 -17.333  -0.923  1.00  0.00     0.000 C 
BRANCH   3   4
HETATM    4  C3  UNL     1      23.008 -18.633  -0.829  1.00  0.00     0.009 C 
BRANCH   4   5
HETATM    5  C2  UNL     1      21.772 -18.503   0.022  1.00  0.00     0.105 C 
BRANCH   5   6
HETATM    6  C1  UNL     1      20.669 -19.272  -0.533  1.00  0.00     0.240 C 
HETATM    7  O1  UNL     1      20.662 -19.633  -1.735  1.00  0.00    -0.271 OA
HETATM    8  N2  UNL     1      19.563 -19.623   0.336  1.00  0.00    -0.237 N 
ATOM      9  H2  UNL     1      19.544 -19.344   1.317  1.00  0.00     0.197 HD
BRANCH   8  10
HETATM   10  O3  UNL     1      18.560 -20.338  -0.215  1.00  0.00    -0.287 OA
ATOM     11  H3  UNL     1      17.709 -19.917  -0.262  1.00  0.00     0.244 HD
ENDBRANCH   8  10
ENDBRANCH   5   6
ENDBRANCH   4   5
ENDBRANCH   3   4
ENDBRANCH   2   3
ENDBRANCH   1   2
BRANCH   1  12
HETATM   12  C7  UNL     1      27.401 -16.530  -0.234  1.00  0.00     0.103 C 
BRANCH  12  13
HETATM   13  C8  UNL     1      27.457 -15.228   0.481  1.00  0.00     0.222 C 
HETATM   14  O2  UNL     1      26.683 -14.312   0.176  1.00  0.00    -0.273 OA
HETATM   15  N1  UNL     1      28.394 -14.997   1.528  1.00  0.00    -0.327 N 
ATOM     16  H1  UNL     1      29.019 -15.771   1.757  1.00  0.00     0.169 HD
BRANCH  15  17
HETATM   17  C9  UNL     1      28.553 -13.830   2.276  1.00  0.00     0.034 A 
HETATM   18  C10 UNL     1      28.024 -13.831   3.574  1.00  0.00     0.029 A 
HETATM   19  C11 UNL     1      28.111 -12.747   4.418  1.00  0.00     0.002 A 
HETATM   20  C12 UNL     1      28.738 -11.599   3.990  1.00  0.00     0.000 A 
HETATM   21  C13 UNL     1      29.275 -11.544   2.723  1.00  0.00     0.002 A 
HETATM   22  C14 UNL     1      29.164 -12.666   1.904  1.00  0.00     0.029 A 
ENDBRANCH  15  17
ENDBRANCH  12  13
ENDBRANCH   1  12
TORSDOF 9
ENDMDL
