MODEL 2
REMARK VINA RESULT: -7.742037021      1.068      1.068
REMARK  9 active torsions:
REMARK  status: ('A' for Active; 'I' for Inactive)
REMARK    1  A    between atoms: C1_2  and  C2_3 
REMARK       I    between atoms: C1_2  and  N2_19 
REMARK    2  A    between atoms: C2_3  and  C3_4 
REMARK    3  A    between atoms: C3_4  and  C4_5 
REMARK    4  A    between atoms: C4_5  and  C5_6 
REMARK    5  A    between atoms: C5_6  and  C6_7 
REMARK    6  A    between atoms: C6_7  and  C7_8 
REMARK    7  A    between atoms: C7_8  and  C8_9 
REMARK       I    between atoms: C8_9  and  N1_11 
REMARK    8  A    between atoms: N1_11  and  C9_13 
REMARK    9  A    between atoms: N2_19  and  O3_21 
ROOT
HETATM    1  C6  UNL     1      26.374 -18.073  -0.143  1.00  0.00     0.009 C 
ENDROOT
BRANCH   1   2
HETATM    2  C5  UNL     1      24.935 -18.009   0.199  1.00  0.00     0.000 C 
BRANCH   2   3
HETATM    3  C4  UNL     1      24.007 -17.743  -0.971  1.00  0.00     0.000 C 
BRANCH   3   4
HETATM    4  C3  UNL     1      22.978 -18.834  -1.036  1.00  0.00     0.009 C 
BRANCH   4   5
HETATM    5  C2  UNL     1      21.759 -18.496  -0.220  1.00  0.00     0.105 C 
BRANCH   5   6
HETATM    6  C1  UNL     1      20.613 -19.291  -0.633  1.00  0.00     0.240 C 
HETATM    7  O1  UNL     1      20.496 -19.708  -1.812  1.00  0.00    -0.271 OA
HETATM    8  N2  UNL     1      19.593 -19.602   0.350  1.00  0.00    -0.237 N 
ATOM      9  H2  UNL     1      19.665 -19.277   1.314  1.00  0.00     0.197 HD
BRANCH   8  10
HETATM   10  O3  UNL     1      18.547 -20.342  -0.071  1.00  0.00    -0.287 OA
ATOM     11  H3  UNL     1      18.111 -20.879   0.581  1.00  0.00     0.244 HD
ENDBRANCH   8  10
ENDBRANCH   5   6
ENDBRANCH   4   5
ENDBRANCH   3   4
ENDBRANCH   2   3
ENDBRANCH   1   2
BRANCH   1  12
HETATM   12  C7  UNL     1      27.097 -16.873   0.398  1.00  0.00     0.103 C 
BRANCH  12  13
HETATM   13  C8  UNL     1      26.919 -15.696  -0.492  1.00  0.00     0.222 C 
HETATM   14  O2  UNL     1      26.732 -14.571  -0.011  1.00  0.00    -0.273 OA
HETATM   15  N1  UNL     1      26.957 -15.824  -1.909  1.00  0.00    -0.327 N 
ATOM     16  H1  UNL     1      27.114 -16.763  -2.276  1.00  0.00     0.169 HD
BRANCH  15  17
HETATM   17  C9  UNL     1      26.805 -14.808  -2.853  1.00  0.00     0.034 A 
HETATM   18  C10 UNL     1      25.496 -14.400  -3.141  1.00  0.00     0.029 A 
HETATM   19  C11 UNL     1      25.205 -13.409  -4.051  1.00  0.00     0.002 A 
HETATM   20  C12 UNL     1      26.226 -12.777  -4.721  1.00  0.00     0.000 A 
HETATM   21  C13 UNL     1      27.533 -13.139  -4.476  1.00  0.00     0.002 A 
HETATM   22  C14 UNL     1      27.780 -14.147  -3.546  1.00  0.00     0.029 A 
ENDBRANCH  15  17
ENDBRANCH  12  13
ENDBRANCH   1  12
TORSDOF 9
ENDMDL
