MODEL 12
REMARK VINA RESULT: -7.223787024      3.003      3.881
REMARK  9 active torsions:
REMARK  status: ('A' for Active; 'I' for Inactive)
REMARK    1  A    between atoms: C1_2  and  C2_3 
REMARK       I    between atoms: C1_2  and  N2_19 
REMARK    2  A    between atoms: C2_3  and  C3_4 
REMARK    3  A    between atoms: C3_4  and  C4_5 
REMARK    4  A    between atoms: C4_5  and  C5_6 
REMARK    5  A    between atoms: C5_6  and  C6_7 
REMARK    6  A    between atoms: C6_7  and  C7_8 
REMARK    7  A    between atoms: C7_8  and  C8_9 
REMARK       I    between atoms: C8_9  and  N1_11 
REMARK    8  A    between atoms: N1_11  and  C9_13 
REMARK    9  A    between atoms: N2_19  and  O3_21 
ROOT
HETATM    1  C6  UNL     1      27.100 -16.952  -0.701  1.00  0.00     0.009 C 
ENDROOT
BRANCH   1   2
HETATM    2  C5  UNL     1      26.639 -18.007   0.230  1.00  0.00     0.000 C 
BRANCH   2   3
HETATM    3  C4  UNL     1      25.145 -18.270   0.215  1.00  0.00     0.000 C 
BRANCH   3   4
HETATM    4  C3  UNL     1      24.502 -17.377  -0.806  1.00  0.00     0.009 C 
BRANCH   4   5
HETATM    5  C2  UNL     1      23.033 -17.193  -0.532  1.00  0.00     0.105 C 
BRANCH   5   6
HETATM    6  C1  UNL     1      22.315 -18.453  -0.641  1.00  0.00     0.240 C 
HETATM    7  O1  UNL     1      22.441 -19.193  -1.647  1.00  0.00    -0.271 OA
HETATM    8  N2  UNL     1      21.442 -18.850   0.447  1.00  0.00    -0.237 N 
ATOM      9  H2  UNL     1      21.323 -18.268   1.275  1.00  0.00     0.197 HD
BRANCH   8  10
HETATM   10  O3  UNL     1      20.794 -20.026   0.309  1.00  0.00    -0.287 OA
ATOM     11  H3  UNL     1      19.995 -20.137   0.810  1.00  0.00     0.244 HD
ENDBRANCH   8  10
ENDBRANCH   5   6
ENDBRANCH   4   5
ENDBRANCH   3   4
ENDBRANCH   2   3
ENDBRANCH   1   2
BRANCH   1  12
HETATM   12  C7  UNL     1      28.555 -16.654  -0.480  1.00  0.00     0.103 C 
BRANCH  12  13
HETATM   13  C8  UNL     1      28.733 -15.354   0.217  1.00  0.00     0.222 C 
HETATM   14  O2  UNL     1      29.661 -14.597  -0.096  1.00  0.00    -0.273 OA
HETATM   15  N1  UNL     1      27.851 -14.942   1.256  1.00  0.00    -0.327 N 
ATOM     16  H1  UNL     1      27.096 -15.585   1.492  1.00  0.00     0.169 HD
BRANCH  15  17
HETATM   17  C9  UNL     1      27.906 -13.755   1.988  1.00  0.00     0.034 A 
HETATM   18  C10 UNL     1      27.126 -12.687   1.524  1.00  0.00     0.029 A 
HETATM   19  C11 UNL     1      27.087 -11.462   2.151  1.00  0.00     0.002 A 
HETATM   20  C12 UNL     1      27.839 -11.251   3.283  1.00  0.00     0.000 A 
HETATM   21  C13 UNL     1      28.624 -12.268   3.782  1.00  0.00     0.002 A 
HETATM   22  C14 UNL     1      28.631 -13.491   3.115  1.00  0.00     0.029 A 
ENDBRANCH  15  17
ENDBRANCH  12  13
ENDBRANCH   1  12
TORSDOF 9
ENDMDL
