MODEL 1
REMARK VINA RESULT: -7.775132343      0.000      0.000
REMARK  9 active torsions:
REMARK  status: ('A' for Active; 'I' for Inactive)
REMARK    1  A    between atoms: C1_2  and  C2_3 
REMARK       I    between atoms: C1_2  and  N2_19 
REMARK    2  A    between atoms: C2_3  and  C3_4 
REMARK    3  A    between atoms: C3_4  and  C4_5 
REMARK    4  A    between atoms: C4_5  and  C5_6 
REMARK    5  A    between atoms: C5_6  and  C6_7 
REMARK    6  A    between atoms: C6_7  and  C7_8 
REMARK    7  A    between atoms: C7_8  and  C8_9 
REMARK       I    between atoms: C8_9  and  N1_11 
REMARK    8  A    between atoms: N1_11  and  C9_13 
REMARK    9  A    between atoms: N2_19  and  O3_21 
ROOT
HETATM    1  C6  UNL     1      26.384 -18.093  -0.127  1.00  0.00     0.009 C 
ENDROOT
BRANCH   1   2
HETATM    2  C5  UNL     1      24.952 -17.939   0.216  1.00  0.00     0.000 C 
BRANCH   2   3
HETATM    3  C4  UNL     1      24.024 -17.744  -0.968  1.00  0.00     0.000 C 
BRANCH   3   4
HETATM    4  C3  UNL     1      23.001 -18.842  -0.973  1.00  0.00     0.009 C 
BRANCH   4   5
HETATM    5  C2  UNL     1      21.752 -18.439  -0.235  1.00  0.00     0.105 C 
BRANCH   5   6
HETATM    6  C1  UNL     1      20.620 -19.263  -0.630  1.00  0.00     0.240 C 
HETATM    7  O1  UNL     1      20.509 -19.707  -1.799  1.00  0.00    -0.271 OA
HETATM    8  N2  UNL     1      19.607 -19.571   0.362  1.00  0.00    -0.237 N 
ATOM      9  H2  UNL     1      19.674 -19.224   1.319  1.00  0.00     0.197 HD
BRANCH   8  10
HETATM   10  O3  UNL     1      18.574 -20.338  -0.041  1.00  0.00    -0.287 OA
ATOM     11  H3  UNL     1      18.217 -20.946   0.595  1.00  0.00     0.244 HD
ENDBRANCH   8  10
ENDBRANCH   5   6
ENDBRANCH   4   5
ENDBRANCH   3   4
ENDBRANCH   2   3
ENDBRANCH   1   2
BRANCH   1  12
HETATM   12  C7  UNL     1      27.151 -16.858   0.251  1.00  0.00     0.103 C 
BRANCH  12  13
HETATM   13  C8  UNL     1      27.253 -15.920  -0.897  1.00  0.00     0.222 C 
HETATM   14  O2  UNL     1      28.099 -16.103  -1.782  1.00  0.00    -0.273 OA
HETATM   15  N1  UNL     1      26.390 -14.794  -1.014  1.00  0.00    -0.327 N 
ATOM     16  H1  UNL     1      25.703 -14.669  -0.271  1.00  0.00     0.169 HD
BRANCH  15  17
HETATM   17  C9  UNL     1      26.380 -13.841  -2.034  1.00  0.00     0.034 A 
HETATM   18  C10 UNL     1      25.613 -14.135  -3.170  1.00  0.00     0.029 A 
HETATM   19  C11 UNL     1      25.516 -13.284  -4.247  1.00  0.00     0.002 A 
HETATM   20  C12 UNL     1      26.193 -12.087  -4.233  1.00  0.00     0.000 A 
HETATM   21  C13 UNL     1      26.962 -11.748  -3.141  1.00  0.00     0.002 A 
HETATM   22  C14 UNL     1      27.030 -12.640  -2.073  1.00  0.00     0.029 A 
ENDBRANCH  15  17
ENDBRANCH  12  13
ENDBRANCH   1  12
TORSDOF 9
ENDMDL
