MODEL 14
REMARK VINA RESULT: -7.209922480      3.817      5.158
REMARK  9 active torsions:
REMARK  status: ('A' for Active; 'I' for Inactive)
REMARK    1  A    between atoms: C1_2  and  C2_3 
REMARK       I    between atoms: C1_2  and  N2_19 
REMARK    2  A    between atoms: C2_3  and  C3_4 
REMARK    3  A    between atoms: C3_4  and  C4_5 
REMARK    4  A    between atoms: C4_5  and  C5_6 
REMARK    5  A    between atoms: C5_6  and  C6_7 
REMARK    6  A    between atoms: C6_7  and  C7_8 
REMARK    7  A    between atoms: C7_8  and  C8_9 
REMARK       I    between atoms: C8_9  and  N1_11 
REMARK    8  A    between atoms: N1_11  and  C9_13 
REMARK    9  A    between atoms: N2_19  and  O3_21 
ROOT
HETATM    1  C6  UNL     1      27.771 -16.103  -0.121  1.00  0.00     0.009 C 
ENDROOT
BRANCH   1   2
HETATM    2  C5  UNL     1      26.866 -17.274  -0.093  1.00  0.00     0.000 C 
BRANCH   2   3
HETATM    3  C4  UNL     1      25.440 -16.997  -0.527  1.00  0.00     0.000 C 
BRANCH   3   4
HETATM    4  C3  UNL     1      24.561 -18.122  -0.062  1.00  0.00     0.009 C 
BRANCH   4   5
HETATM    5  C2  UNL     1      23.108 -17.725  -0.058  1.00  0.00     0.105 C 
BRANCH   5   6
HETATM    6  C1  UNL     1      22.315 -18.627  -0.878  1.00  0.00     0.240 C 
HETATM    7  O1  UNL     1      22.820 -19.247  -1.845  1.00  0.00    -0.271 OA
HETATM    8  N2  UNL     1      20.912 -18.804  -0.556  1.00  0.00    -0.237 N 
ATOM      9  H2  UNL     1      20.477 -18.313   0.225  1.00  0.00     0.197 HD
BRANCH   8  10
HETATM   10  O3  UNL     1      20.210 -19.648  -1.339  1.00  0.00    -0.287 OA
ATOM     11  H3  UNL     1      19.698 -19.260  -2.038  1.00  0.00     0.244 HD
ENDBRANCH   8  10
ENDBRANCH   5   6
ENDBRANCH   4   5
ENDBRANCH   3   4
ENDBRANCH   2   3
ENDBRANCH   1   2
BRANCH   1  12
HETATM   12  C7  UNL     1      26.979 -14.827  -0.116  1.00  0.00     0.103 C 
BRANCH  12  13
HETATM   13  C8  UNL     1      27.251 -14.034   1.112  1.00  0.00     0.222 C 
HETATM   14  O2  UNL     1      26.717 -12.930   1.276  1.00  0.00    -0.273 OA
HETATM   15  N1  UNL     1      28.124 -14.517   2.128  1.00  0.00    -0.327 N 
ATOM     16  H1  UNL     1      28.548 -15.431   1.966  1.00  0.00     0.169 HD
BRANCH  15  17
HETATM   17  C9  UNL     1      28.463 -13.879   3.322  1.00  0.00     0.034 A 
HETATM   18  C10 UNL     1      29.671 -13.169   3.341  1.00  0.00     0.029 A 
HETATM   19  C11 UNL     1      30.125 -12.495   4.452  1.00  0.00     0.002 A 
HETATM   20  C12 UNL     1      29.378 -12.505   5.607  1.00  0.00     0.000 A 
HETATM   21  C13 UNL     1      28.183 -13.188   5.644  1.00  0.00     0.002 A 
HETATM   22  C14 UNL     1      27.763 -13.856   4.495  1.00  0.00     0.029 A 
ENDBRANCH  15  17
ENDBRANCH  12  13
ENDBRANCH   1  12
TORSDOF 9
ENDMDL
