MODEL 7
REMARK VINA RESULT: -7.500055107      2.685      3.505
REMARK  9 active torsions:
REMARK  status: ('A' for Active; 'I' for Inactive)
REMARK    1  A    between atoms: C1_2  and  C2_3 
REMARK       I    between atoms: C1_2  and  N2_19 
REMARK    2  A    between atoms: C2_3  and  C3_4 
REMARK    3  A    between atoms: C3_4  and  C4_5 
REMARK    4  A    between atoms: C4_5  and  C5_6 
REMARK    5  A    between atoms: C5_6  and  C6_7 
REMARK    6  A    between atoms: C6_7  and  C7_8 
REMARK    7  A    between atoms: C7_8  and  C8_9 
REMARK       I    between atoms: C8_9  and  N1_11 
REMARK    8  A    between atoms: N1_11  and  C9_13 
REMARK    9  A    between atoms: N2_19  and  O3_21 
ROOT
HETATM    1  C6  UNL     1      26.506 -17.728   0.261  1.00  0.00     0.009 C 
ENDROOT
BRANCH   1   2
HETATM    2  C5  UNL     1      25.129 -18.102  -0.132  1.00  0.00     0.000 C 
BRANCH   2   3
HETATM    3  C4  UNL     1      24.270 -16.958  -0.635  1.00  0.00     0.000 C 
BRANCH   3   4
HETATM    4  C3  UNL     1      22.825 -17.351  -0.530  1.00  0.00     0.009 C 
BRANCH   4   5
HETATM    5  C2  UNL     1      22.624 -18.812  -0.834  1.00  0.00     0.105 C 
BRANCH   5   6
HETATM    6  C1  UNL     1      21.236 -19.203  -0.639  1.00  0.00     0.240 C 
HETATM    7  O1  UNL     1      20.510 -19.541  -1.606  1.00  0.00    -0.271 OA
HETATM    8  N2  UNL     1      20.697 -19.198   0.707  1.00  0.00    -0.237 N 
ATOM      9  H2  UNL     1      21.266 -18.928   1.509  1.00  0.00     0.197 HD
BRANCH   8  10
HETATM   10  O3  UNL     1      19.407 -19.567   0.847  1.00  0.00    -0.287 OA
ATOM     11  H3  UNL     1      19.162 -19.961   1.676  1.00  0.00     0.244 HD
ENDBRANCH   8  10
ENDBRANCH   5   6
ENDBRANCH   4   5
ENDBRANCH   3   4
ENDBRANCH   2   3
ENDBRANCH   1   2
BRANCH   1  12
HETATM   12  C7  UNL     1      27.176 -16.954  -0.837  1.00  0.00     0.103 C 
BRANCH  12  13
HETATM   13  C8  UNL     1      27.643 -15.630  -0.350  1.00  0.00     0.222 C 
HETATM   14  O2  UNL     1      28.015 -14.763  -1.151  1.00  0.00    -0.273 OA
HETATM   15  N1  UNL     1      27.676 -15.320   1.040  1.00  0.00    -0.327 N 
ATOM     16  H1  UNL     1      27.363 -16.054   1.676  1.00  0.00     0.169 HD
BRANCH  15  17
HETATM   17  C9  UNL     1      28.089 -14.124   1.628  1.00  0.00     0.034 A 
HETATM   18  C10 UNL     1      27.111 -13.138   1.816  1.00  0.00     0.029 A 
HETATM   19  C11 UNL     1      27.383 -11.914   2.383  1.00  0.00     0.002 A 
HETATM   20  C12 UNL     1      28.663 -11.621   2.791  1.00  0.00     0.000 A 
HETATM   21  C13 UNL     1      29.663 -12.554   2.630  1.00  0.00     0.002 A 
HETATM   22  C14 UNL     1      29.341 -13.780   2.051  1.00  0.00     0.029 A 
ENDBRANCH  15  17
ENDBRANCH  12  13
ENDBRANCH   1  12
TORSDOF 9
ENDMDL
