MODEL 5
REMARK VINA RESULT: -9.114910552      5.494     11.257
REMARK  4 active torsions:
REMARK  status: ('A' for Active; 'I' for Inactive)
REMARK       I    between atoms: C2_2  and  N1_4 
REMARK    1  A    between atoms: N1_4  and  C3_6 
REMARK    2  A    between atoms: C6_9  and  C7_10 
REMARK       I    between atoms: C7_10  and  N2_12 
REMARK    3  A    between atoms: N2_12  and  C8_14 
REMARK    4  A    between atoms: C10_16  and  C11_17 
ROOT
HETATM    1  C7  UNL     1      25.825 -15.341  -1.819  1.00  0.00     0.256 C 
HETATM    2  O2  UNL     1      26.346 -14.442  -1.106  1.00  0.00    -0.267 OA
HETATM    3  N2  UNL     1      26.244 -15.495  -3.146  1.00  0.00    -0.321 N 
ATOM      4  H2  UNL     1      25.789 -16.241  -3.672  1.00  0.00     0.169 HD
ENDROOT
BRANCH   3   5
HETATM    5  C8  UNL     1      27.214 -14.752  -3.849  1.00  0.00     0.060 A 
HETATM    6  C9  UNL     1      26.914 -13.669  -4.685  1.00  0.00     0.044 A 
HETATM    7  C10 UNL     1      27.899 -12.976  -5.351  1.00  0.00    -0.017 A 
HETATM    8  C15 UNL     1      29.196 -13.351  -5.193  1.00  0.00     0.015 A 
HETATM    9  C16 UNL     1      29.524 -14.429  -4.365  1.00  0.00     0.030 A 
HETATM   10  C17 UNL     1      28.541 -15.112  -3.708  1.00  0.00     0.073 A 
HETATM   11  N3  UNL     1      28.903 -16.219  -2.860  1.00  0.00    -0.100 NA
BRANCH   7  12
HETATM   12  C11 UNL     1      27.499 -11.853  -6.207  1.00  0.00     0.015 A 
HETATM   13  C12 UNL     1      26.431 -11.001  -6.031  1.00  0.00     0.020 A 
HETATM   14  C13 UNL     1      26.256 -10.042  -6.944  1.00  0.00     0.008 A 
HETATM   15  C14 UNL     1      27.150  -9.983  -7.981  1.00  0.00     0.050 A 
HETATM   16  S1  UNL     1      28.209 -11.271  -7.648  1.00  0.00    -0.101 SA
ENDBRANCH   7  12
ENDBRANCH   3   5
BRANCH   1  17
HETATM   17  C6  UNL     1      24.802 -16.182  -1.212  1.00  0.00     0.032 A 
HETATM   18  C5  UNL     1      25.103 -17.441  -0.788  1.00  0.00     0.019 A 
HETATM   19  C4  UNL     1      24.138 -18.271  -0.193  1.00  0.00     0.030 A 
HETATM   20  C3  UNL     1      22.849 -17.856  -0.010  1.00  0.00     0.034 A 
HETATM   21  C19 UNL     1      22.565 -16.560  -0.454  1.00  0.00     0.030 A 
HETATM   22  C18 UNL     1      23.500 -15.742  -1.036  1.00  0.00     0.019 A 
BRANCH  20  23
HETATM   23  N1  UNL     1      21.801 -18.609   0.566  1.00  0.00    -0.328 N 
HETATM   24  C2  UNL     1      20.784 -19.251  -0.158  1.00  0.00     0.218 C 
HETATM   25  C1  UNL     1      19.754 -20.009   0.634  1.00  0.00     0.117 C 
HETATM   26  O1  UNL     1      20.725 -19.206  -1.394  1.00  0.00    -0.274 OA
ATOM     27  H1  UNL     1      21.782 -18.691   1.582  1.00  0.00     0.169 HD
ENDBRANCH  20  23
ENDBRANCH   1  17
TORSDOF 4
ENDMDL
