MODEL 4
REMARK VINA RESULT: -9.238805935      5.102     11.298
REMARK  4 active torsions:
REMARK  status: ('A' for Active; 'I' for Inactive)
REMARK       I    between atoms: C2_2  and  N1_4 
REMARK    1  A    between atoms: N1_4  and  C3_6 
REMARK    2  A    between atoms: C6_9  and  C7_10 
REMARK       I    between atoms: C7_10  and  N2_12 
REMARK    3  A    between atoms: N2_12  and  C8_14 
REMARK    4  A    between atoms: C10_16  and  C11_17 
ROOT
HETATM    1  C7  UNL     1      26.084 -15.755  -1.979  1.00  0.00     0.256 C 
HETATM    2  O2  UNL     1      27.173 -15.638  -1.356  1.00  0.00    -0.267 OA
HETATM    3  N2  UNL     1      25.969 -15.219  -3.268  1.00  0.00    -0.321 N 
ATOM      4  H2  UNL     1      25.065 -15.347  -3.723  1.00  0.00     0.169 HD
ENDROOT
BRANCH   3   5
HETATM    5  C8  UNL     1      26.939 -14.525  -4.017  1.00  0.00     0.060 A 
HETATM    6  C9  UNL     1      28.058 -15.132  -4.601  1.00  0.00     0.044 A 
HETATM    7  C10 UNL     1      28.978 -14.408  -5.325  1.00  0.00    -0.017 A 
HETATM    8  C15 UNL     1      28.797 -13.070  -5.477  1.00  0.00     0.015 A 
HETATM    9  C16 UNL     1      27.690 -12.438  -4.905  1.00  0.00     0.030 A 
HETATM   10  C17 UNL     1      26.780 -13.162  -4.189  1.00  0.00     0.073 A 
HETATM   11  N3  UNL     1      25.646 -12.488  -3.608  1.00  0.00    -0.100 NA
BRANCH   7  12
HETATM   12  C11 UNL     1      30.122 -15.123  -5.903  1.00  0.00     0.015 A 
HETATM   13  C12 UNL     1      31.106 -14.613  -6.720  1.00  0.00     0.020 A 
HETATM   14  C13 UNL     1      32.059 -15.455  -7.131  1.00  0.00     0.008 A 
HETATM   15  C14 UNL     1      31.980 -16.757  -6.709  1.00  0.00     0.050 A 
HETATM   16  S1  UNL     1      30.576 -16.763  -5.749  1.00  0.00    -0.101 SA
ENDBRANCH   7  12
ENDBRANCH   3   5
BRANCH   1  17
HETATM   17  C6  UNL     1      24.991 -16.452  -1.314  1.00  0.00     0.032 A 
HETATM   18  C5  UNL     1      23.763 -15.874  -1.207  1.00  0.00     0.019 A 
HETATM   19  C4  UNL     1      22.690 -16.527  -0.578  1.00  0.00     0.030 A 
HETATM   20  C3  UNL     1      22.826 -17.775  -0.041  1.00  0.00     0.034 A 
HETATM   21  C19 UNL     1      24.097 -18.349  -0.163  1.00  0.00     0.030 A 
HETATM   22  C18 UNL     1      25.151 -17.719  -0.776  1.00  0.00     0.019 A 
BRANCH  20  23
HETATM   23  N1  UNL     1      21.821 -18.517   0.620  1.00  0.00    -0.328 N 
HETATM   24  C2  UNL     1      20.791 -19.221  -0.024  1.00  0.00     0.218 C 
HETATM   25  C1  UNL     1      19.813 -19.955   0.852  1.00  0.00     0.117 C 
HETATM   26  O1  UNL     1      20.680 -19.246  -1.257  1.00  0.00    -0.274 OA
ATOM     27  H1  UNL     1      21.845 -18.542   1.639  1.00  0.00     0.169 HD
ENDBRANCH  20  23
ENDBRANCH   1  17
TORSDOF 4
ENDMDL
