MODEL 3
REMARK VINA RESULT: -9.412271043      5.429     11.356
REMARK  4 active torsions:
REMARK  status: ('A' for Active; 'I' for Inactive)
REMARK       I    between atoms: C2_2  and  N1_4 
REMARK    1  A    between atoms: N1_4  and  C3_6 
REMARK    2  A    between atoms: C6_9  and  C7_10 
REMARK       I    between atoms: C7_10  and  N2_12 
REMARK    3  A    between atoms: N2_12  and  C8_14 
REMARK    4  A    between atoms: C10_16  and  C11_17 
ROOT
HETATM    1  C7  UNL     1      25.948 -15.579  -2.137  1.00  0.00     0.256 C 
HETATM    2  O2  UNL     1      26.953 -15.207  -1.474  1.00  0.00    -0.267 OA
HETATM    3  N2  UNL     1      25.867 -15.258  -3.498  1.00  0.00    -0.321 N 
ATOM      4  H2  UNL     1      25.033 -15.589  -3.984  1.00  0.00     0.169 HD
ENDROOT
BRANCH   3   5
HETATM    5  C8  UNL     1      26.789 -14.538  -4.285  1.00  0.00     0.060 A 
HETATM    6  C9  UNL     1      27.947 -15.097  -4.841  1.00  0.00     0.044 A 
HETATM    7  C10 UNL     1      28.816 -14.350  -5.603  1.00  0.00    -0.017 A 
HETATM    8  C15 UNL     1      28.544 -13.036  -5.822  1.00  0.00     0.015 A 
HETATM    9  C16 UNL     1      27.396 -12.453  -5.279  1.00  0.00     0.030 A 
HETATM   10  C17 UNL     1      26.538 -13.200  -4.524  1.00  0.00     0.073 A 
HETATM   11  N3  UNL     1      25.360 -12.576  -3.974  1.00  0.00    -0.100 NA
BRANCH   7  12
HETATM   12  C11 UNL     1      30.005 -15.014  -6.148  1.00  0.00     0.015 A 
HETATM   13  C12 UNL     1      30.244 -16.367  -6.241  1.00  0.00     0.020 A 
HETATM   14  C13 UNL     1      31.408 -16.748  -6.777  1.00  0.00     0.008 A 
HETATM   15  C14 UNL     1      32.268 -15.765  -7.189  1.00  0.00     0.050 A 
HETATM   16  S1  UNL     1      31.425 -14.336  -6.815  1.00  0.00    -0.101 SA
ENDBRANCH   7  12
ENDBRANCH   3   5
BRANCH   1  17
HETATM   17  C6  UNL     1      24.915 -16.333  -1.441  1.00  0.00     0.032 A 
HETATM   18  C5  UNL     1      25.166 -17.589  -0.980  1.00  0.00     0.019 A 
HETATM   19  C4  UNL     1      24.190 -18.336  -0.300  1.00  0.00     0.030 A 
HETATM   20  C3  UNL     1      22.939 -17.838  -0.067  1.00  0.00     0.034 A 
HETATM   21  C19 UNL     1      22.706 -16.546  -0.550  1.00  0.00     0.030 A 
HETATM   22  C18 UNL     1      23.652 -15.809  -1.216  1.00  0.00     0.019 A 
BRANCH  20  23
HETATM   23  N1  UNL     1      21.883 -18.503   0.596  1.00  0.00    -0.328 N 
HETATM   24  C2  UNL     1      20.824 -19.164  -0.046  1.00  0.00     0.218 C 
HETATM   25  C1  UNL     1      19.793 -19.818   0.832  1.00  0.00     0.117 C 
HETATM   26  O1  UNL     1      20.729 -19.215  -1.280  1.00  0.00    -0.274 OA
ATOM     27  H1  UNL     1      21.891 -18.503   1.616  1.00  0.00     0.169 HD
ENDBRANCH  20  23
ENDBRANCH   1  17
TORSDOF 4
ENDMDL
