MODEL 2
REMARK VINA RESULT: -11.249594939      1.047      1.047
REMARK  4 active torsions:
REMARK  status: ('A' for Active; 'I' for Inactive)
REMARK       I    between atoms: C2_2  and  N1_4 
REMARK    1  A    between atoms: N1_4  and  C3_6 
REMARK    2  A    between atoms: C6_9  and  C7_10 
REMARK       I    between atoms: C7_10  and  N2_12 
REMARK    3  A    between atoms: N2_12  and  C8_14 
REMARK    4  A    between atoms: C10_16  and  C11_17 
ROOT
HETATM    1  C7  UNL     1      21.829 -17.977  -0.157  1.00  0.00     0.256 C 
HETATM    2  O2  UNL     1      20.873 -17.431  -0.770  1.00  0.00    -0.267 OA
HETATM    3  N2  UNL     1      21.563 -19.020   0.739  1.00  0.00    -0.321 N 
ATOM      4  H2  UNL     1      22.377 -19.426   1.202  1.00  0.00     0.169 HD
ENDROOT
BRANCH   3   5
HETATM    5  C8  UNL     1      20.318 -19.582   1.084  1.00  0.00     0.060 A 
HETATM    6  C9  UNL     1      19.832 -19.661   2.395  1.00  0.00     0.044 A 
HETATM    7  C10 UNL     1      18.607 -20.220   2.680  1.00  0.00    -0.017 A 
HETATM    8  C15 UNL     1      17.849 -20.710   1.663  1.00  0.00     0.015 A 
HETATM    9  C16 UNL     1      18.310 -20.645   0.345  1.00  0.00     0.030 A 
HETATM   10  C17 UNL     1      19.526 -20.088   0.070  1.00  0.00     0.073 A 
HETATM   11  N3  UNL     1      19.980 -20.033  -1.297  1.00  0.00    -0.100 NA
BRANCH   7  12
HETATM   12  C11 UNL     1      18.173 -20.261   4.081  1.00  0.00     0.015 A 
HETATM   13  C12 UNL     1      18.962 -20.402   5.201  1.00  0.00     0.020 A 
HETATM   14  C13 UNL     1      18.346 -20.414   6.387  1.00  0.00     0.008 A 
HETATM   15  C14 UNL     1      16.982 -20.286   6.394  1.00  0.00     0.050 A 
HETATM   16  S1  UNL     1      16.601 -20.154   4.741  1.00  0.00    -0.101 SA
ENDBRANCH   7  12
ENDBRANCH   3   5
BRANCH   1  17
HETATM   17  C6  UNL     1      23.175 -17.487  -0.421  1.00  0.00     0.032 A 
HETATM   18  C5  UNL     1      23.374 -16.216  -0.866  1.00  0.00     0.019 A 
HETATM   19  C4  UNL     1      24.662 -15.715  -1.121  1.00  0.00     0.030 A 
HETATM   20  C3  UNL     1      25.778 -16.480  -0.937  1.00  0.00     0.034 A 
HETATM   21  C19 UNL     1      25.547 -17.783  -0.481  1.00  0.00     0.030 A 
HETATM   22  C18 UNL     1      24.294 -18.281  -0.228  1.00  0.00     0.019 A 
BRANCH  20  23
HETATM   23  N1  UNL     1      27.114 -16.082  -1.171  1.00  0.00    -0.328 N 
HETATM   24  C2  UNL     1      27.585 -15.521  -2.369  1.00  0.00     0.218 C 
HETATM   25  C1  UNL     1      29.043 -15.158  -2.428  1.00  0.00     0.117 C 
HETATM   26  O1  UNL     1      26.844 -15.327  -3.343  1.00  0.00    -0.274 OA
ATOM     27  H1  UNL     1      27.785 -16.212  -0.415  1.00  0.00     0.169 HD
ENDBRANCH  20  23
ENDBRANCH   1  17
TORSDOF 4
ENDMDL
