MODEL 15
REMARK VINA RESULT: -9.934348498      1.845      2.490
REMARK  8 active torsions:
REMARK  status: ('A' for Active; 'I' for Inactive)
REMARK    1  A    between atoms: N1_7  and  C6_8 
REMARK    2  A    between atoms: C6_8  and  C7_9 
REMARK    3  A    between atoms: N2_11  and  S1_12 
REMARK    4  A    between atoms: S1_12  and  C9_15 
REMARK    5  A    between atoms: N3_22  and  C15_23 
REMARK    6  A    between atoms: C18_26  and  C19_27 
REMARK    7  A    between atoms: C19_27  and  O4_29 
REMARK    8  A    between atoms: C19_27  and  C21_31 
ROOT
HETATM    1  C7  UNL     1      37.158 -24.573  15.882  1.00  0.00     0.131 C 
HETATM    2  C8  UNL     1      37.969 -25.884  15.992  1.00  0.00     0.162 C 
HETATM    3  N2  UNL     1      39.339 -25.659  16.216  1.00  0.00    -0.303 N 
HETATM    4  C13 UNL     1      39.749 -24.632  17.094  1.00  0.00     0.155 C 
HETATM    5  C14 UNL     1      39.160 -23.313  16.599  1.00  0.00     0.144 C 
HETATM    6  N3  UNL     1      37.709 -23.566  16.735  1.00  0.00    -0.371 N 
ENDROOT
BRANCH   6   7
HETATM    7  C15 UNL     1      37.045 -22.778  17.696  1.00  0.00     0.030 A 
HETATM    8  C16 UNL     1      35.857 -22.135  17.402  1.00  0.00     0.030 A 
HETATM    9  C17 UNL     1      35.266 -21.398  18.390  1.00  0.00     0.013 A 
HETATM   10  C18 UNL     1      35.786 -21.254  19.668  1.00  0.00    -0.015 A 
HETATM   11  C22 UNL     1      36.956 -21.890  19.947  1.00  0.00     0.013 A 
HETATM   12  C23 UNL     1      37.583 -22.655  18.952  1.00  0.00     0.030 A 
BRANCH  10  13
HETATM   13  C19 UNL     1      35.082 -20.442  20.675  1.00  0.00     0.179 C 
HETATM   14  C20 UNL     1      36.105 -19.529  21.319  1.00  0.00     0.061 C 
BRANCH  13  15
HETATM   15  O4  UNL     1      34.104 -19.662  20.052  1.00  0.00    -0.376 OA
ATOM     16  H4  UNL     1      33.359 -19.557  20.633  1.00  0.00     0.211 HD
ENDBRANCH  13  15
BRANCH  13  17
HETATM   17  C21 UNL     1      34.403 -21.274  21.735  1.00  0.00     0.422 C 
HETATM   18  F1  UNL     1      35.352 -21.681  22.684  1.00  0.00    -0.167 F 
HETATM   19  F2  UNL     1      33.346 -20.649  22.347  1.00  0.00    -0.167 F 
HETATM   20  F3  UNL     1      33.876 -22.407  21.115  1.00  0.00    -0.167 F 
ENDBRANCH  13  17
ENDBRANCH  10  13
ENDBRANCH   6   7
BRANCH   1  21
HETATM   21  C6  UNL     1      37.220 -24.164  14.459  1.00  0.00     0.299 C 
BRANCH  21  22
HETATM   22  N1  UNL     1      36.060 -23.676  13.831  1.00  0.00     0.099 N 
HETATM   23  C2  UNL     1      36.423 -22.475  13.100  1.00  0.00     0.242 C 
HETATM   24  C1  UNL     1      37.102 -21.442  13.953  1.00  0.00     0.045 C 
HETATM   25  C3  UNL     1      37.297 -22.847  11.935  1.00  0.00     0.203 C 
HETATM   26  O1  UNL     1      37.242 -24.139  11.526  1.00  0.00    -0.387 OA
HETATM   27  C4  UNL     1      35.980 -24.680  11.609  1.00  0.00     0.198 C 
HETATM   28  C5  UNL     1      35.326 -24.499  12.940  1.00  0.00     0.299 C 
ENDBRANCH  21  22
ENDBRANCH   1  21
BRANCH   3  29
HETATM   29  S1  UNL     1      40.485 -26.241  15.151  1.00  0.00     0.267 S 
HETATM   30  O2  UNL     1      41.189 -27.492  15.612  1.00  0.00    -0.200 OA
HETATM   31  O3  UNL     1      41.541 -25.196  14.858  1.00  0.00    -0.200 OA
BRANCH  29  32
HETATM   32  C9  UNL     1      39.758 -26.639  13.588  1.00  0.00     0.120 A 
HETATM   33  C10 UNL     1      40.118 -26.245  12.324  1.00  0.00     0.033 A 
HETATM   34  C11 UNL     1      39.412 -26.733  11.298  1.00  0.00     0.009 A 
HETATM   35  C12 UNL     1      38.377 -27.593  11.577  1.00  0.00     0.051 A 
HETATM   36  S2  UNL     1      38.430 -27.686  13.278  1.00  0.00    -0.088 SA
ENDBRANCH  29  32
ENDBRANCH   3  29
TORSDOF 8
ENDMDL
