MODEL 11
REMARK VINA RESULT: -10.151051602      1.822      3.769
REMARK  8 active torsions:
REMARK  status: ('A' for Active; 'I' for Inactive)
REMARK    1  A    between atoms: N1_7  and  C6_8 
REMARK    2  A    between atoms: C6_8  and  C7_9 
REMARK    3  A    between atoms: N2_11  and  S1_12 
REMARK    4  A    between atoms: S1_12  and  C9_15 
REMARK    5  A    between atoms: N3_22  and  C15_23 
REMARK    6  A    between atoms: C18_26  and  C19_27 
REMARK    7  A    between atoms: C19_27  and  O4_29 
REMARK    8  A    between atoms: C19_27  and  C21_31 
ROOT
HETATM    1  C7  UNL     1      38.555 -23.634  15.987  1.00  0.00     0.131 C 
HETATM    2  C8  UNL     1      38.859 -22.982  14.618  1.00  0.00     0.162 C 
HETATM    3  N2  UNL     1      37.724 -22.895  13.793  1.00  0.00    -0.303 N 
HETATM    4  C13 UNL     1      36.474 -22.549  14.350  1.00  0.00     0.155 C 
HETATM    5  C14 UNL     1      36.142 -23.555  15.451  1.00  0.00     0.144 C 
HETATM    6  N3  UNL     1      37.232 -23.304  16.419  1.00  0.00    -0.371 N 
ENDROOT
BRANCH   6   7
HETATM    7  C15 UNL     1      36.829 -22.766  17.657  1.00  0.00     0.030 A 
HETATM    8  C16 UNL     1      37.644 -22.836  18.772  1.00  0.00     0.030 A 
HETATM    9  C17 UNL     1      37.188 -22.281  19.935  1.00  0.00     0.013 A 
HETATM   10  C18 UNL     1      35.957 -21.654  20.066  1.00  0.00    -0.015 A 
HETATM   11  C22 UNL     1      35.163 -21.591  18.964  1.00  0.00     0.013 A 
HETATM   12  C23 UNL     1      35.606 -22.151  17.756  1.00  0.00     0.030 A 
BRANCH  10  13
HETATM   13  C19 UNL     1      35.545 -21.079  21.358  1.00  0.00     0.179 C 
HETATM   14  C20 UNL     1      34.074 -21.391  21.546  1.00  0.00     0.061 C 
BRANCH  13  15
HETATM   15  O4  UNL     1      36.272 -21.673  22.393  1.00  0.00    -0.376 OA
ATOM     16  H4  UNL     1      35.808 -22.438  22.714  1.00  0.00     0.211 HD
ENDBRANCH  13  15
BRANCH  13  17
HETATM   17  C21 UNL     1      35.763 -19.588  21.437  1.00  0.00     0.422 C 
HETATM   18  F1  UNL     1      36.992 -19.332  22.061  1.00  0.00    -0.167 F 
HETATM   19  F2  UNL     1      35.693 -18.946  20.226  1.00  0.00    -0.167 F 
HETATM   20  F3  UNL     1      34.743 -19.049  22.220  1.00  0.00    -0.167 F 
ENDBRANCH  13  17
ENDBRANCH  10  13
ENDBRANCH   6   7
BRANCH   1  21
HETATM   21  C6  UNL     1      38.707 -25.096  15.794  1.00  0.00     0.299 C 
BRANCH  21  22
HETATM   22  N1  UNL     1      39.730 -25.778  16.476  1.00  0.00     0.099 N 
HETATM   23  C2  UNL     1      39.872 -27.089  15.868  1.00  0.00     0.242 C 
HETATM   24  C1  UNL     1      38.586 -27.864  15.819  1.00  0.00     0.045 C 
HETATM   25  C3  UNL     1      40.442 -26.936  14.485  1.00  0.00     0.203 C 
HETATM   26  O1  UNL     1      41.089 -25.773  14.222  1.00  0.00    -0.387 OA
HETATM   27  C4  UNL     1      41.810 -25.301  15.294  1.00  0.00     0.198 C 
HETATM   28  C5  UNL     1      41.029 -25.219  16.565  1.00  0.00     0.299 C 
ENDBRANCH  21  22
ENDBRANCH   1  21
BRANCH   3  29
HETATM   29  S1  UNL     1      37.703 -23.622  12.291  1.00  0.00     0.267 S 
HETATM   30  O2  UNL     1      38.748 -24.693  12.101  1.00  0.00    -0.200 OA
HETATM   31  O3  UNL     1      37.878 -22.602  11.186  1.00  0.00    -0.200 OA
BRANCH  29  32
HETATM   32  C9  UNL     1      36.146 -24.402  11.983  1.00  0.00     0.120 A 
HETATM   33  C10 UNL     1      35.037 -23.927  11.328  1.00  0.00     0.033 A 
HETATM   34  C11 UNL     1      33.992 -24.752  11.198  1.00  0.00     0.009 A 
HETATM   35  C12 UNL     1      34.097 -26.015  11.730  1.00  0.00     0.051 A 
HETATM   36  S2  UNL     1      35.666 -26.001  12.395  1.00  0.00    -0.088 SA
ENDBRANCH  29  32
ENDBRANCH   3  29
TORSDOF 8
ENDMDL
