MODEL 16
REMARK VINA RESULT: -9.891133370      2.248      3.869
REMARK  8 active torsions:
REMARK  status: ('A' for Active; 'I' for Inactive)
REMARK    1  A    between atoms: N1_7  and  C6_8 
REMARK    2  A    between atoms: C6_8  and  C7_9 
REMARK    3  A    between atoms: N2_11  and  S1_12 
REMARK    4  A    between atoms: S1_12  and  C9_15 
REMARK    5  A    between atoms: N3_22  and  C15_23 
REMARK    6  A    between atoms: C18_26  and  C19_27 
REMARK    7  A    between atoms: C19_27  and  O4_29 
REMARK    8  A    between atoms: C19_27  and  C21_31 
ROOT
HETATM    1  C7  UNL     1      37.922 -23.461  15.337  1.00  0.00     0.131 C 
HETATM    2  C8  UNL     1      37.664 -23.418  13.813  1.00  0.00     0.162 C 
HETATM    3  N2  UNL     1      36.520 -24.142  13.434  1.00  0.00    -0.303 N 
HETATM    4  C13 UNL     1      35.358 -24.090  14.234  1.00  0.00     0.155 C 
HETATM    5  C14 UNL     1      35.723 -24.549  15.644  1.00  0.00     0.144 C 
HETATM    6  N3  UNL     1      36.686 -23.504  16.055  1.00  0.00    -0.371 N 
ENDROOT
BRANCH   6   7
HETATM    7  C15 UNL     1      36.262 -22.675  17.113  1.00  0.00     0.030 A 
HETATM    8  C16 UNL     1      35.291 -21.709  16.923  1.00  0.00     0.030 A 
HETATM    9  C17 UNL     1      34.924 -20.950  18.000  1.00  0.00     0.013 A 
HETATM   10  C18 UNL     1      35.467 -21.089  19.269  1.00  0.00    -0.015 A 
HETATM   11  C22 UNL     1      36.423 -22.041  19.444  1.00  0.00     0.013 A 
HETATM   12  C23 UNL     1      36.818 -22.835  18.356  1.00  0.00     0.030 A 
BRANCH  10  13
HETATM   13  C19 UNL     1      35.011 -20.230  20.376  1.00  0.00     0.179 C 
HETATM   14  C20 UNL     1      36.230 -19.526  20.936  1.00  0.00     0.061 C 
BRANCH  13  15
HETATM   15  O4  UNL     1      34.115 -19.274  19.892  1.00  0.00    -0.376 OA
ATOM     16  H4  UNL     1      33.771 -19.552  19.050  1.00  0.00     0.211 HD
ENDBRANCH  13  15
BRANCH  13  17
HETATM   17  C21 UNL     1      34.318 -21.000  21.473  1.00  0.00     0.422 C 
HETATM   18  F1  UNL     1      33.395 -21.889  20.904  1.00  0.00    -0.167 F 
HETATM   19  F2  UNL     1      35.172 -21.665  22.317  1.00  0.00    -0.167 F 
HETATM   20  F3  UNL     1      33.627 -20.084  22.265  1.00  0.00    -0.167 F 
ENDBRANCH  13  17
ENDBRANCH  10  13
ENDBRANCH   6   7
BRANCH   1  21
HETATM   21  C6  UNL     1      38.731 -24.677  15.588  1.00  0.00     0.299 C 
BRANCH  21  22
HETATM   22  N1  UNL     1      40.011 -24.783  15.014  1.00  0.00     0.099 N 
HETATM   23  C2  UNL     1      40.902 -25.342  16.015  1.00  0.00     0.242 C 
HETATM   24  C1  UNL     1      40.903 -24.572  17.305  1.00  0.00     0.045 C 
HETATM   25  C3  UNL     1      40.532 -26.777  16.264  1.00  0.00     0.203 C 
HETATM   26  O1  UNL     1      39.804 -27.391  15.298  1.00  0.00    -0.387 OA
HETATM   27  C4  UNL     1      40.162 -27.009  14.026  1.00  0.00     0.198 C 
HETATM   28  C5  UNL     1      40.203 -25.529  13.824  1.00  0.00     0.299 C 
ENDBRANCH  21  22
ENDBRANCH   1  21
BRANCH   3  29
HETATM   29  S1  UNL     1      36.630 -25.403  12.346  1.00  0.00     0.267 S 
HETATM   30  O2  UNL     1      36.901 -26.748  12.974  1.00  0.00    -0.200 OA
HETATM   31  O3  UNL     1      37.710 -25.147  11.317  1.00  0.00    -0.200 OA
BRANCH  29  32
HETATM   32  C9  UNL     1      35.127 -25.588  11.431  1.00  0.00     0.120 A 
HETATM   33  C10 UNL     1      34.446 -24.676  10.665  1.00  0.00     0.033 A 
HETATM   34  C11 UNL     1      33.341 -25.095  10.038  1.00  0.00     0.009 A 
HETATM   35  C12 UNL     1      32.963 -26.405  10.204  1.00  0.00     0.051 A 
HETATM   36  S2  UNL     1      34.176 -27.007  11.238  1.00  0.00    -0.088 SA
ENDBRANCH  29  32
ENDBRANCH   3  29
TORSDOF 8
ENDMDL
