MODEL 13
REMARK VINA RESULT: -10.030047017      1.844      3.968
REMARK  8 active torsions:
REMARK  status: ('A' for Active; 'I' for Inactive)
REMARK    1  A    between atoms: N1_7  and  C6_8 
REMARK    2  A    between atoms: C6_8  and  C7_9 
REMARK    3  A    between atoms: N2_11  and  S1_12 
REMARK    4  A    between atoms: S1_12  and  C9_15 
REMARK    5  A    between atoms: N3_22  and  C15_23 
REMARK    6  A    between atoms: C18_26  and  C19_27 
REMARK    7  A    between atoms: C19_27  and  O4_29 
REMARK    8  A    between atoms: C19_27  and  C21_31 
ROOT
HETATM    1  C7  UNL     1      38.442 -23.456  15.057  1.00  0.00     0.131 C 
HETATM    2  C8  UNL     1      38.572 -22.510  13.841  1.00  0.00     0.162 C 
HETATM    3  N2  UNL     1      37.335 -21.994  13.418  1.00  0.00    -0.303 N 
HETATM    4  C13 UNL     1      36.373 -21.602  14.374  1.00  0.00     0.155 C 
HETATM    5  C14 UNL     1      36.067 -22.801  15.270  1.00  0.00     0.144 C 
HETATM    6  N3  UNL     1      37.379 -23.031  15.914  1.00  0.00    -0.371 N 
ENDROOT
BRANCH   6   7
HETATM    7  C15 UNL     1      37.418 -22.800  17.303  1.00  0.00     0.030 A 
HETATM    8  C16 UNL     1      38.595 -22.923  18.019  1.00  0.00     0.030 A 
HETATM    9  C17 UNL     1      38.556 -22.672  19.363  1.00  0.00     0.013 A 
HETATM   10  C18 UNL     1      37.409 -22.303  20.051  1.00  0.00    -0.015 A 
HETATM   11  C22 UNL     1      36.257 -22.187  19.337  1.00  0.00     0.013 A 
HETATM   12  C23 UNL     1      36.268 -22.437  17.957  1.00  0.00     0.030 A 
BRANCH  10  13
HETATM   13  C19 UNL     1      37.457 -22.048  21.501  1.00  0.00     0.179 C 
HETATM   14  C20 UNL     1      36.028 -21.970  21.996  1.00  0.00     0.061 C 
BRANCH  13  15
HETATM   15  O4  UNL     1      38.105 -23.106  22.145  1.00  0.00    -0.376 OA
ATOM     16  H4  UNL     1      39.046 -22.998  22.072  1.00  0.00     0.211 HD
ENDBRANCH  13  15
BRANCH  13  17
HETATM   17  C21 UNL     1      38.188 -20.776  21.853  1.00  0.00     0.422 C 
HETATM   18  F1  UNL     1      39.034 -21.014  22.945  1.00  0.00    -0.167 F 
HETATM   19  F2  UNL     1      38.891 -20.226  20.809  1.00  0.00    -0.167 F 
HETATM   20  F3  UNL     1      37.237 -19.826  22.222  1.00  0.00    -0.167 F 
ENDBRANCH  13  17
ENDBRANCH  10  13
ENDBRANCH   6   7
BRANCH   1  21
HETATM   21  C6  UNL     1      38.179 -24.807  14.507  1.00  0.00     0.299 C 
BRANCH  21  22
HETATM   22  N1  UNL     1      38.619 -25.938  15.218  1.00  0.00     0.099 N 
HETATM   23  C2  UNL     1      38.942 -26.972  14.251  1.00  0.00     0.242 C 
HETATM   24  C1  UNL     1      37.814 -27.279  13.309  1.00  0.00     0.045 C 
HETATM   25  C3  UNL     1      40.169 -26.569  13.483  1.00  0.00     0.203 C 
HETATM   26  O1  UNL     1      40.960 -25.626  14.056  1.00  0.00    -0.387 OA
HETATM   27  C4  UNL     1      41.042 -25.748  15.424  1.00  0.00     0.198 C 
HETATM   28  C5  UNL     1      39.718 -25.843  16.108  1.00  0.00     0.299 C 
ENDBRANCH  21  22
ENDBRANCH   1  21
BRANCH   3  29
HETATM   29  S1  UNL     1      36.787 -22.253  11.863  1.00  0.00     0.267 S 
HETATM   30  O2  UNL     1      37.866 -22.225  10.809  1.00  0.00    -0.200 OA
HETATM   31  O3  UNL     1      35.734 -21.236  11.476  1.00  0.00    -0.200 OA
BRANCH  29  32
HETATM   32  C9  UNL     1      36.006 -23.833  11.717  1.00  0.00     0.120 A 
HETATM   33  C10 UNL     1      35.051 -24.420  12.510  1.00  0.00     0.033 A 
HETATM   34  C11 UNL     1      34.596 -25.623  12.145  1.00  0.00     0.009 A 
HETATM   35  C12 UNL     1      35.115 -26.191  11.006  1.00  0.00     0.051 A 
HETATM   36  S2  UNL     1      36.227 -25.011  10.485  1.00  0.00    -0.088 SA
ENDBRANCH  29  32
ENDBRANCH   3  29
TORSDOF 8
ENDMDL
