MODEL 7
REMARK VINA RESULT: -10.343267226      2.046      2.845
REMARK  8 active torsions:
REMARK  status: ('A' for Active; 'I' for Inactive)
REMARK    1  A    between atoms: N1_7  and  C6_8 
REMARK    2  A    between atoms: C6_8  and  C7_9 
REMARK    3  A    between atoms: N2_11  and  S1_12 
REMARK    4  A    between atoms: S1_12  and  C9_15 
REMARK    5  A    between atoms: N3_22  and  C15_23 
REMARK    6  A    between atoms: C18_26  and  C19_27 
REMARK    7  A    between atoms: C19_27  and  O4_29 
REMARK    8  A    between atoms: C19_27  and  C21_31 
ROOT
HETATM    1  C7  UNL     1      36.509 -23.086  15.125  1.00  0.00     0.131 C 
HETATM    2  C8  UNL     1      36.496 -24.540  14.600  1.00  0.00     0.162 C 
HETATM    3  N2  UNL     1      37.607 -25.284  15.034  1.00  0.00    -0.303 N 
HETATM    4  C13 UNL     1      38.082 -25.135  16.355  1.00  0.00     0.155 C 
HETATM    5  C14 UNL     1      38.423 -23.663  16.580  1.00  0.00     0.144 C 
HETATM    6  N3  UNL     1      37.096 -23.026  16.428  1.00  0.00    -0.371 N 
ENDROOT
BRANCH   6   7
HETATM    7  C15 UNL     1      36.572 -22.434  17.594  1.00  0.00     0.030 A 
HETATM    8  C16 UNL     1      37.174 -22.617  18.826  1.00  0.00     0.030 A 
HETATM    9  C17 UNL     1      36.614 -22.002  19.910  1.00  0.00     0.013 A 
HETATM   10  C18 UNL     1      35.478 -21.206  19.851  1.00  0.00    -0.015 A 
HETATM   11  C22 UNL     1      34.894 -21.033  18.635  1.00  0.00     0.013 A 
HETATM   12  C23 UNL     1      35.449 -21.652  17.505  1.00  0.00     0.030 A 
BRANCH  10  13
HETATM   13  C19 UNL     1      34.942 -20.577  21.070  1.00  0.00     0.179 C 
HETATM   14  C20 UNL     1      36.121 -20.082  21.882  1.00  0.00     0.061 C 
BRANCH  13  15
HETATM   15  O4  UNL     1      34.138 -19.487  20.724  1.00  0.00    -0.376 OA
ATOM     16  H4  UNL     1      33.347 -19.491  21.250  1.00  0.00     0.211 HD
ENDBRANCH  13  15
BRANCH  13  17
HETATM   17  C21 UNL     1      34.109 -21.519  21.903  1.00  0.00     0.422 C 
HETATM   18  F1  UNL     1      33.068 -20.803  22.512  1.00  0.00    -0.167 F 
HETATM   19  F2  UNL     1      33.613 -22.594  21.208  1.00  0.00    -0.167 F 
HETATM   20  F3  UNL     1      34.930 -22.048  22.898  1.00  0.00    -0.167 F 
ENDBRANCH  13  17
ENDBRANCH  10  13
ENDBRANCH   6   7
BRANCH   1  21
HETATM   21  C6  UNL     1      37.293 -22.296  14.146  1.00  0.00     0.299 C 
BRANCH  21  22
HETATM   22  N1  UNL     1      37.034 -22.450  12.772  1.00  0.00     0.099 N 
HETATM   23  C2  UNL     1      36.100 -21.409  12.379  1.00  0.00     0.242 C 
HETATM   24  C1  UNL     1      34.850 -21.387  13.209  1.00  0.00     0.045 C 
HETATM   25  C3  UNL     1      36.790 -20.075  12.437  1.00  0.00     0.203 C 
HETATM   26  O1  UNL     1      38.147 -20.093  12.409  1.00  0.00    -0.387 OA
HETATM   27  C4  UNL     1      38.658 -21.069  11.586  1.00  0.00     0.198 C 
HETATM   28  C5  UNL     1      38.097 -22.431  11.835  1.00  0.00     0.299 C 
ENDBRANCH  21  22
ENDBRANCH   1  21
BRANCH   3  29
HETATM   29  S1  UNL     1      38.652 -25.979  13.933  1.00  0.00     0.267 S 
HETATM   30  O2  UNL     1      39.741 -25.059  13.440  1.00  0.00    -0.200 OA
HETATM   31  O3  UNL     1      37.906 -26.503  12.724  1.00  0.00    -0.200 OA
BRANCH  29  32
HETATM   32  C9  UNL     1      39.477 -27.379  14.632  1.00  0.00     0.120 A 
HETATM   33  C10 UNL     1      40.681 -27.455  15.286  1.00  0.00     0.033 A 
HETATM   34  C11 UNL     1      41.056 -28.649  15.758  1.00  0.00     0.009 A 
HETATM   35  C12 UNL     1      40.214 -29.716  15.555  1.00  0.00     0.051 A 
HETATM   36  S2  UNL     1      38.920 -29.004  14.707  1.00  0.00    -0.088 SA
ENDBRANCH  29  32
ENDBRANCH   3  29
TORSDOF 8
ENDMDL
