MODEL 3
REMARK VINA RESULT: -10.988544568      1.903      2.536
REMARK  8 active torsions:
REMARK  status: ('A' for Active; 'I' for Inactive)
REMARK    1  A    between atoms: N1_7  and  C6_8 
REMARK    2  A    between atoms: C6_8  and  C7_9 
REMARK    3  A    between atoms: N2_11  and  S1_12 
REMARK    4  A    between atoms: S1_12  and  C9_15 
REMARK    5  A    between atoms: N3_22  and  C15_23 
REMARK    6  A    between atoms: C18_26  and  C19_27 
REMARK    7  A    between atoms: C19_27  and  O4_29 
REMARK    8  A    between atoms: C19_27  and  C21_31 
ROOT
HETATM    1  C7  UNL     1      36.619 -22.852  15.045  1.00  0.00     0.131 C 
HETATM    2  C8  UNL     1      36.519 -24.264  14.423  1.00  0.00     0.162 C 
HETATM    3  N2  UNL     1      37.543 -25.124  14.857  1.00  0.00    -0.303 N 
HETATM    4  C13 UNL     1      37.959 -25.098  16.206  1.00  0.00     0.155 C 
HETATM    5  C14 UNL     1      38.403 -23.677  16.546  1.00  0.00     0.144 C 
HETATM    6  N3  UNL     1      37.141 -22.923  16.375  1.00  0.00    -0.371 N 
ENDROOT
BRANCH   6   7
HETATM    7  C15 UNL     1      36.606 -22.366  17.552  1.00  0.00     0.030 A 
HETATM    8  C16 UNL     1      37.206 -22.569  18.782  1.00  0.00     0.030 A 
HETATM    9  C17 UNL     1      36.634 -21.986  19.878  1.00  0.00     0.013 A 
HETATM   10  C18 UNL     1      35.488 -21.204  19.833  1.00  0.00    -0.015 A 
HETATM   11  C22 UNL     1      34.906 -21.011  18.619  1.00  0.00     0.013 A 
HETATM   12  C23 UNL     1      35.472 -21.597  17.477  1.00  0.00     0.030 A 
BRANCH  10  13
HETATM   13  C19 UNL     1      34.940 -20.610  21.064  1.00  0.00     0.179 C 
HETATM   14  C20 UNL     1      36.109 -20.112  21.888  1.00  0.00     0.061 C 
BRANCH  13  15
HETATM   15  O4  UNL     1      34.118 -19.527  20.740  1.00  0.00    -0.376 OA
ATOM     16  H4  UNL     1      33.480 -19.793  20.087  1.00  0.00     0.211 HD
ENDBRANCH  13  15
BRANCH  13  17
HETATM   17  C21 UNL     1      34.123 -21.584  21.876  1.00  0.00     0.422 C 
HETATM   18  F1  UNL     1      33.048 -20.906  22.469  1.00  0.00    -0.167 F 
HETATM   19  F2  UNL     1      33.674 -22.670  21.165  1.00  0.00    -0.167 F 
HETATM   20  F3  UNL     1      34.942 -22.092  22.883  1.00  0.00    -0.167 F 
ENDBRANCH  13  17
ENDBRANCH  10  13
ENDBRANCH   6   7
BRANCH   1  21
HETATM   21  C6  UNL     1      37.514 -22.070  14.159  1.00  0.00     0.299 C 
BRANCH  21  22
HETATM   22  N1  UNL     1      36.973 -21.035  13.375  1.00  0.00     0.099 N 
HETATM   23  C2  UNL     1      38.024 -20.547  12.499  1.00  0.00     0.242 C 
HETATM   24  C1  UNL     1      39.267 -20.134  13.233  1.00  0.00     0.045 C 
HETATM   25  C3  UNL     1      38.347 -21.600  11.476  1.00  0.00     0.203 C 
HETATM   26  O1  UNL     1      37.402 -22.552  11.267  1.00  0.00    -0.387 OA
HETATM   27  C4  UNL     1      36.119 -22.063  11.334  1.00  0.00     0.198 C 
HETATM   28  C5  UNL     1      35.833 -21.268  12.567  1.00  0.00     0.299 C 
ENDBRANCH  21  22
ENDBRANCH   1  21
BRANCH   3  29
HETATM   29  S1  UNL     1      38.586 -25.831  13.762  1.00  0.00     0.267 S 
HETATM   30  O2  UNL     1      39.620 -24.894  13.190  1.00  0.00    -0.200 OA
HETATM   31  O3  UNL     1      37.829 -26.448  12.605  1.00  0.00    -0.200 OA
BRANCH  29  32
HETATM   32  C9  UNL     1      39.488 -27.158  14.506  1.00  0.00     0.120 A 
HETATM   33  C10 UNL     1      40.722 -27.154  15.109  1.00  0.00     0.033 A 
HETATM   34  C11 UNL     1      41.158 -28.304  15.634  1.00  0.00     0.009 A 
HETATM   35  C12 UNL     1      40.347 -29.409  15.534  1.00  0.00     0.051 A 
HETATM   36  S2  UNL     1      38.993 -28.792  14.703  1.00  0.00    -0.088 SA
ENDBRANCH  29  32
ENDBRANCH   3  29
TORSDOF 8
ENDMDL
