MODEL 7
REMARK VINA RESULT: -6.941370923      3.395      5.302
REMARK  9 active torsions:
REMARK  status: ('A' for Active; 'I' for Inactive)
REMARK    1  A    between atoms: C2_2  and  C3_3 
REMARK    2  A    between atoms: C4_4  and  C5_5 
REMARK       I    between atoms: C5_5  and  N1_7 
REMARK    3  A    between atoms: N1_7  and  C6_9 
REMARK    4  A    between atoms: C8_11  and  S1_12 
REMARK    5  A    between atoms: S1_12  and  N2_15 
REMARK    6  A    between atoms: N2_15  and  C9_16 
REMARK    7  A    between atoms: N2_15  and  C11_18 
REMARK    8  A    between atoms: C15_22  and  O4_23 
REMARK    9  A    between atoms: C18_29  and  C19_30 
ROOT
HETATM    1  C6  UNL     1       5.064   7.219  22.112  1.00  0.00     0.070 A 
HETATM    2  C7  UNL     1       4.637   5.947  21.887  1.00  0.00     0.057 A 
HETATM    3  C8  UNL     1       4.366   5.523  20.586  1.00  0.00     0.077 A 
HETATM    4  C13 UNL     1       4.522   6.373  19.514  1.00  0.00     0.028 A 
HETATM    5  C14 UNL     1       4.951   7.657  19.722  1.00  0.00     0.040 A 
HETATM    6  C15 UNL     1       5.217   8.069  21.007  1.00  0.00     0.092 A 
ENDROOT
BRANCH   1   7
HETATM    7  N1  UNL     1       5.374   7.779  23.374  1.00  0.00    -0.319 N 
HETATM    8  C5  UNL     1       4.481   8.346  24.301  1.00  0.00     0.273 C 
HETATM    9  O1  UNL     1       3.269   8.386  24.039  1.00  0.00    -0.266 OA
ATOM     10  H1  UNL     1       6.358   7.771  23.643  1.00  0.00     0.169 HD
BRANCH   8  11
HETATM   11  C4  UNL     1       4.943   8.902  25.594  1.00  0.00     0.108 A 
HETATM   12  C3  UNL     1       5.237  10.216  25.871  1.00  0.00    -0.010 A 
HETATM   13  C18 UNL     1       5.635  10.293  27.204  1.00  0.00     0.040 A 
HETATM   14  C16 UNL     1       5.576   9.017  27.722  1.00  0.00     0.020 A 
HETATM   15  N3  UNL     1       5.161   8.223  26.734  1.00  0.00    -0.354 N 
HETATM   16  C17 UNL     1       5.922   8.627  29.137  1.00  0.00     0.069 C 
ATOM     17  H3  UNL     1       5.026   7.217  26.831  1.00  0.00     0.166 HD
BRANCH  12  18
HETATM   18  C2  UNL     1       5.155  11.370  24.942  1.00  0.00     0.037 C 
HETATM   19  C1  UNL     1       3.747  11.922  24.973  1.00  0.00     0.010 C 
ENDBRANCH  12  18
BRANCH  13  20
HETATM   20  C19 UNL     1       6.041  11.479  27.939  1.00  0.00     0.158 C 
HETATM   21  C20 UNL     1       5.116  12.518  28.439  1.00  0.00     0.097 C 
HETATM   22  O5  UNL     1       7.287  11.624  28.165  1.00  0.00    -0.293 OA
ENDBRANCH  13  20
ENDBRANCH   8  11
ENDBRANCH   1   7
BRANCH   6  23
HETATM   23  O4  UNL     1       5.647   9.364  21.201  1.00  0.00    -0.358 OA
ATOM     24  H4  UNL     1       5.983   9.862  20.465  1.00  0.00     0.217 HD
ENDBRANCH   6  23
BRANCH   3  25
HETATM   25  S1  UNL     1       3.817   3.892  20.280  1.00  0.00     0.243 S 
HETATM   26  O2  UNL     1       4.898   2.912  20.549  1.00  0.00    -0.206 OA
HETATM   27  O3  UNL     1       3.430   3.769  18.814  1.00  0.00    -0.206 OA
BRANCH  25  28
HETATM   28  N2  UNL     1       2.382   3.521  21.181  1.00  0.00    -0.207 NA
BRANCH  28  29
HETATM   29  C9  UNL     1       1.356   2.968  20.358  1.00  0.00     0.103 C 
HETATM   30  C10 UNL     1       0.249   3.966  20.041  1.00  0.00     0.021 C 
ENDBRANCH  28  29
BRANCH  28  31
HETATM   31  C11 UNL     1       2.718   2.725  22.319  1.00  0.00     0.103 C 
HETATM   32  C12 UNL     1       2.427   3.576  23.562  1.00  0.00     0.021 C 
ENDBRANCH  28  31
ENDBRANCH  25  28
ENDBRANCH   3  25
TORSDOF 9
ENDMDL
