MODEL 16
REMARK VINA RESULT: -6.694370547      3.392      5.216
REMARK  9 active torsions:
REMARK  status: ('A' for Active; 'I' for Inactive)
REMARK    1  A    between atoms: C2_2  and  C3_3 
REMARK    2  A    between atoms: C4_4  and  C5_5 
REMARK       I    between atoms: C5_5  and  N1_7 
REMARK    3  A    between atoms: N1_7  and  C6_9 
REMARK    4  A    between atoms: C8_11  and  S1_12 
REMARK    5  A    between atoms: S1_12  and  N2_15 
REMARK    6  A    between atoms: N2_15  and  C9_16 
REMARK    7  A    between atoms: N2_15  and  C11_18 
REMARK    8  A    between atoms: C15_22  and  O4_23 
REMARK    9  A    between atoms: C18_29  and  C19_30 
ROOT
HETATM    1  C6  UNL     1       4.990   7.005  22.390  1.00  0.00     0.070 A 
HETATM    2  C7  UNL     1       4.588   5.712  22.261  1.00  0.00     0.057 A 
HETATM    3  C8  UNL     1       4.321   5.189  20.996  1.00  0.00     0.077 A 
HETATM    4  C13 UNL     1       4.457   5.961  19.863  1.00  0.00     0.028 A 
HETATM    5  C14 UNL     1       4.860   7.265  19.975  1.00  0.00     0.040 A 
HETATM    6  C15 UNL     1       5.122   7.776  21.225  1.00  0.00     0.092 A 
ENDROOT
BRANCH   1   7
HETATM    7  N1  UNL     1       5.293   7.663  23.606  1.00  0.00    -0.319 N 
HETATM    8  C5  UNL     1       4.389   8.248  24.510  1.00  0.00     0.273 C 
HETATM    9  O1  UNL     1       3.173   8.214  24.270  1.00  0.00    -0.266 OA
ATOM     10  H1  UNL     1       6.280   7.719  23.855  1.00  0.00     0.169 HD
BRANCH   8  11
HETATM   11  C4  UNL     1       4.844   8.910  25.754  1.00  0.00     0.108 A 
HETATM   12  C3  UNL     1       5.217  10.225  25.903  1.00  0.00    -0.010 A 
HETATM   13  C18 UNL     1       5.575  10.420  27.235  1.00  0.00     0.040 A 
HETATM   14  C16 UNL     1       5.413   9.214  27.882  1.00  0.00     0.020 A 
HETATM   15  N3  UNL     1       4.979   8.346  26.967  1.00  0.00    -0.354 N 
HETATM   16  C17 UNL     1       5.685   8.959  29.343  1.00  0.00     0.069 C 
ATOM     17  H3  UNL     1       4.772   7.367  27.165  1.00  0.00     0.166 HD
BRANCH  12  18
HETATM   18  C2  UNL     1       5.245  11.274  24.854  1.00  0.00     0.037 C 
HETATM   19  C1  UNL     1       3.866  11.885  24.739  1.00  0.00     0.010 C 
ENDBRANCH  12  18
BRANCH  13  20
HETATM   20  C19 UNL     1       6.036  11.651  27.856  1.00  0.00     0.158 C 
HETATM   21  C20 UNL     1       5.184  12.829  28.127  1.00  0.00     0.097 C 
HETATM   22  O5  UNL     1       7.265  11.709  28.188  1.00  0.00    -0.293 OA
ENDBRANCH  13  20
ENDBRANCH   8  11
ENDBRANCH   1   7
BRANCH   6  23
HETATM   23  O4  UNL     1       5.526   9.090  21.321  1.00  0.00    -0.358 OA
ATOM     24  H4  UNL     1       5.337   9.691  20.611  1.00  0.00     0.217 HD
ENDBRANCH   6  23
BRANCH   3  25
HETATM   25  S1  UNL     1       3.804   3.529  20.812  1.00  0.00     0.243 S 
HETATM   26  O2  UNL     1       3.426   2.946  22.123  1.00  0.00    -0.206 OA
HETATM   27  O3  UNL     1       4.959   2.712  20.252  1.00  0.00    -0.206 OA
BRANCH  25  28
HETATM   28  N2  UNL     1       2.518   3.385  19.657  1.00  0.00    -0.207 NA
BRANCH  28  29
HETATM   29  C9  UNL     1       2.745   2.328  18.726  1.00  0.00     0.103 C 
HETATM   30  C10 UNL     1       2.107   1.012  19.155  1.00  0.00     0.021 C 
ENDBRANCH  28  29
BRANCH  28  31
HETATM   31  C11 UNL     1       1.263   3.312  20.336  1.00  0.00     0.103 C 
HETATM   32  C12 UNL     1       0.283   4.200  19.559  1.00  0.00     0.021 C 
ENDBRANCH  28  31
ENDBRANCH  25  28
ENDBRANCH   3  25
TORSDOF 9
ENDMDL
