MODEL 12
REMARK VINA RESULT: -6.753882119      3.221      5.021
REMARK  9 active torsions:
REMARK  status: ('A' for Active; 'I' for Inactive)
REMARK    1  A    between atoms: C2_2  and  C3_3 
REMARK    2  A    between atoms: C4_4  and  C5_5 
REMARK       I    between atoms: C5_5  and  N1_7 
REMARK    3  A    between atoms: N1_7  and  C6_9 
REMARK    4  A    between atoms: C8_11  and  S1_12 
REMARK    5  A    between atoms: S1_12  and  N2_15 
REMARK    6  A    between atoms: N2_15  and  C9_16 
REMARK    7  A    between atoms: N2_15  and  C11_18 
REMARK    8  A    between atoms: C15_22  and  O4_23 
REMARK    9  A    between atoms: C18_29  and  C19_30 
ROOT
HETATM    1  C6  UNL     1       4.865   7.237  21.843  1.00  0.00     0.070 A 
HETATM    2  C7  UNL     1       4.573   5.912  21.928  1.00  0.00     0.057 A 
HETATM    3  C8  UNL     1       4.315   5.179  20.770  1.00  0.00     0.077 A 
HETATM    4  C13 UNL     1       4.350   5.775  19.529  1.00  0.00     0.028 A 
HETATM    5  C14 UNL     1       4.643   7.109  19.424  1.00  0.00     0.040 A 
HETATM    6  C15 UNL     1       4.896   7.826  20.571  1.00  0.00     0.092 A 
ENDROOT
BRANCH   1   7
HETATM    7  N1  UNL     1       5.146   8.097  22.932  1.00  0.00    -0.319 N 
HETATM    8  C5  UNL     1       4.225   8.684  23.818  1.00  0.00     0.273 C 
HETATM    9  O1  UNL     1       3.013   8.458  23.681  1.00  0.00    -0.266 OA
ATOM     10  H1  UNL     1       6.129   8.317  23.092  1.00  0.00     0.169 HD
BRANCH   8  11
HETATM   11  C4  UNL     1       4.658   9.572  24.921  1.00  0.00     0.108 A 
HETATM   12  C3  UNL     1       5.279   9.198  26.089  1.00  0.00    -0.010 A 
HETATM   13  C18 UNL     1       5.503  10.349  26.842  1.00  0.00     0.040 A 
HETATM   14  C16 UNL     1       5.013  11.413  26.116  1.00  0.00     0.020 A 
HETATM   15  N3  UNL     1       4.521  10.908  24.984  1.00  0.00    -0.354 N 
HETATM   16  C17 UNL     1       5.043  12.858  26.547  1.00  0.00     0.069 C 
ATOM     17  H3  UNL     1       4.090  11.470  24.250  1.00  0.00     0.166 HD
BRANCH  12  18
HETATM   18  C2  UNL     1       5.657   7.825  26.506  1.00  0.00     0.037 C 
HETATM   19  C1  UNL     1       7.114   7.598  26.171  1.00  0.00     0.010 C 
ENDBRANCH  12  18
BRANCH  13  20
HETATM   20  C19 UNL     1       6.133  10.443  28.149  1.00  0.00     0.158 C 
HETATM   21  C20 UNL     1       5.551   9.920  29.403  1.00  0.00     0.097 C 
HETATM   22  O5  UNL     1       7.268  11.018  28.206  1.00  0.00    -0.293 OA
ENDBRANCH  13  20
ENDBRANCH   8  11
ENDBRANCH   1   7
BRANCH   6  23
HETATM   23  O4  UNL     1       5.188   9.168  20.450  1.00  0.00    -0.358 OA
ATOM     24  H4  UNL     1       4.568   9.746  20.022  1.00  0.00     0.217 HD
ENDBRANCH   6  23
BRANCH   3  25
HETATM   25  S1  UNL     1       3.937   3.475  20.862  1.00  0.00     0.243 S 
HETATM   26  O2  UNL     1       3.482   3.108  22.226  1.00  0.00    -0.206 OA
HETATM   27  O3  UNL     1       5.194   2.674  20.558  1.00  0.00    -0.206 OA
BRANCH  25  28
HETATM   28  N2  UNL     1       2.778   3.012  19.658  1.00  0.00    -0.207 NA
BRANCH  28  29
HETATM   29  C9  UNL     1       3.088   1.751  19.067  1.00  0.00     0.103 C 
HETATM   30  C10 UNL     1       2.265   1.463  17.817  1.00  0.00     0.021 C 
ENDBRANCH  28  29
BRANCH  28  31
HETATM   31  C11 UNL     1       1.458   3.100  20.198  1.00  0.00     0.103 C 
HETATM   32  C12 UNL     1       0.792   4.323  19.552  1.00  0.00     0.021 C 
ENDBRANCH  28  31
ENDBRANCH  25  28
ENDBRANCH   3  25
TORSDOF 9
ENDMDL
