MODEL 4
REMARK VINA RESULT: -6.470503335      2.662      5.971
REMARK  5 active torsions:
REMARK  status: ('A' for Active; 'I' for Inactive)
REMARK    1  A    between atoms: O1_2  and  C2_3 
REMARK    2  A    between atoms: C6_7  and  O2_8 
REMARK    3  A    between atoms: C8_10  and  O3_11 
REMARK    4  A    between atoms: C13_16  and  O4_17 
REMARK    5  A    between atoms: C18_23  and  N1_24 
REMARK       I    between atoms: N1_24  and  C19_26 
ROOT
HETATM    1  C2  UNL     1     -11.686   5.541   0.641  1.00  0.00     0.104 A 
HETATM    2  C3  UNL     1     -12.887   5.656  -0.012  1.00  0.00     0.047 A 
HETATM    3  C4  UNL     1     -13.106   6.664  -0.917  1.00  0.00    -0.041 A 
HETATM    4  C5  UNL     1     -12.051   7.564  -1.137  1.00  0.00     0.017 A 
HETATM    5  C6  UNL     1     -10.847   7.467  -0.505  1.00  0.00     0.116 A 
HETATM    6  C8  UNL     1     -10.661   6.446   0.396  1.00  0.00     0.136 A 
HETATM    7  C10 UNL     1     -12.088   8.751  -1.970  1.00  0.00    -0.014 C 
HETATM    8  C11 UNL     1     -11.329   9.638  -1.247  1.00  0.00     0.016 C 
HETATM    9  C12 UNL     1     -10.722  10.744  -1.787  1.00  0.00     0.042 C 
HETATM   10  C13 UNL     1     -10.793  11.233  -3.100  1.00  0.00     0.118 C 
HETATM   11  C15 UNL     1     -11.635  10.839  -4.133  1.00  0.00     0.205 C 
HETATM   12  O5  UNL     1     -11.597  11.516  -5.183  1.00  0.00    -0.285 OA
HETATM   13  C16 UNL     1     -12.540   9.764  -4.160  1.00  0.00     0.068 C 
HETATM   14  C17 UNL     1     -12.792   8.872  -3.164  1.00  0.00    -0.020 C 
HETATM   15  C18 UNL     1     -13.996   8.085  -3.602  1.00  0.00     0.119 C 
HETATM   16  C21 UNL     1     -14.837   7.781  -2.368  1.00  0.00     0.034 C 
HETATM   17  C22 UNL     1     -14.423   6.617  -1.571  1.00  0.00     0.042 C 
ENDROOT
BRANCH  15  18
HETATM   18  N1  UNL     1     -13.665   6.946  -4.381  1.00  0.00    -0.353 N 
HETATM   19  C19 UNL     1     -14.140   6.775  -5.716  1.00  0.00     0.214 C 
HETATM   20  C20 UNL     1     -13.822   5.617  -6.556  1.00  0.00     0.117 C 
HETATM   21  O6  UNL     1     -14.875   7.681  -6.189  1.00  0.00    -0.274 OA
ATOM     22  H1  UNL     1     -13.068   6.226  -3.974  1.00  0.00     0.163 HD
ENDBRANCH  15  18
BRANCH   5  23
HETATM   23  O2  UNL     1      -9.829   8.358  -0.773  1.00  0.00    -0.352 OA
HETATM   24  C7  UNL     1      -8.605   7.886  -1.391  1.00  0.00     0.210 C 
ENDBRANCH   5  23
BRANCH  10  25
HETATM   25  O4  UNL     1      -9.893  12.240  -3.373  1.00  0.00    -0.352 OA
HETATM   26  C14 UNL     1      -9.812  13.421  -2.607  1.00  0.00     0.210 C 
ENDBRANCH  10  25
BRANCH   6  27
HETATM   27  O3  UNL     1      -9.429   6.382   1.021  1.00  0.00    -0.351 OA
HETATM   28  C9  UNL     1      -9.360   6.899   2.344  1.00  0.00     0.210 C 
ENDBRANCH   6  27
BRANCH   1  29
HETATM   29  O1  UNL     1     -11.490   4.512   1.555  1.00  0.00    -0.353 OA
HETATM   30  C1  UNL     1     -12.493   3.535   1.686  1.00  0.00     0.210 C 
ENDBRANCH   1  29
TORSDOF 5
ENDMDL
