MODEL 2
REMARK VINA RESULT: -6.636008889      2.724      8.011
REMARK  5 active torsions:
REMARK  status: ('A' for Active; 'I' for Inactive)
REMARK    1  A    between atoms: O1_2  and  C2_3 
REMARK    2  A    between atoms: C6_7  and  O2_8 
REMARK    3  A    between atoms: C8_10  and  O3_11 
REMARK    4  A    between atoms: C13_16  and  O4_17 
REMARK    5  A    between atoms: C18_23  and  N1_24 
REMARK       I    between atoms: N1_24  and  C19_26 
ROOT
HETATM    1  C2  UNL     1     -11.674   6.502   0.950  1.00  0.00     0.104 A 
HETATM    2  C3  UNL     1     -10.594   6.339   1.782  1.00  0.00     0.047 A 
HETATM    3  C4  UNL     1      -9.381   6.907   1.485  1.00  0.00    -0.041 A 
HETATM    4  C5  UNL     1      -9.299   7.653   0.299  1.00  0.00     0.017 A 
HETATM    5  C6  UNL     1     -10.357   7.835  -0.540  1.00  0.00     0.116 A 
HETATM    6  C8  UNL     1     -11.559   7.251  -0.215  1.00  0.00     0.136 A 
HETATM    7  C10 UNL     1      -8.105   8.259  -0.258  1.00  0.00    -0.014 C 
HETATM    8  C11 UNL     1      -8.282   8.066  -1.606  1.00  0.00     0.016 C 
HETATM    9  C12 UNL     1      -7.653   8.807  -2.576  1.00  0.00     0.042 C 
HETATM   10  C13 UNL     1      -6.691   9.815  -2.425  1.00  0.00     0.118 C 
HETATM   11  C15 UNL     1      -5.994  10.192  -1.283  1.00  0.00     0.205 C 
HETATM   12  O5  UNL     1      -5.088  11.041  -1.429  1.00  0.00    -0.285 OA
HETATM   13  C16 UNL     1      -6.170   9.742   0.036  1.00  0.00     0.068 C 
HETATM   14  C17 UNL     1      -7.070   8.824   0.480  1.00  0.00    -0.020 C 
HETATM   15  C18 UNL     1      -6.692   8.524   1.906  1.00  0.00     0.119 C 
HETATM   16  C21 UNL     1      -6.958   7.046   2.164  1.00  0.00     0.034 C 
HETATM   17  C22 UNL     1      -8.343   6.685   2.504  1.00  0.00     0.042 C 
ENDROOT
BRANCH  15  18
HETATM   18  N1  UNL     1      -7.300   9.401   2.840  1.00  0.00    -0.353 N 
HETATM   19  C19 UNL     1      -6.716   9.676   4.114  1.00  0.00     0.214 C 
HETATM   20  C20 UNL     1      -7.308  10.575   5.108  1.00  0.00     0.117 C 
HETATM   21  O6  UNL     1      -5.628   9.105   4.387  1.00  0.00    -0.274 OA
ATOM     22  H1  UNL     1      -8.182   9.851   2.595  1.00  0.00     0.163 HD
ENDBRANCH  15  18
BRANCH   5  23
HETATM   23  O2  UNL     1     -10.238   8.599  -1.682  1.00  0.00    -0.352 OA
HETATM   24  C7  UNL     1     -10.939   9.865  -1.776  1.00  0.00     0.210 C 
ENDBRANCH   5  23
BRANCH  10  25
HETATM   25  O4  UNL     1      -6.422  10.511  -3.583  1.00  0.00    -0.352 OA
HETATM   26  C14 UNL     1      -7.413  11.211  -4.302  1.00  0.00     0.210 C 
ENDBRANCH  10  25
BRANCH   6  27
HETATM   27  O3  UNL     1     -12.608   7.453  -1.092  1.00  0.00    -0.351 OA
HETATM   28  C9  UNL     1     -12.799   6.462  -2.094  1.00  0.00     0.210 C 
ENDBRANCH   6  27
BRANCH   1  29
HETATM   29  O1  UNL     1     -12.891   5.915   1.271  1.00  0.00    -0.353 OA
HETATM   30  C1  UNL     1     -13.025   4.524   1.115  1.00  0.00     0.210 C 
ENDBRANCH   1  29
TORSDOF 5
ENDMDL
