MODEL 3
REMARK VINA RESULT: -6.533449840      2.698      6.237
REMARK  5 active torsions:
REMARK  status: ('A' for Active; 'I' for Inactive)
REMARK    1  A    between atoms: O1_2  and  C2_3 
REMARK    2  A    between atoms: C6_7  and  O2_8 
REMARK    3  A    between atoms: C8_10  and  O3_11 
REMARK    4  A    between atoms: C13_16  and  O4_17 
REMARK    5  A    between atoms: C18_23  and  N1_24 
REMARK       I    between atoms: N1_24  and  C19_26 
ROOT
HETATM    1  C2  UNL     1     -11.474   6.674   0.793  1.00  0.00     0.104 A 
HETATM    2  C3  UNL     1     -10.319   6.286   0.160  1.00  0.00     0.047 A 
HETATM    3  C4  UNL     1     -10.241   6.257  -1.210  1.00  0.00    -0.041 A 
HETATM    4  C5  UNL     1     -11.389   6.637  -1.923  1.00  0.00     0.017 A 
HETATM    5  C6  UNL     1     -12.544   7.032  -1.317  1.00  0.00     0.116 A 
HETATM    6  C8  UNL     1     -12.590   7.049   0.057  1.00  0.00     0.136 A 
HETATM    7  C10 UNL     1     -11.565   6.593  -3.362  1.00  0.00    -0.014 C 
HETATM    8  C11 UNL     1     -12.874   6.199  -3.483  1.00  0.00     0.016 C 
HETATM    9  C12 UNL     1     -13.636   6.409  -4.606  1.00  0.00     0.042 C 
HETATM   10  C13 UNL     1     -13.257   6.968  -5.835  1.00  0.00     0.118 C 
HETATM   11  C15 UNL     1     -11.982   7.280  -6.295  1.00  0.00     0.205 C 
HETATM   12  O5  UNL     1     -11.887   7.655  -7.483  1.00  0.00    -0.285 OA
HETATM   13  C16 UNL     1     -10.765   7.229  -5.595  1.00  0.00     0.068 C 
HETATM   14  C17 UNL     1     -10.572   6.855  -4.302  1.00  0.00    -0.020 C 
HETATM   15  C18 UNL     1      -9.083   6.745  -4.115  1.00  0.00     0.119 C 
HETATM   16  C21 UNL     1      -8.809   5.582  -3.170  1.00  0.00     0.034 C 
HETATM   17  C22 UNL     1      -8.920   5.872  -1.733  1.00  0.00     0.042 C 
ENDROOT
BRANCH  15  18
HETATM   18  N1  UNL     1      -8.478   7.969  -3.730  1.00  0.00    -0.353 N 
HETATM   19  C19 UNL     1      -7.212   8.385  -4.242  1.00  0.00     0.214 C 
HETATM   20  C20 UNL     1      -6.551   9.639  -3.872  1.00  0.00     0.117 C 
HETATM   21  O6  UNL     1      -6.639   7.618  -5.060  1.00  0.00    -0.274 OA
ATOM     22  H1  UNL     1      -8.963   8.572  -3.065  1.00  0.00     0.163 HD
ENDBRANCH  15  18
BRANCH   5  23
HETATM   23  O2  UNL     1     -13.638   7.424  -2.058  1.00  0.00    -0.352 OA
HETATM   24  C7  UNL     1     -14.056   8.812  -2.045  1.00  0.00     0.210 C 
ENDBRANCH   5  23
BRANCH  10  25
HETATM   25  O4  UNL     1     -14.312   7.237  -6.679  1.00  0.00    -0.352 OA
HETATM   26  C14 UNL     1     -15.656   7.214  -6.253  1.00  0.00     0.210 C 
ENDBRANCH  10  25
BRANCH   6  27
HETATM   27  O3  UNL     1     -13.780   7.450   0.636  1.00  0.00    -0.351 OA
HETATM   28  C9  UNL     1     -14.714   6.423   0.944  1.00  0.00     0.210 C 
ENDBRANCH   6  27
BRANCH   1  29
HETATM   29  O1  UNL     1     -11.529   6.692   2.182  1.00  0.00    -0.353 OA
HETATM   30  C1  UNL     1     -10.321   6.644   2.899  1.00  0.00     0.210 C 
ENDBRANCH   1  29
TORSDOF 5
ENDMDL
