MODEL 3
REMARK VINA RESULT: -5.549944221      1.942      5.231
REMARK  3 active torsions:
REMARK  status: ('A' for Active; 'I' for Inactive)
REMARK    1  A    between atoms: C2_2  and  C3_3 
REMARK    2  A    between atoms: C4_4  and  C5_5 
REMARK       I    between atoms: C5_5  and  N1_7 
REMARK    3  A    between atoms: C9_14  and  C10_15 
ROOT
HETATM    1  C3  UNL     1       9.163  37.665  77.877  1.00  0.00    -0.010 A 
HETATM    2  C4  UNL     1      10.403  37.879  78.415  1.00  0.00     0.108 A 
HETATM    3  N2  UNL     1      10.331  37.500  79.708  1.00  0.00    -0.354 N 
ATOM      4  H2  UNL     1      11.105  37.544  80.370  1.00  0.00     0.166 HD
HETATM    5  C7  UNL     1       9.098  37.057  80.004  1.00  0.00     0.020 A 
HETATM    6  C8  UNL     1       8.586  36.546  81.315  1.00  0.00     0.069 C 
HETATM    7  C9  UNL     1       8.331  37.148  78.866  1.00  0.00     0.040 A 
ENDROOT
BRANCH   2   8
HETATM    8  C5  UNL     1      11.606  38.406  77.775  1.00  0.00     0.268 C 
HETATM    9  O1  UNL     1      12.076  39.533  78.121  1.00  0.00    -0.266 OA
HETATM   10  N1  UNL     1      12.278  37.682  76.756  1.00  0.00    -0.360 N 
HETATM   11  C6  UNL     1      13.480  38.200  76.114  1.00  0.00     0.149 C 
ATOM     12  H1  UNL     1      11.911  36.776  76.466  1.00  0.00     0.162 HD
ENDBRANCH   2   8
BRANCH   1  13
HETATM   13  C2  UNL     1       8.749  37.926  76.491  1.00  0.00     0.037 C 
HETATM   14  C1  UNL     1       9.023  36.733  75.617  1.00  0.00     0.010 C 
ENDBRANCH   1  13
BRANCH   7  15
HETATM   15  C10 UNL     1       6.926  36.777  78.724  1.00  0.00     0.158 C 
HETATM   16  C11 UNL     1       6.510  35.481  78.084  1.00  0.00     0.097 C 
HETATM   17  O2  UNL     1       5.978  37.504  79.121  1.00  0.00    -0.293 OA
ENDBRANCH   7  15
TORSDOF 3
ENDMDL
