MODEL 2
REMARK VINA RESULT: -6.029563904      1.817      4.569
REMARK  3 active torsions:
REMARK  status: ('A' for Active; 'I' for Inactive)
REMARK    1  A    between atoms: C2_2  and  C3_3 
REMARK    2  A    between atoms: C4_4  and  C5_5 
REMARK       I    between atoms: C5_5  and  N1_7 
REMARK    3  A    between atoms: C9_14  and  C10_15 
ROOT
HETATM    1  C3  UNL     1      12.690  38.642  77.222  1.00  0.00    -0.010 A 
HETATM    2  C4  UNL     1      12.431  39.490  78.265  1.00  0.00     0.108 A 
HETATM    3  N2  UNL     1      11.172  39.224  78.673  1.00  0.00    -0.354 N 
ATOM      4  H2  UNL     1      10.698  39.700  79.439  1.00  0.00     0.166 HD
HETATM    5  C7  UNL     1      10.631  38.245  77.931  1.00  0.00     0.020 A 
HETATM    6  C8  UNL     1       9.264  37.644  78.042  1.00  0.00     0.069 C 
HETATM    7  C9  UNL     1      11.565  37.852  77.000  1.00  0.00     0.040 A 
ENDROOT
BRANCH   2   8
HETATM    8  C5  UNL     1      13.297  40.502  78.865  1.00  0.00     0.268 C 
HETATM    9  O1  UNL     1      14.262  40.995  78.205  1.00  0.00    -0.266 OA
HETATM   10  N1  UNL     1      13.087  40.959  80.193  1.00  0.00    -0.360 N 
HETATM   11  C6  UNL     1      13.946  41.970  80.798  1.00  0.00     0.149 C 
ATOM     12  H1  UNL     1      12.317  40.571  80.736  1.00  0.00     0.162 HD
ENDBRANCH   2   8
BRANCH   1  13
HETATM   13  C2  UNL     1      13.935  38.555  76.448  1.00  0.00     0.037 C 
HETATM   14  C1  UNL     1      14.882  37.564  77.066  1.00  0.00     0.010 C 
ENDBRANCH   1  13
BRANCH   7  15
HETATM   15  C10 UNL     1      11.408  36.815  75.984  1.00  0.00     0.158 C 
HETATM   16  C11 UNL     1      10.670  37.072  74.698  1.00  0.00     0.097 C 
HETATM   17  O2  UNL     1      11.871  35.651  76.110  1.00  0.00    -0.293 OA
ENDBRANCH   7  15
TORSDOF 3
ENDMDL
