MODEL 1
REMARK VINA RESULT: -6.122621232      0.000      0.000
REMARK  3 active torsions:
REMARK  status: ('A' for Active; 'I' for Inactive)
REMARK    1  A    between atoms: C2_2  and  C3_3 
REMARK    2  A    between atoms: C4_4  and  C5_5 
REMARK       I    between atoms: C5_5  and  N1_7 
REMARK    3  A    between atoms: C9_14  and  C10_15 
ROOT
HETATM    1  C3  UNL     1      11.334  37.608  77.199  1.00  0.00    -0.010 A 
HETATM    2  C4  UNL     1      10.276  38.073  77.932  1.00  0.00     0.108 A 
HETATM    3  N2  UNL     1      10.728  39.140  78.624  1.00  0.00    -0.354 N 
ATOM      4  H2  UNL     1      10.163  39.699  79.263  1.00  0.00     0.166 HD
HETATM    5  C7  UNL     1      12.024  39.363  78.357  1.00  0.00     0.020 A 
HETATM    6  C8  UNL     1      12.913  40.435  78.907  1.00  0.00     0.069 C 
HETATM    7  C9  UNL     1      12.442  38.409  77.458  1.00  0.00     0.040 A 
ENDROOT
BRANCH   2   8
HETATM    8  C5  UNL     1       8.907  37.567  77.996  1.00  0.00     0.268 C 
HETATM    9  O1  UNL     1       8.223  37.428  76.936  1.00  0.00    -0.266 OA
HETATM   10  N1  UNL     1       8.306  37.218  79.234  1.00  0.00    -0.360 N 
HETATM   11  C6  UNL     1       6.942  36.710  79.306  1.00  0.00     0.149 C 
ATOM     12  H1  UNL     1       8.842  37.326  80.094  1.00  0.00     0.162 HD
ENDBRANCH   2   8
BRANCH   1  13
HETATM   13  C2  UNL     1      11.332  36.458  76.284  1.00  0.00     0.037 C 
HETATM   14  C1  UNL     1      11.047  36.897  74.874  1.00  0.00     0.010 C 
ENDBRANCH   1  13
BRANCH   7  15
HETATM   15  C10 UNL     1      13.779  38.268  76.888  1.00  0.00     0.158 C 
HETATM   16  C11 UNL     1      14.802  37.343  77.491  1.00  0.00     0.097 C 
HETATM   17  O2  UNL     1      14.165  38.900  75.870  1.00  0.00    -0.293 OA
ENDBRANCH   7  15
TORSDOF 3
ENDMDL
