MODEL 11
REMARK VINA RESULT: -5.307121221      1.576      1.723
REMARK  3 active torsions:
REMARK  status: ('A' for Active; 'I' for Inactive)
REMARK    1  A    between atoms: C2_2  and  C3_3 
REMARK    2  A    between atoms: C4_4  and  C5_5 
REMARK       I    between atoms: C5_5  and  N1_7 
REMARK    3  A    between atoms: C9_14  and  C10_15 
ROOT
HETATM    1  C3  UNL     1      11.649  37.673  76.850  1.00  0.00    -0.010 A 
HETATM    2  C4  UNL     1      10.354  37.822  77.269  1.00  0.00     0.108 A 
HETATM    3  N2  UNL     1      10.360  38.809  78.190  1.00  0.00    -0.354 N 
ATOM      4  H2  UNL     1       9.535  39.146  78.684  1.00  0.00     0.166 HD
HETATM    5  C7  UNL     1      11.603  39.286  78.365  1.00  0.00     0.020 A 
HETATM    6  C8  UNL     1      12.057  40.376  79.286  1.00  0.00     0.069 C 
HETATM    7  C9  UNL     1      12.446  38.588  77.532  1.00  0.00     0.040 A 
ENDROOT
BRANCH   2   8
HETATM    8  C5  UNL     1       9.160  37.094  76.847  1.00  0.00     0.268 C 
HETATM    9  O1  UNL     1       8.335  36.658  77.707  1.00  0.00    -0.266 OA
HETATM   10  N1  UNL     1       8.889  36.855  75.474  1.00  0.00    -0.360 N 
HETATM   11  C6  UNL     1       7.699  36.131  75.044  1.00  0.00     0.149 C 
ATOM     12  H1  UNL     1       9.543  37.197  74.771  1.00  0.00     0.162 HD
ENDBRANCH   2   8
BRANCH   1  13
HETATM   13  C2  UNL     1      12.144  36.718  75.850  1.00  0.00     0.037 C 
HETATM   14  C1  UNL     1      12.323  37.386  74.514  1.00  0.00     0.010 C 
ENDBRANCH   1  13
BRANCH   7  15
HETATM   15  C10 UNL     1      13.888  38.770  77.391  1.00  0.00     0.158 C 
HETATM   16  C11 UNL     1      14.862  37.677  77.737  1.00  0.00     0.097 C 
HETATM   17  O2  UNL     1      14.410  39.839  76.977  1.00  0.00    -0.293 OA
ENDBRANCH   7  15
TORSDOF 3
ENDMDL
