MODEL 4
REMARK VINA RESULT: -5.508829860      1.974      4.798
REMARK  3 active torsions:
REMARK  status: ('A' for Active; 'I' for Inactive)
REMARK    1  A    between atoms: C2_2  and  C3_3 
REMARK    2  A    between atoms: C4_4  and  C5_5 
REMARK       I    between atoms: C5_5  and  N1_7 
REMARK    3  A    between atoms: C9_14  and  C10_15 
ROOT
HETATM    1  C3  UNL     1      11.847  37.825  76.036  1.00  0.00    -0.010 A 
HETATM    2  C4  UNL     1      12.211  38.147  77.317  1.00  0.00     0.108 A 
HETATM    3  N2  UNL     1      11.103  38.018  78.075  1.00  0.00    -0.354 N 
ATOM      4  H2  UNL     1      11.063  38.192  79.079  1.00  0.00     0.166 HD
HETATM    5  C7  UNL     1      10.059  37.629  77.325  1.00  0.00     0.020 A 
HETATM    6  C8  UNL     1       8.650  37.371  77.760  1.00  0.00     0.069 C 
HETATM    7  C9  UNL     1      10.495  37.498  76.027  1.00  0.00     0.040 A 
ENDROOT
BRANCH   2   8
HETATM    8  C5  UNL     1      13.518  38.553  77.827  1.00  0.00     0.268 C 
HETATM    9  O1  UNL     1      14.405  37.683  78.089  1.00  0.00    -0.266 OA
HETATM   10  N1  UNL     1      13.834  39.920  78.044  1.00  0.00    -0.360 N 
HETATM   11  C6  UNL     1      15.136  40.334  78.551  1.00  0.00     0.149 C 
ATOM     12  H1  UNL     1      13.132  40.630  77.840  1.00  0.00     0.162 HD
ENDBRANCH   2   8
BRANCH   1  13
HETATM   13  C2  UNL     1      12.716  37.817  74.852  1.00  0.00     0.037 C 
HETATM   14  C1  UNL     1      13.424  36.497  74.716  1.00  0.00     0.010 C 
ENDBRANCH   1  13
BRANCH   7  15
HETATM   15  C10 UNL     1       9.698  37.096  74.871  1.00  0.00     0.158 C 
HETATM   16  C11 UNL     1       8.798  38.066  74.154  1.00  0.00     0.097 C 
HETATM   17  O2  UNL     1       9.706  35.929  74.401  1.00  0.00    -0.293 OA
ENDBRANCH   7  15
TORSDOF 3
ENDMDL
