MODEL 4
REMARK VINA RESULT: -10.682106328      2.215      6.041
REMARK  0 active torsions:
REMARK  status: ('A' for Active; 'I' for Inactive)
ROOT
HETATM    1  C1  UNL     1     -15.141 -43.572  27.296  1.00  0.00     0.049 C 
HETATM    2  C2  UNL     1     -15.792 -43.165  26.050  1.00  0.00    -0.051 A 
HETATM    3  C3  UNL     1     -15.162 -43.335  24.838  1.00  0.00     0.007 A 
HETATM    4  C4  UNL     1     -15.723 -42.975  23.659  1.00  0.00     0.001 A 
HETATM    5  C5  UNL     1     -17.011 -42.396  23.643  1.00  0.00     0.013 A 
HETATM    6  C6  UNL     1     -17.656 -42.216  24.835  1.00  0.00    -0.010 A 
HETATM    7  C7  UNL     1     -18.911 -41.656  24.869  1.00  0.00     0.042 A 
HETATM    8  C8  UNL     1     -19.559 -41.479  26.105  1.00  0.00     0.013 A 
HETATM    9  C9  UNL     1     -18.932 -41.867  27.256  1.00  0.00     0.016 A 
HETATM   10  C10 UNL     1     -17.694 -42.420  27.238  1.00  0.00     0.014 A 
HETATM   11  C11 UNL     1     -17.051 -42.599  26.040  1.00  0.00    -0.019 A 
HETATM   12  C12 UNL     1     -20.903 -40.879  26.142  1.00  0.00     0.090 A 
HETATM   13  C13 UNL     1     -21.562 -40.485  25.071  1.00  0.00     0.036 A 
HETATM   14  C14 UNL     1     -20.920 -40.655  23.777  1.00  0.00     0.232 A 
HETATM   15  O1  UNL     1     -21.543 -40.280  22.750  1.00  0.00    -0.283 OA
HETATM   16  C15 UNL     1     -19.575 -41.245  23.650  1.00  0.00     0.234 A 
HETATM   17  O2  UNL     1     -19.122 -41.344  22.504  1.00  0.00    -0.283 OA
HETATM   18  C16 UNL     1     -22.898 -39.924  25.485  1.00  0.00     0.046 C 
HETATM   19  C17 UNL     1     -23.999 -40.933  25.266  1.00  0.00     0.017 C 
HETATM   20  C18 UNL     1     -22.696 -39.700  26.967  1.00  0.00     0.184 C 
HETATM   21  O3  UNL     1     -21.687 -40.633  27.283  1.00  0.00    -0.349 OA
ENDROOT
TORSDOF 0
ENDMDL
