MODEL 3
REMARK VINA RESULT: -10.926207516      1.746      5.722
REMARK  0 active torsions:
REMARK  status: ('A' for Active; 'I' for Inactive)
ROOT
HETATM    1  C1  UNL     1     -14.239 -43.989  28.281  1.00  0.00     0.049 C 
HETATM    2  C2  UNL     1     -14.706 -43.697  26.925  1.00  0.00    -0.051 A 
HETATM    3  C3  UNL     1     -13.909 -43.962  25.834  1.00  0.00     0.007 A 
HETATM    4  C4  UNL     1     -14.296 -43.709  24.561  1.00  0.00     0.001 A 
HETATM    5  C5  UNL     1     -15.569 -43.149  24.312  1.00  0.00     0.013 A 
HETATM    6  C6  UNL     1     -16.378 -42.878  25.381  1.00  0.00    -0.010 A 
HETATM    7  C7  UNL     1     -17.625 -42.332  25.187  1.00  0.00     0.042 A 
HETATM    8  C8  UNL     1     -18.442 -42.060  26.298  1.00  0.00     0.013 A 
HETATM    9  C9  UNL     1     -17.986 -42.341  27.556  1.00  0.00     0.016 A 
HETATM   10  C10 UNL     1     -16.759 -42.879  27.762  1.00  0.00     0.014 A 
HETATM   11  C11 UNL     1     -15.951 -43.149  26.688  1.00  0.00    -0.019 A 
HETATM   12  C12 UNL     1     -19.778 -41.476  26.092  1.00  0.00     0.090 A 
HETATM   13  C13 UNL     1     -20.278 -41.182  24.909  1.00  0.00     0.036 A 
HETATM   14  C14 UNL     1     -19.457 -41.452  23.739  1.00  0.00     0.232 A 
HETATM   15  O1  UNL     1     -19.927 -41.173  22.605  1.00  0.00    -0.283 OA
HETATM   16  C15 UNL     1     -18.108 -42.035  23.855  1.00  0.00     0.234 A 
HETATM   17  O2  UNL     1     -17.495 -42.224  22.798  1.00  0.00    -0.283 OA
HETATM   18  C16 UNL     1     -21.659 -40.604  25.079  1.00  0.00     0.046 C 
HETATM   19  C17 UNL     1     -22.717 -41.641  24.793  1.00  0.00     0.017 C 
HETATM   20  C18 UNL     1     -21.671 -40.253  26.550  1.00  0.00     0.184 C 
HETATM   21  O3  UNL     1     -20.717 -41.143  27.085  1.00  0.00    -0.349 OA
ENDROOT
TORSDOF 0
ENDMDL
