MODEL 5
REMARK VINA RESULT: -10.591559874      2.249      6.603
REMARK  0 active torsions:
REMARK  status: ('A' for Active; 'I' for Inactive)
ROOT
HETATM    1  C1  UNL     1     -14.229 -43.747  24.901  1.00  0.00     0.049 C 
HETATM    2  C2  UNL     1     -15.350 -43.290  25.723  1.00  0.00    -0.051 A 
HETATM    3  C3  UNL     1     -15.290 -43.355  27.096  1.00  0.00     0.007 A 
HETATM    4  C4  UNL     1     -16.300 -42.945  27.898  1.00  0.00     0.001 A 
HETATM    5  C5  UNL     1     -17.482 -42.422  27.327  1.00  0.00     0.013 A 
HETATM    6  C6  UNL     1     -17.565 -42.348  25.964  1.00  0.00    -0.010 A 
HETATM    7  C7  UNL     1     -18.696 -41.847  25.363  1.00  0.00     0.042 A 
HETATM    8  C8  UNL     1     -18.763 -41.778  23.960  1.00  0.00     0.013 A 
HETATM    9  C9  UNL     1     -17.703 -42.211  23.212  1.00  0.00     0.016 A 
HETATM   10  C10 UNL     1     -16.582 -42.708  23.791  1.00  0.00     0.014 A 
HETATM   11  C11 UNL     1     -16.503 -42.780  25.158  1.00  0.00    -0.019 A 
HETATM   12  C12 UNL     1     -19.973 -41.242  23.316  1.00  0.00     0.090 A 
HETATM   13  C13 UNL     1     -21.027 -40.808  23.976  1.00  0.00     0.036 A 
HETATM   14  C14 UNL     1     -20.990 -40.865  25.428  1.00  0.00     0.232 A 
HETATM   15  O1  UNL     1     -21.993 -40.454  26.067  1.00  0.00    -0.283 OA
HETATM   16  C15 UNL     1     -19.818 -41.389  26.155  1.00  0.00     0.234 A 
HETATM   17  O2  UNL     1     -19.889 -41.392  27.388  1.00  0.00    -0.283 OA
HETATM   18  C16 UNL     1     -22.071 -40.334  22.997  1.00  0.00     0.046 C 
HETATM   19  C17 UNL     1     -22.058 -38.830  22.881  1.00  0.00     0.017 C 
HETATM   20  C18 UNL     1     -21.588 -40.951  21.704  1.00  0.00     0.184 C 
HETATM   21  O3  UNL     1     -20.205 -41.104  21.935  1.00  0.00    -0.349 OA
ENDROOT
TORSDOF 0
ENDMDL
