MODEL 1
REMARK VINA RESULT: -12.379271727      0.000      0.000
REMARK  0 active torsions:
REMARK  status: ('A' for Active; 'I' for Inactive)
ROOT
HETATM    1  C1  UNL     1     -21.761 -40.480  26.608  1.00  0.00     0.049 C 
HETATM    2  C2  UNL     1     -20.792 -40.834  25.570  1.00  0.00    -0.051 A 
HETATM    3  C3  UNL     1     -21.063 -40.596  24.242  1.00  0.00     0.007 A 
HETATM    4  C4  UNL     1     -20.200 -40.906  23.247  1.00  0.00     0.001 A 
HETATM    5  C5  UNL     1     -18.957 -41.503  23.557  1.00  0.00     0.013 A 
HETATM    6  C6  UNL     1     -18.665 -41.749  24.870  1.00  0.00    -0.010 A 
HETATM    7  C7  UNL     1     -17.468 -42.329  25.219  1.00  0.00     0.042 A 
HETATM    8  C8  UNL     1     -17.186 -42.574  26.574  1.00  0.00     0.013 A 
HETATM    9  C9  UNL     1     -18.106 -42.234  27.527  1.00  0.00     0.016 A 
HETATM   10  C10 UNL     1     -19.291 -41.663  27.197  1.00  0.00     0.014 A 
HETATM   11  C11 UNL     1     -19.579 -41.417  25.879  1.00  0.00    -0.019 A 
HETATM   12  C12 UNL     1     -15.905 -43.194  26.949  1.00  0.00     0.090 A 
HETATM   13  C13 UNL     1     -14.976 -43.545  26.083  1.00  0.00     0.036 A 
HETATM   14  C14 UNL     1     -15.236 -43.304  24.673  1.00  0.00     0.232 A 
HETATM   15  O1  UNL     1     -14.354 -43.636  23.839  1.00  0.00    -0.283 OA
HETATM   16  C15 UNL     1     -16.494 -42.688  24.210  1.00  0.00     0.234 A 
HETATM   17  O2  UNL     1     -16.614 -42.527  22.991  1.00  0.00    -0.283 OA
HETATM   18  C16 UNL     1     -13.806 -44.145  26.820  1.00  0.00     0.046 C 
HETATM   19  C17 UNL     1     -12.687 -43.142  26.964  1.00  0.00     0.017 C 
HETATM   20  C18 UNL     1     -14.408 -44.438  28.175  1.00  0.00     0.184 C 
HETATM   21  O3  UNL     1     -15.465 -43.507  28.248  1.00  0.00    -0.349 OA
ENDROOT
TORSDOF 0
ENDMDL
