MODEL 8
REMARK VINA RESULT: -9.393536356      3.257     12.364
REMARK  6 active torsions:
REMARK  status: ('A' for Active; 'I' for Inactive)
REMARK    1  A    between atoms: O1_2  and  C2_3 
REMARK    2  A    between atoms: C4_5  and  C5_6 
REMARK    3  A    between atoms: C11_14  and  O4_15 
REMARK    4  A    between atoms: C20_26  and  O6_27 
REMARK    5  A    between atoms: C26_35  and  O8_36 
REMARK    6  A    between atoms: C28_38  and  O9_39 
ROOT
HETATM    1  C5  UNL     1     -18.815 -42.248  24.252  1.00  0.00     0.092 A 
HETATM    2  C6  UNL     1     -18.729 -41.363  23.208  1.00  0.00     0.075 A 
HETATM    3  C7  UNL     1     -19.876 -40.949  22.515  1.00  0.00     0.085 A 
HETATM    4  C8  UNL     1     -21.106 -41.441  22.889  1.00  0.00     0.054 A 
HETATM    5  C9  UNL     1     -21.120 -42.325  23.943  1.00  0.00     0.297 A 
HETATM    6  O2  UNL     1     -22.204 -42.843  24.374  1.00  0.00    -0.259 OA
HETATM    7  O3  UNL     1     -20.029 -42.688  24.567  1.00  0.00    -0.274 OA
HETATM    8  C10 UNL     1     -22.385 -41.049  22.215  1.00  0.00     0.090 C 
HETATM    9  C11 UNL     1     -22.095 -39.875  21.335  1.00  0.00     0.110 C 
HETATM   10  C12 UNL     1     -23.208 -39.402  20.469  1.00  0.00     0.087 C 
HETATM   11  C13 UNL     1     -23.566 -40.372  19.378  1.00  0.00     0.030 C 
HETATM   12  C14 UNL     1     -24.492 -39.162  21.174  1.00  0.00     0.163 C 
HETATM   13  O5  UNL     1     -24.775 -39.490  22.339  1.00  0.00    -0.292 OA
HETATM   14  C15 UNL     1     -25.516 -38.468  20.403  1.00  0.00     0.048 C 
HETATM   15  C16 UNL     1     -25.233 -37.639  19.425  1.00  0.00    -0.011 C 
HETATM   16  C17 UNL     1     -23.828 -37.378  19.067  1.00  0.00     0.003 C 
HETATM   17  C18 UNL     1     -23.708 -35.837  19.183  1.00  0.00     0.022 C 
HETATM   18  C19 UNL     1     -23.610 -37.655  17.598  1.00  0.00     0.022 C 
HETATM   19  C20 UNL     1     -22.809 -38.024  19.952  1.00  0.00     0.086 C 
HETATM   20  C21 UNL     1     -21.421 -37.922  19.441  1.00  0.00     0.043 C 
HETATM   21  C22 UNL     1     -20.617 -39.155  19.412  1.00  0.00     0.044 C 
HETATM   22  C23 UNL     1     -20.856 -40.132  20.512  1.00  0.00     0.097 C 
HETATM   23  C24 UNL     1     -20.794 -41.510  19.921  1.00  0.00     0.050 C 
HETATM   24  O7  UNL     1     -19.768 -40.047  21.457  1.00  0.00    -0.337 OA
ENDROOT
BRANCH   1  25
HETATM   25  C4  UNL     1     -17.652 -42.718  25.014  1.00  0.00     0.003 A 
HETATM   26  C3  UNL     1     -16.513 -43.161  24.395  1.00  0.00     0.054 A 
HETATM   27  C2  UNL     1     -15.429 -43.598  25.170  1.00  0.00     0.105 A 
HETATM   28  C28 UNL     1     -15.459 -43.604  26.547  1.00  0.00     0.135 A 
HETATM   29  C26 UNL     1     -16.606 -43.158  27.166  1.00  0.00     0.105 A 
HETATM   30  C25 UNL     1     -17.668 -42.729  26.401  1.00  0.00     0.054 A 
BRANCH  27  31
HETATM   31  O1  UNL     1     -14.253 -44.055  24.568  1.00  0.00    -0.353 OA
HETATM   32  C1  UNL     1     -14.360 -44.748  23.339  1.00  0.00     0.210 C 
ENDBRANCH  27  31
BRANCH  28  33
HETATM   33  O9  UNL     1     -14.351 -44.050  27.273  1.00  0.00    -0.351 OA
HETATM   34  C29 UNL     1     -13.297 -43.123  27.502  1.00  0.00     0.210 C 
ENDBRANCH  28  33
BRANCH  29  35
HETATM   35  O8  UNL     1     -16.635 -43.163  28.550  1.00  0.00    -0.353 OA
HETATM   36  C27 UNL     1     -17.711 -42.729  29.325  1.00  0.00     0.210 C 
ENDBRANCH  29  35
ENDBRANCH   1  25
BRANCH   9  37
HETATM   37  O4  UNL     1     -21.753 -38.820  22.216  1.00  0.00    -0.385 OA
ATOM     38  H4  UNL     1     -22.512 -38.248  22.232  1.00  0.00     0.210 HD
ENDBRANCH   9  37
BRANCH  19  39
HETATM   39  O6  UNL     1     -22.839 -37.234  21.144  1.00  0.00    -0.387 OA
ATOM     40  H6  UNL     1     -23.033 -36.368  20.806  1.00  0.00     0.210 HD
ENDBRANCH  19  39
TORSDOF 6
ENDMDL
