MODEL 2
REMARK VINA RESULT: -13.414194831      0.062      1.988
REMARK  6 active torsions:
REMARK  status: ('A' for Active; 'I' for Inactive)
REMARK    1  A    between atoms: O1_2  and  C2_3 
REMARK    2  A    between atoms: C4_5  and  C5_6 
REMARK    3  A    between atoms: C11_14  and  O4_15 
REMARK    4  A    between atoms: C20_26  and  O6_27 
REMARK    5  A    between atoms: C26_35  and  O8_36 
REMARK    6  A    between atoms: C28_38  and  O9_39 
ROOT
HETATM    1  C5  UNL     1     -16.428 -43.011  25.615  1.00  0.00     0.092 A 
HETATM    2  C6  UNL     1     -16.194 -43.430  26.900  1.00  0.00     0.075 A 
HETATM    3  C7  UNL     1     -14.889 -43.685  27.350  1.00  0.00     0.085 A 
HETATM    4  C8  UNL     1     -13.830 -43.510  26.488  1.00  0.00     0.054 A 
HETATM    5  C9  UNL     1     -14.137 -43.088  25.215  1.00  0.00     0.297 A 
HETATM    6  O2  UNL     1     -13.235 -42.894  24.333  1.00  0.00    -0.259 OA
HETATM    7  O3  UNL     1     -15.366 -42.860  24.830  1.00  0.00    -0.274 OA
HETATM    8  C10 UNL     1     -12.405 -43.747  26.882  1.00  0.00     0.090 C 
HETATM    9  C11 UNL     1     -12.363 -43.896  28.370  1.00  0.00     0.110 C 
HETATM   10  C12 UNL     1     -11.050 -44.269  28.963  1.00  0.00     0.087 C 
HETATM   11  C13 UNL     1     -10.618 -45.666  28.621  1.00  0.00     0.030 C 
HETATM   12  C14 UNL     1      -9.908 -43.422  28.537  1.00  0.00     0.163 C 
HETATM   13  O5  UNL     1      -9.901 -42.586  27.618  1.00  0.00    -0.292 OA
HETATM   14  C15 UNL     1      -8.671 -43.605  29.287  1.00  0.00     0.048 C 
HETATM   15  C16 UNL     1      -8.648 -44.019  30.534  1.00  0.00    -0.011 C 
HETATM   16  C17 UNL     1      -9.910 -44.319  31.232  1.00  0.00     0.003 C 
HETATM   17  C18 UNL     1      -9.848 -43.417  32.491  1.00  0.00     0.022 C 
HETATM   18  C19 UNL     1      -9.874 -45.725  31.782  1.00  0.00     0.022 C 
HETATM   19  C20 UNL     1     -11.158 -44.013  30.463  1.00  0.00     0.086 C 
HETATM   20  C21 UNL     1     -12.394 -44.525  31.100  1.00  0.00     0.043 C 
HETATM   21  C22 UNL     1     -13.331 -45.280  30.252  1.00  0.00     0.044 C 
HETATM   22  C23 UNL     1     -13.441 -44.846  28.831  1.00  0.00     0.097 C 
HETATM   23  C24 UNL     1     -13.567 -46.080  27.985  1.00  0.00     0.050 C 
HETATM   24  O7  UNL     1     -14.671 -44.111  28.660  1.00  0.00    -0.337 OA
ENDROOT
BRANCH   1  25
HETATM   25  C4  UNL     1     -17.768 -42.729  25.087  1.00  0.00     0.003 A 
HETATM   26  C3  UNL     1     -17.969 -42.353  23.785  1.00  0.00     0.054 A 
HETATM   27  C2  UNL     1     -19.270 -42.096  23.331  1.00  0.00     0.105 A 
HETATM   28  C28 UNL     1     -20.374 -42.206  24.147  1.00  0.00     0.135 A 
HETATM   29  C26 UNL     1     -20.169 -42.585  25.456  1.00  0.00     0.105 A 
HETATM   30  C25 UNL     1     -18.889 -42.836  25.899  1.00  0.00     0.054 A 
BRANCH  27  31
HETATM   31  O1  UNL     1     -19.506 -41.712  22.007  1.00  0.00    -0.353 OA
HETATM   32  C1  UNL     1     -19.013 -40.456  21.582  1.00  0.00     0.210 C 
ENDBRANCH  27  31
BRANCH  28  33
HETATM   33  O9  UNL     1     -21.650 -41.939  23.645  1.00  0.00    -0.351 OA
HETATM   34  C29 UNL     1     -22.134 -40.606  23.751  1.00  0.00     0.210 C 
ENDBRANCH  28  33
BRANCH  29  35
HETATM   35  O8  UNL     1     -21.279 -42.696  26.277  1.00  0.00    -0.353 OA
HETATM   36  C27 UNL     1     -21.614 -41.794  27.287  1.00  0.00     0.210 C 
ENDBRANCH  29  35
ENDBRANCH   1  25
BRANCH   9  37
HETATM   37  O4  UNL     1     -12.728 -42.629  28.886  1.00  0.00    -0.385 OA
ATOM     38  H4  UNL     1     -13.513 -42.782  29.398  1.00  0.00     0.210 HD
ENDBRANCH   9  37
BRANCH  19  39
HETATM   39  O6  UNL     1     -11.256 -42.588  30.521  1.00  0.00    -0.387 OA
ATOM     40  H6  UNL     1     -10.424 -42.314  30.155  1.00  0.00     0.210 HD
ENDBRANCH  19  39
TORSDOF 6
ENDMDL
