MODEL 9
REMARK VINA RESULT: -9.320179090      3.259     12.233
REMARK  6 active torsions:
REMARK  status: ('A' for Active; 'I' for Inactive)
REMARK    1  A    between atoms: O1_2  and  C2_3 
REMARK    2  A    between atoms: C4_5  and  C5_6 
REMARK    3  A    between atoms: C11_14  and  O4_15 
REMARK    4  A    between atoms: C20_26  and  O6_27 
REMARK    5  A    between atoms: C26_35  and  O8_36 
REMARK    6  A    between atoms: C28_38  and  O9_39 
ROOT
HETATM    1  C5  UNL     1     -18.926 -42.234  24.342  1.00  0.00     0.092 A 
HETATM    2  C6  UNL     1     -18.830 -41.340  23.306  1.00  0.00     0.075 A 
HETATM    3  C7  UNL     1     -19.968 -40.934  22.594  1.00  0.00     0.085 A 
HETATM    4  C8  UNL     1     -21.200 -41.442  22.941  1.00  0.00     0.054 A 
HETATM    5  C9  UNL     1     -21.224 -42.334  23.988  1.00  0.00     0.297 A 
HETATM    6  O2  UNL     1     -22.310 -42.866  24.395  1.00  0.00    -0.259 OA
HETATM    7  O3  UNL     1     -20.141 -42.689  24.630  1.00  0.00    -0.274 OA
HETATM    8  C10 UNL     1     -22.469 -41.059  22.245  1.00  0.00     0.090 C 
HETATM    9  C11 UNL     1     -22.175 -39.875  21.378  1.00  0.00     0.110 C 
HETATM   10  C12 UNL     1     -23.278 -39.409  20.495  1.00  0.00     0.087 C 
HETATM   11  C13 UNL     1     -23.603 -40.375  19.391  1.00  0.00     0.030 C 
HETATM   12  C14 UNL     1     -24.577 -39.188  21.177  1.00  0.00     0.163 C 
HETATM   13  O5  UNL     1     -24.878 -39.527  22.334  1.00  0.00    -0.292 OA
HETATM   14  C15 UNL     1     -25.594 -38.499  20.392  1.00  0.00     0.048 C 
HETATM   15  C16 UNL     1     -25.301 -37.660  19.424  1.00  0.00    -0.011 C 
HETATM   16  C17 UNL     1     -23.893 -37.381  19.095  1.00  0.00     0.003 C 
HETATM   17  C18 UNL     1     -23.792 -35.840  19.224  1.00  0.00     0.022 C 
HETATM   18  C19 UNL     1     -23.643 -37.646  17.629  1.00  0.00     0.022 C 
HETATM   19  C20 UNL     1     -22.883 -38.023  19.996  1.00  0.00     0.086 C 
HETATM   20  C21 UNL     1     -21.488 -37.902  19.511  1.00  0.00     0.043 C 
HETATM   21  C22 UNL     1     -20.670 -39.127  19.490  1.00  0.00     0.044 C 
HETATM   22  C23 UNL     1     -20.919 -40.113  20.578  1.00  0.00     0.097 C 
HETATM   23  C24 UNL     1     -20.830 -41.487  19.979  1.00  0.00     0.050 C 
HETATM   24  O7  UNL     1     -19.849 -40.024  21.544  1.00  0.00    -0.337 OA
ENDROOT
BRANCH   1  25
HETATM   25  C4  UNL     1     -17.773 -42.696  25.123  1.00  0.00     0.003 A 
HETATM   26  C3  UNL     1     -17.783 -42.703  26.493  1.00  0.00     0.054 A 
HETATM   27  C2  UNL     1     -16.654 -43.155  27.192  1.00  0.00     0.105 A 
HETATM   28  C28 UNL     1     -15.518 -43.599  26.553  1.00  0.00     0.135 A 
HETATM   29  C26 UNL     1     -15.511 -43.591  25.175  1.00  0.00     0.105 A 
HETATM   30  C25 UNL     1     -16.622 -43.146  24.492  1.00  0.00     0.054 A 
BRANCH  27  31
HETATM   31  O1  UNL     1     -16.634 -43.174  28.590  1.00  0.00    -0.353 OA
HETATM   32  C1  UNL     1     -17.785 -42.720  29.278  1.00  0.00     0.210 C 
ENDBRANCH  27  31
BRANCH  28  33
HETATM   33  O9  UNL     1     -14.419 -44.040  27.296  1.00  0.00    -0.351 OA
HETATM   34  C29 UNL     1     -13.321 -43.148  27.440  1.00  0.00     0.210 C 
ENDBRANCH  28  33
BRANCH  29  35
HETATM   35  O8  UNL     1     -14.368 -44.038  24.533  1.00  0.00    -0.353 OA
HETATM   36  C27 UNL     1     -14.356 -44.729  23.322  1.00  0.00     0.210 C 
ENDBRANCH  29  35
ENDBRANCH   1  25
BRANCH   9  37
HETATM   37  O4  UNL     1     -21.862 -38.823  22.273  1.00  0.00    -0.385 OA
ATOM     38  H4  UNL     1     -22.430 -38.953  23.024  1.00  0.00     0.210 HD
ENDBRANCH   9  37
BRANCH  19  39
HETATM   39  O6  UNL     1     -22.944 -37.242  21.192  1.00  0.00    -0.387 OA
ATOM     40  H6  UNL     1     -22.513 -36.437  20.929  1.00  0.00     0.210 HD
ENDBRANCH  19  39
TORSDOF 6
ENDMDL
