MODEL 1
REMARK VINA RESULT: -13.451210377      0.000      0.000
REMARK  6 active torsions:
REMARK  status: ('A' for Active; 'I' for Inactive)
REMARK    1  A    between atoms: O1_2  and  C2_3 
REMARK    2  A    between atoms: C4_5  and  C5_6 
REMARK    3  A    between atoms: C11_14  and  O4_15 
REMARK    4  A    between atoms: C20_26  and  O6_27 
REMARK    5  A    between atoms: C26_35  and  O8_36 
REMARK    6  A    between atoms: C28_38  and  O9_39 
ROOT
HETATM    1  C5  UNL     1     -16.446 -43.012  25.652  1.00  0.00     0.092 A 
HETATM    2  C6  UNL     1     -16.202 -43.439  26.933  1.00  0.00     0.075 A 
HETATM    3  C7  UNL     1     -14.894 -43.691  27.373  1.00  0.00     0.085 A 
HETATM    4  C8  UNL     1     -13.841 -43.508  26.504  1.00  0.00     0.054 A 
HETATM    5  C9  UNL     1     -14.158 -43.079  25.236  1.00  0.00     0.297 A 
HETATM    6  O2  UNL     1     -13.263 -42.875  24.350  1.00  0.00    -0.259 OA
HETATM    7  O3  UNL     1     -15.391 -42.853  24.861  1.00  0.00    -0.274 OA
HETATM    8  C10 UNL     1     -12.413 -43.742  26.888  1.00  0.00     0.090 C 
HETATM    9  C11 UNL     1     -12.360 -43.900  28.374  1.00  0.00     0.110 C 
HETATM   10  C12 UNL     1     -11.042 -44.271  28.956  1.00  0.00     0.087 C 
HETATM   11  C13 UNL     1     -10.607 -45.665  28.602  1.00  0.00     0.030 C 
HETATM   12  C14 UNL     1      -9.906 -43.418  28.528  1.00  0.00     0.163 C 
HETATM   13  O5  UNL     1      -9.908 -42.577  27.614  1.00  0.00    -0.292 OA
HETATM   14  C15 UNL     1      -8.663 -43.601  29.269  1.00  0.00     0.048 C 
HETATM   15  C16 UNL     1      -8.631 -44.023  30.513  1.00  0.00    -0.011 C 
HETATM   16  C17 UNL     1      -9.886 -44.332  31.217  1.00  0.00     0.003 C 
HETATM   17  C18 UNL     1      -9.819 -43.438  32.481  1.00  0.00     0.022 C 
HETATM   18  C19 UNL     1      -9.841 -45.741  31.759  1.00  0.00     0.022 C 
HETATM   19  C20 UNL     1     -11.141 -44.026  30.459  1.00  0.00     0.086 C 
HETATM   20  C21 UNL     1     -12.370 -44.546  31.101  1.00  0.00     0.043 C 
HETATM   21  C22 UNL     1     -13.311 -45.299  30.254  1.00  0.00     0.044 C 
HETATM   22  C23 UNL     1     -13.432 -44.856  28.836  1.00  0.00     0.097 C 
HETATM   23  C24 UNL     1     -13.558 -46.085  27.984  1.00  0.00     0.050 C 
HETATM   24  O7  UNL     1     -14.666 -44.125  28.678  1.00  0.00    -0.337 OA
ENDROOT
BRANCH   1  25
HETATM   25  C4  UNL     1     -17.791 -42.732  25.135  1.00  0.00     0.003 A 
HETATM   26  C3  UNL     1     -18.907 -42.850  25.921  1.00  0.00     0.054 A 
HETATM   27  C2  UNL     1     -20.169 -42.570  25.378  1.00  0.00     0.105 A 
HETATM   28  C28 UNL     1     -20.341 -42.177  24.069  1.00  0.00     0.135 A 
HETATM   29  C26 UNL     1     -19.217 -42.060  23.281  1.00  0.00     0.105 A 
HETATM   30  C25 UNL     1     -17.978 -42.336  23.819  1.00  0.00     0.054 A 
BRANCH  27  31
HETATM   31  O1  UNL     1     -21.327 -42.680  26.155  1.00  0.00    -0.353 OA
HETATM   32  C1  UNL     1     -21.446 -41.845  27.292  1.00  0.00     0.210 C 
ENDBRANCH  27  31
BRANCH  28  33
HETATM   33  O9  UNL     1     -21.622 -41.910  23.576  1.00  0.00    -0.351 OA
HETATM   34  C29 UNL     1     -22.090 -40.570  23.654  1.00  0.00     0.210 C 
ENDBRANCH  28  33
BRANCH  29  35
HETATM   35  O8  UNL     1     -19.389 -41.665  21.966  1.00  0.00    -0.353 OA
HETATM   36  C27 UNL     1     -19.010 -40.425  21.451  1.00  0.00     0.210 C 
ENDBRANCH  29  35
ENDBRANCH   1  25
BRANCH   9  37
HETATM   37  O4  UNL     1     -12.726 -42.637  28.900  1.00  0.00    -0.385 OA
ATOM     38  H4  UNL     1     -13.274 -42.827  29.653  1.00  0.00     0.210 HD
ENDBRANCH   9  37
BRANCH  19  39
HETATM   39  O6  UNL     1     -11.244 -42.601  30.526  1.00  0.00    -0.387 OA
ATOM     40  H6  UNL     1     -11.216 -42.442  31.462  1.00  0.00     0.210 HD
ENDBRANCH  19  39
TORSDOF 6
ENDMDL
