MODEL 10
REMARK VINA RESULT: -9.231846365      2.916     11.848
REMARK  6 active torsions:
REMARK  status: ('A' for Active; 'I' for Inactive)
REMARK    1  A    between atoms: O1_2  and  C2_3 
REMARK    2  A    between atoms: C4_5  and  C5_6 
REMARK    3  A    between atoms: C11_14  and  O4_15 
REMARK    4  A    between atoms: C20_26  and  O6_27 
REMARK    5  A    between atoms: C26_35  and  O8_36 
REMARK    6  A    between atoms: C28_38  and  O9_39 
ROOT
HETATM    1  C5  UNL     1     -18.710 -42.233  25.248  1.00  0.00     0.092 A 
HETATM    2  C6  UNL     1     -18.705 -41.942  23.907  1.00  0.00     0.075 A 
HETATM    3  C7  UNL     1     -19.843 -41.415  23.278  1.00  0.00     0.085 A 
HETATM    4  C8  UNL     1     -20.981 -41.187  24.020  1.00  0.00     0.054 A 
HETATM    5  C9  UNL     1     -20.916 -41.502  25.358  1.00  0.00     0.297 A 
HETATM    6  O2  UNL     1     -21.911 -41.332  26.139  1.00  0.00    -0.259 OA
HETATM    7  O3  UNL     1     -19.837 -41.992  25.910  1.00  0.00    -0.274 OA
HETATM    8  C10 UNL     1     -22.238 -40.619  23.438  1.00  0.00     0.090 C 
HETATM    9  C11 UNL     1     -21.916 -40.105  22.070  1.00  0.00     0.110 C 
HETATM   10  C12 UNL     1     -23.061 -39.611  21.259  1.00  0.00     0.087 C 
HETATM   11  C13 UNL     1     -24.003 -40.701  20.834  1.00  0.00     0.030 C 
HETATM   12  C14 UNL     1     -23.934 -38.625  21.944  1.00  0.00     0.163 C 
HETATM   13  O5  UNL     1     -23.920 -38.328  23.150  1.00  0.00    -0.292 OA
HETATM   14  C15 UNL     1     -24.905 -37.945  21.095  1.00  0.00     0.048 C 
HETATM   15  C16 UNL     1     -24.718 -37.753  19.809  1.00  0.00    -0.011 C 
HETATM   16  C17 UNL     1     -23.483 -38.235  19.167  1.00  0.00     0.003 C 
HETATM   17  C18 UNL     1     -22.898 -36.959  18.510  1.00  0.00     0.022 C 
HETATM   18  C19 UNL     1     -23.824 -39.128  17.997  1.00  0.00     0.022 C 
HETATM   19  C20 UNL     1     -22.467 -38.829  20.092  1.00  0.00     0.086 C 
HETATM   20  C21 UNL     1     -21.341 -39.496  19.396  1.00  0.00     0.043 C 
HETATM   21  C22 UNL     1     -20.974 -40.850  19.844  1.00  0.00     0.044 C 
HETATM   22  C23 UNL     1     -21.125 -41.133  21.299  1.00  0.00     0.097 C 
HETATM   23  C24 UNL     1     -21.648 -42.533  21.440  1.00  0.00     0.050 C 
HETATM   24  O7  UNL     1     -19.819 -41.125  21.915  1.00  0.00    -0.337 OA
ENDROOT
BRANCH   1  25
HETATM   25  C4  UNL     1     -17.552 -42.785  25.960  1.00  0.00     0.003 A 
HETATM   26  C3  UNL     1     -17.506 -42.847  27.328  1.00  0.00     0.054 A 
HETATM   27  C2  UNL     1     -16.376 -43.384  27.960  1.00  0.00     0.105 A 
HETATM   28  C28 UNL     1     -15.292 -43.860  27.257  1.00  0.00     0.135 A 
HETATM   29  C26 UNL     1     -15.341 -43.797  25.881  1.00  0.00     0.105 A 
HETATM   30  C25 UNL     1     -16.453 -43.268  25.264  1.00  0.00     0.054 A 
BRANCH  27  31
HETATM   31  O1  UNL     1     -16.300 -43.462  29.354  1.00  0.00    -0.353 OA
HETATM   32  C1  UNL     1     -17.210 -42.688  30.113  1.00  0.00     0.210 C 
ENDBRANCH  27  31
BRANCH  28  33
HETATM   33  O9  UNL     1     -14.189 -44.387  27.935  1.00  0.00    -0.351 OA
HETATM   34  C29 UNL     1     -13.041 -43.559  28.067  1.00  0.00     0.210 C 
ENDBRANCH  28  33
BRANCH  29  35
HETATM   35  O8  UNL     1     -14.251 -44.276  25.174  1.00  0.00    -0.353 OA
HETATM   36  C27 UNL     1     -14.245 -44.539  23.804  1.00  0.00     0.210 C 
ENDBRANCH  29  35
ENDBRANCH   1  25
BRANCH   9  37
HETATM   37  O4  UNL     1     -21.029 -39.020  22.275  1.00  0.00    -0.385 OA
ATOM     38  H4  UNL     1     -21.341 -38.328  21.703  1.00  0.00     0.210 HD
ENDBRANCH   9  37
BRANCH  19  39
HETATM   39  O6  UNL     1     -21.895 -37.694  20.748  1.00  0.00    -0.387 OA
ATOM     40  H6  UNL     1     -22.019 -37.006  20.104  1.00  0.00     0.210 HD
ENDBRANCH  19  39
TORSDOF 6
ENDMDL
