MODEL 5
REMARK VINA RESULT: -9.009482181      1.471      1.996
REMARK  7 active torsions:
REMARK  status: ('A' for Active; 'I' for Inactive)
REMARK    1  A    between atoms: C1_2  and  C2_4 
REMARK    2  A    between atoms: C7_9  and  N1_10 
REMARK    3  A    between atoms: N1_10  and  C8_12 
REMARK    4  A    between atoms: C12_16  and  N2_17 
REMARK    5  A    between atoms: N2_17  and  C13_19 
REMARK    6  A    between atoms: C18_24  and  C19_25 
REMARK    7  A    between atoms: C20_28  and  C21_29 
ROOT
HETATM    1  C8  UNL     1     -19.928  26.241 -14.110  1.00  0.00     0.052 A 
HETATM    2  C9  UNL     1     -20.475  26.618 -12.880  1.00  0.00     0.030 A 
HETATM    3  C10 UNL     1     -19.995  27.734 -12.242  1.00  0.00     0.005 A 
HETATM    4  C11 UNL     1     -18.991  28.503 -12.766  1.00  0.00     0.030 A 
HETATM    5  C12 UNL     1     -18.423  28.153 -13.997  1.00  0.00     0.052 A 
HETATM    6  C20 UNL     1     -18.910  27.018 -14.648  1.00  0.00     0.094 A 
ENDROOT
BRANCH   1   7
HETATM    7  N1  UNL     1     -20.560  25.151 -14.811  1.00  0.00    -0.354 N 
ATOM      8  H1  UNL     1     -20.058  24.275 -14.957  1.00  0.00     0.166 HD
BRANCH   7   9
HETATM    9  C7  UNL     1     -21.887  25.303 -15.298  1.00  0.00     0.049 A 
HETATM   10  C2  UNL     1     -22.921  24.670 -14.656  1.00  0.00     0.067 A 
HETATM   11  C3  UNL     1     -24.235  24.929 -15.085  1.00  0.00     0.021 A 
HETATM   12  C4  UNL     1     -24.436  25.801 -16.128  1.00  0.00     0.001 A 
HETATM   13  C5  UNL     1     -23.406  26.437 -16.774  1.00  0.00     0.002 A 
HETATM   14  C6  UNL     1     -22.122  26.187 -16.356  1.00  0.00     0.030 A 
BRANCH  10  15
HETATM   15  C1  UNL     1     -22.734  23.717 -13.586  1.00  0.00     0.211 C 
HETATM   16  O1  UNL     1     -23.784  23.183 -13.079  1.00  0.00    -0.644 OA
HETATM   17  O2  UNL     1     -21.559  23.289 -13.024  1.00  0.00    -0.644 OA
ENDBRANCH  10  15
ENDBRANCH   7   9
ENDBRANCH   1   7
BRANCH   6  18
HETATM   18  C21 UNL     1     -18.322  26.593 -15.916  1.00  0.00     0.214 C 
HETATM   19  O5  UNL     1     -18.963  26.692 -16.992  1.00  0.00    -0.644 OA
HETATM   20  O6  UNL     1     -17.048  26.071 -16.007  1.00  0.00    -0.644 OA
ENDBRANCH   6  18
BRANCH   5  21
HETATM   21  N2  UNL     1     -17.303  28.885 -14.470  1.00  0.00    -0.354 N 
ATOM     22  H2  UNL     1     -16.467  28.377 -14.758  1.00  0.00     0.166 HD
BRANCH  21  23
HETATM   23  C13 UNL     1     -17.312  30.307 -14.555  1.00  0.00     0.049 A 
HETATM   24  C14 UNL     1     -16.651  31.056 -13.574  1.00  0.00     0.030 A 
HETATM   25  C15 UNL     1     -16.694  32.434 -13.523  1.00  0.00     0.002 A 
HETATM   26  C16 UNL     1     -17.438  33.045 -14.507  1.00  0.00     0.001 A 
HETATM   27  C17 UNL     1     -18.094  32.341 -15.479  1.00  0.00     0.021 A 
HETATM   28  C18 UNL     1     -18.047  30.944 -15.527  1.00  0.00     0.067 A 
BRANCH  28  29
HETATM   29  C19 UNL     1     -18.741  30.250 -16.619  1.00  0.00     0.211 C 
HETATM   30  O3  UNL     1     -18.024  29.802 -17.564  1.00  0.00    -0.644 OA
HETATM   31  O4  UNL     1     -20.073  30.038 -16.725  1.00  0.00    -0.644 OA
ENDBRANCH  28  29
ENDBRANCH  21  23
ENDBRANCH   5  21
TORSDOF 7
ENDMDL
