MODEL 3
REMARK VINA RESULT: -9.077926591      2.460      4.769
REMARK  7 active torsions:
REMARK  status: ('A' for Active; 'I' for Inactive)
REMARK    1  A    between atoms: C1_2  and  C2_4 
REMARK    2  A    between atoms: C7_9  and  N1_10 
REMARK    3  A    between atoms: N1_10  and  C8_12 
REMARK    4  A    between atoms: C12_16  and  N2_17 
REMARK    5  A    between atoms: N2_17  and  C13_19 
REMARK    6  A    between atoms: C18_24  and  C19_25 
REMARK    7  A    between atoms: C20_28  and  C21_29 
ROOT
HETATM    1  C8  UNL     1     -17.285  30.063 -14.614  1.00  0.00     0.052 A 
HETATM    2  C9  UNL     1     -16.613  30.632 -13.527  1.00  0.00     0.030 A 
HETATM    3  C10 UNL     1     -16.624  31.995 -13.365  1.00  0.00     0.005 A 
HETATM    4  C11 UNL     1     -17.273  32.831 -14.234  1.00  0.00     0.030 A 
HETATM    5  C12 UNL     1     -17.956  32.292 -15.330  1.00  0.00     0.052 A 
HETATM    6  C20 UNL     1     -17.947  30.906 -15.498  1.00  0.00     0.094 A 
ENDROOT
BRANCH   1   7
HETATM    7  N1  UNL     1     -17.370  28.625 -14.662  1.00  0.00    -0.354 N 
ATOM      8  H1  UNL     1     -16.636  28.084 -15.118  1.00  0.00     0.166 HD
BRANCH   7   9
HETATM    9  C7  UNL     1     -18.483  27.966 -14.073  1.00  0.00     0.049 A 
HETATM   10  C2  UNL     1     -19.070  26.912 -14.725  1.00  0.00     0.067 A 
HETATM   11  C3  UNL     1     -20.093  26.203 -14.069  1.00  0.00     0.021 A 
HETATM   12  C4  UNL     1     -20.467  26.591 -12.805  1.00  0.00     0.001 A 
HETATM   13  C5  UNL     1     -19.883  27.645 -12.146  1.00  0.00     0.002 A 
HETATM   14  C6  UNL     1     -18.883  28.337 -12.784  1.00  0.00     0.030 A 
BRANCH  10  15
HETATM   15  C1  UNL     1     -18.725  26.511 -16.070  1.00  0.00     0.211 C 
HETATM   16  O1  UNL     1     -17.589  25.943 -16.245  1.00  0.00    -0.644 OA
HETATM   17  O2  UNL     1     -19.463  26.655 -17.215  1.00  0.00    -0.644 OA
ENDBRANCH  10  15
ENDBRANCH   7   9
ENDBRANCH   1   7
BRANCH   6  18
HETATM   18  C21 UNL     1     -18.614  30.304 -16.648  1.00  0.00     0.214 C 
HETATM   19  O5  UNL     1     -17.954  29.759 -17.568  1.00  0.00    -0.644 OA
HETATM   20  O6  UNL     1     -19.987  30.294 -16.791  1.00  0.00    -0.644 OA
ENDBRANCH   6  18
BRANCH   5  21
HETATM   21  N2  UNL     1     -18.520  33.175 -16.288  1.00  0.00    -0.354 N 
ATOM     22  H2  UNL     1     -19.247  32.827 -16.913  1.00  0.00     0.166 HD
BRANCH  21  23
HETATM   23  C13 UNL     1     -18.102  34.532 -16.403  1.00  0.00     0.049 A 
HETATM   24  C14 UNL     1     -16.931  34.946 -15.759  1.00  0.00     0.030 A 
HETATM   25  C15 UNL     1     -16.509  36.259 -15.734  1.00  0.00     0.002 A 
HETATM   26  C16 UNL     1     -17.319  37.159 -16.388  1.00  0.00     0.001 A 
HETATM   27  C17 UNL     1     -18.470  36.786 -17.027  1.00  0.00     0.021 A 
HETATM   28  C18 UNL     1     -18.893  35.453 -17.051  1.00  0.00     0.067 A 
BRANCH  28  29
HETATM   29  C19 UNL     1     -20.117  35.113 -17.787  1.00  0.00     0.211 C 
HETATM   30  O3  UNL     1     -20.037  34.170 -18.632  1.00  0.00    -0.644 OA
HETATM   31  O4  UNL     1     -21.328  35.702 -17.659  1.00  0.00    -0.644 OA
ENDBRANCH  28  29
ENDBRANCH  21  23
ENDBRANCH   5  21
TORSDOF 7
ENDMDL
