MODEL 2
REMARK VINA RESULT: -9.149904911      0.156      6.697
REMARK  7 active torsions:
REMARK  status: ('A' for Active; 'I' for Inactive)
REMARK    1  A    between atoms: C1_2  and  C2_4 
REMARK    2  A    between atoms: C7_9  and  N1_10 
REMARK    3  A    between atoms: N1_10  and  C8_12 
REMARK    4  A    between atoms: C12_16  and  N2_17 
REMARK    5  A    between atoms: N2_17  and  C13_19 
REMARK    6  A    between atoms: C18_24  and  C19_25 
REMARK    7  A    between atoms: C20_28  and  C21_29 
ROOT
HETATM    1  C8  UNL     1     -18.436  28.045 -14.000  1.00  0.00     0.052 A 
HETATM    2  C9  UNL     1     -18.902  28.453 -12.746  1.00  0.00     0.030 A 
HETATM    3  C10 UNL     1     -19.887  27.727 -12.124  1.00  0.00     0.005 A 
HETATM    4  C11 UNL     1     -20.439  26.607 -12.686  1.00  0.00     0.030 A 
HETATM    5  C12 UNL     1     -19.993  26.173 -13.940  1.00  0.00     0.052 A 
HETATM    6  C20 UNL     1     -18.992  26.909 -14.575  1.00  0.00     0.094 A 
ENDROOT
BRANCH   1   7
HETATM    7  N1  UNL     1     -17.305  28.750 -14.549  1.00  0.00    -0.354 N 
ATOM      8  H1  UNL     1     -16.506  28.232 -14.915  1.00  0.00     0.166 HD
BRANCH   7   9
HETATM    9  C7  UNL     1     -17.307  30.171 -14.577  1.00  0.00     0.049 A 
HETATM   10  C2  UNL     1     -18.073  30.830 -15.505  1.00  0.00     0.067 A 
HETATM   11  C3  UNL     1     -18.150  32.232 -15.438  1.00  0.00     0.021 A 
HETATM   12  C4  UNL     1     -17.458  32.890 -14.450  1.00  0.00     0.001 A 
HETATM   13  C5  UNL     1     -16.690  32.238 -13.518  1.00  0.00     0.002 A 
HETATM   14  C6  UNL     1     -16.614  30.868 -13.581  1.00  0.00     0.030 A 
BRANCH  10  15
HETATM   15  C1  UNL     1     -18.775  30.164 -16.579  1.00  0.00     0.211 C 
HETATM   16  O1  UNL     1     -18.071  29.670 -17.530  1.00  0.00    -0.644 OA
HETATM   17  O2  UNL     1     -20.125  29.979 -16.725  1.00  0.00    -0.644 OA
ENDBRANCH  10  15
ENDBRANCH   7   9
ENDBRANCH   1   7
BRANCH   6  18
HETATM   18  C21 UNL     1     -18.523  26.515 -15.901  1.00  0.00     0.214 C 
HETATM   19  O5  UNL     1     -19.279  26.582 -16.902  1.00  0.00    -0.644 OA
HETATM   20  O6  UNL     1     -17.242  26.054 -16.130  1.00  0.00    -0.644 OA
ENDBRANCH   6  18
BRANCH   5  21
HETATM   21  N2  UNL     1     -20.657  25.085 -14.565  1.00  0.00    -0.354 N 
ATOM     22  H2  UNL     1     -20.138  24.502 -15.221  1.00  0.00     0.166 HD
BRANCH  21  23
HETATM   23  C13 UNL     1     -22.024  24.783 -14.303  1.00  0.00     0.049 A 
HETATM   24  C14 UNL     1     -22.340  23.684 -13.495  1.00  0.00     0.030 A 
HETATM   25  C15 UNL     1     -23.634  23.261 -13.273  1.00  0.00     0.002 A 
HETATM   26  C16 UNL     1     -24.617  23.991 -13.903  1.00  0.00     0.001 A 
HETATM   27  C17 UNL     1     -24.340  25.068 -14.698  1.00  0.00     0.021 A 
HETATM   28  C18 UNL     1     -23.027  25.495 -14.919  1.00  0.00     0.067 A 
BRANCH  28  29
HETATM   29  C19 UNL     1     -22.799  26.683 -15.751  1.00  0.00     0.211 C 
HETATM   30  O3  UNL     1     -22.434  26.486 -16.949  1.00  0.00    -0.644 OA
HETATM   31  O4  UNL     1     -22.939  27.974 -15.372  1.00  0.00    -0.644 OA
ENDBRANCH  28  29
ENDBRANCH  21  23
ENDBRANCH   5  21
TORSDOF 7
ENDMDL
