MODEL 1
REMARK VINA RESULT: -9.228570413      0.000      0.000
REMARK  7 active torsions:
REMARK  status: ('A' for Active; 'I' for Inactive)
REMARK    1  A    between atoms: C1_2  and  C2_4 
REMARK    2  A    between atoms: C7_9  and  N1_10 
REMARK    3  A    between atoms: N1_10  and  C8_12 
REMARK    4  A    between atoms: C12_16  and  N2_17 
REMARK    5  A    between atoms: N2_17  and  C13_19 
REMARK    6  A    between atoms: C18_24  and  C19_25 
REMARK    7  A    between atoms: C20_28  and  C21_29 
ROOT
HETATM    1  C8  UNL     1     -19.906  26.227 -14.032  1.00  0.00     0.052 A 
HETATM    2  C9  UNL     1     -20.393  26.596 -12.775  1.00  0.00     0.030 A 
HETATM    3  C10 UNL     1     -19.883  27.708 -12.154  1.00  0.00     0.005 A 
HETATM    4  C11 UNL     1     -18.905  28.481 -12.720  1.00  0.00     0.030 A 
HETATM    5  C12 UNL     1     -18.397  28.138 -13.978  1.00  0.00     0.052 A 
HETATM    6  C20 UNL     1     -18.914  27.007 -14.613  1.00  0.00     0.094 A 
ENDROOT
BRANCH   1   7
HETATM    7  N1  UNL     1     -20.570  25.141 -14.709  1.00  0.00    -0.354 N 
ATOM      8  H1  UNL     1     -20.075  24.597 -15.415  1.00  0.00     0.166 HD
BRANCH   7   9
HETATM    9  C7  UNL     1     -21.920  24.832 -14.386  1.00  0.00     0.049 A 
HETATM   10  C2  UNL     1     -22.936  25.553 -14.959  1.00  0.00     0.067 A 
HETATM   11  C3  UNL     1     -24.262  25.154 -14.715  1.00  0.00     0.021 A 
HETATM   12  C4  UNL     1     -24.492  24.062 -13.914  1.00  0.00     0.001 A 
HETATM   13  C5  UNL     1     -23.481  23.336 -13.337  1.00  0.00     0.002 A 
HETATM   14  C6  UNL     1     -22.185  23.723 -13.575  1.00  0.00     0.030 A 
BRANCH  10  15
HETATM   15  C1  UNL     1     -22.722  26.730 -15.770  1.00  0.00     0.211 C 
HETATM   16  O1  UNL     1     -22.999  27.868 -15.247  1.00  0.00    -0.644 OA
HETATM   17  O2  UNL     1     -22.248  26.803 -17.054  1.00  0.00    -0.644 OA
ENDBRANCH  10  15
ENDBRANCH   7   9
ENDBRANCH   1   7
BRANCH   6  18
HETATM   18  C21 UNL     1     -18.387  26.591 -15.910  1.00  0.00     0.214 C 
HETATM   19  O5  UNL     1     -19.069  26.720 -16.957  1.00  0.00    -0.644 OA
HETATM   20  O6  UNL     1     -17.130  26.043 -16.060  1.00  0.00    -0.644 OA
ENDBRANCH   6  18
BRANCH   5  21
HETATM   21  N2  UNL     1     -17.301  28.874 -14.499  1.00  0.00    -0.354 N 
ATOM     22  H2  UNL     1     -16.481  28.368 -14.834  1.00  0.00     0.166 HD
BRANCH  21  23
HETATM   23  C13 UNL     1     -17.311  30.296 -14.570  1.00  0.00     0.049 A 
HETATM   24  C14 UNL     1     -16.650  31.036 -13.583  1.00  0.00     0.030 A 
HETATM   25  C15 UNL     1     -16.694  32.413 -13.518  1.00  0.00     0.002 A 
HETATM   26  C16 UNL     1     -17.440  33.033 -14.495  1.00  0.00     0.001 A 
HETATM   27  C17 UNL     1     -18.097  32.338 -15.473  1.00  0.00     0.021 A 
HETATM   28  C18 UNL     1     -18.049  30.942 -15.535  1.00  0.00     0.067 A 
BRANCH  28  29
HETATM   29  C19 UNL     1     -18.743  30.259 -16.633  1.00  0.00     0.211 C 
HETATM   30  O3  UNL     1     -18.025  29.802 -17.574  1.00  0.00    -0.644 OA
HETATM   31  O4  UNL     1     -20.077  30.063 -16.749  1.00  0.00    -0.644 OA
ENDBRANCH  28  29
ENDBRANCH  21  23
ENDBRANCH   5  21
TORSDOF 7
ENDMDL
