MODEL 4
REMARK VINA RESULT: -9.032071010      2.456      7.727
REMARK  7 active torsions:
REMARK  status: ('A' for Active; 'I' for Inactive)
REMARK    1  A    between atoms: C1_2  and  C2_4 
REMARK    2  A    between atoms: C7_9  and  N1_10 
REMARK    3  A    between atoms: N1_10  and  C8_12 
REMARK    4  A    between atoms: C12_16  and  N2_17 
REMARK    5  A    between atoms: N2_17  and  C13_19 
REMARK    6  A    between atoms: C18_24  and  C19_25 
REMARK    7  A    between atoms: C20_28  and  C21_29 
ROOT
HETATM    1  C8  UNL     1     -17.961  32.285 -15.415  1.00  0.00     0.052 A 
HETATM    2  C9  UNL     1     -17.323  32.878 -14.321  1.00  0.00     0.030 A 
HETATM    3  C10 UNL     1     -16.698  32.085 -13.392  1.00  0.00     0.005 A 
HETATM    4  C11 UNL     1     -16.672  30.720 -13.493  1.00  0.00     0.030 A 
HETATM    5  C12 UNL     1     -17.300  30.095 -14.576  1.00  0.00     0.052 A 
HETATM    6  C20 UNL     1     -17.937  30.900 -15.523  1.00  0.00     0.094 A 
ENDROOT
BRANCH   1   7
HETATM    7  N1  UNL     1     -18.476  33.160 -16.438  1.00  0.00    -0.354 N 
ATOM      8  H1  UNL     1     -19.134  32.805 -17.132  1.00  0.00     0.166 HD
BRANCH   7   9
HETATM    9  C7  UNL     1     -18.062  34.519 -16.475  1.00  0.00     0.049 A 
HETATM   10  C2  UNL     1     -18.884  35.463 -17.035  1.00  0.00     0.067 A 
HETATM   11  C3  UNL     1     -18.505  36.815 -16.955  1.00  0.00     0.021 A 
HETATM   12  C4  UNL     1     -17.329  37.140 -16.323  1.00  0.00     0.001 A 
HETATM   13  C5  UNL     1     -16.501  36.201 -15.760  1.00  0.00     0.002 A 
HETATM   14  C6  UNL     1     -16.870  34.880 -15.836  1.00  0.00     0.030 A 
BRANCH  10  15
HETATM   15  C1  UNL     1     -20.103  35.143 -17.742  1.00  0.00     0.211 C 
HETATM   16  O1  UNL     1     -20.050  34.213 -18.623  1.00  0.00    -0.644 OA
HETATM   17  O2  UNL     1     -21.343  35.709 -17.596  1.00  0.00    -0.644 OA
ENDBRANCH  10  15
ENDBRANCH   7   9
ENDBRANCH   1   7
BRANCH   6  18
HETATM   18  C21 UNL     1     -18.637  30.289 -16.649  1.00  0.00     0.214 C 
HETATM   19  O5  UNL     1     -18.007  29.692 -17.558  1.00  0.00    -0.644 OA
HETATM   20  O6  UNL     1     -20.011  30.328 -16.781  1.00  0.00    -0.644 OA
ENDBRANCH   6  18
BRANCH   5  21
HETATM   21  N2  UNL     1     -17.372  28.678 -14.604  1.00  0.00    -0.354 N 
ATOM     22  H2  UNL     1     -16.618  28.154 -15.049  1.00  0.00     0.166 HD
BRANCH  21  23
HETATM   23  C13 UNL     1     -18.463  27.965 -14.029  1.00  0.00     0.049 A 
HETATM   24  C14 UNL     1     -18.901  28.302 -12.744  1.00  0.00     0.030 A 
HETATM   25  C15 UNL     1     -19.880  27.600 -12.073  1.00  0.00     0.002 A 
HETATM   26  C16 UNL     1     -20.414  26.526 -12.750  1.00  0.00     0.001 A 
HETATM   27  C17 UNL     1     -20.007  26.171 -14.007  1.00  0.00     0.021 A 
HETATM   28  C18 UNL     1     -19.014  26.887 -14.683  1.00  0.00     0.067 A 
BRANCH  28  29
HETATM   29  C19 UNL     1     -18.650  26.478 -16.045  1.00  0.00     0.211 C 
HETATM   30  O3  UNL     1     -17.503  25.962 -16.205  1.00  0.00    -0.644 OA
HETATM   31  O4  UNL     1     -19.415  26.595 -17.156  1.00  0.00    -0.644 OA
ENDBRANCH  28  29
ENDBRANCH  21  23
ENDBRANCH   5  21
TORSDOF 7
ENDMDL
