MODEL 1
REMARK VINA RESULT: -8.549479585      0.000      0.000
REMARK  3 active torsions:
REMARK  status: ('A' for Active; 'I' for Inactive)
REMARK       I    between atoms: C1_2  and  N2_4 
REMARK    1  A    between atoms: N2_4  and  C2_6 
REMARK    2  A    between atoms: N3_8  and  C4_9 
REMARK    3  A    between atoms: C14_21  and  C15_22 
ROOT
HETATM    1  C2  UNL     1       7.508   6.605  18.796  1.00  0.00     0.087 A 
HETATM    2  C3  UNL     1       6.302   5.941  18.858  1.00  0.00     0.148 A 
HETATM    3  N3  UNL     1       5.839   6.143  20.102  1.00  0.00    -0.264 N 
HETATM    4  N4  UNL     1       6.660   6.878  20.812  1.00  0.00    -0.287 N 
ATOM      5  H4  UNL     1       6.525   7.165  21.781  1.00  0.00     0.188 HD
HETATM    6  C14 UNL     1       7.718   7.187  20.028  1.00  0.00     0.142 A 
ENDROOT
BRANCH   3   7
HETATM    7  C4  UNL     1       4.604   5.636  20.632  1.00  0.00     0.067 A 
HETATM    8  C5  UNL     1       3.427   5.761  19.938  1.00  0.00     0.032 A 
HETATM    9  C6  UNL     1       2.221   5.282  20.424  1.00  0.00     0.003 A 
HETATM   10  C7  UNL     1       2.245   4.668  21.649  1.00  0.00     0.012 A 
HETATM   11  C8  UNL     1       3.400   4.511  22.399  1.00  0.00    -0.024 A 
HETATM   12  C9  UNL     1       3.375   3.879  23.638  1.00  0.00     0.012 A 
HETATM   13  C13 UNL     1       4.572   5.008  21.860  1.00  0.00     0.003 A 
HETATM   14  C10 UNL     1       4.534   3.731  24.372  1.00  0.00     0.001 A 
HETATM   15  C11 UNL     1       5.709   4.225  23.845  1.00  0.00     0.001 A 
HETATM   16  C12 UNL     1       5.721   4.851  22.611  1.00  0.00     0.014 A 
ENDBRANCH   3   7
BRANCH   1  17
HETATM   17  N2  UNL     1       8.379   6.683  17.679  1.00  0.00    -0.308 N 
HETATM   18  C1  UNL     1       8.243   7.597  16.605  1.00  0.00     0.333 C 
HETATM   19  N1  UNL     1       9.185   7.600  15.506  1.00  0.00    -0.040 NA
HETATM   20  O1  UNL     1       7.308   8.404  16.603  1.00  0.00    -0.251 OA
ATOM     21  H2  UNL     1       9.162   6.030  17.646  1.00  0.00     0.170 HD
ENDBRANCH   1  17
BRANCH   6  22
HETATM   22  C15 UNL     1       8.880   7.995  20.414  1.00  0.00     0.285 C 
HETATM   23  N5  UNL     1       9.235   8.016  21.783  1.00  0.00    -0.056 NA
HETATM   24  O2  UNL     1       9.576   8.665  19.627  1.00  0.00    -0.269 OA
ENDBRANCH   6  22
TORSDOF 3
ENDMDL
