MODEL 2
REMARK VINA RESULT: -8.516158279      1.780      3.136
REMARK  3 active torsions:
REMARK  status: ('A' for Active; 'I' for Inactive)
REMARK       I    between atoms: C1_2  and  N2_4 
REMARK    1  A    between atoms: N2_4  and  C2_6 
REMARK    2  A    between atoms: N3_8  and  C4_9 
REMARK    3  A    between atoms: C14_21  and  C15_22 
ROOT
HETATM    1  C2  UNL     1       8.461   6.947  21.264  1.00  0.00     0.087 A 
HETATM    2  C3  UNL     1       7.347   6.159  21.069  1.00  0.00     0.148 A 
HETATM    3  N3  UNL     1       6.796   6.001  22.283  1.00  0.00    -0.264 N 
HETATM    4  N4  UNL     1       7.478   6.627  23.211  1.00  0.00    -0.287 N 
ATOM      5  H4  UNL     1       7.256   6.653  24.206  1.00  0.00     0.188 HD
HETATM    6  C14 UNL     1       8.529   7.232  22.612  1.00  0.00     0.142 A 
ENDROOT
BRANCH   3   7
HETATM    7  C4  UNL     1       5.608   5.248  22.576  1.00  0.00     0.067 A 
HETATM    8  C5  UNL     1       5.542   4.419  23.667  1.00  0.00     0.032 A 
HETATM    9  C6  UNL     1       4.410   3.681  23.974  1.00  0.00     0.003 A 
HETATM   10  C7  UNL     1       3.336   3.811  23.132  1.00  0.00     0.012 A 
HETATM   11  C8  UNL     1       3.340   4.631  22.015  1.00  0.00    -0.024 A 
HETATM   12  C9  UNL     1       2.225   4.731  21.189  1.00  0.00     0.012 A 
HETATM   13  C13 UNL     1       4.498   5.342  21.761  1.00  0.00     0.003 A 
HETATM   14  C10 UNL     1       2.246   5.552  20.081  1.00  0.00     0.001 A 
HETATM   15  C11 UNL     1       3.397   6.266  19.818  1.00  0.00     0.001 A 
HETATM   16  C12 UNL     1       4.499   6.159  20.647  1.00  0.00     0.014 A 
ENDBRANCH   3   7
BRANCH   1  17
HETATM   17  N2  UNL     1       9.373   7.389  20.272  1.00  0.00    -0.308 N 
HETATM   18  C1  UNL     1       9.180   8.515  19.435  1.00  0.00     0.333 C 
HETATM   19  N1  UNL     1      10.172   8.888  18.449  1.00  0.00    -0.040 NA
HETATM   20  O1  UNL     1       8.151   9.190  19.544  1.00  0.00    -0.251 OA
ATOM     21  H2  UNL     1      10.234   6.855  20.153  1.00  0.00     0.170 HD
ENDBRANCH   1  17
BRANCH   6  22
HETATM   22  C15 UNL     1       9.557   8.045  23.271  1.00  0.00     0.285 C 
HETATM   23  N5  UNL     1       9.781   7.821  24.649  1.00  0.00    -0.056 NA
HETATM   24  O2  UNL     1      10.245   8.917  22.708  1.00  0.00    -0.269 OA
ENDBRANCH   6  22
TORSDOF 3
ENDMDL
