MODEL 3
REMARK VINA RESULT: -8.512464116      1.709      4.129
REMARK  3 active torsions:
REMARK  status: ('A' for Active; 'I' for Inactive)
REMARK       I    between atoms: C1_2  and  N2_4 
REMARK    1  A    between atoms: N2_4  and  C2_6 
REMARK    2  A    between atoms: N3_8  and  C4_9 
REMARK    3  A    between atoms: C14_21  and  C15_22 
ROOT
HETATM    1  C2  UNL     1       8.669   7.375  22.369  1.00  0.00     0.087 A 
HETATM    2  C3  UNL     1       7.816   6.614  23.140  1.00  0.00     0.148 A 
HETATM    3  N3  UNL     1       6.879   6.152  22.297  1.00  0.00    -0.264 N 
HETATM    4  N4  UNL     1       7.083   6.565  21.070  1.00  0.00    -0.287 N 
ATOM      5  H4  UNL     1       6.507   6.346  20.258  1.00  0.00     0.188 HD
HETATM    6  C14 UNL     1       8.195   7.335  21.075  1.00  0.00     0.142 A 
ENDROOT
BRANCH   3   7
HETATM    7  C4  UNL     1       5.772   5.307  22.652  1.00  0.00     0.067 A 
HETATM    8  C5  UNL     1       5.843   4.454  23.724  1.00  0.00     0.032 A 
HETATM    9  C6  UNL     1       4.791   3.628  24.090  1.00  0.00     0.003 A 
HETATM   10  C7  UNL     1       3.656   3.695  23.326  1.00  0.00     0.012 A 
HETATM   11  C8  UNL     1       3.522   4.534  22.231  1.00  0.00    -0.024 A 
HETATM   12  C9  UNL     1       2.348   4.568  21.486  1.00  0.00     0.012 A 
HETATM   13  C13 UNL     1       4.604   5.335  21.917  1.00  0.00     0.003 A 
HETATM   14  C10 UNL     1       2.231   5.409  20.399  1.00  0.00     0.001 A 
HETATM   15  C11 UNL     1       3.306   6.212  20.076  1.00  0.00     0.001 A 
HETATM   16  C12 UNL     1       4.468   6.170  20.826  1.00  0.00     0.014 A 
ENDBRANCH   3   7
BRANCH   1  17
HETATM   17  N2  UNL     1       9.820   8.074  22.814  1.00  0.00    -0.308 N 
HETATM   18  C1  UNL     1      11.130   7.535  22.859  1.00  0.00     0.333 C 
HETATM   19  N1  UNL     1      12.245   8.330  23.330  1.00  0.00    -0.040 NA
HETATM   20  O1  UNL     1      11.327   6.372  22.494  1.00  0.00    -0.251 OA
ATOM     21  H2  UNL     1       9.696   9.038  23.124  1.00  0.00     0.170 HD
ENDBRANCH   1  17
BRANCH   6  22
HETATM   22  C15 UNL     1       8.794   8.006  19.916  1.00  0.00     0.285 C 
HETATM   23  N5  UNL     1       8.020   8.082  18.734  1.00  0.00    -0.056 NA
HETATM   24  O2  UNL     1       9.932   8.512  19.895  1.00  0.00    -0.269 OA
ENDBRANCH   6  22
TORSDOF 3
ENDMDL
