MODEL 8
REMARK VINA RESULT: -6.793822159      2.554      6.938
REMARK  5 active torsions:
REMARK  status: ('A' for Active; 'I' for Inactive)
REMARK    1  A    between atoms: C2_2  and  O1_3 
REMARK    2  A    between atoms: O1_3  and  C3_4 
REMARK    3  A    between atoms: C10_11  and  N1_12 
REMARK    4  A    between atoms: C12_14  and  N2_15 
REMARK       I    between atoms: N2_15  and  C13_17 
REMARK    5  A    between atoms: C14_20  and  C15_21 
ROOT
HETATM    1  N1  UNL     1      -5.498   8.626  13.502  1.00  0.00    -0.264 N 
HETATM    2  C11 UNL     1      -6.109   9.737  13.962  1.00  0.00     0.148 A 
HETATM    3  C12 UNL     1      -6.063  10.744  13.021  1.00  0.00     0.087 A 
HETATM    4  C14 UNL     1      -5.389  10.194  11.952  1.00  0.00     0.142 A 
HETATM    5  N5  UNL     1      -5.073   8.920  12.293  1.00  0.00    -0.287 N 
ATOM      6  H5  UNL     1      -4.568   8.271  11.688  1.00  0.00     0.188 HD
ENDROOT
BRANCH   1   7
HETATM    7  C10 UNL     1      -5.355   7.383  14.212  1.00  0.00     0.067 A 
HETATM    8  C9  UNL     1      -6.441   6.537  14.392  1.00  0.00     0.032 A 
HETATM    9  C8  UNL     1      -6.324   5.349  15.065  1.00  0.00     0.003 A 
HETATM   10  C7  UNL     1      -5.090   5.002  15.571  1.00  0.00     0.012 A 
HETATM   11  C6  UNL     1      -4.000   5.850  15.394  1.00  0.00    -0.024 A 
HETATM   12  C5  UNL     1      -2.777   5.488  15.905  1.00  0.00     0.015 A 
HETATM   13  C16 UNL     1      -4.125   7.053  14.709  1.00  0.00     0.005 A 
HETATM   14  C4  UNL     1      -1.675   6.317  15.739  1.00  0.00     0.037 A 
HETATM   15  C3  UNL     1      -1.800   7.511  15.060  1.00  0.00     0.069 A 
HETATM   16  C17 UNL     1      -3.021   7.888  14.541  1.00  0.00     0.051 A 
BRANCH  15  17
HETATM   17  O1  UNL     1      -0.687   8.294  14.922  1.00  0.00    -0.351 OA
BRANCH  17  18
HETATM   18  C2  UNL     1      -0.541   9.628  15.317  1.00  0.00     0.171 C 
HETATM   19  C1  UNL     1       0.832  10.008  15.757  1.00  0.00     0.034 C 
ENDBRANCH  17  18
ENDBRANCH  15  17
ENDBRANCH   1   7
BRANCH   3  20
HETATM   20  N2  UNL     1      -6.582  12.053  13.109  1.00  0.00    -0.308 N 
HETATM   21  C13 UNL     1      -7.149  12.592  14.281  1.00  0.00     0.333 C 
HETATM   22  N3  UNL     1      -7.654  13.921  14.298  1.00  0.00    -0.040 NA
HETATM   23  O2  UNL     1      -7.232  11.934  15.337  1.00  0.00    -0.251 OA
ATOM     24  H2  UNL     1      -6.545  12.642  12.278  1.00  0.00     0.170 HD
ENDBRANCH   3  20
BRANCH   4  25
HETATM   25  C15 UNL     1      -5.072  10.846  10.689  1.00  0.00     0.285 C 
HETATM   26  N4  UNL     1      -4.009  10.340   9.888  1.00  0.00    -0.056 NA
HETATM   27  O3  UNL     1      -5.686  11.841  10.257  1.00  0.00    -0.269 OA
ENDBRANCH   4  25
TORSDOF 5
ENDMDL
