MODEL 4
REMARK VINA RESULT: -8.387912735      1.860      4.568
REMARK  5 active torsions:
REMARK  status: ('A' for Active; 'I' for Inactive)
REMARK    1  A    between atoms: C2_2  and  O1_3 
REMARK    2  A    between atoms: O1_3  and  C3_4 
REMARK    3  A    between atoms: C10_11  and  N1_12 
REMARK    4  A    between atoms: C12_14  and  N2_15 
REMARK       I    between atoms: N2_15  and  C13_17 
REMARK    5  A    between atoms: C14_20  and  C15_21 
ROOT
HETATM    1  N1  UNL     1      -5.255   8.603  14.537  1.00  0.00    -0.264 N 
HETATM    2  C11 UNL     1      -5.696   7.426  15.025  1.00  0.00     0.148 A 
HETATM    3  C12 UNL     1      -4.669   6.509  15.089  1.00  0.00     0.087 A 
HETATM    4  C14 UNL     1      -3.566   7.184  14.613  1.00  0.00     0.142 A 
HETATM    5  N5  UNL     1      -3.973   8.438  14.296  1.00  0.00    -0.287 N 
ATOM      6  H5  UNL     1      -3.362   9.163  13.918  1.00  0.00     0.188 HD
ENDROOT
BRANCH   1   7
HETATM    7  C10 UNL     1      -6.049   9.786  14.333  1.00  0.00     0.067 A 
HETATM    8  C9  UNL     1      -6.986  10.186  15.275  1.00  0.00     0.032 A 
HETATM    9  C8  UNL     1      -7.751  11.309  15.098  1.00  0.00     0.003 A 
HETATM   10  C7  UNL     1      -7.573  12.047  13.948  1.00  0.00     0.012 A 
HETATM   11  C6  UNL     1      -6.635  11.647  13.000  1.00  0.00    -0.024 A 
HETATM   12  C5  UNL     1      -6.471  12.395  11.860  1.00  0.00     0.015 A 
HETATM   13  C16 UNL     1      -5.861  10.506  13.186  1.00  0.00     0.005 A 
HETATM   14  C4  UNL     1      -5.540  12.015  10.900  1.00  0.00     0.037 A 
HETATM   15  C3  UNL     1      -4.773  10.884  11.086  1.00  0.00     0.069 A 
HETATM   16  C17 UNL     1      -4.927  10.123  12.226  1.00  0.00     0.051 A 
BRANCH  15  17
HETATM   17  O1  UNL     1      -3.870  10.550  10.114  1.00  0.00    -0.351 OA
BRANCH  17  18
HETATM   18  C2  UNL     1      -4.152  10.168   8.798  1.00  0.00     0.171 C 
HETATM   19  C1  UNL     1      -4.143   8.698   8.554  1.00  0.00     0.034 C 
ENDBRANCH  17  18
ENDBRANCH  15  17
ENDBRANCH   1   7
BRANCH   3  20
HETATM   20  N2  UNL     1      -4.712   5.171  15.537  1.00  0.00    -0.308 N 
HETATM   21  C13 UNL     1      -5.790   4.298  15.292  1.00  0.00     0.333 C 
HETATM   22  N3  UNL     1      -5.766   2.961  15.775  1.00  0.00    -0.040 NA
HETATM   23  O2  UNL     1      -6.797   4.658  14.651  1.00  0.00    -0.251 OA
ATOM     24  H2  UNL     1      -3.917   4.817  16.070  1.00  0.00     0.170 HD
ENDBRANCH   3  20
BRANCH   4  25
HETATM   25  C15 UNL     1      -2.213   6.662  14.474  1.00  0.00     0.285 C 
HETATM   26  N4  UNL     1      -1.632   5.930  15.549  1.00  0.00    -0.056 NA
HETATM   27  O3  UNL     1      -1.519   6.819  13.451  1.00  0.00    -0.269 OA
ENDBRANCH   4  25
TORSDOF 5
ENDMDL
