MODEL 6
REMARK VINA RESULT: -7.586417830      2.359      4.904
REMARK  5 active torsions:
REMARK  status: ('A' for Active; 'I' for Inactive)
REMARK    1  A    between atoms: C2_2  and  O1_3 
REMARK    2  A    between atoms: O1_3  and  C3_4 
REMARK    3  A    between atoms: C10_11  and  N1_12 
REMARK    4  A    between atoms: C12_14  and  N2_15 
REMARK       I    between atoms: N2_15  and  C13_17 
REMARK    5  A    between atoms: C14_20  and  C15_21 
ROOT
HETATM    1  N1  UNL     1      -6.944  10.685  14.333  1.00  0.00    -0.264 N 
HETATM    2  C11 UNL     1      -7.028   9.365  14.595  1.00  0.00     0.148 A 
HETATM    3  C12 UNL     1      -7.533   9.150  15.860  1.00  0.00     0.087 A 
HETATM    4  C14 UNL     1      -7.758  10.411  16.366  1.00  0.00     0.142 A 
HETATM    5  N5  UNL     1      -7.387  11.297  15.408  1.00  0.00    -0.287 N 
ATOM      6  H5  UNL     1      -7.445  12.311  15.509  1.00  0.00     0.188 HD
ENDROOT
BRANCH   1   7
HETATM    7  C10 UNL     1      -6.462  11.277  13.113  1.00  0.00     0.067 A 
HETATM    8  C9  UNL     1      -7.071  12.405  12.580  1.00  0.00     0.032 A 
HETATM    9  C8  UNL     1      -6.626  12.982  11.420  1.00  0.00     0.003 A 
HETATM   10  C7  UNL     1      -5.547  12.414  10.778  1.00  0.00     0.012 A 
HETATM   11  C6  UNL     1      -4.936  11.282  11.309  1.00  0.00    -0.024 A 
HETATM   12  C5  UNL     1      -3.861  10.730  10.656  1.00  0.00     0.015 A 
HETATM   13  C16 UNL     1      -5.391  10.701  12.488  1.00  0.00     0.005 A 
HETATM   14  C4  UNL     1      -3.235   9.600  11.168  1.00  0.00     0.037 A 
HETATM   15  C3  UNL     1      -3.687   9.024  12.337  1.00  0.00     0.069 A 
HETATM   16  C17 UNL     1      -4.765   9.568  13.004  1.00  0.00     0.051 A 
BRANCH  15  17
HETATM   17  O1  UNL     1      -3.039   7.913  12.801  1.00  0.00    -0.351 OA
BRANCH  17  18
HETATM   18  C2  UNL     1      -1.986   7.875  13.721  1.00  0.00     0.171 C 
HETATM   19  C1  UNL     1      -2.045   6.752  14.700  1.00  0.00     0.034 C 
ENDBRANCH  17  18
ENDBRANCH  15  17
ENDBRANCH   1   7
BRANCH   3  20
HETATM   20  N2  UNL     1      -7.776   7.922  16.512  1.00  0.00    -0.308 N 
HETATM   21  C13 UNL     1      -7.306   6.681  16.042  1.00  0.00     0.333 C 
HETATM   22  N3  UNL     1      -7.588   5.481  16.751  1.00  0.00    -0.040 NA
HETATM   23  O2  UNL     1      -6.633   6.583  14.996  1.00  0.00    -0.251 OA
ATOM     24  H2  UNL     1      -8.323   7.934  17.373  1.00  0.00     0.170 HD
ENDBRANCH   3  20
BRANCH   4  25
HETATM   25  C15 UNL     1      -8.293  10.744  17.679  1.00  0.00     0.285 C 
HETATM   26  N4  UNL     1      -8.183  12.080  18.162  1.00  0.00    -0.056 NA
HETATM   27  O3  UNL     1      -8.853   9.916  18.422  1.00  0.00    -0.269 OA
ENDBRANCH   4  25
TORSDOF 5
ENDMDL
