MODEL 1
REMARK VINA RESULT: -10.585593016      0.000      0.000
REMARK  5 active torsions:
REMARK  status: ('A' for Active; 'I' for Inactive)
REMARK    1  A    between atoms: C2_2  and  O1_3 
REMARK    2  A    between atoms: O1_3  and  C3_4 
REMARK    3  A    between atoms: C10_11  and  N1_12 
REMARK    4  A    between atoms: C12_14  and  N2_15 
REMARK       I    between atoms: N2_15  and  C13_17 
REMARK    5  A    between atoms: C14_20  and  C15_21 
ROOT
HETATM    1  N1  UNL     1      -5.124   8.500  13.428  1.00  0.00    -0.264 N 
HETATM    2  C11 UNL     1      -3.972   8.039  13.957  1.00  0.00     0.148 A 
HETATM    3  C12 UNL     1      -4.215   6.976  14.801  1.00  0.00     0.087 A 
HETATM    4  C14 UNL     1      -5.581   6.804  14.764  1.00  0.00     0.142 A 
HETATM    5  N5  UNL     1      -6.079   7.745  13.924  1.00  0.00    -0.287 N 
ATOM      6  H5  UNL     1      -7.069   7.854  13.705  1.00  0.00     0.188 HD
ENDROOT
BRANCH   1   7
HETATM    7  C10 UNL     1      -5.253   9.599  12.507  1.00  0.00     0.067 A 
HETATM    8  C9  UNL     1      -4.693   9.533  11.239  1.00  0.00     0.032 A 
HETATM    9  C8  UNL     1      -4.805  10.569  10.348  1.00  0.00     0.003 A 
HETATM   10  C7  UNL     1      -5.493  11.697  10.740  1.00  0.00     0.012 A 
HETATM   11  C6  UNL     1      -6.054  11.766  12.013  1.00  0.00    -0.024 A 
HETATM   12  C5  UNL     1      -6.737  12.897  12.386  1.00  0.00     0.015 A 
HETATM   13  C16 UNL     1      -5.937  10.711  12.911  1.00  0.00     0.005 A 
HETATM   14  C4  UNL     1      -7.306  12.988  13.650  1.00  0.00     0.037 A 
HETATM   15  C3  UNL     1      -7.189  11.942  14.541  1.00  0.00     0.069 A 
HETATM   16  C17 UNL     1      -6.507  10.798  14.180  1.00  0.00     0.051 A 
BRANCH  15  17
HETATM   17  O1  UNL     1      -7.765  12.077  15.774  1.00  0.00    -0.351 OA
BRANCH  17  18
HETATM   18  C2  UNL     1      -7.192  11.765  17.011  1.00  0.00     0.171 C 
HETATM   19  C1  UNL     1      -7.957  10.782  17.829  1.00  0.00     0.034 C 
ENDBRANCH  17  18
ENDBRANCH  15  17
ENDBRANCH   1   7
BRANCH   3  20
HETATM   20  N2  UNL     1      -3.287   6.217  15.547  1.00  0.00    -0.308 N 
HETATM   21  C13 UNL     1      -1.945   6.027  15.164  1.00  0.00     0.333 C 
HETATM   22  N3  UNL     1      -1.065   5.249  15.964  1.00  0.00    -0.040 NA
HETATM   23  O2  UNL     1      -1.480   6.525  14.119  1.00  0.00    -0.251 OA
ATOM     24  H2  UNL     1      -3.607   5.781  16.411  1.00  0.00     0.170 HD
ENDBRANCH   3  20
BRANCH   4  25
HETATM   25  C15 UNL     1      -6.356   5.803  15.485  1.00  0.00     0.285 C 
HETATM   26  N4  UNL     1      -5.729   4.590  15.889  1.00  0.00    -0.056 NA
HETATM   27  O3  UNL     1      -7.559   5.946  15.777  1.00  0.00    -0.269 OA
ENDBRANCH   4  25
TORSDOF 5
ENDMDL
