MODEL 5
REMARK VINA RESULT: -8.665065108      1.930      5.216
REMARK  6 active torsions:
REMARK  status: ('A' for Active; 'I' for Inactive)
REMARK    1  A    between atoms: C2_2  and  C3_3 
REMARK    2  A    between atoms: C3_3  and  O1_4 
REMARK    3  A    between atoms: O1_4  and  C4_5 
REMARK    4  A    between atoms: C11_12  and  N1_13 
REMARK    5  A    between atoms: C13_15  and  N2_16 
REMARK       I    between atoms: N2_16  and  C14_18 
REMARK    6  A    between atoms: C15_21  and  C16_22 
ROOT
HETATM    1  C4  UNL     1      -4.846  10.757  10.529  1.00  0.00     0.069 A 
HETATM    2  C5  UNL     1      -5.484  11.935  10.272  1.00  0.00     0.037 A 
HETATM    3  C6  UNL     1      -6.278  12.553  11.212  1.00  0.00     0.015 A 
HETATM    4  C7  UNL     1      -6.462  12.003  12.463  1.00  0.00    -0.024 A 
HETATM    5  C8  UNL     1      -7.254  12.619  13.400  1.00  0.00     0.012 A 
HETATM    6  C9  UNL     1      -7.396  12.012  14.641  1.00  0.00     0.003 A 
HETATM    7  C10 UNL     1      -6.748  10.817  14.896  1.00  0.00     0.032 A 
HETATM    8  C11 UNL     1      -5.949  10.181  13.971  1.00  0.00     0.067 A 
HETATM    9  C17 UNL     1      -5.817  10.807  12.728  1.00  0.00     0.005 A 
HETATM   10  C18 UNL     1      -5.034  10.197  11.803  1.00  0.00     0.051 A 
ENDROOT
BRANCH   8  11
HETATM   11  N1  UNL     1      -5.275   8.955  14.214  1.00  0.00    -0.264 N 
HETATM   12  C12 UNL     1      -5.883   7.783  14.564  1.00  0.00     0.148 A 
HETATM   13  C13 UNL     1      -4.951   6.780  14.728  1.00  0.00     0.087 A 
HETATM   14  C15 UNL     1      -3.716   7.395  14.457  1.00  0.00     0.142 A 
HETATM   15  N5  UNL     1      -4.004   8.663  14.168  1.00  0.00    -0.287 N 
ATOM     16  H5  UNL     1      -3.288   9.351  13.929  1.00  0.00     0.188 HD
BRANCH  13  17
HETATM   17  N2  UNL     1      -5.129   5.425  15.083  1.00  0.00    -0.308 N 
HETATM   18  C14 UNL     1      -6.172   5.027  15.941  1.00  0.00     0.333 C 
HETATM   19  N3  UNL     1      -6.300   3.624  16.266  1.00  0.00    -0.040 NA
HETATM   20  O2  UNL     1      -6.991   5.822  16.435  1.00  0.00    -0.251 OA
ATOM     21  H2  UNL     1      -4.490   4.722  14.711  1.00  0.00     0.170 HD
ENDBRANCH  13  17
BRANCH  14  22
HETATM   22  C16 UNL     1      -2.391   6.766  14.490  1.00  0.00     0.285 C 
HETATM   23  N4  UNL     1      -1.999   6.096  15.677  1.00  0.00    -0.056 NA
HETATM   24  O3  UNL     1      -1.624   6.810  13.514  1.00  0.00    -0.269 OA
ENDBRANCH  14  22
ENDBRANCH   8  11
BRANCH   1  25
HETATM   25  O1  UNL     1      -4.043  10.076   9.667  1.00  0.00    -0.351 OA
BRANCH  25  26
HETATM   26  C3  UNL     1      -4.044   9.941   8.303  1.00  0.00     0.175 C 
BRANCH  26  27
HETATM   27  C2  UNL     1      -4.011   8.564   7.736  1.00  0.00     0.022 C 
HETATM   28  C1  UNL     1      -4.294   8.542   6.246  1.00  0.00     0.007 C 
ENDBRANCH  26  27
ENDBRANCH  25  26
ENDBRANCH   1  25
TORSDOF 6
ENDMDL
