MODEL 8
REMARK VINA RESULT: -7.616086651      0.877      1.121
REMARK  6 active torsions:
REMARK  status: ('A' for Active; 'I' for Inactive)
REMARK    1  A    between atoms: C2_2  and  C3_3 
REMARK    2  A    between atoms: C3_3  and  O1_4 
REMARK    3  A    between atoms: O1_4  and  C4_5 
REMARK    4  A    between atoms: C11_12  and  N1_13 
REMARK    5  A    between atoms: C13_15  and  N2_16 
REMARK       I    between atoms: N2_16  and  C14_18 
REMARK    6  A    between atoms: C15_21  and  C16_22 
ROOT
HETATM    1  C4  UNL     1      -7.099  11.846  15.466  1.00  0.00     0.069 A 
HETATM    2  C5  UNL     1      -7.311  12.991  14.754  1.00  0.00     0.037 A 
HETATM    3  C6  UNL     1      -6.994  13.087  13.419  1.00  0.00     0.015 A 
HETATM    4  C7  UNL     1      -6.445  12.021  12.738  1.00  0.00    -0.024 A 
HETATM    5  C8  UNL     1      -6.128  12.117  11.405  1.00  0.00     0.012 A 
HETATM    6  C9  UNL     1      -5.578  11.006  10.779  1.00  0.00     0.003 A 
HETATM    7  C10 UNL     1      -5.365   9.848  11.505  1.00  0.00     0.032 A 
HETATM    8  C11 UNL     1      -5.674   9.730  12.842  1.00  0.00     0.067 A 
HETATM    9  C17 UNL     1      -6.228  10.858  13.456  1.00  0.00     0.005 A 
HETATM   10  C18 UNL     1      -6.539  10.761  14.772  1.00  0.00     0.051 A 
ENDROOT
BRANCH   8  11
HETATM   11  N1  UNL     1      -5.463   8.550  13.604  1.00  0.00    -0.264 N 
HETATM   12  C12 UNL     1      -4.241   8.029  13.919  1.00  0.00     0.148 A 
HETATM   13  C13 UNL     1      -4.378   6.879  14.667  1.00  0.00     0.087 A 
HETATM   14  C15 UNL     1      -5.767   6.709  14.804  1.00  0.00     0.142 A 
HETATM   15  N5  UNL     1      -6.319   7.730  14.151  1.00  0.00    -0.287 N 
ATOM     16  H5  UNL     1      -7.329   7.861  14.085  1.00  0.00     0.188 HD
BRANCH  13  17
HETATM   17  N2  UNL     1      -3.392   6.022  15.205  1.00  0.00    -0.308 N 
HETATM   18  C14 UNL     1      -2.104   6.498  15.515  1.00  0.00     0.333 C 
HETATM   19  N3  UNL     1      -1.140   5.571  16.063  1.00  0.00    -0.040 NA
HETATM   20  O2  UNL     1      -1.752   7.678  15.341  1.00  0.00    -0.251 OA
ATOM     21  H2  UNL     1      -3.618   5.042  15.372  1.00  0.00     0.170 HD
ENDBRANCH  13  17
BRANCH  14  22
HETATM   22  C16 UNL     1      -6.457   5.629  15.518  1.00  0.00     0.285 C 
HETATM   23  N4  UNL     1      -5.755   4.415  15.734  1.00  0.00    -0.056 NA
HETATM   24  O3  UNL     1      -7.623   5.758  15.929  1.00  0.00    -0.269 OA
ENDBRANCH  14  22
ENDBRANCH   8  11
BRANCH   1  25
HETATM   25  O1  UNL     1      -7.381  11.658  16.784  1.00  0.00    -0.351 OA
BRANCH  25  26
HETATM   26  C3  UNL     1      -7.341  10.555  17.597  1.00  0.00     0.175 C 
BRANCH  26  27
HETATM   27  C2  UNL     1      -8.634   9.952  18.024  1.00  0.00     0.022 C 
HETATM   28  C1  UNL     1      -9.683  10.997  18.349  1.00  0.00     0.007 C 
ENDBRANCH  26  27
ENDBRANCH  25  26
ENDBRANCH   1  25
TORSDOF 6
ENDMDL
