MODEL 7
REMARK VINA RESULT: -7.732847826      1.970      4.636
REMARK  6 active torsions:
REMARK  status: ('A' for Active; 'I' for Inactive)
REMARK    1  A    between atoms: C2_2  and  C3_3 
REMARK    2  A    between atoms: C3_3  and  O1_4 
REMARK    3  A    between atoms: O1_4  and  C4_5 
REMARK    4  A    between atoms: C11_12  and  N1_13 
REMARK    5  A    between atoms: C13_15  and  N2_16 
REMARK       I    between atoms: N2_16  and  C14_18 
REMARK    6  A    between atoms: C15_21  and  C16_22 
ROOT
HETATM    1  C4  UNL     1      -4.701  10.215  10.302  1.00  0.00     0.069 A 
HETATM    2  C5  UNL     1      -5.056  11.463   9.879  1.00  0.00     0.037 A 
HETATM    3  C6  UNL     1      -5.783  12.320  10.673  1.00  0.00     0.015 A 
HETATM    4  C7  UNL     1      -6.187  11.952  11.938  1.00  0.00    -0.024 A 
HETATM    5  C8  UNL     1      -6.913  12.808  12.730  1.00  0.00     0.012 A 
HETATM    6  C9  UNL     1      -7.287  12.374  13.995  1.00  0.00     0.003 A 
HETATM    7  C10 UNL     1      -6.926  11.108  14.419  1.00  0.00     0.032 A 
HETATM    8  C11 UNL     1      -6.199  10.233  13.641  1.00  0.00     0.067 A 
HETATM    9  C17 UNL     1      -5.830  10.687  12.371  1.00  0.00     0.005 A 
HETATM   10  C18 UNL     1      -5.113   9.840  11.591  1.00  0.00     0.051 A 
ENDROOT
BRANCH   8  11
HETATM   11  N1  UNL     1      -5.818   8.930  14.059  1.00  0.00    -0.264 N 
HETATM   12  C12 UNL     1      -4.542   8.543  14.352  1.00  0.00     0.148 A 
HETATM   13  C13 UNL     1      -4.508   7.217  14.726  1.00  0.00     0.087 A 
HETATM   14  C15 UNL     1      -5.847   6.792  14.651  1.00  0.00     0.142 A 
HETATM   15  N5  UNL     1      -6.538   7.859  14.253  1.00  0.00    -0.287 N 
ATOM     16  H5  UNL     1      -7.548   7.840  14.112  1.00  0.00     0.188 HD
BRANCH  13  17
HETATM   17  N2  UNL     1      -3.415   6.409  15.110  1.00  0.00    -0.308 N 
HETATM   18  C14 UNL     1      -2.105   6.923  15.141  1.00  0.00     0.333 C 
HETATM   19  N3  UNL     1      -1.029   6.045  15.543  1.00  0.00    -0.040 NA
HETATM   20  O2  UNL     1      -1.824   8.096  14.840  1.00  0.00    -0.251 OA
ATOM     21  H2  UNL     1      -3.578   5.436  15.369  1.00  0.00     0.170 HD
ENDBRANCH  13  17
BRANCH  14  22
HETATM   22  C16 UNL     1      -6.365   5.453  14.949  1.00  0.00     0.285 C 
HETATM   23  N4  UNL     1      -6.220   4.959  16.271  1.00  0.00    -0.056 NA
HETATM   24  O3  UNL     1      -6.919   4.759  14.080  1.00  0.00    -0.269 OA
ENDBRANCH  14  22
ENDBRANCH   8  11
BRANCH   1  25
HETATM   25  O1  UNL     1      -3.985   9.301   9.592  1.00  0.00    -0.351 OA
BRANCH  25  26
HETATM   26  C3  UNL     1      -4.301   8.485   8.538  1.00  0.00     0.175 C 
BRANCH  26  27
HETATM   27  C2  UNL     1      -3.806   8.864   7.185  1.00  0.00     0.022 C 
HETATM   28  C1  UNL     1      -4.805   8.546   6.090  1.00  0.00     0.007 C 
ENDBRANCH  26  27
ENDBRANCH  25  26
ENDBRANCH   1  25
TORSDOF 6
ENDMDL
