MODEL 6
REMARK VINA RESULT: -8.248450005      2.232      4.940
REMARK  6 active torsions:
REMARK  status: ('A' for Active; 'I' for Inactive)
REMARK    1  A    between atoms: C2_2  and  C3_3 
REMARK    2  A    between atoms: C3_3  and  O1_4 
REMARK    3  A    between atoms: O1_4  and  C4_5 
REMARK    4  A    between atoms: C11_12  and  N1_13 
REMARK    5  A    between atoms: C13_15  and  N2_16 
REMARK       I    between atoms: N2_16  and  C14_18 
REMARK    6  A    between atoms: C15_21  and  C16_22 
ROOT
HETATM    1  C4  UNL     1      -4.021   9.210  11.979  1.00  0.00     0.069 A 
HETATM    2  C5  UNL     1      -3.621   9.779  10.805  1.00  0.00     0.037 A 
HETATM    3  C6  UNL     1      -4.165  10.957  10.345  1.00  0.00     0.015 A 
HETATM    4  C7  UNL     1      -5.144  11.616  11.055  1.00  0.00    -0.024 A 
HETATM    5  C8  UNL     1      -5.687  12.791  10.596  1.00  0.00     0.012 A 
HETATM    6  C9  UNL     1      -6.670  13.404  11.362  1.00  0.00     0.003 A 
HETATM    7  C10 UNL     1      -7.073  12.822  12.550  1.00  0.00     0.032 A 
HETATM    8  C11 UNL     1      -6.543  11.645  13.030  1.00  0.00     0.067 A 
HETATM    9  C17 UNL     1      -5.554  11.042  12.247  1.00  0.00     0.005 A 
HETATM   10  C18 UNL     1      -5.020   9.881  12.702  1.00  0.00     0.051 A 
ENDROOT
BRANCH   8  11
HETATM   11  N1  UNL     1      -6.943  11.033  14.247  1.00  0.00    -0.264 N 
HETATM   12  C12 UNL     1      -6.976   9.687  14.475  1.00  0.00     0.148 A 
HETATM   13  C13 UNL     1      -7.410   9.418  15.755  1.00  0.00     0.087 A 
HETATM   14  C15 UNL     1      -7.648  10.683  16.322  1.00  0.00     0.142 A 
HETATM   15  N5  UNL     1      -7.349  11.564  15.369  1.00  0.00    -0.287 N 
ATOM     16  H5  UNL     1      -7.431  12.572  15.505  1.00  0.00     0.188 HD
BRANCH  13  17
HETATM   17  N2  UNL     1      -7.594   8.181  16.411  1.00  0.00    -0.308 N 
HETATM   18  C14 UNL     1      -7.106   6.983  15.856  1.00  0.00     0.333 C 
HETATM   19  N3  UNL     1      -7.328   5.749  16.576  1.00  0.00    -0.040 NA
HETATM   20  O2  UNL     1      -6.494   6.930  14.774  1.00  0.00    -0.251 OA
ATOM     21  H2  UNL     1      -8.089   8.155  17.302  1.00  0.00     0.170 HD
ENDBRANCH  13  17
BRANCH  14  22
HETATM   22  C16 UNL     1      -8.127  10.965  17.680  1.00  0.00     0.285 C 
HETATM   23  N4  UNL     1      -8.085  12.307  18.138  1.00  0.00    -0.056 NA
HETATM   24  O3  UNL     1      -8.560  10.065  18.419  1.00  0.00    -0.269 OA
ENDBRANCH  14  22
ENDBRANCH   8  11
BRANCH   1  25
HETATM   25  O1  UNL     1      -3.542   8.054  12.513  1.00  0.00    -0.351 OA
BRANCH  25  26
HETATM   26  C3  UNL     1      -2.576   7.790  13.449  1.00  0.00     0.175 C 
BRANCH  26  27
HETATM   27  C2  UNL     1      -3.003   7.193  14.746  1.00  0.00     0.022 C 
HETATM   28  C1  UNL     1      -1.993   6.200  15.287  1.00  0.00     0.007 C 
ENDBRANCH  26  27
ENDBRANCH  25  26
ENDBRANCH   1  25
TORSDOF 6
ENDMDL
