MODEL 1
REMARK VINA RESULT: -11.127509162      0.000      0.000
REMARK  6 active torsions:
REMARK  status: ('A' for Active; 'I' for Inactive)
REMARK    1  A    between atoms: C2_2  and  C3_3 
REMARK    2  A    between atoms: C3_3  and  O1_4 
REMARK    3  A    between atoms: O1_4  and  C4_5 
REMARK    4  A    between atoms: C11_12  and  N1_13 
REMARK    5  A    between atoms: C13_15  and  N2_16 
REMARK       I    between atoms: N2_16  and  C14_18 
REMARK    6  A    between atoms: C15_21  and  C16_22 
ROOT
HETATM    1  C4  UNL     1      -7.207  11.829  14.281  1.00  0.00     0.069 A 
HETATM    2  C5  UNL     1      -7.240  12.850  13.377  1.00  0.00     0.037 A 
HETATM    3  C6  UNL     1      -6.599  12.767  12.162  1.00  0.00     0.015 A 
HETATM    4  C7  UNL     1      -5.890  11.640  11.805  1.00  0.00    -0.024 A 
HETATM    5  C8  UNL     1      -5.250  11.557  10.593  1.00  0.00     0.012 A 
HETATM    6  C9  UNL     1      -4.554  10.393  10.296  1.00  0.00     0.003 A 
HETATM    7  C10 UNL     1      -4.522   9.361  11.216  1.00  0.00     0.032 A 
HETATM    8  C11 UNL     1      -5.156   9.423  12.438  1.00  0.00     0.067 A 
HETATM    9  C17 UNL     1      -5.852  10.601  12.720  1.00  0.00     0.005 A 
HETATM   10  C18 UNL     1      -6.484  10.681  13.918  1.00  0.00     0.051 A 
ENDROOT
BRANCH   8  11
HETATM   11  N1  UNL     1      -5.135   8.374  13.395  1.00  0.00    -0.264 N 
HETATM   12  C12 UNL     1      -4.008   7.858  13.969  1.00  0.00     0.148 A 
HETATM   13  C13 UNL     1      -4.328   6.853  14.856  1.00  0.00     0.087 A 
HETATM   14  C15 UNL     1      -5.730   6.768  14.807  1.00  0.00     0.142 A 
HETATM   15  N5  UNL     1      -6.114   7.693  13.928  1.00  0.00    -0.287 N 
ATOM     16  H5  UNL     1      -7.093   7.856  13.690  1.00  0.00     0.188 HD
BRANCH  13  17
HETATM   17  N2  UNL     1      -3.488   6.053  15.662  1.00  0.00    -0.308 N 
HETATM   18  C14 UNL     1      -2.091   6.059  15.491  1.00  0.00     0.333 C 
HETATM   19  N3  UNL     1      -1.287   5.218  16.348  1.00  0.00    -0.040 NA
HETATM   20  O2  UNL     1      -1.511   6.753  14.637  1.00  0.00    -0.251 OA
ATOM     21  H2  UNL     1      -3.902   5.460  16.382  1.00  0.00     0.170 HD
ENDBRANCH  13  17
BRANCH  14  22
HETATM   22  C16 UNL     1      -6.586   5.850  15.566  1.00  0.00     0.285 C 
HETATM   23  N4  UNL     1      -6.052   4.588  15.933  1.00  0.00    -0.056 NA
HETATM   24  O3  UNL     1      -7.747   6.155  15.888  1.00  0.00    -0.269 OA
ENDBRANCH  14  22
ENDBRANCH   8  11
BRANCH   1  25
HETATM   25  O1  UNL     1      -7.809  11.819  15.502  1.00  0.00    -0.351 OA
BRANCH  25  26
HETATM   26  C3  UNL     1      -7.937  10.858  16.470  1.00  0.00     0.175 C 
BRANCH  26  27
HETATM   27  C2  UNL     1      -7.639  11.239  17.878  1.00  0.00     0.022 C 
HETATM   28  C1  UNL     1      -6.826  12.515  17.975  1.00  0.00     0.007 C 
ENDBRANCH  26  27
ENDBRANCH  25  26
ENDBRANCH   1  25
TORSDOF 6
ENDMDL
