MODEL 2
REMARK VINA RESULT: -7.192073574      1.128      2.243
REMARK  5 active torsions:
REMARK  status: ('A' for Active; 'I' for Inactive)
REMARK    1  A    between atoms: C2_2  and  O1_4 
REMARK    2  A    between atoms: O1_4  and  C4_5 
REMARK    3  A    between atoms: C11_12  and  N1_13 
REMARK    4  A    between atoms: C13_15  and  N2_16 
REMARK       I    between atoms: N2_16  and  C14_18 
REMARK    5  A    between atoms: C15_21  and  C16_22 
ROOT
HETATM    1  C4  UNL     1       5.716   5.582  23.636  1.00  0.00     0.070 A 
HETATM    2  C5  UNL     1       5.820   4.798  24.755  1.00  0.00     0.037 A 
HETATM    3  C6  UNL     1       7.056   4.355  25.230  1.00  0.00     0.015 A 
HETATM    4  C7  UNL     1       8.179   4.736  24.530  1.00  0.00    -0.024 A 
HETATM    5  C8  UNL     1       9.389   4.289  25.015  1.00  0.00     0.012 A 
HETATM    6  C9  UNL     1      10.533   4.659  24.328  1.00  0.00     0.003 A 
HETATM    7  C10 UNL     1      10.435   5.450  23.200  1.00  0.00     0.032 A 
HETATM    8  C11 UNL     1       9.237   5.906  22.698  1.00  0.00     0.067 A 
HETATM    9  C17 UNL     1       8.087   5.525  23.403  1.00  0.00     0.005 A 
HETATM   10  C18 UNL     1       6.879   5.959  22.935  1.00  0.00     0.051 A 
ENDROOT
BRANCH   8  11
HETATM   11  N1  UNL     1       9.133   6.722  21.536  1.00  0.00    -0.264 N 
HETATM   12  C12 UNL     1       9.332   6.268  20.268  1.00  0.00     0.148 A 
HETATM   13  C13 UNL     1       9.156   7.305  19.378  1.00  0.00     0.087 A 
HETATM   14  C15 UNL     1       8.844   8.410  20.129  1.00  0.00     0.142 A 
HETATM   15  N5  UNL     1       8.847   7.990  21.422  1.00  0.00    -0.287 N 
ATOM     16  H5  UNL     1       8.648   8.599  22.216  1.00  0.00     0.188 HD
BRANCH  13  17
HETATM   17  N2  UNL     1       9.268   7.269  17.967  1.00  0.00    -0.308 N 
HETATM   18  C14 UNL     1       8.178   7.313  17.061  1.00  0.00     0.333 C 
HETATM   19  N3  UNL     1       8.368   7.272  15.644  1.00  0.00    -0.040 NA
HETATM   20  O2  UNL     1       7.023   7.388  17.489  1.00  0.00    -0.251 OA
ATOM     21  H2  UNL     1      10.206   7.206  17.572  1.00  0.00     0.170 HD
ENDBRANCH  13  17
BRANCH  14  22
HETATM   22  C16 UNL     1       8.559   9.778  19.678  1.00  0.00     0.285 C 
HETATM   23  N4  UNL     1       9.328  10.344  18.640  1.00  0.00    -0.056 NA
HETATM   24  O3  UNL     1       7.652  10.444  20.196  1.00  0.00    -0.269 OA
ENDBRANCH  14  22
ENDBRANCH   8  11
BRANCH   1  25
HETATM   25  O1  UNL     1       4.529   6.049  23.119  1.00  0.00    -0.347 OA
BRANCH  25  26
HETATM   26  C2  UNL     1       3.756   5.368  22.203  1.00  0.00     0.120 C 
HETATM   27  C1  UNL     1       2.706   6.348  21.685  1.00  0.00     0.040 C 
HETATM   28  C3  UNL     1       2.972   4.219  22.837  1.00  0.00     0.040 C 
ENDBRANCH  25  26
ENDBRANCH   1  25
TORSDOF 5
ENDMDL
