MODEL 3
REMARK VINA RESULT: -7.143957042      1.200      2.408
REMARK  5 active torsions:
REMARK  status: ('A' for Active; 'I' for Inactive)
REMARK    1  A    between atoms: C2_2  and  O1_4 
REMARK    2  A    between atoms: O1_4  and  C4_5 
REMARK    3  A    between atoms: C11_12  and  N1_13 
REMARK    4  A    between atoms: C13_15  and  N2_16 
REMARK       I    between atoms: N2_16  and  C14_18 
REMARK    5  A    between atoms: C15_21  and  C16_22 
ROOT
HETATM    1  C4  UNL     1       6.100   4.984  24.258  1.00  0.00     0.070 A 
HETATM    2  C5  UNL     1       6.321   4.328  25.441  1.00  0.00     0.037 A 
HETATM    3  C6  UNL     1       7.589   3.865  25.799  1.00  0.00     0.015 A 
HETATM    4  C7  UNL     1       8.620   4.091  24.916  1.00  0.00    -0.024 A 
HETATM    5  C8  UNL     1       9.864   3.627  25.288  1.00  0.00     0.012 A 
HETATM    6  C9  UNL     1      10.917   3.843  24.416  1.00  0.00     0.003 A 
HETATM    7  C10 UNL     1      10.702   4.504  23.222  1.00  0.00     0.032 A 
HETATM    8  C11 UNL     1       9.469   4.974  22.831  1.00  0.00     0.067 A 
HETATM    9  C17 UNL     1       8.411   4.750  23.723  1.00  0.00     0.005 A 
HETATM   10  C18 UNL     1       7.172   5.204  23.369  1.00  0.00     0.051 A 
ENDROOT
BRANCH   8  11
HETATM   11  N1  UNL     1       9.243   5.657  21.602  1.00  0.00    -0.264 N 
HETATM   12  C12 UNL     1       8.700   5.073  20.497  1.00  0.00     0.148 A 
HETATM   13  C13 UNL     1       8.618   6.003  19.484  1.00  0.00     0.087 A 
HETATM   14  C15 UNL     1       9.124   7.173  19.990  1.00  0.00     0.142 A 
HETATM   15  N5  UNL     1       9.484   6.896  21.272  1.00  0.00    -0.287 N 
ATOM     16  H5  UNL     1       9.896   7.581  21.905  1.00  0.00     0.188 HD
BRANCH  13  17
HETATM   17  N2  UNL     1       8.118   5.818  18.172  1.00  0.00    -0.308 N 
HETATM   18  C14 UNL     1       6.747   5.842  17.812  1.00  0.00     0.333 C 
HETATM   19  N3  UNL     1       6.315   5.646  16.462  1.00  0.00    -0.040 NA
HETATM   20  O2  UNL     1       5.886   6.037  18.674  1.00  0.00    -0.251 OA
ATOM     21  H2  UNL     1       8.797   5.654  17.429  1.00  0.00     0.170 HD
ENDBRANCH  13  17
BRANCH  14  22
HETATM   22  C16 UNL     1       9.269   8.475  19.328  1.00  0.00     0.285 C 
HETATM   23  N4  UNL     1       8.229   8.959  18.508  1.00  0.00    -0.056 NA
HETATM   24  O3  UNL     1      10.292   9.156  19.478  1.00  0.00    -0.269 OA
ENDBRANCH  14  22
ENDBRANCH   8  11
BRANCH   1  25
HETATM   25  O1  UNL     1       4.876   5.462  23.849  1.00  0.00    -0.347 OA
BRANCH  25  26
HETATM   26  C2  UNL     1       4.208   5.034  22.722  1.00  0.00     0.120 C 
HETATM   27  C1  UNL     1       3.519   6.255  22.117  1.00  0.00     0.040 C 
HETATM   28  C3  UNL     1       3.088   4.045  23.046  1.00  0.00     0.040 C 
ENDBRANCH  25  26
ENDBRANCH   1  25
TORSDOF 5
ENDMDL
