MODEL 1
REMARK VINA RESULT: -7.211249326      0.000      0.000
REMARK  5 active torsions:
REMARK  status: ('A' for Active; 'I' for Inactive)
REMARK    1  A    between atoms: C2_2  and  O1_4 
REMARK    2  A    between atoms: O1_4  and  C4_5 
REMARK    3  A    between atoms: C11_12  and  N1_13 
REMARK    4  A    between atoms: C13_15  and  N2_16 
REMARK       I    between atoms: N2_16  and  C14_18 
REMARK    5  A    between atoms: C15_21  and  C16_22 
ROOT
HETATM    1  C4  UNL     1       5.717   5.366  23.815  1.00  0.00     0.070 A 
HETATM    2  C5  UNL     1       5.889   4.733  25.018  1.00  0.00     0.037 A 
HETATM    3  C6  UNL     1       7.126   4.213  25.405  1.00  0.00     0.015 A 
HETATM    4  C7  UNL     1       8.178   4.359  24.529  1.00  0.00    -0.024 A 
HETATM    5  C8  UNL     1       9.390   3.839  24.930  1.00  0.00     0.012 A 
HETATM    6  C9  UNL     1      10.464   3.974  24.066  1.00  0.00     0.003 A 
HETATM    7  C10 UNL     1      10.298   4.612  22.852  1.00  0.00     0.032 A 
HETATM    8  C11 UNL     1       9.097   5.137  22.433  1.00  0.00     0.067 A 
HETATM    9  C17 UNL     1       8.018   4.995  23.316  1.00  0.00     0.005 A 
HETATM   10  C18 UNL     1       6.809   5.504  22.934  1.00  0.00     0.051 A 
ENDROOT
BRANCH   8  11
HETATM   11  N1  UNL     1       8.922   5.796  21.182  1.00  0.00    -0.264 N 
HETATM   12  C12 UNL     1       9.635   6.888  20.792  1.00  0.00     0.148 A 
HETATM   13  C13 UNL     1       9.223   7.277  19.536  1.00  0.00     0.087 A 
HETATM   14  C15 UNL     1       8.238   6.399  19.162  1.00  0.00     0.142 A 
HETATM   15  N5  UNL     1       8.104   5.530  20.200  1.00  0.00    -0.287 N 
ATOM     16  H5  UNL     1       7.439   4.757  20.210  1.00  0.00     0.188 HD
BRANCH  13  17
HETATM   17  N2  UNL     1       9.700   8.362  18.762  1.00  0.00    -0.308 N 
HETATM   18  C14 UNL     1       9.114   9.652  18.716  1.00  0.00     0.333 C 
HETATM   19  N3  UNL     1       9.653  10.702  17.908  1.00  0.00    -0.040 NA
HETATM   20  O2  UNL     1       8.107   9.896  19.387  1.00  0.00    -0.251 OA
ATOM     21  H2  UNL     1      10.531   8.202  18.192  1.00  0.00     0.170 HD
ENDBRANCH  13  17
BRANCH  14  22
HETATM   22  C16 UNL     1       7.462   6.362  17.916  1.00  0.00     0.285 C 
HETATM   23  N4  UNL     1       6.115   5.945  17.946  1.00  0.00    -0.056 NA
HETATM   24  O3  UNL     1       7.972   6.693  16.838  1.00  0.00    -0.269 OA
ENDBRANCH  14  22
ENDBRANCH   8  11
BRANCH   1  25
HETATM   25  O1  UNL     1       4.525   5.898  23.378  1.00  0.00    -0.347 OA
BRANCH  25  26
HETATM   26  C2  UNL     1       3.767   5.374  22.353  1.00  0.00     0.120 C 
HETATM   27  C1  UNL     1       2.760   6.448  21.946  1.00  0.00     0.040 C 
HETATM   28  C3  UNL     1       2.933   4.172  22.797  1.00  0.00     0.040 C 
ENDBRANCH  25  26
ENDBRANCH   1  25
TORSDOF 5
ENDMDL
