MODEL 2
REMARK VINA RESULT: -6.537555703      0.866      1.132
REMARK  8 active torsions:
REMARK  status: ('A' for Active; 'I' for Inactive)
REMARK    1  A    between atoms: C2_2  and  N1_3 
REMARK    2  A    between atoms: N1_3  and  C3_6 
REMARK    3  A    between atoms: N2_8  and  C5_9 
REMARK    4  A    between atoms: C5_9  and  C6_10 
REMARK    5  A    between atoms: C6_10  and  C7_11 
REMARK    6  A    between atoms: C7_11  and  O1_12 
REMARK    7  A    between atoms: C10_19  and  S3_20 
REMARK    8  A    between atoms: S3_20  and  N3_21 
ROOT
HETATM    1  C3  UNL     1      17.626   5.688  13.220  1.00  0.00     0.239 C 
HETATM    2  C4  UNL     1      18.757   5.861  12.260  1.00  0.00     0.178 C 
HETATM    3  N2  UNL     1      18.381   5.642  10.883  1.00  0.00    -0.283 N 
HETATM    4  S1  UNL     1      17.128   4.552  10.724  1.00  0.00     0.271 S 
HETATM    5  O2  UNL     1      15.819   5.312  10.580  1.00  0.00    -0.199 OA
HETATM    6  O3  UNL     1      17.206   3.617   9.580  1.00  0.00    -0.199 OA
HETATM    7  C9  UNL     1      16.999   3.610  12.194  1.00  0.00     0.130 A 
HETATM    8  S2  UNL     1      16.616   1.999  12.666  1.00  0.00    -0.062 SA
HETATM    9  C10 UNL     1      16.799   2.181  14.354  1.00  0.00     0.121 A 
HETATM   10  C11 UNL     1      17.154   3.494  14.497  1.00  0.00     0.044 A 
HETATM   11  C12 UNL     1      17.259   4.233  13.391  1.00  0.00     0.006 A 
ENDROOT
BRANCH   9  12
HETATM   12  S3  UNL     1      16.568   0.932  15.556  1.00  0.00     0.263 S 
HETATM   13  O4  UNL     1      17.741   0.823  16.465  1.00  0.00    -0.200 OA
HETATM   14  O5  UNL     1      16.396  -0.369  14.792  1.00  0.00    -0.200 OA
BRANCH  12  15
HETATM   15  N3  UNL     1      15.084   1.172  16.424  1.00  0.00    -0.324 N 
ATOM     16  H32 UNL     1      15.014   1.152  17.442  1.00  0.00     0.169 HD
ATOM     17  H31 UNL     1      14.308   1.333  15.782  1.00  0.00     0.169 HD
ENDBRANCH  12  15
ENDBRANCH   9  12
BRANCH   1  18
HETATM   18  N1  UNL     1      17.900   6.321  14.480  1.00  0.00    -0.066 N 
ATOM     19  H12 UNL     1      17.831   5.647  15.243  1.00  0.00     0.278 HD
ATOM     20  H11 UNL     1      17.141   6.951  14.738  1.00  0.00     0.278 HD
BRANCH  18  21
HETATM   21  C2  UNL     1      19.164   7.007  14.523  1.00  0.00     0.228 C 
HETATM   22  C1  UNL     1      18.946   8.285  15.329  1.00  0.00     0.034 C 
ENDBRANCH  18  21
ENDBRANCH   1  18
BRANCH   3  23
HETATM   23  C5  UNL     1      19.410   5.697   9.955  1.00  0.00     0.078 C 
BRANCH  23  24
HETATM   24  C6  UNL     1      20.667   4.958  10.249  1.00  0.00     0.071 C 
BRANCH  24  25
HETATM   25  C7  UNL     1      20.698   3.578   9.636  1.00  0.00     0.172 C 
BRANCH  25  26
HETATM   26  O1  UNL     1      20.290   3.523   8.322  1.00  0.00    -0.396 OA
HETATM   27  C8  UNL     1      21.286   3.708   7.379  1.00  0.00     0.201 C 
ENDBRANCH  25  26
ENDBRANCH  24  25
ENDBRANCH  23  24
ENDBRANCH   3  23
TORSDOF 8
ENDMDL
