MODEL 1
REMARK VINA RESULT: -6.727677199      0.000      0.000
REMARK  8 active torsions:
REMARK  status: ('A' for Active; 'I' for Inactive)
REMARK    1  A    between atoms: C2_2  and  N1_3 
REMARK    2  A    between atoms: N1_3  and  C3_6 
REMARK    3  A    between atoms: N2_8  and  C5_9 
REMARK    4  A    between atoms: C5_9  and  C6_10 
REMARK    5  A    between atoms: C6_10  and  C7_11 
REMARK    6  A    between atoms: C7_11  and  O1_12 
REMARK    7  A    between atoms: C10_19  and  S3_20 
REMARK    8  A    between atoms: S3_20  and  N3_21 
ROOT
HETATM    1  C3  UNL     1      17.803   5.616  13.249  1.00  0.00     0.239 C 
HETATM    2  C4  UNL     1      18.930   5.733  12.275  1.00  0.00     0.178 C 
HETATM    3  N2  UNL     1      18.527   5.536  10.903  1.00  0.00    -0.283 N 
HETATM    4  S1  UNL     1      17.218   4.511  10.759  1.00  0.00     0.271 S 
HETATM    5  O2  UNL     1      15.947   5.336  10.631  1.00  0.00    -0.199 OA
HETATM    6  O3  UNL     1      17.236   3.575   9.612  1.00  0.00    -0.199 OA
HETATM    7  C9  UNL     1      17.061   3.574  12.229  1.00  0.00     0.130 A 
HETATM    8  S2  UNL     1      16.603   1.983  12.704  1.00  0.00    -0.062 SA
HETATM    9  C10 UNL     1      16.815   2.154  14.390  1.00  0.00     0.121 A 
HETATM   10  C11 UNL     1      17.238   3.446  14.529  1.00  0.00     0.044 A 
HETATM   11  C12 UNL     1      17.366   4.181  13.423  1.00  0.00     0.006 A 
ENDROOT
BRANCH   9  12
HETATM   12  S3  UNL     1      16.537   0.915  15.593  1.00  0.00     0.263 S 
HETATM   13  O4  UNL     1      17.689   0.789  16.526  1.00  0.00    -0.200 OA
HETATM   14  O5  UNL     1      16.355  -0.386  14.833  1.00  0.00    -0.200 OA
BRANCH  12  15
HETATM   15  N3  UNL     1      15.041   1.188  16.431  1.00  0.00    -0.324 N 
ATOM     16  H32 UNL     1      14.846   2.023  16.984  1.00  0.00     0.169 HD
ATOM     17  H31 UNL     1      14.398   0.409  16.291  1.00  0.00     0.169 HD
ENDBRANCH  12  15
ENDBRANCH   9  12
BRANCH   1  18
HETATM   18  N1  UNL     1      18.124   6.232  14.506  1.00  0.00    -0.066 N 
ATOM     19  H12 UNL     1      18.234   5.527  15.234  1.00  0.00     0.278 HD
ATOM     20  H11 UNL     1      17.318   6.736  14.875  1.00  0.00     0.278 HD
BRANCH  18  21
HETATM   21  C2  UNL     1      19.278   7.091  14.455  1.00  0.00     0.228 C 
HETATM   22  C1  UNL     1      18.957   8.315  15.309  1.00  0.00     0.034 C 
ENDBRANCH  18  21
ENDBRANCH   1  18
BRANCH   3  23
HETATM   23  C5  UNL     1      19.545   5.540   9.962  1.00  0.00     0.078 C 
BRANCH  23  24
HETATM   24  C6  UNL     1      20.825   4.864  10.303  1.00  0.00     0.071 C 
BRANCH  24  25
HETATM   25  C7  UNL     1      20.781   3.370  10.082  1.00  0.00     0.172 C 
BRANCH  25  26
HETATM   26  O1  UNL     1      20.397   2.637  11.181  1.00  0.00    -0.396 OA
HETATM   27  C8  UNL     1      19.850   1.394  10.910  1.00  0.00     0.201 C 
ENDBRANCH  25  26
ENDBRANCH  24  25
ENDBRANCH  23  24
ENDBRANCH   3  23
TORSDOF 8
ENDMDL
