MODEL 3
REMARK VINA RESULT: -6.335878319      1.279      2.011
REMARK  8 active torsions:
REMARK  status: ('A' for Active; 'I' for Inactive)
REMARK    1  A    between atoms: C2_2  and  N1_3 
REMARK    2  A    between atoms: N1_3  and  C3_6 
REMARK    3  A    between atoms: N2_8  and  C5_9 
REMARK    4  A    between atoms: C5_9  and  C6_10 
REMARK    5  A    between atoms: C6_10  and  C7_11 
REMARK    6  A    between atoms: C7_11  and  O1_12 
REMARK    7  A    between atoms: C10_19  and  S3_20 
REMARK    8  A    between atoms: S3_20  and  N3_21 
ROOT
HETATM    1  C3  UNL     1      17.679   5.649  13.239  1.00  0.00     0.239 C 
HETATM    2  C4  UNL     1      18.807   5.797  12.271  1.00  0.00     0.178 C 
HETATM    3  N2  UNL     1      18.419   5.577  10.898  1.00  0.00    -0.283 N 
HETATM    4  S1  UNL     1      17.146   4.508  10.753  1.00  0.00     0.271 S 
HETATM    5  O2  UNL     1      15.849   5.290  10.612  1.00  0.00    -0.199 OA
HETATM    6  O3  UNL     1      17.201   3.566   9.613  1.00  0.00    -0.199 OA
HETATM    7  C9  UNL     1      17.011   3.577  12.228  1.00  0.00     0.130 A 
HETATM    8  S2  UNL     1      16.603   1.975  12.712  1.00  0.00    -0.062 SA
HETATM    9  C10 UNL     1      16.799   2.163  14.398  1.00  0.00     0.121 A 
HETATM   10  C11 UNL     1      17.178   3.470  14.531  1.00  0.00     0.044 A 
HETATM   11  C12 UNL     1      17.289   4.202  13.420  1.00  0.00     0.006 A 
ENDROOT
BRANCH   9  12
HETATM   12  S3  UNL     1      16.555   0.924  15.608  1.00  0.00     0.263 S 
HETATM   13  O4  UNL     1      17.725   0.811  16.519  1.00  0.00    -0.200 OA
HETATM   14  O5  UNL     1      16.371  -0.380  14.853  1.00  0.00    -0.200 OA
BRANCH  12  15
HETATM   15  N3  UNL     1      15.072   1.184  16.472  1.00  0.00    -0.324 N 
ATOM     16  H32 UNL     1      14.150   1.149  16.037  1.00  0.00     0.169 HD
ATOM     17  H31 UNL     1      15.253   1.374  17.458  1.00  0.00     0.169 HD
ENDBRANCH  12  15
ENDBRANCH   9  12
BRANCH   1  18
HETATM   18  N1  UNL     1      17.972   6.284  14.493  1.00  0.00    -0.066 N 
ATOM     19  H12 UNL     1      17.994   5.597  15.248  1.00  0.00     0.278 HD
ATOM     20  H11 UNL     1      17.182   6.851  14.801  1.00  0.00     0.278 HD
BRANCH  18  21
HETATM   21  C2  UNL     1      19.181   7.062  14.483  1.00  0.00     0.228 C 
HETATM   22  C1  UNL     1      18.907   8.318  15.308  1.00  0.00     0.034 C 
ENDBRANCH  18  21
ENDBRANCH   1  18
BRANCH   3  23
HETATM   23  C5  UNL     1      19.442   5.609   9.963  1.00  0.00     0.078 C 
BRANCH  23  24
HETATM   24  C6  UNL     1      19.197   6.305   8.671  1.00  0.00     0.071 C 
BRANCH  24  25
HETATM   25  C7  UNL     1      19.331   5.392   7.474  1.00  0.00     0.172 C 
BRANCH  25  26
HETATM   26  O1  UNL     1      18.138   5.026   6.894  1.00  0.00    -0.396 OA
HETATM   27  C8  UNL     1      17.106   5.941   7.020  1.00  0.00     0.201 C 
ENDBRANCH  25  26
ENDBRANCH  24  25
ENDBRANCH  23  24
ENDBRANCH   3  23
TORSDOF 8
ENDMDL
