MODEL 2
REMARK VINA RESULT: -6.949663233      1.784      2.117
REMARK  4 active torsions:
REMARK  status: ('A' for Active; 'I' for Inactive)
REMARK    1  A    between atoms: C2_2  and  N1_3 
REMARK    2  A    between atoms: N1_3  and  C3_6 
REMARK    3  A    between atoms: C8_15  and  S3_16 
REMARK    4  A    between atoms: S3_16  and  N2_17 
ROOT
HETATM    1  C3  UNL     1      17.944   2.909  13.041  1.00  0.00     0.222 C 
HETATM    2  C4  UNL     1      17.404   3.781  11.947  1.00  0.00     0.058 C 
HETATM    3  C5  UNL     1      17.612   5.240  12.200  1.00  0.00     0.112 C 
HETATM    4  C6  UNL     1      19.023   5.568  12.634  1.00  0.00     0.026 C 
HETATM    5  S1  UNL     1      16.534   5.665  13.528  1.00  0.00     0.186 S 
HETATM    6  O1  UNL     1      15.224   6.099  12.933  1.00  0.00    -0.222 OA
HETATM    7  O2  UNL     1      17.119   6.703  14.434  1.00  0.00    -0.222 OA
HETATM    8  C7  UNL     1      16.271   4.161  14.416  1.00  0.00     0.110 A 
HETATM    9  S2  UNL     1      15.224   3.784  15.743  1.00  0.00    -0.064 SA
HETATM   10  C8  UNL     1      15.633   2.155  15.938  1.00  0.00     0.121 A 
HETATM   11  C9  UNL     1      16.567   1.934  14.979  1.00  0.00     0.044 A 
HETATM   12  C10 UNL     1      16.911   2.978  14.174  1.00  0.00     0.003 A 
ENDROOT
BRANCH  10  13
HETATM   13  S3  UNL     1      14.976   1.025  17.129  1.00  0.00     0.263 S 
HETATM   14  O3  UNL     1      15.591  -0.323  16.974  1.00  0.00    -0.200 OA
HETATM   15  O4  UNL     1      13.514   0.910  16.894  1.00  0.00    -0.200 OA
BRANCH  13  16
HETATM   16  N2  UNL     1      15.210   1.658  18.732  1.00  0.00    -0.324 N 
ATOM     17  H22 UNL     1      15.937   2.329  18.985  1.00  0.00     0.169 HD
ATOM     18  H21 UNL     1      14.518   1.258  19.365  1.00  0.00     0.169 HD
ENDBRANCH  13  16
ENDBRANCH  10  13
BRANCH   1  19
HETATM   19  N1  UNL     1      18.007   1.566  12.519  1.00  0.00    -0.067 N 
ATOM     20  H12 UNL     1      17.760   0.893  13.244  1.00  0.00     0.277 HD
ATOM     21  H11 UNL     1      18.976   1.297  12.351  1.00  0.00     0.277 HD
BRANCH  19  22
HETATM   22  C2  UNL     1      17.230   1.345  11.360  1.00  0.00     0.228 C 
HETATM   23  C1  UNL     1      16.797  -0.097  11.161  1.00  0.00     0.034 C 
ENDBRANCH  19  22
ENDBRANCH   1  19
TORSDOF 4
ENDMDL
