MODEL 6
REMARK VINA RESULT: -6.558320250      3.213      5.225
REMARK  4 active torsions:
REMARK  status: ('A' for Active; 'I' for Inactive)
REMARK    1  A    between atoms: C2_2  and  N1_3 
REMARK    2  A    between atoms: N1_3  and  C3_6 
REMARK    3  A    between atoms: C8_15  and  S3_16 
REMARK    4  A    between atoms: S3_16  and  N2_17 
ROOT
HETATM    1  C3  UNL     1      16.870   3.298  15.044  1.00  0.00     0.222 C 
HETATM    2  C4  UNL     1      17.658   4.567  15.183  1.00  0.00     0.058 C 
HETATM    3  C5  UNL     1      16.964   5.757  14.602  1.00  0.00     0.112 C 
HETATM    4  C6  UNL     1      15.516   5.861  15.025  1.00  0.00     0.026 C 
HETATM    5  S1  UNL     1      16.993   5.536  12.853  1.00  0.00     0.186 S 
HETATM    6  O1  UNL     1      18.243   6.186  12.331  1.00  0.00    -0.222 OA
HETATM    7  O2  UNL     1      15.759   6.058  12.187  1.00  0.00    -0.222 OA
HETATM    8  C7  UNL     1      17.127   3.792  12.605  1.00  0.00     0.110 A 
HETATM    9  S2  UNL     1      17.347   2.855  11.166  1.00  0.00    -0.064 SA
HETATM   10  C8  UNL     1      17.353   1.314  11.860  1.00  0.00     0.121 A 
HETATM   11  C9  UNL     1      17.184   1.552  13.186  1.00  0.00     0.044 A 
HETATM   12  C10 UNL     1      17.065   2.847  13.589  1.00  0.00     0.003 A 
ENDROOT
BRANCH  10  13
HETATM   13  S3  UNL     1      17.537  -0.234  11.025  1.00  0.00     0.263 S 
HETATM   14  O3  UNL     1      17.225  -0.092   9.575  1.00  0.00    -0.200 OA
HETATM   15  O4  UNL     1      16.579  -1.196  11.625  1.00  0.00    -0.200 OA
BRANCH  13  16
HETATM   16  N2  UNL     1      19.143  -0.851  11.280  1.00  0.00    -0.324 N 
ATOM     17  H22 UNL     1      19.868  -0.369  11.812  1.00  0.00     0.169 HD
ATOM     18  H21 UNL     1      19.241  -1.757  10.820  1.00  0.00     0.169 HD
ENDBRANCH  13  16
ENDBRANCH  10  13
BRANCH   1  19
HETATM   19  N1  UNL     1      17.462   2.333  15.938  1.00  0.00    -0.067 N 
ATOM     20  H12 UNL     1      18.184   2.775  16.506  1.00  0.00     0.277 HD
ATOM     21  H11 UNL     1      18.031   1.669  15.414  1.00  0.00     0.277 HD
BRANCH  19  22
HETATM   22  C2  UNL     1      16.543   1.647  16.761  1.00  0.00     0.228 C 
HETATM   23  C1  UNL     1      15.126   2.193  16.711  1.00  0.00     0.034 C 
ENDBRANCH  19  22
ENDBRANCH   1  19
TORSDOF 4
ENDMDL
