MODEL 8
REMARK VINA RESULT: -6.164410171      3.059      5.963
REMARK  4 active torsions:
REMARK  status: ('A' for Active; 'I' for Inactive)
REMARK    1  A    between atoms: C2_2  and  N1_3 
REMARK    2  A    between atoms: N1_3  and  C3_6 
REMARK    3  A    between atoms: C8_15  and  S3_16 
REMARK    4  A    between atoms: S3_16  and  N2_17 
ROOT
HETATM    1  C3  UNL     1      16.558   2.085  12.538  1.00  0.00     0.222 C 
HETATM    2  C4  UNL     1      17.032   1.626  13.886  1.00  0.00     0.058 C 
HETATM    3  C5  UNL     1      16.789   2.630  14.968  1.00  0.00     0.112 C 
HETATM    4  C6  UNL     1      15.386   3.192  14.948  1.00  0.00     0.026 C 
HETATM    5  S1  UNL     1      17.901   3.962  14.659  1.00  0.00     0.186 S 
HETATM    6  O1  UNL     1      19.175   3.676  15.404  1.00  0.00    -0.222 OA
HETATM    7  O2  UNL     1      17.318   5.292  15.019  1.00  0.00    -0.222 OA
HETATM    8  C7  UNL     1      18.242   3.895  12.927  1.00  0.00     0.110 A 
HETATM    9  S2  UNL     1      19.347   4.793  11.944  1.00  0.00    -0.064 SA
HETATM   10  C8  UNL     1      18.995   4.085  10.449  1.00  0.00     0.121 A 
HETATM   11  C9  UNL     1      18.034   3.172  10.738  1.00  0.00     0.044 A 
HETATM   12  C10 UNL     1      17.630   3.062  12.034  1.00  0.00     0.003 A 
ENDROOT
BRANCH  10  13
HETATM   13  S3  UNL     1      19.729   4.469   8.886  1.00  0.00     0.263 S 
HETATM   14  O3  UNL     1      18.684   4.824   7.885  1.00  0.00    -0.200 OA
HETATM   15  O4  UNL     1      20.451   3.262   8.411  1.00  0.00    -0.200 OA
BRANCH  13  16
HETATM   16  N2  UNL     1      20.894   5.746   9.082  1.00  0.00    -0.324 N 
ATOM     17  H22 UNL     1      20.911   6.394   9.870  1.00  0.00     0.169 HD
ATOM     18  H21 UNL     1      21.545   5.741   8.296  1.00  0.00     0.169 HD
ENDBRANCH  13  16
ENDBRANCH  10  13
BRANCH   1  19
HETATM   19  N1  UNL     1      16.517   0.922  11.687  1.00  0.00    -0.067 N 
ATOM     20  H12 UNL     1      16.859   1.155  10.755  1.00  0.00     0.277 HD
ATOM     21  H11 UNL     1      15.552   0.680  11.466  1.00  0.00     0.277 HD
BRANCH  19  22
HETATM   22  C2  UNL     1      17.202  -0.205  12.191  1.00  0.00     0.228 C 
HETATM   23  C1  UNL     1      18.015  -0.962  11.155  1.00  0.00     0.034 C 
ENDBRANCH  19  22
ENDBRANCH   1  19
TORSDOF 4
ENDMDL
