MODEL 9
REMARK VINA RESULT: -5.852387356      2.842      3.849
REMARK  4 active torsions:
REMARK  status: ('A' for Active; 'I' for Inactive)
REMARK    1  A    between atoms: C2_2  and  N1_3 
REMARK    2  A    between atoms: N1_3  and  C3_6 
REMARK    3  A    between atoms: C8_15  and  S3_16 
REMARK    4  A    between atoms: S3_16  and  N2_17 
ROOT
HETATM    1  C3  UNL     1      18.781   4.719  14.164  1.00  0.00     0.222 C 
HETATM    2  C4  UNL     1      18.251   5.598  13.070  1.00  0.00     0.058 C 
HETATM    3  C5  UNL     1      17.648   6.869  13.577  1.00  0.00     0.112 C 
HETATM    4  C6  UNL     1      18.521   7.574  14.589  1.00  0.00     0.026 C 
HETATM    5  S1  UNL     1      16.153   6.411  14.391  1.00  0.00     0.186 S 
HETATM    6  O1  UNL     1      15.047   6.456  13.375  1.00  0.00    -0.222 OA
HETATM    7  O2  UNL     1      15.864   7.265  15.585  1.00  0.00    -0.222 OA
HETATM    8  C7  UNL     1      16.386   4.731  14.886  1.00  0.00     0.110 A 
HETATM    9  S2  UNL     1      15.301   3.590  15.605  1.00  0.00    -0.064 SA
HETATM   10  C8  UNL     1      16.357   2.276  15.734  1.00  0.00     0.121 A 
HETATM   11  C9  UNL     1      17.524   2.743  15.221  1.00  0.00     0.044 A 
HETATM   12  C10 UNL     1      17.552   4.029  14.773  1.00  0.00     0.003 A 
ENDROOT
BRANCH  10  13
HETATM   13  S3  UNL     1      15.995   0.675  16.390  1.00  0.00     0.263 S 
HETATM   14  O3  UNL     1      14.544   0.366  16.261  1.00  0.00    -0.200 OA
HETATM   15  O4  UNL     1      16.353   0.679  17.832  1.00  0.00    -0.200 OA
BRANCH  13  16
HETATM   16  N2  UNL     1      16.982  -0.521  15.600  1.00  0.00    -0.324 N 
ATOM     17  H22 UNL     1      17.828  -0.310  15.071  1.00  0.00     0.169 HD
ATOM     18  H21 UNL     1      16.584  -1.449  15.749  1.00  0.00     0.169 HD
ENDBRANCH  13  16
ENDBRANCH  10  13
BRANCH   1  19
HETATM   19  N1  UNL     1      19.633   3.737  13.541  1.00  0.00    -0.067 N 
ATOM     20  H12 UNL     1      19.417   2.806  13.895  1.00  0.00     0.277 HD
ATOM     21  H11 UNL     1      20.591   3.836  13.876  1.00  0.00     0.277 HD
BRANCH  19  22
HETATM   22  C2  UNL     1      19.607   3.741  12.128  1.00  0.00     0.228 C 
HETATM   23  C1  UNL     1      19.935   2.403  11.490  1.00  0.00     0.034 C 
ENDBRANCH  19  22
ENDBRANCH   1  19
TORSDOF 4
ENDMDL
