MODEL 7
REMARK VINA RESULT: -6.499966784      3.448      5.325
REMARK  4 active torsions:
REMARK  status: ('A' for Active; 'I' for Inactive)
REMARK    1  A    between atoms: C2_2  and  N1_3 
REMARK    2  A    between atoms: N1_3  and  C3_6 
REMARK    3  A    between atoms: C8_15  and  S3_16 
REMARK    4  A    between atoms: S3_16  and  N2_17 
ROOT
HETATM    1  C3  UNL     1      15.786   3.310  14.690  1.00  0.00     0.222 C 
HETATM    2  C4  UNL     1      16.456   4.538  15.231  1.00  0.00     0.058 C 
HETATM    3  C5  UNL     1      16.114   5.780  14.471  1.00  0.00     0.112 C 
HETATM    4  C6  UNL     1      14.631   5.927  14.219  1.00  0.00     0.026 C 
HETATM    5  S1  UNL     1      16.908   5.629  12.904  1.00  0.00     0.186 S 
HETATM    6  O1  UNL     1      18.273   6.247  13.023  1.00  0.00    -0.222 OA
HETATM    7  O2  UNL     1      16.105   6.230  11.794  1.00  0.00    -0.222 OA
HETATM    8  C7  UNL     1      17.103   3.893  12.644  1.00  0.00     0.110 A 
HETATM    9  S2  UNL     1      17.917   3.008  11.399  1.00  0.00    -0.064 SA
HETATM   10  C8  UNL     1      17.585   1.440  11.938  1.00  0.00     0.121 A 
HETATM   11  C9  UNL     1      16.853   1.630  13.065  1.00  0.00     0.044 A 
HETATM   12  C10 UNL     1      16.593   2.911  13.447  1.00  0.00     0.003 A 
ENDROOT
BRANCH  10  13
HETATM   13  S3  UNL     1      18.088  -0.078  11.184  1.00  0.00     0.263 S 
HETATM   14  O3  UNL     1      19.551  -0.296  11.359  1.00  0.00    -0.200 OA
HETATM   15  O4  UNL     1      17.792   0.011   9.732  1.00  0.00    -0.200 OA
BRANCH  13  16
HETATM   16  N2  UNL     1      17.159  -1.395  11.838  1.00  0.00    -0.324 N 
ATOM     17  H22 UNL     1      16.493  -1.304  12.606  1.00  0.00     0.169 HD
ATOM     18  H21 UNL     1      17.383  -2.257  11.339  1.00  0.00     0.169 HD
ENDBRANCH  13  16
ENDBRANCH  10  13
BRANCH   1  19
HETATM   19  N1  UNL     1      15.903   2.286  15.697  1.00  0.00    -0.067 N 
ATOM     20  H12 UNL     1      16.865   2.224  16.028  1.00  0.00     0.277 HD
ATOM     21  H11 UNL     1      15.801   1.362  15.276  1.00  0.00     0.277 HD
BRANCH  19  22
HETATM   22  C2  UNL     1      15.018   2.426  16.789  1.00  0.00     0.228 C 
HETATM   23  C1  UNL     1      14.040   1.276  16.957  1.00  0.00     0.034 C 
ENDBRANCH  19  22
ENDBRANCH   1  19
TORSDOF 4
ENDMDL
