MODEL 1
REMARK VINA RESULT: -6.451972091      0.000      0.000
REMARK  8 active torsions:
REMARK  status: ('A' for Active; 'I' for Inactive)
REMARK    1  A    between atoms: C2_2  and  N1_3 
REMARK    2  A    between atoms: N1_3  and  C3_6 
REMARK    3  A    between atoms: N2_8  and  C5_9 
REMARK    4  A    between atoms: C5_9  and  C6_10 
REMARK    5  A    between atoms: C6_10  and  C7_11 
REMARK    6  A    between atoms: C7_11  and  O1_12 
REMARK    7  A    between atoms: C10_19  and  S3_20 
REMARK    8  A    between atoms: S3_20  and  N3_21 
ROOT
HETATM    1  C3  UNL     1       0.553   5.636  83.738  1.00  0.00     0.239 C 
HETATM    2  C4  UNL     1       1.705   5.709  82.790  1.00  0.00     0.178 C 
HETATM    3  N2  UNL     1       1.344   5.420  81.422  1.00  0.00    -0.283 N 
HETATM    4  S1  UNL     1       0.055   4.367  81.307  1.00  0.00     0.271 S 
HETATM    5  O2  UNL     1      -1.223   5.162  81.092  1.00  0.00    -0.199 OA
HETATM    6  O3  UNL     1       0.118   3.361  80.223  1.00  0.00    -0.199 OA
HETATM    7  C9  UNL     1      -0.132   3.523  82.829  1.00  0.00     0.130 A 
HETATM    8  S2  UNL     1      -0.582   1.958  83.392  1.00  0.00    -0.062 SA
HETATM    9  C10 UNL     1      -0.420   2.238  85.068  1.00  0.00     0.121 A 
HETATM   10  C11 UNL     1      -0.019   3.543  85.137  1.00  0.00     0.044 A 
HETATM   11  C12 UNL     1       0.131   4.209  83.990  1.00  0.00     0.006 A 
ENDROOT
BRANCH   9  12
HETATM   12  S3  UNL     1      -0.715   1.074  86.340  1.00  0.00     0.263 S 
HETATM   13  O4  UNL     1       0.433   0.988  87.281  1.00  0.00    -0.200 OA
HETATM   14  O5  UNL     1      -0.911  -0.266  85.655  1.00  0.00    -0.200 OA
BRANCH  12  15
HETATM   15  N3  UNL     1      -2.210   1.412  87.156  1.00  0.00    -0.324 N 
ATOM     16  H32 UNL     1      -2.586   2.352  87.281  1.00  0.00     0.169 HD
ATOM     17  H31 UNL     1      -2.649   0.551  87.484  1.00  0.00     0.169 HD
ENDBRANCH  12  15
ENDBRANCH   9  12
BRANCH   1  18
HETATM   18  N1  UNL     1       0.829   6.335  84.961  1.00  0.00    -0.066 N 
ATOM     19  H12 UNL     1       1.832   6.489  85.068  1.00  0.00     0.278 HD
ATOM     20  H11 UNL     1       0.661   5.732  85.765  1.00  0.00     0.278 HD
BRANCH  18  21
HETATM   21  C2  UNL     1       0.110   7.574  85.098  1.00  0.00     0.228 C 
HETATM   22  C1  UNL     1      -0.868   7.392  86.257  1.00  0.00     0.034 C 
ENDBRANCH  18  21
ENDBRANCH   1  18
BRANCH   3  23
HETATM   23  C5  UNL     1       2.389   5.380  80.511  1.00  0.00     0.078 C 
BRANCH  23  24
HETATM   24  C6  UNL     1       3.660   4.725  80.922  1.00  0.00     0.071 C 
BRANCH  24  25
HETATM   25  C7  UNL     1       3.643   3.228  80.724  1.00  0.00     0.172 C 
BRANCH  25  26
HETATM   26  O1  UNL     1       3.180   2.510  81.803  1.00  0.00    -0.396 OA
HETATM   27  C8  UNL     1       2.603   1.287  81.504  1.00  0.00     0.201 C 
ENDBRANCH  25  26
ENDBRANCH  24  25
ENDBRANCH  23  24
ENDBRANCH   3  23
TORSDOF 8
ENDMDL
