MODEL 4
REMARK VINA RESULT: -6.282562412      2.940      7.028
REMARK  8 active torsions:
REMARK  status: ('A' for Active; 'I' for Inactive)
REMARK    1  A    between atoms: C2_2  and  N1_3 
REMARK    2  A    between atoms: N1_3  and  C3_6 
REMARK    3  A    between atoms: N2_8  and  C5_9 
REMARK    4  A    between atoms: C5_9  and  C6_10 
REMARK    5  A    between atoms: C6_10  and  C7_11 
REMARK    6  A    between atoms: C7_11  and  O1_12 
REMARK    7  A    between atoms: C10_19  and  S3_20 
REMARK    8  A    between atoms: S3_20  and  N3_21 
ROOT
HETATM    1  C3  UNL     1      -0.484   1.401  82.944  1.00  0.00     0.239 C 
HETATM    2  C4  UNL     1      -0.207   0.926  84.333  1.00  0.00     0.178 C 
HETATM    3  N2  UNL     1      -0.529   1.900  85.349  1.00  0.00    -0.283 N 
HETATM    4  S1  UNL     1      -0.370   3.470  84.807  1.00  0.00     0.271 S 
HETATM    5  O2  UNL     1      -1.734   3.996  84.387  1.00  0.00    -0.199 OA
HETATM    6  O3  UNL     1       0.186   4.448  85.769  1.00  0.00    -0.199 OA
HETATM    7  C9  UNL     1       0.633   3.481  83.373  1.00  0.00     0.130 A 
HETATM    8  S2  UNL     1       1.825   4.484  82.638  1.00  0.00    -0.062 SA
HETATM    9  C10 UNL     1       2.137   3.532  81.255  1.00  0.00     0.121 A 
HETATM   10  C11 UNL     1       1.301   2.461  81.410  1.00  0.00     0.044 A 
HETATM   11  C12 UNL     1       0.527   2.429  82.496  1.00  0.00     0.006 A 
ENDROOT
BRANCH   9  12
HETATM   12  S3  UNL     1       3.276   3.907  79.982  1.00  0.00     0.263 S 
HETATM   13  O4  UNL     1       2.967   3.161  78.733  1.00  0.00    -0.200 OA
HETATM   14  O5  UNL     1       4.643   3.492  80.495  1.00  0.00    -0.200 OA
BRANCH  12  15
HETATM   15  N3  UNL     1       3.369   5.620  79.717  1.00  0.00    -0.324 N 
ATOM     16  H32 UNL     1       3.238   6.060  78.806  1.00  0.00     0.169 HD
ATOM     17  H31 UNL     1       3.569   6.113  80.587  1.00  0.00     0.169 HD
ENDBRANCH  12  15
ENDBRANCH   9  12
BRANCH   1  18
HETATM   18  N1  UNL     1      -0.577   0.306  82.020  1.00  0.00    -0.066 N 
ATOM     19  H12 UNL     1      -0.071   0.517  81.160  1.00  0.00     0.278 HD
ATOM     20  H11 UNL     1      -1.524   0.230  81.647  1.00  0.00     0.278 HD
BRANCH  18  21
HETATM   21  C2  UNL     1      -0.146  -0.954  82.565  1.00  0.00     0.228 C 
HETATM   22  C1  UNL     1       1.102  -1.368  81.788  1.00  0.00     0.034 C 
ENDBRANCH  18  21
ENDBRANCH   1  18
BRANCH   3  23
HETATM   23  C5  UNL     1      -0.206   1.552  86.651  1.00  0.00     0.078 C 
BRANCH  23  24
HETATM   24  C6  UNL     1      -1.203   1.820  87.722  1.00  0.00     0.071 C 
BRANCH  24  25
HETATM   25  C7  UNL     1      -1.847   0.563  88.257  1.00  0.00     0.172 C 
BRANCH  25  26
HETATM   26  O1  UNL     1      -3.121   0.327  87.793  1.00  0.00    -0.396 OA
HETATM   27  C8  UNL     1      -3.847   1.452  87.442  1.00  0.00     0.201 C 
ENDBRANCH  25  26
ENDBRANCH  24  25
ENDBRANCH  23  24
ENDBRANCH   3  23
TORSDOF 8
ENDMDL
