MODEL 2
REMARK VINA RESULT: -6.308773162      1.804      2.242
REMARK  8 active torsions:
REMARK  status: ('A' for Active; 'I' for Inactive)
REMARK    1  A    between atoms: C2_2  and  N1_3 
REMARK    2  A    between atoms: N1_3  and  C3_6 
REMARK    3  A    between atoms: N2_8  and  C5_9 
REMARK    4  A    between atoms: C5_9  and  C6_10 
REMARK    5  A    between atoms: C6_10  and  C7_11 
REMARK    6  A    between atoms: C7_11  and  O1_12 
REMARK    7  A    between atoms: C10_19  and  S3_20 
REMARK    8  A    between atoms: S3_20  and  N3_21 
ROOT
HETATM    1  C3  UNL     1      -1.032   4.879  84.373  1.00  0.00     0.239 C 
HETATM    2  C4  UNL     1       0.378   5.340  84.199  1.00  0.00     0.178 C 
HETATM    3  N2  UNL     1       1.102   4.609  83.187  1.00  0.00    -0.283 N 
HETATM    4  S1  UNL     1       0.565   3.038  83.022  1.00  0.00     0.271 S 
HETATM    5  O2  UNL     1      -0.411   2.962  81.859  1.00  0.00    -0.199 OA
HETATM    6  O3  UNL     1       1.600   2.008  82.777  1.00  0.00    -0.199 OA
HETATM    7  C9  UNL     1      -0.329   2.585  84.457  1.00  0.00     0.130 A 
HETATM    8  S2  UNL     1      -0.579   1.192  85.438  1.00  0.00    -0.062 SA
HETATM    9  C10 UNL     1      -1.644   1.878  86.583  1.00  0.00     0.121 A 
HETATM   10  C11 UNL     1      -1.770   3.173  86.165  1.00  0.00     0.044 A 
HETATM   11  C12 UNL     1      -1.097   3.543  85.073  1.00  0.00     0.006 A 
ENDROOT
BRANCH   9  12
HETATM   12  S3  UNL     1      -2.362   1.051  87.947  1.00  0.00     0.263 S 
HETATM   13  O4  UNL     1      -1.816  -0.324  88.102  1.00  0.00    -0.200 OA
HETATM   14  O5  UNL     1      -3.851   0.976  87.665  1.00  0.00    -0.200 OA
BRANCH  12  15
HETATM   15  N3  UNL     1      -2.201   1.990  89.397  1.00  0.00    -0.324 N 
ATOM     16  H32 UNL     1      -2.303   3.005  89.429  1.00  0.00     0.169 HD
ATOM     17  H31 UNL     1      -1.994   1.393  90.198  1.00  0.00     0.169 HD
ENDBRANCH  12  15
ENDBRANCH   9  12
BRANCH   1  18
HETATM   18  N1  UNL     1      -1.835   5.869  85.034  1.00  0.00    -0.066 N 
ATOM     19  H12 UNL     1      -2.528   5.425  85.638  1.00  0.00     0.278 HD
ATOM     20  H11 UNL     1      -2.457   6.329  84.369  1.00  0.00     0.278 HD
BRANCH  18  21
HETATM   21  C2  UNL     1      -1.072   6.841  85.770  1.00  0.00     0.228 C 
HETATM   22  C1  UNL     1      -1.871   8.141  85.747  1.00  0.00     0.034 C 
ENDBRANCH  18  21
ENDBRANCH   1  18
BRANCH   3  23
HETATM   23  C5  UNL     1       2.444   4.930  83.046  1.00  0.00     0.078 C 
BRANCH  23  24
HETATM   24  C6  UNL     1       2.989   5.100  81.673  1.00  0.00     0.071 C 
BRANCH  24  25
HETATM   25  C7  UNL     1       4.097   4.126  81.352  1.00  0.00     0.172 C 
BRANCH  25  26
HETATM   26  O1  UNL     1       3.735   3.099  80.510  1.00  0.00    -0.396 OA
HETATM   27  C8  UNL     1       2.685   3.373  79.651  1.00  0.00     0.201 C 
ENDBRANCH  25  26
ENDBRANCH  24  25
ENDBRANCH  23  24
ENDBRANCH   3  23
TORSDOF 8
ENDMDL
