MODEL 2
REMARK VINA RESULT: -6.810014593      2.768      3.515
REMARK  4 active torsions:
REMARK  status: ('A' for Active; 'I' for Inactive)
REMARK    1  A    between atoms: C2_2  and  N1_3 
REMARK    2  A    between atoms: N1_3  and  C3_5 
REMARK    3  A    between atoms: C8_14  and  S3_15 
REMARK    4  A    between atoms: S3_15  and  N2_16 
ROOT
HETATM    1  C3  UNL     1      18.697   5.079  14.454  1.00  0.00     0.113 C 
HETATM    2  C4  UNL     1      18.301   6.051  13.410  1.00  0.00     0.049 C 
HETATM    3  C5  UNL     1      17.474   7.212  13.955  1.00  0.00     0.112 C 
HETATM    4  C6  UNL     1      17.425   8.362  13.000  1.00  0.00     0.026 C 
HETATM    5  S1  UNL     1      15.876   6.477  14.217  1.00  0.00     0.186 S 
HETATM    6  O1  UNL     1      15.239   6.336  12.844  1.00  0.00    -0.222 OA
HETATM    7  O2  UNL     1      15.027   7.298  15.134  1.00  0.00    -0.222 OA
HETATM    8  C7  UNL     1      16.235   4.899  14.878  1.00  0.00     0.110 A 
HETATM    9  S2  UNL     1      15.196   3.739  15.544  1.00  0.00    -0.064 SA
HETATM   10  C8  UNL     1      16.343   2.538  15.928  1.00  0.00     0.121 A 
HETATM   11  C9  UNL     1      17.517   3.080  15.522  1.00  0.00     0.044 A 
HETATM   12  C10 UNL     1      17.473   4.324  14.967  1.00  0.00    -0.005 A 
ENDROOT
BRANCH  10  13
HETATM   13  S3  UNL     1      16.062   0.955  16.680  1.00  0.00     0.263 S 
HETATM   14  O3  UNL     1      14.622   0.617  16.476  1.00  0.00    -0.200 OA
HETATM   15  O4  UNL     1      16.386   1.120  18.138  1.00  0.00    -0.200 OA
BRANCH  13  16
HETATM   16  N2  UNL     1      17.128  -0.164  15.931  1.00  0.00    -0.324 N 
ATOM     17  H22 UNL     1      17.396  -1.072  16.310  1.00  0.00     0.169 HD
ATOM     18  H21 UNL     1      17.434   0.250  15.051  1.00  0.00     0.169 HD
ENDBRANCH  13  16
ENDBRANCH  10  13
BRANCH   1  19
HETATM   19  N1  UNL     1      19.596   4.132  13.882  1.00  0.00    -0.413 N 
ATOM     20  H1  UNL     1      20.137   3.480  14.450  1.00  0.00     0.153 HD
BRANCH  19  21
HETATM   21  C2  UNL     1      19.685   4.161  12.460  1.00  0.00     0.110 C 
HETATM   22  C1  UNL     1      19.383   2.817  11.835  1.00  0.00     0.026 C 
ENDBRANCH  19  21
ENDBRANCH   1  19
TORSDOF 4
ENDMDL
