MODEL 7
REMARK VINA RESULT: -6.591273480      3.502      5.231
REMARK  4 active torsions:
REMARK  status: ('A' for Active; 'I' for Inactive)
REMARK    1  A    between atoms: C2_2  and  N1_3 
REMARK    2  A    between atoms: N1_3  and  C3_5 
REMARK    3  A    between atoms: C8_14  and  S3_15 
REMARK    4  A    between atoms: S3_15  and  N2_16 
ROOT
HETATM    1  C3  UNL     1      15.584   3.482  14.739  1.00  0.00     0.113 C 
HETATM    2  C4  UNL     1      15.890   4.824  15.283  1.00  0.00     0.049 C 
HETATM    3  C5  UNL     1      15.512   5.956  14.332  1.00  0.00     0.112 C 
HETATM    4  C6  UNL     1      15.449   7.277  15.030  1.00  0.00     0.026 C 
HETATM    5  S1  UNL     1      16.797   5.895  13.105  1.00  0.00     0.186 S 
HETATM    6  O1  UNL     1      18.031   6.507  13.747  1.00  0.00    -0.222 OA
HETATM    7  O2  UNL     1      16.412   6.620  11.856  1.00  0.00    -0.222 OA
HETATM    8  C7  UNL     1      17.047   4.186  12.832  1.00  0.00     0.110 A 
HETATM    9  S2  UNL     1      17.976   3.399  11.655  1.00  0.00    -0.064 SA
HETATM   10  C8  UNL     1      17.664   1.784  12.101  1.00  0.00     0.121 A 
HETATM   11  C9  UNL     1      16.834   1.904  13.166  1.00  0.00     0.044 A 
HETATM   12  C10 UNL     1      16.501   3.165  13.560  1.00  0.00    -0.005 A 
ENDROOT
BRANCH  10  13
HETATM   13  S3  UNL     1      18.281   0.301  11.347  1.00  0.00     0.263 S 
HETATM   14  O3  UNL     1      19.773   0.369  11.392  1.00  0.00    -0.200 OA
HETATM   15  O4  UNL     1      17.774   0.306   9.933  1.00  0.00    -0.200 OA
BRANCH  13  16
HETATM   16  N2  UNL     1      17.642  -1.027  12.230  1.00  0.00    -0.324 N 
ATOM     17  H22 UNL     1      17.443  -1.951  11.848  1.00  0.00     0.169 HD
ATOM     18  H21 UNL     1      17.502  -0.714  13.190  1.00  0.00     0.169 HD
ENDBRANCH  13  16
ENDBRANCH  10  13
BRANCH   1  19
HETATM   19  N1  UNL     1      15.816   2.511  15.757  1.00  0.00    -0.413 N 
ATOM     20  H1  UNL     1      16.570   1.827  15.698  1.00  0.00     0.153 HD
BRANCH  19  21
HETATM   21  C2  UNL     1      14.918   2.563  16.862  1.00  0.00     0.110 C 
HETATM   22  C1  UNL     1      14.271   1.226  17.145  1.00  0.00     0.026 C 
ENDBRANCH  19  21
ENDBRANCH   1  19
TORSDOF 4
ENDMDL
