MODEL 3
REMARK VINA RESULT: -6.805822785      2.900      6.437
REMARK  4 active torsions:
REMARK  status: ('A' for Active; 'I' for Inactive)
REMARK    1  A    between atoms: C2_2  and  N1_3 
REMARK    2  A    between atoms: N1_3  and  C3_5 
REMARK    3  A    between atoms: C8_14  and  S3_15 
REMARK    4  A    between atoms: S3_15  and  N2_16 
ROOT
HETATM    1  C3  UNL     1      15.856   4.184  15.411  1.00  0.00     0.113 C 
HETATM    2  C4  UNL     1      15.026   3.465  16.404  1.00  0.00     0.049 C 
HETATM    3  C5  UNL     1      15.849   2.618  17.371  1.00  0.00     0.112 C 
HETATM    4  C6  UNL     1      15.064   2.230  18.584  1.00  0.00     0.026 C 
HETATM    5  S1  UNL     1      16.309   1.214  16.382  1.00  0.00     0.186 S 
HETATM    6  O1  UNL     1      15.070   0.341  16.273  1.00  0.00    -0.222 OA
HETATM    7  O2  UNL     1      17.458   0.464  16.975  1.00  0.00    -0.222 OA
HETATM    8  C7  UNL     1      16.699   1.900  14.821  1.00  0.00     0.110 A 
HETATM    9  S2  UNL     1      17.401   1.175  13.461  1.00  0.00    -0.064 SA
HETATM   10  C8  UNL     1      17.420   2.523  12.417  1.00  0.00     0.121 A 
HETATM   11  C9  UNL     1      16.874   3.512  13.166  1.00  0.00     0.044 A 
HETATM   12  C10 UNL     1      16.490   3.196  14.435  1.00  0.00    -0.005 A 
ENDROOT
BRANCH  10  13
HETATM   13  S3  UNL     1      18.015   2.607  10.748  1.00  0.00     0.263 S 
HETATM   14  O3  UNL     1      17.764   1.275  10.121  1.00  0.00    -0.200 OA
HETATM   15  O4  UNL     1      19.486   2.902  10.841  1.00  0.00    -0.200 OA
BRANCH  13  16
HETATM   16  N2  UNL     1      17.175   3.886   9.968  1.00  0.00    -0.324 N 
ATOM     17  H22 UNL     1      16.328   4.336  10.314  1.00  0.00     0.169 HD
ATOM     18  H21 UNL     1      17.680   4.103   9.109  1.00  0.00     0.169 HD
ENDBRANCH  13  16
ENDBRANCH  10  13
BRANCH   1  19
HETATM   19  N1  UNL     1      15.019   5.068  14.668  1.00  0.00    -0.413 N 
ATOM     20  H1  UNL     1      14.181   4.749  14.183  1.00  0.00     0.153 HD
BRANCH  19  21
HETATM   21  C2  UNL     1      15.438   6.430  14.652  1.00  0.00     0.110 C 
HETATM   22  C1  UNL     1      16.639   6.676  15.536  1.00  0.00     0.026 C 
ENDBRANCH  19  21
ENDBRANCH   1  19
TORSDOF 4
ENDMDL
