MODEL 5
REMARK VINA RESULT: -6.690677731      1.849      2.240
REMARK  4 active torsions:
REMARK  status: ('A' for Active; 'I' for Inactive)
REMARK    1  A    between atoms: C2_2  and  N1_3 
REMARK    2  A    between atoms: N1_3  and  C3_5 
REMARK    3  A    between atoms: C8_14  and  S3_15 
REMARK    4  A    between atoms: S3_15  and  N2_16 
ROOT
HETATM    1  C3  UNL     1      18.165   3.740  13.284  1.00  0.00     0.113 C 
HETATM    2  C4  UNL     1      17.707   4.715  12.269  1.00  0.00     0.049 C 
HETATM    3  C5  UNL     1      17.664   6.148  12.791  1.00  0.00     0.112 C 
HETATM    4  C6  UNL     1      17.593   7.147  11.680  1.00  0.00     0.026 C 
HETATM    5  S1  UNL     1      16.207   6.160  13.809  1.00  0.00     0.186 S 
HETATM    6  O1  UNL     1      15.021   6.202  12.861  1.00  0.00    -0.222 OA
HETATM    7  O2  UNL     1      16.194   7.318  14.754  1.00  0.00    -0.222 OA
HETATM    8  C7  UNL     1      16.256   4.624  14.643  1.00  0.00     0.110 A 
HETATM    9  S2  UNL     1      15.295   4.046  15.913  1.00  0.00    -0.064 SA
HETATM   10  C8  UNL     1      16.002   2.508  16.107  1.00  0.00     0.121 A 
HETATM   11  C9  UNL     1      16.979   2.486  15.168  1.00  0.00     0.044 A 
HETATM   12  C10 UNL     1      17.122   3.596  14.390  1.00  0.00    -0.005 A 
ENDROOT
BRANCH  10  13
HETATM   13  S3  UNL     1      15.561   1.238  17.266  1.00  0.00     0.263 S 
HETATM   14  O3  UNL     1      16.702   0.276  17.324  1.00  0.00    -0.200 OA
HETATM   15  O4  UNL     1      14.321   0.586  16.722  1.00  0.00    -0.200 OA
BRANCH  13  16
HETATM   16  N2  UNL     1      15.250   2.004  18.771  1.00  0.00    -0.324 N 
ATOM     17  H22 UNL     1      15.730   2.831  19.126  1.00  0.00     0.169 HD
ATOM     18  H21 UNL     1      14.506   1.479  19.231  1.00  0.00     0.169 HD
ENDBRANCH  13  16
ENDBRANCH  10  13
BRANCH   1  19
HETATM   19  N1  UNL     1      18.329   2.469  12.659  1.00  0.00    -0.413 N 
ATOM     20  H1  UNL     1      18.960   1.757  13.026  1.00  0.00     0.153 HD
BRANCH  19  21
HETATM   21  C2  UNL     1      17.548   2.265  11.484  1.00  0.00     0.110 C 
HETATM   22  C1  UNL     1      16.776   0.965  11.523  1.00  0.00     0.026 C 
ENDBRANCH  19  21
ENDBRANCH   1  19
TORSDOF 4
ENDMDL
