MODEL 10
REMARK VINA RESULT: -6.508198760      3.538      5.077
REMARK  4 active torsions:
REMARK  status: ('A' for Active; 'I' for Inactive)
REMARK    1  A    between atoms: C2_2  and  N1_3 
REMARK    2  A    between atoms: N1_3  and  C3_5 
REMARK    3  A    between atoms: C8_14  and  S3_15 
REMARK    4  A    between atoms: S3_15  and  N2_16 
ROOT
HETATM    1  C3  UNL     1      16.992   3.419  15.040  1.00  0.00     0.113 C 
HETATM    2  C4  UNL     1      17.487   4.791  15.291  1.00  0.00     0.049 C 
HETATM    3  C5  UNL     1      16.578   5.871  14.710  1.00  0.00     0.112 C 
HETATM    4  C6  UNL     1      16.859   7.217  15.299  1.00  0.00     0.026 C 
HETATM    5  S1  UNL     1      16.935   5.802  12.970  1.00  0.00     0.186 S 
HETATM    6  O1  UNL     1      18.282   6.479  12.782  1.00  0.00    -0.222 OA
HETATM    7  O2  UNL     1      15.871   6.462  12.154  1.00  0.00    -0.222 OA
HETATM    8  C7  UNL     1      17.069   4.092  12.629  1.00  0.00     0.110 A 
HETATM    9  S2  UNL     1      17.199   3.288  11.143  1.00  0.00    -0.064 SA
HETATM   10  C8  UNL     1      17.278   1.683  11.712  1.00  0.00     0.121 A 
HETATM   11  C9  UNL     1      17.198   1.819  13.058  1.00  0.00     0.044 A 
HETATM   12  C10 UNL     1      17.088   3.084  13.553  1.00  0.00    -0.005 A 
ENDROOT
BRANCH  10  13
HETATM   13  S3  UNL     1      17.427   0.191  10.763  1.00  0.00     0.263 S 
HETATM   14  O3  UNL     1      18.692   0.293   9.974  1.00  0.00    -0.200 OA
HETATM   15  O4  UNL     1      16.223   0.142   9.865  1.00  0.00    -0.200 OA
BRANCH  13  16
HETATM   16  N2  UNL     1      17.430  -1.122  11.870  1.00  0.00    -0.324 N 
ATOM     17  H22 UNL     1      16.910  -1.159  12.746  1.00  0.00     0.169 HD
ATOM     18  H21 UNL     1      18.040  -1.843  11.485  1.00  0.00     0.169 HD
ENDBRANCH  13  16
ENDBRANCH  10  13
BRANCH   1  19
HETATM   19  N1  UNL     1      17.812   2.498  15.756  1.00  0.00    -0.413 N 
ATOM     20  H1  UNL     1      18.818   2.429  15.606  1.00  0.00     0.153 HD
BRANCH  19  21
HETATM   21  C2  UNL     1      17.124   1.679  16.699  1.00  0.00     0.110 C 
HETATM   22  C1  UNL     1      15.640   1.964  16.737  1.00  0.00     0.026 C 
ENDBRANCH  19  21
ENDBRANCH   1  19
TORSDOF 4
ENDMDL
