MODEL 1
REMARK VINA RESULT: -3.967785598      0.000      0.000
REMARK  4 active torsions:
REMARK  status: ('A' for Active; 'I' for Inactive)
REMARK    1  A    between atoms: N1_1  and  C1_5 
REMARK    2  A    between atoms: C1_5  and  C2_6 
REMARK    3  A    between atoms: C1_5  and  C4_9 
REMARK    4  A    between atoms: C2_6  and  C3_7 
ROOT
HETATM    1  C1  UNL     1      82.494   4.337 -40.927  1.00  0.00     0.284 C 
ENDROOT
BRANCH   1   2
HETATM    2  N1  UNL     1      82.444   4.180 -42.356  1.00  0.00    -0.065 N 
ATOM      3  H13 UNL     1      82.305   3.203 -42.610  1.00  0.00     0.275 HD
ATOM      4  H12 UNL     1      81.584   4.576 -42.735  1.00  0.00     0.275 HD
ATOM      5  H11 UNL     1      83.262   4.565 -42.828  1.00  0.00     0.275 HD
ENDBRANCH   1   2
BRANCH   1   6
HETATM    6  C2  UNL     1      81.264   3.804 -40.230  1.00  0.00     0.055 C 
BRANCH   6   7
HETATM    7  C3  UNL     1      79.993   4.176 -40.946  1.00  0.00     0.088 C 
HETATM    8  S1  UNL     1      79.643   5.928 -40.528  1.00  0.00    -0.098 SA
ENDBRANCH   6   7
ENDBRANCH   1   6
BRANCH   1   9
HETATM    9  C4  UNL     1      83.689   3.601 -40.438  1.00  0.00     0.204 C 
HETATM   10  O1  UNL     1      84.652   4.172 -39.859  1.00  0.00    -0.646 OA
HETATM   11  O2  UNL     1      83.781   2.225 -40.609  1.00  0.00    -0.646 OA
ENDBRANCH   1   9
TORSDOF 4
ENDMDL
