MODEL 8
REMARK VINA RESULT: -3.782768524      2.034      2.196
REMARK  4 active torsions:
REMARK  status: ('A' for Active; 'I' for Inactive)
REMARK    1  A    between atoms: N1_1  and  C1_5 
REMARK    2  A    between atoms: C1_5  and  C2_6 
REMARK    3  A    between atoms: C1_5  and  C4_9 
REMARK    4  A    between atoms: C2_6  and  C3_7 
ROOT
HETATM    1  C1  UNL     1      82.446   4.123 -40.794  1.00  0.00     0.284 C 
ENDROOT
BRANCH   1   2
HETATM    2  N1  UNL     1      82.328   4.138 -42.227  1.00  0.00    -0.065 N 
ATOM      3  H13 UNL     1      83.213   4.400 -42.662  1.00  0.00     0.275 HD
ATOM      4  H12 UNL     1      82.235   3.191 -42.594  1.00  0.00     0.275 HD
ATOM      5  H11 UNL     1      81.570   4.734 -42.559  1.00  0.00     0.275 HD
ENDBRANCH   1   2
BRANCH   1   6
HETATM    6  C2  UNL     1      81.368   3.307 -40.120  1.00  0.00     0.055 C 
BRANCH   6   7
HETATM    7  C3  UNL     1      81.577   3.198 -38.633  1.00  0.00     0.088 C 
HETATM    8  S1  UNL     1      81.523   1.410 -38.222  1.00  0.00    -0.098 SA
ENDBRANCH   6   7
ENDBRANCH   1   6
BRANCH   1   9
HETATM    9  C4  UNL     1      83.774   3.546 -40.461  1.00  0.00     0.204 C 
HETATM   10  O1  UNL     1      84.668   4.196 -39.854  1.00  0.00    -0.646 OA
HETATM   11  O2  UNL     1      84.078   2.238 -40.817  1.00  0.00    -0.646 OA
ENDBRANCH   1   9
TORSDOF 4
ENDMDL
