MODEL 12
REMARK VINA RESULT: -3.706686383      1.685      1.715
REMARK  4 active torsions:
REMARK  status: ('A' for Active; 'I' for Inactive)
REMARK    1  A    between atoms: N1_1  and  C1_5 
REMARK    2  A    between atoms: C1_5  and  C2_6 
REMARK    3  A    between atoms: C1_5  and  C4_9 
REMARK    4  A    between atoms: C2_6  and  C3_7 
ROOT
HETATM    1  C1  UNL     1      82.387   3.394 -40.122  1.00  0.00     0.284 C 
ENDROOT
BRANCH   1   2
HETATM    2  N1  UNL     1      82.105   3.647 -38.735  1.00  0.00    -0.065 N 
ATOM      3  H13 UNL     1      81.999   2.773 -38.220  1.00  0.00     0.275 HD
ATOM      4  H12 UNL     1      82.925   4.022 -38.259  1.00  0.00     0.275 HD
ATOM      5  H11 UNL     1      81.295   4.251 -38.595  1.00  0.00     0.275 HD
ENDBRANCH   1   2
BRANCH   1   6
HETATM    6  C2  UNL     1      81.752   4.403 -41.049  1.00  0.00     0.055 C 
BRANCH   6   7
HETATM    7  C3  UNL     1      80.430   4.904 -40.532  1.00  0.00     0.088 C 
HETATM    8  S1  UNL     1      79.157   3.702 -41.082  1.00  0.00    -0.098 SA
ENDBRANCH   6   7
ENDBRANCH   1   6
BRANCH   1   9
HETATM    9  C4  UNL     1      83.862   3.436 -40.292  1.00  0.00     0.204 C 
HETATM   10  O1  UNL     1      84.553   4.453 -40.014  1.00  0.00    -0.646 OA
HETATM   11  O2  UNL     1      84.541   2.325 -40.777  1.00  0.00    -0.646 OA
ENDBRANCH   1   9
TORSDOF 4
ENDMDL
