MODEL 17
REMARK VINA RESULT: -4.161112987      1.629      3.064
REMARK  3 active torsions:
REMARK  status: ('A' for Active; 'I' for Inactive)
REMARK    1  A    between atoms: C1_2  and  C2_4 
REMARK    2  A    between atoms: C2_4  and  O3_5 
REMARK    3  A    between atoms: C2_4  and  C3_7 
ROOT
HETATM    1  C2  UNL     1     -22.319  21.845 -24.185  1.00  0.00     0.320 C 
ENDROOT
BRANCH   1   2
HETATM    2  C1  UNL     1     -22.885  20.492 -23.896  1.00  0.00     0.214 C 
HETATM    3  O1  UNL     1     -24.157  20.368 -23.910  1.00  0.00    -0.646 OA
HETATM    4  O2  UNL     1     -22.136  19.387 -23.618  1.00  0.00    -0.646 OA
ENDBRANCH   1   2
BRANCH   1   5
HETATM    5  O3  UNL     1     -21.033  21.655 -24.638  1.00  0.00    -0.375 OA
ATOM      6  H3  UNL     1     -21.046  21.800 -25.577  1.00  0.00     0.211 HD
ENDBRANCH   1   5
BRANCH   1   7
HETATM    7  C3  UNL     1     -23.118  22.530 -25.236  1.00  0.00     0.214 C 
HETATM    8  O4  UNL     1     -22.909  22.294 -26.455  1.00  0.00    -0.646 OA
HETATM    9  O5  UNL     1     -24.112  23.447 -24.943  1.00  0.00    -0.646 OA
ENDBRANCH   1   7
TORSDOF 3
ENDMDL
