MODEL 7
REMARK VINA RESULT: -4.248229637      1.227      2.043
REMARK  3 active torsions:
REMARK  status: ('A' for Active; 'I' for Inactive)
REMARK    1  A    between atoms: C1_2  and  C2_4 
REMARK    2  A    between atoms: C2_4  and  O3_5 
REMARK    3  A    between atoms: C2_4  and  C3_7 
ROOT
HETATM    1  C2  UNL     1     -22.129  20.577 -24.426  1.00  0.00     0.320 C 
ENDROOT
BRANCH   1   2
HETATM    2  C1  UNL     1     -22.888  21.863 -24.362  1.00  0.00     0.214 C 
HETATM    3  O1  UNL     1     -23.975  21.943 -25.031  1.00  0.00    -0.646 OA
HETATM    4  O2  UNL     1     -22.498  22.954 -23.642  1.00  0.00    -0.646 OA
ENDBRANCH   1   2
BRANCH   1   5
HETATM    5  O3  UNL     1     -20.840  20.851 -24.027  1.00  0.00    -0.375 OA
ATOM      6  H3  UNL     1     -20.294  20.145 -24.353  1.00  0.00     0.211 HD
ENDBRANCH   1   5
BRANCH   1   7
HETATM    7  C3  UNL     1     -22.729  19.573 -23.508  1.00  0.00     0.214 C 
HETATM    8  O4  UNL     1     -22.608  18.342 -23.737  1.00  0.00    -0.646 OA
HETATM    9  O5  UNL     1     -23.441  19.926 -22.374  1.00  0.00    -0.646 OA
ENDBRANCH   1   7
TORSDOF 3
ENDMDL
