MODEL 12
REMARK VINA RESULT: -8.412390230      1.241      2.437
REMARK  4 active torsions:
REMARK  status: ('A' for Active; 'I' for Inactive)
REMARK    1  A    between atoms: C2_2  and  C10_12 
REMARK    2  A    between atoms: C3_3  and  C4_4 
REMARK    3  A    between atoms: C5_5  and  C6_6 
REMARK    4  A    between atoms: C8_8  and  C9_9 
ROOT
HETATM    1  C10 UNL     1      65.261  47.160  29.278  1.00  0.00     0.014 C 
HETATM    2  C11 UNL     1      65.703  47.298  30.514  1.00  0.00    -0.047 C 
HETATM    3  C12 UNL     1      65.718  48.606  31.200  1.00  0.00     0.040 C 
HETATM    4  C13 UNL     1      66.461  48.472  32.547  1.00  0.00     0.014 C 
HETATM    5  C14 UNL     1      65.756  47.356  33.333  1.00  0.00     0.015 C 
HETATM    6  C15 UNL     1      66.270  47.334  34.731  1.00  0.00     0.015 C 
HETATM    7  C16 UNL     1      66.215  46.080  32.661  1.00  0.00    -0.044 A 
HETATM    8  C17 UNL     1      66.647  44.998  33.343  1.00  0.00     0.008 A 
HETATM    9  C18 UNL     1      67.101  43.907  32.618  1.00  0.00     0.001 A 
HETATM   10  C19 UNL     1      67.108  43.933  31.243  1.00  0.00     0.001 A 
HETATM   11  C20 UNL     1      66.665  45.043  30.541  1.00  0.00     0.012 A 
HETATM   12  C21 UNL     1      66.215  46.120  31.261  1.00  0.00    -0.023 A 
ENDROOT
BRANCH   1  13
HETATM   13  C2  UNL     1      64.757  48.164  28.429  1.00  0.00    -0.061 C 
HETATM   14  C1  UNL     1      65.526  49.082  27.553  1.00  0.00     0.048 C 
HETATM   15  C3  UNL     1      63.427  48.337  28.356  1.00  0.00     0.007 C 
BRANCH  15  16
HETATM   16  C4  UNL     1      62.522  47.538  29.133  1.00  0.00     0.001 C 
HETATM   17  C5  UNL     1      61.205  47.637  28.871  1.00  0.00     0.007 C 
BRANCH  17  18
HETATM   18  C6  UNL     1      60.190  46.872  29.598  1.00  0.00    -0.056 C 
HETATM   19  C7  UNL     1      60.474  45.870  30.643  1.00  0.00     0.048 C 
HETATM   20  C8  UNL     1      58.922  47.094  29.299  1.00  0.00     0.091 C 
BRANCH  20  21
HETATM   21  C9  UNL     1      57.782  46.437  29.908  1.00  0.00     0.199 C 
HETATM   22  O1  UNL     1      57.141  45.576  29.209  1.00  0.00    -0.644 OA
HETATM   23  O2  UNL     1      57.301  46.638  31.173  1.00  0.00    -0.644 OA
ENDBRANCH  20  21
ENDBRANCH  17  18
ENDBRANCH  15  16
ENDBRANCH   1  13
TORSDOF 4
ENDMDL
