MODEL 7
REMARK VINA RESULT: -9.449846503      3.598      7.279
REMARK  4 active torsions:
REMARK  status: ('A' for Active; 'I' for Inactive)
REMARK    1  A    between atoms: C2_2  and  C10_12 
REMARK    2  A    between atoms: C3_3  and  C4_4 
REMARK    3  A    between atoms: C5_5  and  C6_6 
REMARK    4  A    between atoms: C8_8  and  C9_9 
ROOT
HETATM    1  C10 UNL     1      63.658  46.955  29.412  1.00  0.00     0.014 C 
HETATM    2  C11 UNL     1      62.422  47.344  29.161  1.00  0.00    -0.047 C 
HETATM    3  C12 UNL     1      62.064  48.071  27.926  1.00  0.00     0.040 C 
HETATM    4  C13 UNL     1      60.598  48.547  28.017  1.00  0.00     0.014 C 
HETATM    5  C14 UNL     1      59.742  47.301  28.285  1.00  0.00     0.015 C 
HETATM    6  C15 UNL     1      58.301  47.651  28.150  1.00  0.00     0.015 C 
HETATM    7  C16 UNL     1      59.996  46.981  29.743  1.00  0.00    -0.044 A 
HETATM    8  C17 UNL     1      59.012  46.692  30.619  1.00  0.00     0.008 A 
HETATM    9  C18 UNL     1      59.359  46.476  31.944  1.00  0.00     0.001 A 
HETATM   10  C19 UNL     1      60.671  46.555  32.346  1.00  0.00     0.001 A 
HETATM   11  C20 UNL     1      61.684  46.851  31.447  1.00  0.00     0.012 A 
HETATM   12  C21 UNL     1      61.337  47.063  30.137  1.00  0.00    -0.023 A 
ENDROOT
BRANCH   1  13
HETATM   13  C2  UNL     1      64.799  47.147  28.609  1.00  0.00    -0.061 C 
HETATM   14  C1  UNL     1      64.899  47.035  27.133  1.00  0.00     0.048 C 
HETATM   15  C3  UNL     1      65.952  47.493  29.204  1.00  0.00     0.007 C 
BRANCH  15  16
HETATM   16  C4  UNL     1      66.047  47.649  30.628  1.00  0.00     0.001 C 
HETATM   17  C5  UNL     1      67.042  47.010  31.270  1.00  0.00     0.007 C 
BRANCH  17  18
HETATM   18  C6  UNL     1      67.237  47.095  32.719  1.00  0.00    -0.056 C 
HETATM   19  C7  UNL     1      68.502  46.804  33.420  1.00  0.00     0.048 C 
HETATM   20  C8  UNL     1      66.204  47.462  33.458  1.00  0.00     0.091 C 
BRANCH  20  21
HETATM   21  C9  UNL     1      66.204  47.603  34.901  1.00  0.00     0.199 C 
HETATM   22  O1  UNL     1      66.262  48.786  35.388  1.00  0.00    -0.644 OA
HETATM   23  O2  UNL     1      66.148  46.593  35.821  1.00  0.00    -0.644 OA
ENDBRANCH  20  21
ENDBRANCH  17  18
ENDBRANCH  15  16
ENDBRANCH   1  13
TORSDOF 4
ENDMDL
