MODEL 5
REMARK VINA RESULT: -10.701139191      1.003      2.432
REMARK  4 active torsions:
REMARK  status: ('A' for Active; 'I' for Inactive)
REMARK    1  A    between atoms: C2_2  and  C10_12 
REMARK    2  A    between atoms: C3_3  and  C4_4 
REMARK    3  A    between atoms: C5_5  and  C6_6 
REMARK    4  A    between atoms: C8_8  and  C9_9 
ROOT
HETATM    1  C10 UNL     1      64.823  47.976  29.136  1.00  0.00     0.014 C 
HETATM    2  C11 UNL     1      64.843  48.299  30.416  1.00  0.00    -0.047 C 
HETATM    3  C12 UNL     1      64.185  49.520  30.926  1.00  0.00     0.040 C 
HETATM    4  C13 UNL     1      64.547  49.713  32.415  1.00  0.00     0.014 C 
HETATM    5  C14 UNL     1      64.136  48.424  33.142  1.00  0.00     0.015 C 
HETATM    6  C15 UNL     1      64.239  48.631  34.614  1.00  0.00     0.015 C 
HETATM    7  C16 UNL     1      65.200  47.421  32.751  1.00  0.00    -0.044 A 
HETATM    8  C17 UNL     1      65.813  46.609  33.637  1.00  0.00     0.008 A 
HETATM    9  C18 UNL     1      66.816  45.772  33.172  1.00  0.00     0.001 A 
HETATM   10  C19 UNL     1      67.170  45.775  31.844  1.00  0.00     0.001 A 
HETATM   11  C20 UNL     1      66.540  46.607  30.932  1.00  0.00     0.012 A 
HETATM   12  C21 UNL     1      65.548  47.432  31.395  1.00  0.00    -0.023 A 
ENDROOT
BRANCH   1  13
HETATM   13  C2  UNL     1      64.217  48.684  28.081  1.00  0.00    -0.061 C 
HETATM   14  C1  UNL     1      64.868  49.597  27.108  1.00  0.00     0.048 C 
HETATM   15  C3  UNL     1      62.897  48.534  27.879  1.00  0.00     0.007 C 
BRANCH  15  16
HETATM   16  C4  UNL     1      62.100  47.689  28.722  1.00  0.00     0.001 C 
HETATM   17  C5  UNL     1      60.764  47.714  28.561  1.00  0.00     0.007 C 
BRANCH  17  18
HETATM   18  C6  UNL     1      59.851  46.896  29.362  1.00  0.00    -0.056 C 
HETATM   19  C7  UNL     1      60.269  45.854  30.320  1.00  0.00     0.048 C 
HETATM   20  C8  UNL     1      58.553  47.106  29.221  1.00  0.00     0.091 C 
BRANCH  20  21
HETATM   21  C9  UNL     1      57.501  46.399  29.925  1.00  0.00     0.199 C 
HETATM   22  O1  UNL     1      56.883  45.467  29.302  1.00  0.00    -0.644 OA
HETATM   23  O2  UNL     1      57.084  46.620  31.209  1.00  0.00    -0.644 OA
ENDBRANCH  20  21
ENDBRANCH  17  18
ENDBRANCH  15  16
ENDBRANCH   1  13
TORSDOF 4
ENDMDL
