MODEL 9
REMARK VINA RESULT: -9.073961294      3.672      7.084
REMARK  4 active torsions:
REMARK  status: ('A' for Active; 'I' for Inactive)
REMARK    1  A    between atoms: C2_2  and  C10_12 
REMARK    2  A    between atoms: C3_3  and  C4_4 
REMARK    3  A    between atoms: C5_5  and  C6_6 
REMARK    4  A    between atoms: C8_8  and  C9_9 
ROOT
HETATM    1  C10 UNL     1      63.474  46.828  29.337  1.00  0.00     0.014 C 
HETATM    2  C11 UNL     1      62.264  47.279  29.069  1.00  0.00    -0.047 C 
HETATM    3  C12 UNL     1      61.988  48.138  27.899  1.00  0.00     0.040 C 
HETATM    4  C13 UNL     1      60.533  48.649  27.968  1.00  0.00     0.014 C 
HETATM    5  C14 UNL     1      59.631  47.409  28.066  1.00  0.00     0.015 C 
HETATM    6  C15 UNL     1      58.208  47.817  27.899  1.00  0.00     0.015 C 
HETATM    7  C16 UNL     1      59.802  46.937  29.494  1.00  0.00    -0.044 A 
HETATM    8  C17 UNL     1      58.768  46.591  30.288  1.00  0.00     0.008 A 
HETATM    9  C18 UNL     1      59.042  46.231  31.599  1.00  0.00     0.001 A 
HETATM   10  C19 UNL     1      60.334  46.228  32.069  1.00  0.00     0.001 A 
HETATM   11  C20 UNL     1      61.398  46.582  31.254  1.00  0.00     0.012 A 
HETATM   12  C21 UNL     1      61.124  46.936  29.958  1.00  0.00    -0.023 A 
ENDROOT
BRANCH   1  13
HETATM   13  C2  UNL     1      64.659  47.065  28.613  1.00  0.00    -0.061 C 
HETATM   14  C1  UNL     1      64.824  47.136  27.140  1.00  0.00     0.048 C 
HETATM   15  C3  UNL     1      65.798  47.275  29.295  1.00  0.00     0.007 C 
BRANCH  15  16
HETATM   16  C4  UNL     1      65.831  47.244  30.730  1.00  0.00     0.001 C 
HETATM   17  C5  UNL     1      64.942  47.999  31.400  1.00  0.00     0.007 C 
BRANCH  17  18
HETATM   18  C6  UNL     1      64.882  48.047  32.863  1.00  0.00    -0.056 C 
HETATM   19  C7  UNL     1      63.641  48.003  33.660  1.00  0.00     0.048 C 
HETATM   20  C8  UNL     1      66.024  48.135  33.522  1.00  0.00     0.091 C 
BRANCH  20  21
HETATM   21  C9  UNL     1      66.166  48.194  34.964  1.00  0.00     0.199 C 
HETATM   22  O1  UNL     1      66.075  49.339  35.530  1.00  0.00    -0.644 OA
HETATM   23  O2  UNL     1      66.392  47.141  35.807  1.00  0.00    -0.644 OA
ENDBRANCH  20  21
ENDBRANCH  17  18
ENDBRANCH  15  16
ENDBRANCH   1  13
TORSDOF 4
ENDMDL
