MODEL 8
REMARK VINA RESULT: -9.273682405      3.753      7.101
REMARK  4 active torsions:
REMARK  status: ('A' for Active; 'I' for Inactive)
REMARK    1  A    between atoms: C2_2  and  C10_12 
REMARK    2  A    between atoms: C3_3  and  C4_4 
REMARK    3  A    between atoms: C5_5  and  C6_6 
REMARK    4  A    between atoms: C8_8  and  C9_9 
ROOT
HETATM    1  C10 UNL     1      63.521  48.119  29.166  1.00  0.00     0.014 C 
HETATM    2  C11 UNL     1      62.217  47.928  29.114  1.00  0.00    -0.047 C 
HETATM    3  C12 UNL     1      61.416  48.298  27.930  1.00  0.00     0.040 C 
HETATM    4  C13 UNL     1      59.915  48.126  28.250  1.00  0.00     0.014 C 
HETATM    5  C14 UNL     1      59.723  46.674  28.712  1.00  0.00     0.015 C 
HETATM    6  C15 UNL     1      58.268  46.374  28.811  1.00  0.00     0.015 C 
HETATM    7  C16 UNL     1      60.287  46.652  30.117  1.00  0.00    -0.044 A 
HETATM    8  C17 UNL     1      59.653  46.077  31.160  1.00  0.00     0.008 A 
HETATM    9  C18 UNL     1      60.238  46.173  32.413  1.00  0.00     0.001 A 
HETATM   10  C19 UNL     1      61.430  46.836  32.581  1.00  0.00     0.001 A 
HETATM   11  C20 UNL     1      62.083  47.427  31.510  1.00  0.00     0.012 A 
HETATM   12  C21 UNL     1      61.503  47.329  30.272  1.00  0.00    -0.023 A 
ENDROOT
BRANCH   1  13
HETATM   13  C2  UNL     1      64.347  48.681  28.172  1.00  0.00    -0.061 C 
HETATM   14  C1  UNL     1      64.004  49.755  27.207  1.00  0.00     0.048 C 
HETATM   15  C3  UNL     1      65.610  48.237  28.059  1.00  0.00     0.007 C 
BRANCH  15  16
HETATM   16  C4  UNL     1      66.121  47.200  28.910  1.00  0.00     0.001 C 
HETATM   17  C5  UNL     1      66.873  47.560  29.966  1.00  0.00     0.007 C 
BRANCH  17  18
HETATM   18  C6  UNL     1      67.447  46.591  30.901  1.00  0.00    -0.056 C 
HETATM   19  C7  UNL     1      68.789  45.989  30.778  1.00  0.00     0.048 C 
HETATM   20  C8  UNL     1      66.711  46.225  31.937  1.00  0.00     0.091 C 
BRANCH  20  21
HETATM   21  C9  UNL     1      67.106  45.282  32.964  1.00  0.00     0.199 C 
HETATM   22  O1  UNL     1      67.564  45.750  34.065  1.00  0.00    -0.644 OA
HETATM   23  O2  UNL     1      67.044  43.918  32.889  1.00  0.00    -0.644 OA
ENDBRANCH  20  21
ENDBRANCH  17  18
ENDBRANCH  15  16
ENDBRANCH   1  13
TORSDOF 4
ENDMDL
