MODEL 6
REMARK VINA RESULT: -9.793722105      1.348      2.891
REMARK  4 active torsions:
REMARK  status: ('A' for Active; 'I' for Inactive)
REMARK    1  A    between atoms: C2_2  and  C10_12 
REMARK    2  A    between atoms: C3_3  and  C4_4 
REMARK    3  A    between atoms: C5_5  and  C6_6 
REMARK    4  A    between atoms: C8_8  and  C9_9 
ROOT
HETATM    1  C10 UNL     1      65.460  48.120  28.808  1.00  0.00     0.014 C 
HETATM    2  C11 UNL     1      65.182  48.344  30.078  1.00  0.00    -0.047 C 
HETATM    3  C12 UNL     1      64.306  49.454  30.505  1.00  0.00     0.040 C 
HETATM    4  C13 UNL     1      64.331  49.565  32.045  1.00  0.00     0.014 C 
HETATM    5  C14 UNL     1      63.922  48.191  32.596  1.00  0.00     0.015 C 
HETATM    6  C15 UNL     1      63.696  48.293  34.065  1.00  0.00     0.015 C 
HETATM    7  C16 UNL     1      65.145  47.325  32.384  1.00  0.00    -0.044 A 
HETATM    8  C17 UNL     1      65.647  46.509  33.334  1.00  0.00     0.008 A 
HETATM    9  C18 UNL     1      66.809  45.809  33.046  1.00  0.00     0.001 A 
HETATM   10  C19 UNL     1      67.426  45.947  31.825  1.00  0.00     0.001 A 
HETATM   11  C20 UNL     1      66.910  46.784  30.848  1.00  0.00     0.012 A 
HETATM   12  C21 UNL     1      65.761  47.474  31.135  1.00  0.00    -0.023 A 
ENDROOT
BRANCH   1  13
HETATM   13  C2  UNL     1      65.011  48.848  27.689  1.00  0.00    -0.061 C 
HETATM   14  C1  UNL     1      65.806  49.739  26.807  1.00  0.00     0.048 C 
HETATM   15  C3  UNL     1      63.723  48.740  27.327  1.00  0.00     0.007 C 
BRANCH  15  16
HETATM   16  C4  UNL     1      62.801  47.921  28.063  1.00  0.00     0.001 C 
HETATM   17  C5  UNL     1      61.489  48.209  27.975  1.00  0.00     0.007 C 
BRANCH  17  18
HETATM   18  C6  UNL     1      60.458  47.443  28.680  1.00  0.00    -0.056 C 
HETATM   19  C7  UNL     1      59.113  47.150  28.150  1.00  0.00     0.048 C 
HETATM   20  C8  UNL     1      60.753  46.977  29.881  1.00  0.00     0.091 C 
BRANCH  20  21
HETATM   21  C9  UNL     1      59.867  46.202  30.728  1.00  0.00     0.199 C 
HETATM   22  O1  UNL     1      60.324  45.125  31.247  1.00  0.00    -0.644 OA
HETATM   23  O2  UNL     1      58.569  46.497  31.041  1.00  0.00    -0.644 OA
ENDBRANCH  20  21
ENDBRANCH  17  18
ENDBRANCH  15  16
ENDBRANCH   1  13
TORSDOF 4
ENDMDL
