MODEL 10
REMARK VINA RESULT: -6.843916824      3.711      7.326
REMARK  4 active torsions:
REMARK  status: ('A' for Active; 'I' for Inactive)
REMARK    1  A    between atoms: C2_2  and  C10_12 
REMARK    2  A    between atoms: C3_3  and  C4_4 
REMARK    3  A    between atoms: C5_5  and  C6_6 
REMARK    4  A    between atoms: C8_8  and  C9_9 
ROOT
HETATM    1  C10 UNL     1      62.309  47.804  33.701  1.00  0.00     0.014 C 
HETATM    2  C11 UNL     1      62.676  47.727  32.457  1.00  0.00    -0.047 C 
HETATM    3  C12 UNL     1      63.952  48.125  31.860  1.00  0.00     0.040 C 
HETATM    4  C13 UNL     1      63.608  49.122  30.700  1.00  0.00     0.014 C 
HETATM    5  C14 UNL     1      62.985  48.300  29.618  1.00  0.00     0.015 C 
HETATM    6  C15 UNL     1      64.002  47.369  28.983  1.00  0.00     0.015 C 
HETATM    7  C16 UNL     1      61.888  47.451  30.120  1.00  0.00    -0.044 A 
HETATM    8  C17 UNL     1      61.008  46.926  29.189  1.00  0.00     0.008 A 
HETATM    9  C18 UNL     1      59.994  46.123  29.613  1.00  0.00     0.001 A 
HETATM   10  C19 UNL     1      59.789  45.795  30.933  1.00  0.00     0.001 A 
HETATM   11  C20 UNL     1      60.686  46.332  31.864  1.00  0.00     0.012 A 
HETATM   12  C21 UNL     1      61.712  47.145  31.452  1.00  0.00    -0.023 A 
ENDROOT
BRANCH   1  13
HETATM   13  C2  UNL     1      63.088  48.296  34.779  1.00  0.00    -0.061 C 
HETATM   14  C1  UNL     1      62.746  49.358  35.772  1.00  0.00     0.048 C 
HETATM   15  C3  UNL     1      64.299  47.775  34.948  1.00  0.00     0.007 C 
BRANCH  15  16
HETATM   16  C4  UNL     1      64.896  46.740  34.148  1.00  0.00     0.001 C 
HETATM   17  C5  UNL     1      66.194  46.709  33.877  1.00  0.00     0.007 C 
BRANCH  17  18
HETATM   18  C6  UNL     1      66.872  45.711  33.086  1.00  0.00    -0.056 C 
HETATM   19  C7  UNL     1      67.418  44.466  33.651  1.00  0.00     0.048 C 
HETATM   20  C8  UNL     1      67.010  45.928  31.785  1.00  0.00     0.091 C 
BRANCH  20  21
HETATM   21  C9  UNL     1      67.653  45.050  30.845  1.00  0.00     0.199 C 
HETATM   22  O1  UNL     1      68.760  45.354  30.345  1.00  0.00    -0.644 OA
HETATM   23  O2  UNL     1      67.081  43.858  30.467  1.00  0.00    -0.644 OA
ENDBRANCH  20  21
ENDBRANCH  17  18
ENDBRANCH  15  16
ENDBRANCH   1  13
TORSDOF 4
ENDMDL
