MODEL 8
REMARK VINA RESULT: -7.094238589      3.282      5.268
REMARK  4 active torsions:
REMARK  status: ('A' for Active; 'I' for Inactive)
REMARK    1  A    between atoms: C2_2  and  C10_12 
REMARK    2  A    between atoms: C3_3  and  C4_4 
REMARK    3  A    between atoms: C5_5  and  C6_6 
REMARK    4  A    between atoms: C8_8  and  C9_9 
ROOT
HETATM    1  C10 UNL     1      65.534  45.504  32.823  1.00  0.00     0.014 C 
HETATM    2  C11 UNL     1      65.560  46.669  33.397  1.00  0.00    -0.047 C 
HETATM    3  C12 UNL     1      66.715  47.532  33.648  1.00  0.00     0.040 C 
HETATM    4  C13 UNL     1      66.714  47.840  35.186  1.00  0.00     0.014 C 
HETATM    5  C14 UNL     1      65.562  48.762  35.423  1.00  0.00     0.015 C 
HETATM    6  C15 UNL     1      65.812  50.122  34.799  1.00  0.00     0.015 C 
HETATM    7  C16 UNL     1      64.306  48.252  34.841  1.00  0.00    -0.044 A 
HETATM    8  C17 UNL     1      63.121  48.810  35.287  1.00  0.00     0.008 A 
HETATM    9  C18 UNL     1      61.942  48.378  34.759  1.00  0.00     0.001 A 
HETATM   10  C19 UNL     1      61.859  47.404  33.790  1.00  0.00     0.001 A 
HETATM   11  C20 UNL     1      63.065  46.848  33.348  1.00  0.00     0.012 A 
HETATM   12  C21 UNL     1      64.261  47.272  33.872  1.00  0.00    -0.023 A 
ENDROOT
BRANCH   1  13
HETATM   13  C2  UNL     1      66.646  44.800  32.296  1.00  0.00    -0.061 C 
HETATM   14  C1  UNL     1      67.798  44.190  33.024  1.00  0.00     0.048 C 
HETATM   15  C3  UNL     1      66.712  44.661  30.976  1.00  0.00     0.007 C 
BRANCH  15  16
HETATM   16  C4  UNL     1      65.749  45.143  30.022  1.00  0.00     0.001 C 
HETATM   17  C5  UNL     1      65.583  46.435  29.769  1.00  0.00     0.007 C 
BRANCH  17  18
HETATM   18  C6  UNL     1      64.644  47.002  28.833  1.00  0.00    -0.056 C 
HETATM   19  C7  UNL     1      64.227  46.321  27.595  1.00  0.00     0.048 C 
HETATM   20  C8  UNL     1      64.133  48.195  29.101  1.00  0.00     0.091 C 
BRANCH  20  21
HETATM   21  C9  UNL     1      63.188  48.912  28.287  1.00  0.00     0.199 C 
HETATM   22  O1  UNL     1      63.581  49.641  27.348  1.00  0.00    -0.644 OA
HETATM   23  O2  UNL     1      61.834  48.822  28.509  1.00  0.00    -0.644 OA
ENDBRANCH  20  21
ENDBRANCH  17  18
ENDBRANCH  15  16
ENDBRANCH   1  13
TORSDOF 4
ENDMDL
