MODEL 4
REMARK VINA RESULT: -9.896001224      1.343      2.842
REMARK  4 active torsions:
REMARK  status: ('A' for Active; 'I' for Inactive)
REMARK    1  A    between atoms: C2_2  and  C10_12 
REMARK    2  A    between atoms: C3_3  and  C4_4 
REMARK    3  A    between atoms: C5_5  and  C6_6 
REMARK    4  A    between atoms: C8_8  and  C9_9 
ROOT
HETATM    1  C10 UNL     1      64.913  47.768  29.067  1.00  0.00     0.014 C 
HETATM    2  C11 UNL     1      64.569  47.714  30.318  1.00  0.00    -0.047 C 
HETATM    3  C12 UNL     1      63.610  48.558  31.034  1.00  0.00     0.040 C 
HETATM    4  C13 UNL     1      64.379  49.159  32.262  1.00  0.00     0.014 C 
HETATM    5  C14 UNL     1      64.588  48.026  33.214  1.00  0.00     0.015 C 
HETATM    6  C15 UNL     1      63.274  47.568  33.819  1.00  0.00     0.015 C 
HETATM    7  C16 UNL     1      65.188  46.848  32.560  1.00  0.00    -0.044 A 
HETATM    8  C17 UNL     1      65.758  45.884  33.375  1.00  0.00     0.008 A 
HETATM    9  C18 UNL     1      66.305  44.773  32.808  1.00  0.00     0.001 A 
HETATM   10  C19 UNL     1      66.323  44.547  31.451  1.00  0.00     0.001 A 
HETATM   11  C20 UNL     1      65.743  45.529  30.639  1.00  0.00     0.012 A 
HETATM   12  C21 UNL     1      65.190  46.655  31.196  1.00  0.00    -0.023 A 
ENDROOT
BRANCH   1  13
HETATM   13  C2  UNL     1      64.417  48.675  28.096  1.00  0.00    -0.061 C 
HETATM   14  C1  UNL     1      65.146  49.754  27.365  1.00  0.00     0.048 C 
HETATM   15  C3  UNL     1      63.128  48.592  27.783  1.00  0.00     0.007 C 
BRANCH  15  16
HETATM   16  C4  UNL     1      62.182  47.653  28.324  1.00  0.00     0.001 C 
HETATM   17  C5  UNL     1      60.887  47.925  28.425  1.00  0.00     0.007 C 
BRANCH  17  18
HETATM   18  C6  UNL     1      59.875  47.045  28.953  1.00  0.00    -0.056 C 
HETATM   19  C7  UNL     1      58.723  46.574  28.166  1.00  0.00     0.048 C 
HETATM   20  C8  UNL     1      59.988  46.641  30.211  1.00  0.00     0.091 C 
BRANCH  20  21
HETATM   21  C9  UNL     1      59.080  45.767  30.903  1.00  0.00     0.199 C 
HETATM   22  O1  UNL     1      59.419  44.596  31.191  1.00  0.00    -0.644 OA
HETATM   23  O2  UNL     1      57.822  46.181  31.270  1.00  0.00    -0.644 OA
ENDBRANCH  20  21
ENDBRANCH  17  18
ENDBRANCH  15  16
ENDBRANCH   1  13
TORSDOF 4
ENDMDL
