MODEL 3
REMARK VINA RESULT: -10.142269789      1.046      2.477
REMARK  4 active torsions:
REMARK  status: ('A' for Active; 'I' for Inactive)
REMARK    1  A    between atoms: C2_2  and  C10_12 
REMARK    2  A    between atoms: C3_3  and  C4_4 
REMARK    3  A    between atoms: C5_5  and  C6_6 
REMARK    4  A    between atoms: C8_8  and  C9_9 
ROOT
HETATM    1  C10 UNL     1      64.414  47.552  29.130  1.00  0.00     0.014 C 
HETATM    2  C11 UNL     1      64.277  47.525  30.422  1.00  0.00    -0.047 C 
HETATM    3  C12 UNL     1      63.428  48.371  31.263  1.00  0.00     0.040 C 
HETATM    4  C13 UNL     1      64.372  49.016  32.338  1.00  0.00     0.014 C 
HETATM    5  C14 UNL     1      64.754  47.912  33.269  1.00  0.00     0.015 C 
HETATM    6  C15 UNL     1      63.564  47.449  34.088  1.00  0.00     0.015 C 
HETATM    7  C16 UNL     1      65.265  46.727  32.554  1.00  0.00    -0.044 A 
HETATM    8  C17 UNL     1      65.978  45.794  33.288  1.00  0.00     0.008 A 
HETATM    9  C18 UNL     1      66.448  44.678  32.667  1.00  0.00     0.001 A 
HETATM   10  C19 UNL     1      66.254  44.417  31.330  1.00  0.00     0.001 A 
HETATM   11  C20 UNL     1      65.531  45.368  30.599  1.00  0.00     0.012 A 
HETATM   12  C21 UNL     1      65.052  46.499  31.212  1.00  0.00    -0.023 A 
ENDROOT
BRANCH   1  13
HETATM   13  C2  UNL     1      63.751  48.425  28.231  1.00  0.00    -0.061 C 
HETATM   14  C1  UNL     1      64.333  49.484  27.354  1.00  0.00     0.048 C 
HETATM   15  C3  UNL     1      62.428  48.326  28.146  1.00  0.00     0.007 C 
BRANCH  15  16
HETATM   16  C4  UNL     1      61.598  47.401  28.869  1.00  0.00     0.001 C 
HETATM   17  C5  UNL     1      60.273  47.439  28.813  1.00  0.00     0.007 C 
BRANCH  17  18
HETATM   18  C6  UNL     1      59.369  46.552  29.504  1.00  0.00    -0.056 C 
HETATM   19  C7  UNL     1      59.816  45.362  30.247  1.00  0.00     0.048 C 
HETATM   20  C8  UNL     1      58.072  46.824  29.466  1.00  0.00     0.091 C 
BRANCH  20  21
HETATM   21  C9  UNL     1      57.029  46.058  30.093  1.00  0.00     0.199 C 
HETATM   22  O1  UNL     1      56.391  45.200  29.441  1.00  0.00    -0.644 OA
HETATM   23  O2  UNL     1      56.700  46.237  31.416  1.00  0.00    -0.644 OA
ENDBRANCH  20  21
ENDBRANCH  17  18
ENDBRANCH  15  16
ENDBRANCH   1  13
TORSDOF 4
ENDMDL
