MODEL 4
REMARK VINA RESULT: -10.608405697      3.630      9.471
REMARK  10 active torsions:
REMARK  status: ('A' for Active; 'I' for Inactive)
REMARK    1  A    between atoms: C2_2  and  C5_5 
REMARK    2  A    between atoms: N1_17  and  C13_18 
REMARK    3  A    between atoms: C13_18  and  C14_19 
REMARK    4  A    between atoms: C14_19  and  O3_20 
REMARK    5  A    between atoms: C14_19  and  C15_22 
REMARK    6  A    between atoms: C15_22  and  C16_23 
REMARK    7  A    between atoms: C15_22  and  N2_30 
REMARK    8  A    between atoms: C16_23  and  C17_24 
REMARK       I    between atoms: N2_30  and  C23_32 
REMARK    9  A    between atoms: C23_32  and  O5_34 
REMARK   10  A    between atoms: O5_34  and  C24_35 
ROOT
HETATM    1  C14 UNL     1      13.358  23.741   5.169  1.00  0.00     0.180 C 
ENDROOT
BRANCH   1   2
HETATM    2  C13 UNL     1      13.799  22.426   4.651  1.00  0.00     0.110 C 
BRANCH   2   3
HETATM    3  N1  UNL     1      13.994  21.395   5.580  1.00  0.00    -0.283 N 
HETATM    4  S1  UNL     1      14.597  21.848   7.112  1.00  0.00     0.264 S 
HETATM    5  C12 UNL     1      15.780  20.603   7.546  1.00  0.00     0.086 A 
HETATM    6  O1  UNL     1      13.445  21.792   8.093  1.00  0.00    -0.200 OA
HETATM    7  O2  UNL     1      15.207  23.198   7.070  1.00  0.00    -0.200 OA
HETATM    8  C7  UNL     1      16.681  19.942   6.745  1.00  0.00    -0.032 A 
HETATM    9  C11 UNL     1      15.672  20.356   8.903  1.00  0.00     0.029 A 
HETATM   10  C6  UNL     1      16.912  20.091   5.316  1.00  0.00     0.047 C 
HETATM   11  C8  UNL     1      17.485  19.009   7.364  1.00  0.00     0.051 A 
HETATM   12  C5  UNL     1      15.723  20.066   4.435  1.00  0.00     0.016 C 
HETATM   13  C28 UNL     1      14.398  20.120   5.134  1.00  0.00     0.146 C 
HETATM   14  C9  UNL     1      17.392  18.750   8.720  1.00  0.00     0.117 A 
HETATM   15  F1  UNL     1      18.188  17.833   9.308  1.00  0.00    -0.206 F 
HETATM   16  C10 UNL     1      16.485  19.423   9.492  1.00  0.00     0.044 A 
BRANCH  12  17
HETATM   17  C2  UNL     1      15.722  18.845   3.505  1.00  0.00    -0.046 C 
HETATM   18  C1  UNL     1      15.213  19.278   2.149  1.00  0.00     0.015 C 
HETATM   19  C3  UNL     1      17.162  18.368   3.305  1.00  0.00     0.015 C 
HETATM   20  C4  UNL     1      14.881  17.738   4.054  1.00  0.00     0.015 C 
ENDBRANCH  12  17
ENDBRANCH   2   3
ENDBRANCH   1   2
BRANCH   1  21
HETATM   21  O3  UNL     1      14.076  24.792   4.602  1.00  0.00    -0.388 OA
ATOM     22  H3  UNL     1      14.409  25.390   5.261  1.00  0.00     0.210 HD
ENDBRANCH   1  21
BRANCH   1  23
HETATM   23  C15 UNL     1      11.869  23.883   4.980  1.00  0.00     0.124 C 
BRANCH  23  24
HETATM   24  C16 UNL     1      11.624  24.406   3.565  1.00  0.00     0.066 C 
BRANCH  24  25
HETATM   25  C17 UNL     1      10.626  23.565   2.861  1.00  0.00    -0.056 A 
HETATM   26  C18 UNL     1      10.282  22.311   3.297  1.00  0.00     0.007 A 
HETATM   27  C19 UNL     1       9.340  21.530   2.624  1.00  0.00     0.001 A 
HETATM   28  C20 UNL     1       8.738  22.033   1.491  1.00  0.00     0.000 A 
HETATM   29  C21 UNL     1       9.082  23.289   1.055  1.00  0.00     0.001 A 
HETATM   30  C22 UNL     1      10.013  24.046   1.729  1.00  0.00     0.007 A 
ENDBRANCH  24  25
ENDBRANCH  23  24
BRANCH  23  31
HETATM   31  N2  UNL     1      11.287  24.856   5.881  1.00  0.00    -0.329 N 
HETATM   32  C23 UNL     1      10.199  24.588   6.733  1.00  0.00     0.361 C 
HETATM   33  O4  UNL     1       9.706  23.434   6.705  1.00  0.00    -0.238 OA
ATOM     34  H2  UNL     1      11.689  25.793   5.900  1.00  0.00     0.165 HD
BRANCH  32  35
HETATM   35  O5  UNL     1       9.627  25.501   7.603  1.00  0.00    -0.296 OA
BRANCH  35  36
HETATM   36  C24 UNL     1       9.167  26.750   7.113  1.00  0.00     0.159 C 
HETATM   37  C25 UNL     1       7.680  26.647   6.761  1.00  0.00     0.061 C 
HETATM   38  C26 UNL     1       7.238  28.071   6.992  1.00  0.00     0.170 C 
HETATM   39  O6  UNL     1       8.236  28.732   7.659  1.00  0.00    -0.389 OA
HETATM   40  C27 UNL     1       9.148  27.826   8.148  1.00  0.00     0.200 C 
ENDBRANCH  35  36
ENDBRANCH  32  35
ENDBRANCH  23  31
ENDBRANCH   1  23
TORSDOF 10
ENDMDL
