MODEL 18
REMARK VINA RESULT: -9.801083138      1.712      3.402
REMARK  10 active torsions:
REMARK  status: ('A' for Active; 'I' for Inactive)
REMARK    1  A    between atoms: C2_2  and  C5_5 
REMARK    2  A    between atoms: N1_17  and  C13_18 
REMARK    3  A    between atoms: C13_18  and  C14_19 
REMARK    4  A    between atoms: C14_19  and  O3_20 
REMARK    5  A    between atoms: C14_19  and  C15_22 
REMARK    6  A    between atoms: C15_22  and  C16_23 
REMARK    7  A    between atoms: C15_22  and  N2_30 
REMARK    8  A    between atoms: C16_23  and  C17_24 
REMARK       I    between atoms: N2_30  and  C23_32 
REMARK    9  A    between atoms: C23_32  and  O5_34 
REMARK   10  A    between atoms: O5_34  and  C24_35 
ROOT
HETATM    1  C14 UNL     1      13.461  22.733   4.434  1.00  0.00     0.180 C 
ENDROOT
BRANCH   1   2
HETATM    2  C13 UNL     1      11.993  22.890   4.553  1.00  0.00     0.110 C 
BRANCH   2   3
HETATM    3  N1  UNL     1      11.492  24.186   4.734  1.00  0.00    -0.283 N 
HETATM    4  S1  UNL     1      11.162  24.662   6.340  1.00  0.00     0.264 S 
HETATM    5  C12 UNL     1       9.638  25.562   6.266  1.00  0.00     0.086 A 
HETATM    6  O1  UNL     1      12.265  25.602   6.777  1.00  0.00    -0.200 OA
HETATM    7  O2  UNL     1      11.065  23.487   7.239  1.00  0.00    -0.200 OA
HETATM    8  C7  UNL     1       8.524  25.327   5.495  1.00  0.00    -0.032 A 
HETATM    9  C11 UNL     1       9.716  26.621   7.153  1.00  0.00     0.029 A 
HETATM   10  C6  UNL     1       8.293  24.264   4.528  1.00  0.00     0.047 C 
HETATM   11  C8  UNL     1       7.473  26.206   5.647  1.00  0.00     0.051 A 
HETATM   12  C5  UNL     1       9.353  24.024   3.523  1.00  0.00     0.016 C 
HETATM   13  C28 UNL     1      10.644  24.750   3.759  1.00  0.00     0.146 C 
HETATM   14  C9  UNL     1       7.533  27.269   6.529  1.00  0.00     0.117 A 
HETATM   15  F1  UNL     1       6.494  28.119   6.664  1.00  0.00    -0.206 F 
HETATM   16  C10 UNL     1       8.656  27.479   7.284  1.00  0.00     0.044 A 
BRANCH  12  17
HETATM   17  C2  UNL     1       8.880  24.345   2.099  1.00  0.00    -0.046 C 
HETATM   18  C1  UNL     1       9.897  23.798   1.123  1.00  0.00     0.015 C 
HETATM   19  C3  UNL     1       7.568  23.606   1.830  1.00  0.00     0.015 C 
HETATM   20  C4  UNL     1       8.698  25.814   1.899  1.00  0.00     0.015 C 
ENDBRANCH  12  17
ENDBRANCH   2   3
ENDBRANCH   1   2
BRANCH   1  21
HETATM   21  O3  UNL     1      14.105  23.958   4.274  1.00  0.00    -0.388 OA
ATOM     22  H3  UNL     1      14.872  23.886   3.719  1.00  0.00     0.210 HD
ENDBRANCH   1  21
BRANCH   1  23
HETATM   23  C15 UNL     1      13.981  21.950   5.612  1.00  0.00     0.124 C 
BRANCH  23  24
HETATM   24  C16 UNL     1      14.873  22.879   6.435  1.00  0.00     0.066 C 
BRANCH  24  25
HETATM   25  C17 UNL     1      15.011  22.378   7.825  1.00  0.00    -0.056 A 
HETATM   26  C18 UNL     1      16.229  22.253   8.443  1.00  0.00     0.007 A 
HETATM   27  C19 UNL     1      16.345  21.780   9.752  1.00  0.00     0.001 A 
HETATM   28  C20 UNL     1      15.205  21.430  10.442  1.00  0.00     0.000 A 
HETATM   29  C21 UNL     1      13.986  21.558   9.824  1.00  0.00     0.001 A 
HETATM   30  C22 UNL     1      13.888  22.025   8.532  1.00  0.00     0.007 A 
ENDBRANCH  24  25
ENDBRANCH  23  24
BRANCH  23  31
HETATM   31  N2  UNL     1      14.814  20.834   5.213  1.00  0.00    -0.329 N 
HETATM   32  C23 UNL     1      14.313  19.620   4.705  1.00  0.00     0.361 C 
HETATM   33  O4  UNL     1      13.069  19.502   4.597  1.00  0.00    -0.238 OA
ATOM     34  H2  UNL     1      15.824  20.934   5.304  1.00  0.00     0.165 HD
BRANCH  32  35
HETATM   35  O5  UNL     1      15.090  18.542   4.316  1.00  0.00    -0.296 OA
BRANCH  35  36
HETATM   36  C24 UNL     1      16.450  18.741   3.969  1.00  0.00     0.159 C 
HETATM   37  C25 UNL     1      17.278  17.535   4.425  1.00  0.00     0.061 C 
HETATM   38  C26 UNL     1      18.388  17.554   3.403  1.00  0.00     0.170 C 
HETATM   39  O6  UNL     1      18.034  18.414   2.395  1.00  0.00    -0.389 OA
HETATM   40  C27 UNL     1      16.698  18.725   2.497  1.00  0.00     0.200 C 
ENDBRANCH  35  36
ENDBRANCH  32  35
ENDBRANCH  23  31
ENDBRANCH   1  23
TORSDOF 10
ENDMDL
