MODEL 7
REMARK VINA RESULT: -10.321607285      1.852      4.490
REMARK  10 active torsions:
REMARK  status: ('A' for Active; 'I' for Inactive)
REMARK    1  A    between atoms: C2_2  and  C5_5 
REMARK    2  A    between atoms: N1_17  and  C13_18 
REMARK    3  A    between atoms: C13_18  and  C14_19 
REMARK    4  A    between atoms: C14_19  and  O3_20 
REMARK    5  A    between atoms: C14_19  and  C15_22 
REMARK    6  A    between atoms: C15_22  and  C16_23 
REMARK    7  A    between atoms: C15_22  and  N2_30 
REMARK    8  A    between atoms: C16_23  and  C17_24 
REMARK       I    between atoms: N2_30  and  C23_32 
REMARK    9  A    between atoms: C23_32  and  O5_34 
REMARK   10  A    between atoms: O5_34  and  C24_35 
ROOT
HETATM    1  C14 UNL     1      11.419  23.333   3.308  1.00  0.00     0.180 C 
ENDROOT
BRANCH   1   2
HETATM    2  C13 UNL     1      10.959  24.271   4.358  1.00  0.00     0.110 C 
BRANCH   2   3
HETATM    3  N1  UNL     1       9.615  24.199   4.749  1.00  0.00    -0.283 N 
HETATM    4  S1  UNL     1       8.452  24.643   3.582  1.00  0.00     0.264 S 
HETATM    5  C12 UNL     1       7.230  25.580   4.458  1.00  0.00     0.086 A 
HETATM    6  O1  UNL     1       7.815  23.371   3.063  1.00  0.00    -0.200 OA
HETATM    7  O2  UNL     1       9.066  25.427   2.484  1.00  0.00    -0.200 OA
HETATM    8  C7  UNL     1       7.395  26.485   5.479  1.00  0.00    -0.032 A 
HETATM    9  C11 UNL     1       5.986  25.257   3.946  1.00  0.00     0.029 A 
HETATM   10  C6  UNL     1       8.626  26.926   6.117  1.00  0.00     0.047 C 
HETATM   11  C8  UNL     1       6.249  27.067   5.977  1.00  0.00     0.051 A 
HETATM   12  C5  UNL     1       9.573  25.875   6.554  1.00  0.00     0.016 C 
HETATM   13  C28 UNL     1       9.260  24.487   6.083  1.00  0.00     0.146 C 
HETATM   14  C9  UNL     1       4.997  26.756   5.477  1.00  0.00     0.117 A 
HETATM   15  F1  UNL     1       3.886  27.336   5.978  1.00  0.00    -0.206 F 
HETATM   16  C10 UNL     1       4.863  25.850   4.460  1.00  0.00     0.044 A 
BRANCH  12  17
HETATM   17  C2  UNL     1       9.726  25.838   8.081  1.00  0.00    -0.046 C 
HETATM   18  C1  UNL     1       8.644  24.946   8.647  1.00  0.00     0.015 C 
HETATM   19  C3  UNL     1      11.064  25.185   8.432  1.00  0.00     0.015 C 
HETATM   20  C4  UNL     1       9.645  27.206   8.675  1.00  0.00     0.015 C 
ENDBRANCH  12  17
ENDBRANCH   2   3
ENDBRANCH   1   2
BRANCH   1  21
HETATM   21  O3  UNL     1      11.724  23.991   2.119  1.00  0.00    -0.388 OA
ATOM     22  H3  UNL     1      12.248  23.450   1.539  1.00  0.00     0.210 HD
ENDBRANCH   1  21
BRANCH   1  23
HETATM   23  C15 UNL     1      12.569  22.513   3.834  1.00  0.00     0.124 C 
BRANCH  23  24
HETATM   24  C16 UNL     1      12.148  21.044   3.806  1.00  0.00     0.066 C 
BRANCH  24  25
HETATM   25  C17 UNL     1      13.314  20.170   3.529  1.00  0.00    -0.056 A 
HETATM   26  C18 UNL     1      13.733  19.203   4.407  1.00  0.00     0.007 A 
HETATM   27  C19 UNL     1      14.832  18.387   4.134  1.00  0.00     0.001 A 
HETATM   28  C20 UNL     1      15.516  18.556   2.949  1.00  0.00     0.000 A 
HETATM   29  C21 UNL     1      15.095  19.523   2.069  1.00  0.00     0.001 A 
HETATM   30  C22 UNL     1      14.009  20.320   2.354  1.00  0.00     0.007 A 
ENDBRANCH  24  25
ENDBRANCH  23  24
BRANCH  23  31
HETATM   31  N2  UNL     1      12.885  22.821   5.213  1.00  0.00    -0.329 N 
HETATM   32  C23 UNL     1      14.195  22.925   5.718  1.00  0.00     0.361 C 
HETATM   33  O4  UNL     1      15.144  22.735   4.919  1.00  0.00    -0.238 OA
ATOM     34  H2  UNL     1      12.110  22.973   5.859  1.00  0.00     0.165 HD
BRANCH  32  35
HETATM   35  O5  UNL     1      14.519  23.220   7.031  1.00  0.00    -0.296 OA
BRANCH  35  36
HETATM   36  C24 UNL     1      14.712  22.169   7.963  1.00  0.00     0.159 C 
HETATM   37  C25 UNL     1      15.847  22.538   8.925  1.00  0.00     0.061 C 
HETATM   38  C26 UNL     1      15.427  21.777  10.159  1.00  0.00     0.170 C 
HETATM   39  O6  UNL     1      14.136  21.349   9.985  1.00  0.00    -0.389 OA
HETATM   40  C27 UNL     1      13.571  21.996   8.911  1.00  0.00     0.200 C 
ENDBRANCH  35  36
ENDBRANCH  32  35
ENDBRANCH  23  31
ENDBRANCH   1  23
TORSDOF 10
ENDMDL
