MODEL 17
REMARK VINA RESULT: -9.897437936      1.876      3.432
REMARK  10 active torsions:
REMARK  status: ('A' for Active; 'I' for Inactive)
REMARK    1  A    between atoms: C2_2  and  C5_5 
REMARK    2  A    between atoms: N1_17  and  C13_18 
REMARK    3  A    between atoms: C13_18  and  C14_19 
REMARK    4  A    between atoms: C14_19  and  O3_20 
REMARK    5  A    between atoms: C14_19  and  C15_22 
REMARK    6  A    between atoms: C15_22  and  C16_23 
REMARK    7  A    between atoms: C15_22  and  N2_30 
REMARK    8  A    between atoms: C16_23  and  C17_24 
REMARK       I    between atoms: N2_30  and  C23_32 
REMARK    9  A    between atoms: C23_32  and  O5_34 
REMARK   10  A    between atoms: O5_34  and  C24_35 
ROOT
HETATM    1  C14 UNL     1      13.582  23.007   4.656  1.00  0.00     0.180 C 
ENDROOT
BRANCH   1   2
HETATM    2  C13 UNL     1      12.153  23.141   5.023  1.00  0.00     0.110 C 
BRANCH   2   3
HETATM    3  N1  UNL     1      11.723  24.381   5.514  1.00  0.00    -0.283 N 
HETATM    4  S1  UNL     1      11.737  24.580   7.209  1.00  0.00     0.264 S 
HETATM    5  C12 UNL     1      10.246  25.455   7.599  1.00  0.00     0.086 A 
HETATM    6  O1  UNL     1      12.923  25.455   7.558  1.00  0.00    -0.200 OA
HETATM    7  O2  UNL     1      11.808  23.273   7.903  1.00  0.00    -0.200 OA
HETATM    8  C7  UNL     1       8.994  25.330   7.045  1.00  0.00    -0.032 A 
HETATM    9  C11 UNL     1      10.524  26.355   8.612  1.00  0.00     0.029 A 
HETATM   10  C6  UNL     1       8.551  24.437   5.986  1.00  0.00     0.047 C 
HETATM   11  C8  UNL     1       8.012  26.154   7.553  1.00  0.00     0.051 A 
HETATM   12  C5  UNL     1       9.377  24.383   4.759  1.00  0.00     0.016 C 
HETATM   13  C28 UNL     1      10.701  25.082   4.840  1.00  0.00     0.146 C 
HETATM   14  C9  UNL     1       8.271  27.059   8.566  1.00  0.00     0.117 A 
HETATM   15  F1  UNL     1       7.297  27.857   9.049  1.00  0.00    -0.206 F 
HETATM   16  C10 UNL     1       9.528  27.161   9.098  1.00  0.00     0.044 A 
BRANCH  12  17
HETATM   17  C2  UNL     1       8.627  24.926   3.535  1.00  0.00    -0.046 C 
HETATM   18  C1  UNL     1       8.368  26.400   3.749  1.00  0.00     0.015 C 
HETATM   19  C3  UNL     1       9.529  24.810   2.304  1.00  0.00     0.015 C 
HETATM   20  C4  UNL     1       7.345  24.194   3.308  1.00  0.00     0.015 C 
ENDBRANCH  12  17
ENDBRANCH   2   3
ENDBRANCH   1   2
BRANCH   1  21
HETATM   21  O3  UNL     1      14.224  24.243   4.607  1.00  0.00    -0.388 OA
ATOM     22  H3  UNL     1      13.743  24.872   4.081  1.00  0.00     0.210 HD
ENDBRANCH   1  21
BRANCH   1  23
HETATM   23  C15 UNL     1      14.254  22.036   5.592  1.00  0.00     0.124 C 
BRANCH  23  24
HETATM   24  C16 UNL     1      15.296  22.810   6.399  1.00  0.00     0.066 C 
BRANCH  24  25
HETATM   25  C17 UNL     1      15.280  22.385   7.820  1.00  0.00    -0.056 A 
HETATM   26  C18 UNL     1      14.353  21.504   8.313  1.00  0.00     0.007 A 
HETATM   27  C19 UNL     1      14.349  21.113   9.654  1.00  0.00     0.001 A 
HETATM   28  C20 UNL     1      15.304  21.625  10.505  1.00  0.00     0.000 A 
HETATM   29  C21 UNL     1      16.234  22.506  10.010  1.00  0.00     0.001 A 
HETATM   30  C22 UNL     1      16.224  22.883   8.686  1.00  0.00     0.007 A 
ENDBRANCH  24  25
ENDBRANCH  23  24
BRANCH  23  31
HETATM   31  N2  UNL     1      14.974  20.995   4.887  1.00  0.00    -0.329 N 
HETATM   32  C23 UNL     1      14.406  19.766   4.505  1.00  0.00     0.361 C 
HETATM   33  O4  UNL     1      13.202  19.563   4.796  1.00  0.00    -0.238 OA
ATOM     34  H2  UNL     1      15.952  21.163   4.654  1.00  0.00     0.165 HD
BRANCH  32  35
HETATM   35  O5  UNL     1      15.074  18.758   3.830  1.00  0.00    -0.296 OA
BRANCH  35  36
HETATM   36  C24 UNL     1      16.491  18.761   3.780  1.00  0.00     0.159 C 
HETATM   37  C25 UNL     1      17.030  17.472   4.408  1.00  0.00     0.061 C 
HETATM   38  C26 UNL     1      18.322  17.307   3.646  1.00  0.00     0.170 C 
HETATM   39  O6  UNL     1      18.310  18.171   2.582  1.00  0.00    -0.389 OA
HETATM   40  C27 UNL     1      17.039  18.662   2.395  1.00  0.00     0.200 C 
ENDBRANCH  35  36
ENDBRANCH  32  35
ENDBRANCH  23  31
ENDBRANCH   1  23
TORSDOF 10
ENDMDL
