MODEL 5
REMARK VINA RESULT: -10.572492012      3.629      9.448
REMARK  10 active torsions:
REMARK  status: ('A' for Active; 'I' for Inactive)
REMARK    1  A    between atoms: C2_2  and  C5_5 
REMARK    2  A    between atoms: N1_17  and  C13_18 
REMARK    3  A    between atoms: C13_18  and  C14_19 
REMARK    4  A    between atoms: C14_19  and  O3_20 
REMARK    5  A    between atoms: C14_19  and  C15_22 
REMARK    6  A    between atoms: C15_22  and  C16_23 
REMARK    7  A    between atoms: C15_22  and  N2_30 
REMARK    8  A    between atoms: C16_23  and  C17_24 
REMARK       I    between atoms: N2_30  and  C23_32 
REMARK    9  A    between atoms: C23_32  and  O5_34 
REMARK   10  A    between atoms: O5_34  and  C24_35 
ROOT
HETATM    1  C14 UNL     1      13.345  23.733   5.164  1.00  0.00     0.180 C 
ENDROOT
BRANCH   1   2
HETATM    2  C13 UNL     1      13.791  22.416   4.654  1.00  0.00     0.110 C 
BRANCH   2   3
HETATM    3  N1  UNL     1      13.986  21.390   5.589  1.00  0.00    -0.283 N 
HETATM    4  S1  UNL     1      14.597  21.851   7.115  1.00  0.00     0.264 S 
HETATM    5  C12 UNL     1      15.778  20.603   7.551  1.00  0.00     0.086 A 
HETATM    6  O1  UNL     1      13.450  21.805   8.101  1.00  0.00    -0.200 OA
HETATM    7  O2  UNL     1      15.212  23.198   7.062  1.00  0.00    -0.200 OA
HETATM    8  C7  UNL     1      16.673  19.934   6.751  1.00  0.00    -0.032 A 
HETATM    9  C11 UNL     1      15.676  20.366   8.910  1.00  0.00     0.029 A 
HETATM   10  C6  UNL     1      16.897  20.073   5.320  1.00  0.00     0.047 C 
HETATM   11  C8  UNL     1      17.476  19.002   7.372  1.00  0.00     0.051 A 
HETATM   12  C5  UNL     1      15.705  20.047   4.444  1.00  0.00     0.016 C 
HETATM   13  C28 UNL     1      14.383  20.110   5.149  1.00  0.00     0.146 C 
HETATM   14  C9  UNL     1      17.388  18.752   8.729  1.00  0.00     0.117 A 
HETATM   15  F1  UNL     1      18.184  17.835   9.320  1.00  0.00    -0.206 F 
HETATM   16  C10 UNL     1      16.487  19.434   9.502  1.00  0.00     0.044 A 
BRANCH  12  17
HETATM   17  C2  UNL     1      15.694  18.820   3.522  1.00  0.00    -0.046 C 
HETATM   18  C1  UNL     1      14.707  17.816   4.075  1.00  0.00     0.015 C 
HETATM   19  C3  UNL     1      15.176  19.234   2.144  1.00  0.00     0.015 C 
HETATM   20  C4  UNL     1      17.053  18.210   3.403  1.00  0.00     0.015 C 
ENDBRANCH  12  17
ENDBRANCH   2   3
ENDBRANCH   1   2
BRANCH   1  21
HETATM   21  O3  UNL     1      14.084  24.780   4.618  1.00  0.00    -0.388 OA
ATOM     22  H3  UNL     1      14.733  25.112   5.228  1.00  0.00     0.210 HD
ENDBRANCH   1  21
BRANCH   1  23
HETATM   23  C15 UNL     1      11.863  23.885   4.939  1.00  0.00     0.124 C 
BRANCH  23  24
HETATM   24  C16 UNL     1      11.656  24.403   3.516  1.00  0.00     0.066 C 
BRANCH  24  25
HETATM   25  C17 UNL     1      10.638  23.592   2.805  1.00  0.00    -0.056 A 
HETATM   26  C18 UNL     1       9.964  24.058   1.705  1.00  0.00     0.007 A 
HETATM   27  C19 UNL     1       9.007  23.284   1.045  1.00  0.00     0.001 A 
HETATM   28  C20 UNL     1       8.733  22.016   1.511  1.00  0.00     0.000 A 
HETATM   29  C21 UNL     1       9.409  21.549   2.610  1.00  0.00     0.001 A 
HETATM   30  C22 UNL     1      10.349  22.325   3.251  1.00  0.00     0.007 A 
ENDBRANCH  24  25
ENDBRANCH  23  24
BRANCH  23  31
HETATM   31  N2  UNL     1      11.266  24.866   5.821  1.00  0.00    -0.329 N 
HETATM   32  C23 UNL     1      10.289  24.565   6.788  1.00  0.00     0.361 C 
HETATM   33  O4  UNL     1       9.914  23.371   6.887  1.00  0.00    -0.238 OA
ATOM     34  H2  UNL     1      11.572  25.835   5.736  1.00  0.00     0.165 HD
BRANCH  32  35
HETATM   35  O5  UNL     1       9.706  25.486   7.642  1.00  0.00    -0.296 OA
BRANCH  35  36
HETATM   36  C24 UNL     1       9.264  26.735   7.138  1.00  0.00     0.159 C 
HETATM   37  C25 UNL     1       7.810  26.615   6.671  1.00  0.00     0.061 C 
HETATM   38  C26 UNL     1       7.328  28.028   6.889  1.00  0.00     0.170 C 
HETATM   39  O6  UNL     1       8.262  28.693   7.641  1.00  0.00    -0.389 OA
HETATM   40  C27 UNL     1       9.148  27.793   8.185  1.00  0.00     0.200 C 
ENDBRANCH  35  36
ENDBRANCH  32  35
ENDBRANCH  23  31
ENDBRANCH   1  23
TORSDOF 10
ENDMDL
