MODEL 3
REMARK VINA RESULT: -10.424242845      3.187      8.562
REMARK  10 active torsions:
REMARK  status: ('A' for Active; 'I' for Inactive)
REMARK    1  A    between atoms: C2_2  and  C5_5 
REMARK    2  A    between atoms: N1_17  and  C13_18 
REMARK    3  A    between atoms: C13_18  and  C14_19 
REMARK    4  A    between atoms: C14_19  and  O3_20 
REMARK    5  A    between atoms: C14_19  and  C15_22 
REMARK    6  A    between atoms: C15_22  and  C16_23 
REMARK    7  A    between atoms: C15_22  and  N2_30 
REMARK    8  A    between atoms: C16_23  and  C17_24 
REMARK       I    between atoms: N2_30  and  C23_32 
REMARK    9  A    between atoms: C23_32  and  O5_34 
REMARK   10  A    between atoms: O5_34  and  C24_35 
ROOT
HETATM    1  C14 UNL     1      11.744  24.912   7.623  1.00  0.00     0.180 C 
ENDROOT
BRANCH   1   2
HETATM    2  C13 UNL     1      11.622  23.546   8.160  1.00  0.00     0.115 C 
BRANCH   2   3
HETATM    3  N1  UNL     1      12.459  22.538   7.681  1.00  0.00    -0.263 N 
HETATM    4  S1  UNL     1      12.045  21.697   6.291  1.00  0.00     0.268 S 
HETATM    5  C12 UNL     1      13.550  21.128   5.537  1.00  0.00     0.086 A 
HETATM    6  O1  UNL     1      11.277  22.532   5.290  1.00  0.00    -0.200 OA
HETATM    7  O2  UNL     1      11.254  20.463   6.595  1.00  0.00    -0.200 OA
HETATM    8  C7  UNL     1      14.830  21.608   5.755  1.00  0.00    -0.031 A 
HETATM    9  C11 UNL     1      13.316  20.096   4.661  1.00  0.00     0.029 A 
HETATM   10  C6  UNL     1      15.209  22.697   6.655  1.00  0.00     0.051 C 
HETATM   11  C8  UNL     1      15.875  21.028   5.074  1.00  0.00     0.051 A 
HETATM   12  C5  UNL     1      14.899  22.513   8.093  1.00  0.00     0.037 C 
HETATM   13  C28 UNL     1      13.529  22.062   8.442  1.00  0.00     0.087 C 
HETATM   14  C9  UNL     1      15.671  19.999   4.197  1.00  0.00     0.117 A 
HETATM   15  F1  UNL     1      16.711  19.444   3.537  1.00  0.00    -0.206 F 
HETATM   16  C10 UNL     1      14.382  19.540   3.998  1.00  0.00     0.044 A 
BRANCH  12  17
HETATM   17  C2  UNL     1      15.877  21.586   8.803  1.00  0.00    -0.043 C 
HETATM   18  C1  UNL     1      15.746  21.847  10.285  1.00  0.00     0.015 C 
HETATM   19  C3  UNL     1      15.616  20.134   8.544  1.00  0.00     0.015 C 
HETATM   20  C4  UNL     1      17.303  21.881   8.397  1.00  0.00     0.015 C 
ENDBRANCH  12  17
ENDBRANCH   2   3
ENDBRANCH   1   2
BRANCH   1  21
HETATM   21  O3  UNL     1      12.594  24.882   6.500  1.00  0.00    -0.388 OA
ATOM     22  H3  UNL     1      12.877  25.769   6.308  1.00  0.00     0.210 HD
ENDBRANCH   1  21
BRANCH   1  23
HETATM   23  C15 UNL     1      10.522  25.663   7.282  1.00  0.00     0.124 C 
BRANCH  23  24
HETATM   24  C16 UNL     1       9.662  26.118   8.425  1.00  0.00     0.066 C 
BRANCH  24  25
HETATM   25  C17 UNL     1       8.363  26.705   8.013  1.00  0.00    -0.056 A 
HETATM   26  C18 UNL     1       7.170  26.025   8.030  1.00  0.00     0.007 A 
HETATM   27  C19 UNL     1       5.966  26.607   7.633  1.00  0.00     0.001 A 
HETATM   28  C20 UNL     1       5.932  27.902   7.205  1.00  0.00     0.000 A 
HETATM   29  C21 UNL     1       7.109  28.606   7.177  1.00  0.00     0.001 A 
HETATM   30  C22 UNL     1       8.294  28.035   7.567  1.00  0.00     0.007 A 
ENDBRANCH  24  25
ENDBRANCH  23  24
BRANCH  23  31
HETATM   31  N2  UNL     1       9.728  24.761   6.414  1.00  0.00    -0.329 N 
HETATM   32  C23 UNL     1       9.255  25.245   5.168  1.00  0.00     0.361 C 
HETATM   33  O4  UNL     1       9.497  26.438   4.786  1.00  0.00    -0.238 OA
ATOM     34  H2  UNL     1       9.525  23.806   6.709  1.00  0.00     0.165 HD
BRANCH  32  35
HETATM   35  O5  UNL     1       8.502  24.484   4.272  1.00  0.00    -0.296 OA
BRANCH  35  36
HETATM   36  C24 UNL     1       8.545  24.722   2.881  1.00  0.00     0.159 C 
HETATM   37  C25 UNL     1       9.759  23.931   2.373  1.00  0.00     0.061 C 
HETATM   38  C26 UNL     1       9.191  22.556   2.288  1.00  0.00     0.170 C 
HETATM   39  O6  UNL     1       7.823  22.631   2.268  1.00  0.00    -0.389 OA
HETATM   40  C27 UNL     1       7.436  23.946   2.233  1.00  0.00     0.200 C 
ENDBRANCH  35  36
ENDBRANCH  32  35
ENDBRANCH  23  31
ENDBRANCH   1  23
TORSDOF 10
ENDMDL
