MODEL 2
REMARK VINA RESULT: -10.494363425      3.325      9.959
REMARK  10 active torsions:
REMARK  status: ('A' for Active; 'I' for Inactive)
REMARK    1  A    between atoms: C2_2  and  C5_5 
REMARK    2  A    between atoms: N1_17  and  C13_18 
REMARK    3  A    between atoms: C13_18  and  C14_19 
REMARK    4  A    between atoms: C14_19  and  O3_20 
REMARK    5  A    between atoms: C14_19  and  C15_22 
REMARK    6  A    between atoms: C15_22  and  C16_23 
REMARK    7  A    between atoms: C15_22  and  N2_30 
REMARK    8  A    between atoms: C16_23  and  C17_24 
REMARK       I    between atoms: N2_30  and  C23_32 
REMARK    9  A    between atoms: C23_32  and  O5_34 
REMARK   10  A    between atoms: O5_34  and  C24_35 
ROOT
HETATM    1  C14 UNL     1      11.253  23.984   3.437  1.00  0.00     0.180 C 
ENDROOT
BRANCH   1   2
HETATM    2  C13 UNL     1      11.750  22.601   3.334  1.00  0.00     0.115 C 
BRANCH   2   3
HETATM    3  N1  UNL     1      12.954  22.252   3.946  1.00  0.00    -0.263 N 
HETATM    4  S1  UNL     1      13.550  23.181   5.209  1.00  0.00     0.268 S 
HETATM    5  C12 UNL     1      14.545  22.125   6.233  1.00  0.00     0.086 A 
HETATM    6  O1  UNL     1      12.465  23.810   6.056  1.00  0.00    -0.200 OA
HETATM    7  O2  UNL     1      14.468  24.261   4.728  1.00  0.00    -0.200 OA
HETATM    8  C7  UNL     1      14.521  20.741   6.283  1.00  0.00    -0.031 A 
HETATM    9  C11 UNL     1      15.403  22.851   7.023  1.00  0.00     0.029 A 
HETATM   10  C6  UNL     1      13.658  19.858   5.500  1.00  0.00     0.051 C 
HETATM   11  C8  UNL     1      15.379  20.099   7.144  1.00  0.00     0.051 A 
HETATM   12  C5  UNL     1      13.795  19.926   4.025  1.00  0.00     0.037 C 
HETATM   13  C28 UNL     1      13.788  21.273   3.402  1.00  0.00     0.087 C 
HETATM   14  C9  UNL     1      16.244  20.797   7.941  1.00  0.00     0.117 A 
HETATM   15  F1  UNL     1      17.079  20.147   8.781  1.00  0.00    -0.206 F 
HETATM   16  C10 UNL     1      16.247  22.178   7.871  1.00  0.00     0.044 A 
BRANCH  12  17
HETATM   17  C2  UNL     1      15.022  19.192   3.502  1.00  0.00    -0.043 C 
HETATM   18  C1  UNL     1      14.940  19.200   1.994  1.00  0.00     0.015 C 
HETATM   19  C3  UNL     1      16.316  19.820   3.919  1.00  0.00     0.015 C 
HETATM   20  C4  UNL     1      15.036  17.752   3.965  1.00  0.00     0.015 C 
ENDBRANCH  12  17
ENDBRANCH   2   3
ENDBRANCH   1   2
BRANCH   1  21
HETATM   21  O3  UNL     1      11.800  24.742   2.383  1.00  0.00    -0.388 OA
ATOM     22  H3  UNL     1      12.439  25.346   2.742  1.00  0.00     0.210 HD
ENDBRANCH   1  21
BRANCH   1  23
HETATM   23  C15 UNL     1       9.800  24.224   3.500  1.00  0.00     0.124 C 
BRANCH  23  24
HETATM   24  C16 UNL     1       9.080  24.393   2.194  1.00  0.00     0.066 C 
BRANCH  24  25
HETATM   25  C17 UNL     1       7.616  24.172   2.272  1.00  0.00    -0.056 A 
HETATM   26  C18 UNL     1       6.699  24.789   1.457  1.00  0.00     0.007 A 
HETATM   27  C19 UNL     1       5.326  24.560   1.560  1.00  0.00     0.001 A 
HETATM   28  C20 UNL     1       4.838  23.696   2.495  1.00  0.00     0.000 A 
HETATM   29  C21 UNL     1       5.730  23.066   3.324  1.00  0.00     0.001 A 
HETATM   30  C22 UNL     1       7.080  23.289   3.224  1.00  0.00     0.007 A 
ENDBRANCH  24  25
ENDBRANCH  23  24
BRANCH  23  31
HETATM   31  N2  UNL     1       9.635  25.460   4.302  1.00  0.00    -0.329 N 
HETATM   32  C23 UNL     1       9.344  25.350   5.686  1.00  0.00     0.361 C 
HETATM   33  O4  UNL     1       9.220  24.211   6.247  1.00  0.00    -0.238 OA
ATOM     34  H2  UNL     1       9.729  26.377   3.865  1.00  0.00     0.165 HD
BRANCH  32  35
HETATM   35  O5  UNL     1       9.171  26.444   6.535  1.00  0.00    -0.296 OA
BRANCH  35  36
HETATM   36  C24 UNL     1       7.969  26.644   7.248  1.00  0.00     0.159 C 
HETATM   37  C25 UNL     1       8.371  26.635   8.730  1.00  0.00     0.061 C 
HETATM   38  C26 UNL     1       8.894  28.021   8.894  1.00  0.00     0.170 C 
HETATM   39  O6  UNL     1       8.429  28.805   7.871  1.00  0.00    -0.389 OA
HETATM   40  C27 UNL     1       7.561  28.080   7.094  1.00  0.00     0.200 C 
ENDBRANCH  35  36
ENDBRANCH  32  35
ENDBRANCH  23  31
ENDBRANCH   1  23
TORSDOF 10
ENDMDL
