MODEL 14
REMARK VINA RESULT: -9.671105662      1.909      3.543
REMARK  10 active torsions:
REMARK  status: ('A' for Active; 'I' for Inactive)
REMARK    1  A    between atoms: C2_2  and  C5_5 
REMARK    2  A    between atoms: N1_17  and  C13_18 
REMARK    3  A    between atoms: C13_18  and  C14_19 
REMARK    4  A    between atoms: C14_19  and  O3_20 
REMARK    5  A    between atoms: C14_19  and  C15_22 
REMARK    6  A    between atoms: C15_22  and  C16_23 
REMARK    7  A    between atoms: C15_22  and  N2_30 
REMARK    8  A    between atoms: C16_23  and  C17_24 
REMARK       I    between atoms: N2_30  and  C23_32 
REMARK    9  A    between atoms: C23_32  and  O5_34 
REMARK   10  A    between atoms: O5_34  and  C24_35 
ROOT
HETATM    1  C14 UNL     1      13.807  23.850   5.103  1.00  0.00     0.180 C 
ENDROOT
BRANCH   1   2
HETATM    2  C13 UNL     1      13.027  24.993   5.608  1.00  0.00     0.115 C 
BRANCH   2   3
HETATM    3  N1  UNL     1      11.661  24.845   5.849  1.00  0.00    -0.263 N 
HETATM    4  S1  UNL     1      11.075  24.918   7.419  1.00  0.00     0.268 S 
HETATM    5  C12 UNL     1       9.394  25.486   7.341  1.00  0.00     0.086 A 
HETATM    6  O1  UNL     1      11.869  25.844   8.313  1.00  0.00    -0.200 OA
HETATM    7  O2  UNL     1      11.017  23.566   8.060  1.00  0.00    -0.200 OA
HETATM    8  C7  UNL     1       8.783  26.154   6.294  1.00  0.00    -0.031 A 
HETATM    9  C11 UNL     1       8.705  25.177   8.489  1.00  0.00     0.029 A 
HETATM   10  C6  UNL     1       9.404  26.540   5.029  1.00  0.00     0.051 C 
HETATM   11  C8  UNL     1       7.460  26.509   6.424  1.00  0.00     0.051 A 
HETATM   12  C5  UNL     1       9.932  25.444   4.182  1.00  0.00     0.037 C 
HETATM   13  C28 UNL     1      10.788  24.427   4.842  1.00  0.00     0.087 C 
HETATM   14  C9  UNL     1       6.750  26.214   7.555  1.00  0.00     0.117 A 
HETATM   15  F1  UNL     1       5.451  26.572   7.662  1.00  0.00    -0.206 F 
HETATM   16  C10 UNL     1       7.386  25.545   8.585  1.00  0.00     0.044 A 
BRANCH  12  17
HETATM   17  C2  UNL     1       8.845  24.696   3.422  1.00  0.00    -0.043 C 
HETATM   18  C1  UNL     1       9.468  24.172   2.150  1.00  0.00     0.015 C 
HETATM   19  C3  UNL     1       8.267  23.545   4.185  1.00  0.00     0.015 C 
HETATM   20  C4  UNL     1       7.709  25.620   3.044  1.00  0.00     0.015 C 
ENDBRANCH  12  17
ENDBRANCH   2   3
ENDBRANCH   1   2
BRANCH   1  21
HETATM   21  O3  UNL     1      14.870  24.338   4.319  1.00  0.00    -0.388 OA
ATOM     22  H3  UNL     1      15.266  23.610   3.854  1.00  0.00     0.210 HD
ENDBRANCH   1  21
BRANCH   1  23
HETATM   23  C15 UNL     1      14.329  22.856   6.059  1.00  0.00     0.124 C 
BRANCH  23  24
HETATM   24  C16 UNL     1      14.864  23.379   7.360  1.00  0.00     0.066 C 
BRANCH  24  25
HETATM   25  C17 UNL     1      15.238  22.323   8.332  1.00  0.00    -0.056 A 
HETATM   26  C18 UNL     1      16.520  21.869   8.522  1.00  0.00     0.007 A 
HETATM   27  C19 UNL     1      16.836  20.871   9.444  1.00  0.00     0.001 A 
HETATM   28  C20 UNL     1      15.861  20.300  10.207  1.00  0.00     0.000 A 
HETATM   29  C21 UNL     1      14.570  20.733  10.039  1.00  0.00     0.001 A 
HETATM   30  C22 UNL     1      14.257  21.715   9.133  1.00  0.00     0.007 A 
ENDBRANCH  24  25
ENDBRANCH  23  24
BRANCH  23  31
HETATM   31  N2  UNL     1      15.418  22.149   5.342  1.00  0.00    -0.329 N 
HETATM   32  C23 UNL     1      15.146  20.890   4.749  1.00  0.00     0.361 C 
HETATM   33  O4  UNL     1      13.989  20.359   4.823  1.00  0.00    -0.238 OA
ATOM     34  H2  UNL     1      16.348  22.562   5.278  1.00  0.00     0.165 HD
BRANCH  32  35
HETATM   35  O5  UNL     1      16.092  20.138   4.050  1.00  0.00    -0.296 OA
BRANCH  35  36
HETATM   36  C24 UNL     1      16.307  18.772   4.333  1.00  0.00     0.159 C 
HETATM   37  C25 UNL     1      15.862  18.023   3.068  1.00  0.00     0.061 C 
HETATM   38  C26 UNL     1      17.057  18.201   2.194  1.00  0.00     0.170 C 
HETATM   39  O6  UNL     1      18.137  18.540   2.966  1.00  0.00    -0.389 OA
HETATM   40  C27 UNL     1      17.783  18.506   4.291  1.00  0.00     0.200 C 
ENDBRANCH  35  36
ENDBRANCH  32  35
ENDBRANCH  23  31
ENDBRANCH   1  23
TORSDOF 10
ENDMDL
