MODEL 4
REMARK VINA RESULT: -10.255899150      2.241      3.846
REMARK  10 active torsions:
REMARK  status: ('A' for Active; 'I' for Inactive)
REMARK    1  A    between atoms: C2_2  and  C5_5 
REMARK    2  A    between atoms: N1_17  and  C13_18 
REMARK    3  A    between atoms: C13_18  and  C14_19 
REMARK    4  A    between atoms: C14_19  and  O3_20 
REMARK    5  A    between atoms: C14_19  and  C15_22 
REMARK    6  A    between atoms: C15_22  and  C16_23 
REMARK    7  A    between atoms: C15_22  and  N2_30 
REMARK    8  A    between atoms: C16_23  and  C17_24 
REMARK       I    between atoms: N2_30  and  C23_32 
REMARK    9  A    between atoms: C23_32  and  O5_34 
REMARK   10  A    between atoms: O5_34  and  C24_35 
ROOT
HETATM    1  C14 UNL     1      12.945  22.652   4.491  1.00  0.00     0.180 C 
ENDROOT
BRANCH   1   2
HETATM    2  C13 UNL     1      12.388  24.009   4.619  1.00  0.00     0.115 C 
BRANCH   2   3
HETATM    3  N1  UNL     1      11.096  24.182   5.115  1.00  0.00    -0.263 N 
HETATM    4  S1  UNL     1      10.850  24.362   6.764  1.00  0.00     0.268 S 
HETATM    5  C12 UNL     1       9.365  25.311   6.987  1.00  0.00     0.086 A 
HETATM    6  O1  UNL     1      11.992  25.061   7.469  1.00  0.00    -0.200 OA
HETATM    7  O2  UNL     1      10.599  23.051   7.442  1.00  0.00    -0.200 OA
HETATM    8  C7  UNL     1       8.740  26.122   6.055  1.00  0.00    -0.031 A 
HETATM    9  C11 UNL     1       8.852  25.153   8.252  1.00  0.00     0.029 A 
HETATM   10  C6  UNL     1       9.185  26.374   4.685  1.00  0.00     0.051 C 
HETATM   11  C8  UNL     1       7.586  26.775   6.420  1.00  0.00     0.051 A 
HETATM   12  C5  UNL     1       9.273  25.199   3.786  1.00  0.00     0.037 C 
HETATM   13  C28 UNL     1       9.976  23.998   4.302  1.00  0.00     0.087 C 
HETATM   14  C9  UNL     1       7.053  26.636   7.672  1.00  0.00     0.117 A 
HETATM   15  F1  UNL     1       5.918  27.286   8.010  1.00  0.00    -0.206 F 
HETATM   16  C10 UNL     1       7.698  25.819   8.583  1.00  0.00     0.044 A 
BRANCH  12  17
HETATM   17  C2  UNL     1       7.918  24.741   3.263  1.00  0.00    -0.043 C 
HETATM   18  C1  UNL     1       7.830  23.250   3.491  1.00  0.00     0.015 C 
HETATM   19  C3  UNL     1       6.761  25.402   3.946  1.00  0.00     0.015 C 
HETATM   20  C4  UNL     1       7.789  24.998   1.778  1.00  0.00     0.015 C 
ENDBRANCH  12  17
ENDBRANCH   2   3
ENDBRANCH   1   2
BRANCH   1  21
HETATM   21  O3  UNL     1      13.441  22.487   3.183  1.00  0.00    -0.388 OA
ATOM     22  H3  UNL     1      13.751  21.594   3.085  1.00  0.00     0.210 HD
ENDBRANCH   1  21
BRANCH   1  23
HETATM   23  C15 UNL     1      13.965  22.198   5.454  1.00  0.00     0.124 C 
BRANCH  23  24
HETATM   24  C16 UNL     1      14.535  23.233   6.380  1.00  0.00     0.066 C 
BRANCH  24  25
HETATM   25  C17 UNL     1      14.876  22.720   7.729  1.00  0.00    -0.056 A 
HETATM   26  C18 UNL     1      16.104  22.875   8.324  1.00  0.00     0.007 A 
HETATM   27  C19 UNL     1      16.393  22.376   9.595  1.00  0.00     0.001 A 
HETATM   28  C20 UNL     1      15.443  21.704  10.306  1.00  0.00     0.000 A 
HETATM   29  C21 UNL     1      14.207  21.533   9.737  1.00  0.00     0.001 A 
HETATM   30  C22 UNL     1      13.921  22.023   8.488  1.00  0.00     0.007 A 
ENDBRANCH  24  25
ENDBRANCH  23  24
BRANCH  23  31
HETATM   31  N2  UNL     1      15.064  21.633   4.634  1.00  0.00    -0.329 N 
HETATM   32  C23 UNL     1      15.633  20.390   5.010  1.00  0.00     0.361 C 
HETATM   33  O4  UNL     1      15.221  19.756   6.037  1.00  0.00    -0.238 OA
ATOM     34  H2  UNL     1      15.404  22.131   3.811  1.00  0.00     0.165 HD
BRANCH  32  35
HETATM   35  O5  UNL     1      16.668  19.764   4.312  1.00  0.00    -0.296 OA
BRANCH  35  36
HETATM   36  C24 UNL     1      16.783  18.358   4.263  1.00  0.00     0.159 C 
HETATM   37  C25 UNL     1      15.959  17.928   3.040  1.00  0.00     0.061 C 
HETATM   38  C26 UNL     1      16.918  18.211   1.934  1.00  0.00     0.170 C 
HETATM   39  O6  UNL     1      18.185  18.306   2.446  1.00  0.00    -0.389 OA
HETATM   40  C27 UNL     1      18.163  18.012   3.786  1.00  0.00     0.200 C 
ENDBRANCH  35  36
ENDBRANCH  32  35
ENDBRANCH  23  31
ENDBRANCH   1  23
TORSDOF 10
ENDMDL
