MODEL 15
REMARK VINA RESULT: -9.617278524      2.550      4.219
REMARK  10 active torsions:
REMARK  status: ('A' for Active; 'I' for Inactive)
REMARK    1  A    between atoms: C2_2  and  C5_5 
REMARK    2  A    between atoms: N1_17  and  C13_18 
REMARK    3  A    between atoms: C13_18  and  C14_19 
REMARK    4  A    between atoms: C14_19  and  O3_20 
REMARK    5  A    between atoms: C14_19  and  C15_22 
REMARK    6  A    between atoms: C15_22  and  C16_23 
REMARK    7  A    between atoms: C15_22  and  N2_30 
REMARK    8  A    between atoms: C16_23  and  C17_24 
REMARK       I    between atoms: N2_30  and  C23_32 
REMARK    9  A    between atoms: C23_32  and  O5_34 
REMARK   10  A    between atoms: O5_34  and  C24_35 
ROOT
HETATM    1  C14 UNL     1      12.868  24.267   5.222  1.00  0.00     0.180 C 
ENDROOT
BRANCH   1   2
HETATM    2  C13 UNL     1      12.062  25.093   6.137  1.00  0.00     0.115 C 
BRANCH   2   3
HETATM    3  N1  UNL     1      10.670  25.067   6.045  1.00  0.00    -0.263 N 
HETATM    4  S1  UNL     1       9.736  25.531   7.358  1.00  0.00     0.268 S 
HETATM    5  C12 UNL     1       8.189  26.140   6.731  1.00  0.00     0.086 A 
HETATM    6  O1  UNL     1      10.382  26.605   8.205  1.00  0.00    -0.200 OA
HETATM    7  O2  UNL     1       9.387  24.371   8.238  1.00  0.00    -0.200 OA
HETATM    8  C7  UNL     1       7.918  26.571   5.444  1.00  0.00    -0.031 A 
HETATM    9  C11 UNL     1       7.217  26.140   7.702  1.00  0.00     0.029 A 
HETATM   10  C6  UNL     1       8.861  26.622   4.327  1.00  0.00     0.051 C 
HETATM   11  C8  UNL     1       6.646  27.004   5.149  1.00  0.00     0.051 A 
HETATM   12  C5  UNL     1       9.461  25.335   3.902  1.00  0.00     0.037 C 
HETATM   13  C28 UNL     1      10.026  24.463   4.962  1.00  0.00     0.087 C 
HETATM   14  C9  UNL     1       5.659  27.015   6.096  1.00  0.00     0.117 A 
HETATM   15  F1  UNL     1       4.417  27.445   5.787  1.00  0.00    -0.206 F 
HETATM   16  C10 UNL     1       5.958  26.579   7.374  1.00  0.00     0.044 A 
BRANCH  12  17
HETATM   17  C2  UNL     1       8.518  24.479   3.067  1.00  0.00    -0.043 C 
HETATM   18  C1  UNL     1       9.356  23.429   2.378  1.00  0.00     0.015 C 
HETATM   19  C3  UNL     1       7.459  23.796   3.876  1.00  0.00     0.015 C 
HETATM   20  C4  UNL     1       7.828  25.304   2.004  1.00  0.00     0.015 C 
ENDBRANCH  12  17
ENDBRANCH   2   3
ENDBRANCH   1   2
BRANCH   1  21
HETATM   21  O3  UNL     1      13.739  25.108   4.502  1.00  0.00    -0.388 OA
ATOM     22  H3  UNL     1      13.462  25.128   3.593  1.00  0.00     0.210 HD
ENDBRANCH   1  21
BRANCH   1  23
HETATM   23  C15 UNL     1      13.635  23.131   5.765  1.00  0.00     0.124 C 
BRANCH  23  24
HETATM   24  C16 UNL     1      14.905  23.453   6.496  1.00  0.00     0.066 C 
BRANCH  24  25
HETATM   25  C17 UNL     1      15.021  22.811   7.828  1.00  0.00    -0.056 A 
HETATM   26  C18 UNL     1      16.176  22.777   8.569  1.00  0.00     0.007 A 
HETATM   27  C19 UNL     1      16.251  22.161   9.819  1.00  0.00     0.001 A 
HETATM   28  C20 UNL     1      15.153  21.559  10.360  1.00  0.00     0.000 A 
HETATM   29  C21 UNL     1      13.984  21.577   9.642  1.00  0.00     0.001 A 
HETATM   30  C22 UNL     1      13.909  22.183   8.413  1.00  0.00     0.007 A 
ENDBRANCH  24  25
ENDBRANCH  23  24
BRANCH  23  31
HETATM   31  N2  UNL     1      13.958  22.274   4.598  1.00  0.00    -0.329 N 
HETATM   32  C23 UNL     1      13.502  20.932   4.583  1.00  0.00     0.361 C 
HETATM   33  O4  UNL     1      12.827  20.451   5.553  1.00  0.00    -0.238 OA
ATOM     34  H2  UNL     1      14.499  22.646   3.818  1.00  0.00     0.165 HD
BRANCH  32  35
HETATM   35  O5  UNL     1      13.745  20.038   3.538  1.00  0.00    -0.296 OA
BRANCH  35  36
HETATM   36  C24 UNL     1      14.988  20.003   2.869  1.00  0.00     0.159 C 
HETATM   37  C25 UNL     1      16.007  19.569   3.933  1.00  0.00     0.061 C 
HETATM   38  C26 UNL     1      15.789  18.095   3.955  1.00  0.00     0.170 C 
HETATM   39  O6  UNL     1      15.149  17.713   2.806  1.00  0.00    -0.389 OA
HETATM   40  C27 UNL     1      15.010  18.797   1.976  1.00  0.00     0.200 C 
ENDBRANCH  35  36
ENDBRANCH  32  35
ENDBRANCH  23  31
ENDBRANCH   1  23
TORSDOF 10
ENDMDL
