MODEL 5
REMARK VINA RESULT: -9.930478944      2.248      3.943
REMARK  10 active torsions:
REMARK  status: ('A' for Active; 'I' for Inactive)
REMARK    1  A    between atoms: C2_2  and  C5_5 
REMARK    2  A    between atoms: N1_17  and  C13_18 
REMARK    3  A    between atoms: C13_18  and  C14_19 
REMARK    4  A    between atoms: C14_19  and  O3_20 
REMARK    5  A    between atoms: C14_19  and  C15_22 
REMARK    6  A    between atoms: C15_22  and  C16_23 
REMARK    7  A    between atoms: C15_22  and  N2_30 
REMARK    8  A    between atoms: C16_23  and  C17_24 
REMARK       I    between atoms: N2_30  and  C23_32 
REMARK    9  A    between atoms: C23_32  and  O5_34 
REMARK   10  A    between atoms: O5_34  and  C24_35 
ROOT
HETATM    1  C14 UNL     1      13.173  23.973   5.253  1.00  0.00     0.180 C 
ENDROOT
BRANCH   1   2
HETATM    2  C13 UNL     1      12.385  24.826   6.158  1.00  0.00     0.115 C 
BRANCH   2   3
HETATM    3  N1  UNL     1      10.994  24.845   6.052  1.00  0.00    -0.263 N 
HETATM    4  S1  UNL     1      10.061  25.308   7.367  1.00  0.00     0.268 S 
HETATM    5  C12 UNL     1       8.540  25.978   6.739  1.00  0.00     0.086 A 
HETATM    6  O1  UNL     1      10.731  26.342   8.244  1.00  0.00    -0.200 OA
HETATM    7  O2  UNL     1       9.668  24.139   8.217  1.00  0.00    -0.200 OA
HETATM    8  C7  UNL     1       8.296  26.447   5.460  1.00  0.00    -0.031 A 
HETATM    9  C11 UNL     1       7.559  25.987   7.701  1.00  0.00     0.029 A 
HETATM   10  C6  UNL     1       9.251  26.494   4.354  1.00  0.00     0.051 C 
HETATM   11  C8  UNL     1       7.041  26.926   5.164  1.00  0.00     0.051 A 
HETATM   12  C5  UNL     1       9.816  25.199   3.905  1.00  0.00     0.037 C 
HETATM   13  C28 UNL     1      10.343  24.287   4.950  1.00  0.00     0.087 C 
HETATM   14  C9  UNL     1       6.046  26.946   6.101  1.00  0.00     0.117 A 
HETATM   15  F1  UNL     1       4.820  27.422   5.790  1.00  0.00    -0.206 F 
HETATM   16  C10 UNL     1       6.318  26.472   7.371  1.00  0.00     0.044 A 
BRANCH  12  17
HETATM   17  C2  UNL     1       8.855  24.392   3.041  1.00  0.00    -0.043 C 
HETATM   18  C1  UNL     1       9.682  23.404   2.254  1.00  0.00     0.015 C 
HETATM   19  C3  UNL     1       7.830  23.641   3.833  1.00  0.00     0.015 C 
HETATM   20  C4  UNL     1       8.124  25.282   2.061  1.00  0.00     0.015 C 
ENDBRANCH  12  17
ENDBRANCH   2   3
ENDBRANCH   1   2
BRANCH   1  21
HETATM   21  O3  UNL     1      13.937  24.798   4.404  1.00  0.00    -0.388 OA
ATOM     22  H3  UNL     1      13.517  24.830   3.552  1.00  0.00     0.210 HD
ENDBRANCH   1  21
BRANCH   1  23
HETATM   23  C15 UNL     1      14.045  22.930   5.823  1.00  0.00     0.124 C 
BRANCH  23  24
HETATM   24  C16 UNL     1      15.130  23.384   6.756  1.00  0.00     0.066 C 
BRANCH  24  25
HETATM   25  C17 UNL     1      15.112  22.718   8.081  1.00  0.00    -0.056 A 
HETATM   26  C18 UNL     1      14.001  22.127   8.631  1.00  0.00     0.007 A 
HETATM   27  C19 UNL     1      14.019  21.511   9.883  1.00  0.00     0.001 A 
HETATM   28  C20 UNL     1      15.166  21.474  10.619  1.00  0.00     0.000 A 
HETATM   29  C21 UNL     1      16.292  22.057  10.095  1.00  0.00     0.001 A 
HETATM   30  C22 UNL     1      16.276  22.663   8.864  1.00  0.00     0.007 A 
ENDBRANCH  24  25
ENDBRANCH  23  24
BRANCH  23  31
HETATM   31  N2  UNL     1      14.666  22.250   4.661  1.00  0.00    -0.329 N 
HETATM   32  C23 UNL     1      14.910  20.855   4.729  1.00  0.00     0.361 C 
HETATM   33  O4  UNL     1      14.609  20.180   5.769  1.00  0.00    -0.238 OA
ATOM     34  H2  UNL     1      14.914  22.779   3.824  1.00  0.00     0.165 HD
BRANCH  32  35
HETATM   35  O5  UNL     1      15.486  20.113   3.696  1.00  0.00    -0.296 OA
BRANCH  35  36
HETATM   36  C24 UNL     1      15.883  18.771   3.881  1.00  0.00     0.159 C 
HETATM   37  C25 UNL     1      15.477  18.048   2.588  1.00  0.00     0.061 C 
HETATM   38  C26 UNL     1      16.598  18.429   1.683  1.00  0.00     0.170 C 
HETATM   39  O6  UNL     1      17.662  18.856   2.433  1.00  0.00    -0.389 OA
HETATM   40  C27 UNL     1      17.377  18.698   3.766  1.00  0.00     0.200 C 
ENDBRANCH  35  36
ENDBRANCH  32  35
ENDBRANCH  23  31
ENDBRANCH   1  23
TORSDOF 10
ENDMDL
