MODEL 7
REMARK VINA RESULT: -9.865269680      3.628      9.289
REMARK  10 active torsions:
REMARK  status: ('A' for Active; 'I' for Inactive)
REMARK    1  A    between atoms: C2_2  and  C5_5 
REMARK    2  A    between atoms: N1_17  and  C13_18 
REMARK    3  A    between atoms: C13_18  and  C14_19 
REMARK    4  A    between atoms: C14_19  and  O3_20 
REMARK    5  A    between atoms: C14_19  and  C15_22 
REMARK    6  A    between atoms: C15_22  and  C16_23 
REMARK    7  A    between atoms: C15_22  and  N2_30 
REMARK    8  A    between atoms: C16_23  and  C17_24 
REMARK       I    between atoms: N2_30  and  C23_32 
REMARK    9  A    between atoms: C23_32  and  O5_34 
REMARK   10  A    between atoms: O5_34  and  C24_35 
ROOT
HETATM    1  C14 UNL     1      11.278  24.268   3.636  1.00  0.00     0.180 C 
ENDROOT
BRANCH   1   2
HETATM    2  C13 UNL     1      11.621  22.837   3.716  1.00  0.00     0.115 C 
BRANCH   2   3
HETATM    3  N1  UNL     1      12.854  22.451   4.242  1.00  0.00    -0.263 N 
HETATM    4  S1  UNL     1      13.548  23.337   5.484  1.00  0.00     0.268 S 
HETATM    5  C12 UNL     1      14.585  22.237   6.418  1.00  0.00     0.086 A 
HETATM    6  O1  UNL     1      12.534  23.966   6.414  1.00  0.00    -0.200 OA
HETATM    7  O2  UNL     1      14.457  24.410   4.970  1.00  0.00    -0.200 OA
HETATM    8  C7  UNL     1      14.536  20.854   6.437  1.00  0.00    -0.031 A 
HETATM    9  C11 UNL     1      15.507  22.928   7.166  1.00  0.00     0.029 A 
HETATM   10  C6  UNL     1      13.606  20.007   5.691  1.00  0.00     0.051 C 
HETATM   11  C8  UNL     1      15.434  20.175   7.226  1.00  0.00     0.051 A 
HETATM   12  C5  UNL     1      13.649  20.107   4.213  1.00  0.00     0.037 C 
HETATM   13  C28 UNL     1      13.631  21.469   3.623  1.00  0.00     0.087 C 
HETATM   14  C9  UNL     1      16.363  20.837   7.981  1.00  0.00     0.117 A 
HETATM   15  F1  UNL     1      17.236  20.150   8.751  1.00  0.00    -0.206 F 
HETATM   16  C10 UNL     1      16.389  22.219   7.943  1.00  0.00     0.044 A 
BRANCH  12  17
HETATM   17  C2  UNL     1      14.825  19.362   3.595  1.00  0.00    -0.043 C 
HETATM   18  C1  UNL     1      14.682  19.464   2.095  1.00  0.00     0.015 C 
HETATM   19  C3  UNL     1      16.158  19.918   3.991  1.00  0.00     0.015 C 
HETATM   20  C4  UNL     1      14.803  17.898   3.972  1.00  0.00     0.015 C 
ENDBRANCH  12  17
ENDBRANCH   2   3
ENDBRANCH   1   2
BRANCH   1  21
HETATM   21  O3  UNL     1      11.399  24.688   2.297  1.00  0.00    -0.388 OA
ATOM     22  H3  UNL     1      12.231  25.134   2.191  1.00  0.00     0.210 HD
ENDBRANCH   1  21
BRANCH   1  23
HETATM   23  C15 UNL     1       9.985  24.730   4.172  1.00  0.00     0.124 C 
BRANCH  23  24
HETATM   24  C16 UNL     1       9.507  24.091   5.443  1.00  0.00     0.066 C 
BRANCH  24  25
HETATM   25  C17 UNL     1       9.329  25.037   6.571  1.00  0.00    -0.056 A 
HETATM   26  C18 UNL     1       9.386  26.404   6.446  1.00  0.00     0.007 A 
HETATM   27  C19 UNL     1       9.217  27.267   7.529  1.00  0.00     0.001 A 
HETATM   28  C20 UNL     1       8.982  26.770   8.778  1.00  0.00     0.000 A 
HETATM   29  C21 UNL     1       8.920  25.409   8.933  1.00  0.00     0.001 A 
HETATM   30  C22 UNL     1       9.086  24.560   7.869  1.00  0.00     0.007 A 
ENDBRANCH  24  25
ENDBRANCH  23  24
BRANCH  23  31
HETATM   31  N2  UNL     1       8.993  24.466   3.101  1.00  0.00    -0.329 N 
HETATM   32  C23 UNL     1       8.035  25.464   2.789  1.00  0.00     0.361 C 
HETATM   33  O4  UNL     1       8.011  26.576   3.414  1.00  0.00    -0.238 OA
ATOM     34  H2  UNL     1       9.001  23.580   2.596  1.00  0.00     0.165 HD
BRANCH  32  35
HETATM   35  O5  UNL     1       7.059  25.325   1.801  1.00  0.00    -0.296 OA
BRANCH  35  36
HETATM   36  C24 UNL     1       6.216  24.194   1.748  1.00  0.00     0.159 C 
HETATM   37  C25 UNL     1       5.812  23.923   3.205  1.00  0.00     0.061 C 
HETATM   38  C26 UNL     1       4.728  24.929   3.395  1.00  0.00     0.170 C 
HETATM   39  O6  UNL     1       4.271  25.339   2.170  1.00  0.00    -0.389 OA
HETATM   40  C27 UNL     1       4.892  24.618   1.182  1.00  0.00     0.200 C 
ENDBRANCH  35  36
ENDBRANCH  32  35
ENDBRANCH  23  31
ENDBRANCH   1  23
TORSDOF 10
ENDMDL
