MODEL 3
REMARK VINA RESULT: -10.311706344      1.711      4.181
REMARK  9 active torsions:
REMARK  status: ('A' for Active; 'I' for Inactive)
REMARK    1  A    between atoms: C2_2  and  C4_4 
REMARK    2  A    between atoms: N1_16  and  C12_17 
REMARK    3  A    between atoms: C12_17  and  C13_18 
REMARK    4  A    between atoms: C13_18  and  O3_19 
REMARK    5  A    between atoms: C13_18  and  C14_21 
REMARK    6  A    between atoms: C14_21  and  C15_22 
REMARK    7  A    between atoms: C14_21  and  N2_29 
REMARK    8  A    between atoms: C15_22  and  C16_23 
REMARK       I    between atoms: N2_29  and  C22_31 
REMARK       I    between atoms: C22_31  and  N3_33 
REMARK    9  A    between atoms: N3_33  and  C23_35 
ROOT
HETATM    1  C13 UNL     1      13.381  23.674   4.824  1.00  0.00     0.180 C 
ENDROOT
BRANCH   1   2
HETATM    2  C12 UNL     1      13.969  22.690   3.856  1.00  0.00     0.115 C 
BRANCH   2   3
HETATM    3  N1  UNL     1      14.573  21.538   4.393  1.00  0.00    -0.263 N 
HETATM    4  S1  UNL     1      14.564  20.127   3.450  1.00  0.00     0.268 S 
HETATM    5  C11 UNL     1      16.008  19.206   3.781  1.00  0.00     0.086 A 
HETATM    6  O1  UNL     1      13.401  19.276   3.912  1.00  0.00    -0.200 OA
HETATM    7  O2  UNL     1      14.450  20.448   1.989  1.00  0.00    -0.200 OA
HETATM    8  C6  UNL     1      16.660  18.989   4.965  1.00  0.00    -0.031 A 
HETATM    9  C10 UNL     1      16.525  18.631   2.637  1.00  0.00     0.029 A 
HETATM   10  C5  UNL     1      16.256  19.530   6.307  1.00  0.00     0.050 C 
HETATM   11  C7  UNL     1      17.807  18.216   5.037  1.00  0.00     0.051 A 
HETATM   12  C4  UNL     1      16.066  21.051   6.195  1.00  0.00     0.033 C 
HETATM   13  C27 UNL     1      14.641  21.372   5.791  1.00  0.00     0.086 C 
HETATM   14  C8  UNL     1      18.275  17.668   3.863  1.00  0.00     0.117 A 
HETATM   15  F1  UNL     1      19.399  16.896   3.855  1.00  0.00    -0.206 F 
HETATM   16  C9  UNL     1      17.658  17.854   2.640  1.00  0.00     0.044 A 
BRANCH  12  17
HETATM   17  C2  UNL     1      16.446  21.618   7.518  1.00  0.00    -0.013 C 
HETATM   18  C1  UNL     1      15.474  22.733   7.846  1.00  0.00     0.010 C 
HETATM   19  C3  UNL     1      16.465  20.625   8.637  1.00  0.00     0.010 C 
ENDBRANCH  12  17
ENDBRANCH   2   3
ENDBRANCH   1   2
BRANCH   1  20
HETATM   20  O3  UNL     1      13.833  24.983   4.526  1.00  0.00    -0.388 OA
ATOM     21  H3  UNL     1      13.999  25.463   5.329  1.00  0.00     0.210 HD
ENDBRANCH   1  20
BRANCH   1  22
HETATM   22  C14 UNL     1      11.880  23.752   4.581  1.00  0.00     0.124 C 
BRANCH  22  23
HETATM   23  C15 UNL     1      11.470  23.730   3.152  1.00  0.00     0.066 C 
BRANCH  23  24
HETATM   24  C16 UNL     1      10.038  23.507   2.932  1.00  0.00    -0.056 A 
HETATM   25  C17 UNL     1       9.503  22.250   3.183  1.00  0.00     0.007 A 
HETATM   26  C18 UNL     1       8.161  22.001   2.995  1.00  0.00     0.001 A 
HETATM   27  C19 UNL     1       7.345  23.021   2.552  1.00  0.00     0.000 A 
HETATM   28  C20 UNL     1       7.856  24.275   2.297  1.00  0.00     0.001 A 
HETATM   29  C21 UNL     1       9.218  24.506   2.494  1.00  0.00     0.007 A 
ENDBRANCH  23  24
ENDBRANCH  22  23
BRANCH  22  30
HETATM   30  N2  UNL     1      11.239  24.842   5.267  1.00  0.00    -0.335 N 
HETATM   31  C22 UNL     1      10.754  24.747   6.615  1.00  0.00     0.317 C 
HETATM   32  O4  UNL     1      10.903  23.662   7.207  1.00  0.00    -0.247 OA
HETATM   33  N3  UNL     1      10.122  25.849   7.269  1.00  0.00    -0.335 N 
ATOM     34  H3  UNL     1      10.011  26.728   6.763  1.00  0.00     0.165 HD
ATOM     35  H2  UNL     1      11.123  25.726   4.771  1.00  0.00     0.164 HD
BRANCH  33  36
HETATM   36  C23 UNL     1       9.632  25.753   8.629  1.00  0.00     0.023 C 
HETATM   37  C24 UNL     1      10.748  25.448   9.603  1.00  0.00     0.037 C 
HETATM   38  C25 UNL     1       8.576  24.686   8.676  1.00  0.00     0.037 C 
HETATM   39  C26 UNL     1       8.963  27.070   8.968  1.00  0.00     0.037 C 
ENDBRANCH  33  36
ENDBRANCH  22  30
ENDBRANCH   1  22
TORSDOF 9
ENDMDL
