MODEL 11
REMARK VINA RESULT: -9.171255214      2.664      7.851
REMARK  9 active torsions:
REMARK  status: ('A' for Active; 'I' for Inactive)
REMARK    1  A    between atoms: C2_2  and  C4_4 
REMARK    2  A    between atoms: N1_16  and  C12_17 
REMARK    3  A    between atoms: C12_17  and  C13_18 
REMARK    4  A    between atoms: C13_18  and  O3_19 
REMARK    5  A    between atoms: C13_18  and  C14_21 
REMARK    6  A    between atoms: C14_21  and  C15_22 
REMARK    7  A    between atoms: C14_21  and  N2_29 
REMARK    8  A    between atoms: C15_22  and  C16_23 
REMARK       I    between atoms: N2_29  and  C22_31 
REMARK       I    between atoms: C22_31  and  N3_33 
REMARK    9  A    between atoms: N3_33  and  C23_35 
ROOT
HETATM    1  C13 UNL     1      13.043  23.974   7.093  1.00  0.00     0.180 C 
ENDROOT
BRANCH   1   2
HETATM    2  C12 UNL     1      11.668  23.387   6.967  1.00  0.00     0.115 C 
BRANCH   2   3
HETATM    3  N1  UNL     1      10.811  23.949   6.003  1.00  0.00    -0.263 N 
HETATM    4  S1  UNL     1      10.700  23.177   4.496  1.00  0.00     0.268 S 
HETATM    5  C11 UNL     1       9.088  23.385   3.862  1.00  0.00     0.086 A 
HETATM    6  O1  UNL     1      11.630  23.898   3.544  1.00  0.00    -0.200 OA
HETATM    7  O2  UNL     1      11.056  21.723   4.600  1.00  0.00    -0.200 OA
HETATM    8  C6  UNL     1       8.261  24.474   3.906  1.00  0.00    -0.031 A 
HETATM    9  C10 UNL     1       8.634  22.246   3.227  1.00  0.00     0.029 A 
HETATM   10  C5  UNL     1       8.574  25.795   4.551  1.00  0.00     0.050 C 
HETATM   11  C7  UNL     1       6.998  24.457   3.336  1.00  0.00     0.051 A 
HETATM   12  C4  UNL     1       9.035  25.548   5.996  1.00  0.00     0.033 C 
HETATM   13  C27 UNL     1      10.534  25.330   6.036  1.00  0.00     0.086 C 
HETATM   14  C8  UNL     1       6.600  23.293   2.717  1.00  0.00     0.117 A 
HETATM   15  F1  UNL     1       5.371  23.201   2.134  1.00  0.00    -0.206 F 
HETATM   16  C9  UNL     1       7.394  22.164   2.642  1.00  0.00     0.044 A 
BRANCH  12  17
HETATM   17  C2  UNL     1       8.589  26.729   6.784  1.00  0.00    -0.013 C 
HETATM   18  C1  UNL     1       7.277  27.212   6.200  1.00  0.00     0.010 C 
HETATM   19  C3  UNL     1       8.420  26.473   8.248  1.00  0.00     0.010 C 
ENDBRANCH  12  17
ENDBRANCH   2   3
ENDBRANCH   1   2
BRANCH   1  20
HETATM   20  O3  UNL     1      13.160  24.691   8.309  1.00  0.00    -0.388 OA
ATOM     21  H3  UNL     1      14.059  24.675   8.615  1.00  0.00     0.210 HD
ENDBRANCH   1  20
BRANCH   1  22
HETATM   22  C14 UNL     1      14.042  22.836   7.254  1.00  0.00     0.124 C 
BRANCH  22  23
HETATM   23  C15 UNL     1      15.029  23.015   8.352  1.00  0.00     0.066 C 
BRANCH  23  24
HETATM   24  C16 UNL     1      15.815  21.817   8.664  1.00  0.00    -0.056 A 
HETATM   25  C17 UNL     1      17.174  21.807   8.382  1.00  0.00     0.007 A 
HETATM   26  C18 UNL     1      17.949  20.703   8.666  1.00  0.00     0.001 A 
HETATM   27  C19 UNL     1      17.356  19.597   9.239  1.00  0.00     0.000 A 
HETATM   28  C20 UNL     1      16.009  19.587   9.526  1.00  0.00     0.001 A 
HETATM   29  C21 UNL     1      15.242  20.715   9.231  1.00  0.00     0.007 A 
ENDBRANCH  23  24
ENDBRANCH  22  23
BRANCH  22  30
HETATM   30  N2  UNL     1      14.711  22.476   6.033  1.00  0.00    -0.335 N 
HETATM   31  C22 UNL     1      14.611  21.176   5.433  1.00  0.00     0.317 C 
HETATM   32  O4  UNL     1      13.906  20.328   6.010  1.00  0.00    -0.247 OA
HETATM   33  N3  UNL     1      15.289  20.851   4.218  1.00  0.00    -0.335 N 
ATOM     34  H3  UNL     1      15.861  21.563   3.764  1.00  0.00     0.165 HD
ATOM     35  H2  UNL     1      15.286  23.181   5.570  1.00  0.00     0.164 HD
BRANCH  33  36
HETATM   36  C23 UNL     1      15.187  19.538   3.614  1.00  0.00     0.023 C 
HETATM   37  C24 UNL     1      14.276  18.628   4.406  1.00  0.00     0.037 C 
HETATM   38  C25 UNL     1      16.568  18.957   3.514  1.00  0.00     0.037 C 
HETATM   39  C26 UNL     1      14.669  19.725   2.201  1.00  0.00     0.037 C 
ENDBRANCH  33  36
ENDBRANCH  22  30
ENDBRANCH   1  22
TORSDOF 9
ENDMDL
