MODEL 4
REMARK VINA RESULT: -10.144660283      2.966      9.123
REMARK  9 active torsions:
REMARK  status: ('A' for Active; 'I' for Inactive)
REMARK    1  A    between atoms: C2_2  and  C4_4 
REMARK    2  A    between atoms: N1_16  and  C12_17 
REMARK    3  A    between atoms: C12_17  and  C13_18 
REMARK    4  A    between atoms: C13_18  and  O3_19 
REMARK    5  A    between atoms: C13_18  and  C14_21 
REMARK    6  A    between atoms: C14_21  and  C15_22 
REMARK    7  A    between atoms: C14_21  and  N2_29 
REMARK    8  A    between atoms: C15_22  and  C16_23 
REMARK       I    between atoms: N2_29  and  C22_31 
REMARK       I    between atoms: C22_31  and  N3_33 
REMARK    9  A    between atoms: N3_33  and  C23_35 
ROOT
HETATM    1  C13 UNL     1      13.459  21.764   3.865  1.00  0.00     0.180 C 
ENDROOT
BRANCH   1   2
HETATM    2  C12 UNL     1      13.422  23.038   4.655  1.00  0.00     0.115 C 
BRANCH   2   3
HETATM    3  N1  UNL     1      12.204  23.383   5.271  1.00  0.00    -0.263 N 
HETATM    4  S1  UNL     1      12.142  23.370   6.966  1.00  0.00     0.268 S 
HETATM    5  C11 UNL     1      11.032  24.601   7.510  1.00  0.00     0.086 A 
HETATM    6  O1  UNL     1      11.550  22.044   7.392  1.00  0.00    -0.200 OA
HETATM    7  O2  UNL     1      13.504  23.568   7.563  1.00  0.00    -0.200 OA
HETATM    8  C6  UNL     1       9.829  24.991   6.988  1.00  0.00    -0.031 A 
HETATM    9  C10 UNL     1      11.490  25.243   8.643  1.00  0.00     0.029 A 
HETATM   10  C5  UNL     1       9.170  24.418   5.765  1.00  0.00     0.050 C 
HETATM   11  C7  UNL     1       9.074  25.998   7.565  1.00  0.00     0.051 A 
HETATM   12  C4  UNL     1      10.172  24.445   4.599  1.00  0.00     0.033 C 
HETATM   13  C27 UNL     1      10.992  23.171   4.585  1.00  0.00     0.086 C 
HETATM   14  C8  UNL     1       9.582  26.602   8.694  1.00  0.00     0.117 A 
HETATM   15  F1  UNL     1       8.895  27.602   9.318  1.00  0.00    -0.206 F 
HETATM   16  C9  UNL     1      10.791  26.248   9.264  1.00  0.00     0.044 A 
BRANCH  12  17
HETATM   17  C2  UNL     1       9.368  24.644   3.363  1.00  0.00    -0.013 C 
HETATM   18  C1  UNL     1      10.160  24.090   2.196  1.00  0.00     0.010 C 
HETATM   19  C3  UNL     1       8.013  24.010   3.393  1.00  0.00     0.010 C 
ENDBRANCH  12  17
ENDBRANCH   2   3
ENDBRANCH   1   2
BRANCH   1  20
HETATM   20  O3  UNL     1      14.177  21.956   2.659  1.00  0.00    -0.388 OA
ATOM     21  H3  UNL     1      14.947  21.399   2.643  1.00  0.00     0.210 HD
ENDBRANCH   1  20
BRANCH   1  22
HETATM   22  C14 UNL     1      14.302  20.748   4.623  1.00  0.00     0.124 C 
BRANCH  22  23
HETATM   23  C15 UNL     1      14.228  19.356   4.107  1.00  0.00     0.066 C 
BRANCH  23  24
HETATM   24  C16 UNL     1      15.480  18.851   3.535  1.00  0.00    -0.056 A 
HETATM   25  C17 UNL     1      16.565  18.629   4.372  1.00  0.00     0.007 A 
HETATM   26  C18 UNL     1      17.758  18.149   3.875  1.00  0.00     0.001 A 
HETATM   27  C19 UNL     1      17.864  17.889   2.524  1.00  0.00     0.000 A 
HETATM   28  C20 UNL     1      16.800  18.103   1.677  1.00  0.00     0.001 A 
HETATM   29  C21 UNL     1      15.601  18.589   2.201  1.00  0.00     0.007 A 
ENDBRANCH  23  24
ENDBRANCH  22  23
BRANCH  22  30
HETATM   30  N2  UNL     1      14.090  20.766   6.046  1.00  0.00    -0.335 N 
HETATM   31  C22 UNL     1      15.159  20.842   7.001  1.00  0.00     0.317 C 
HETATM   32  O4  UNL     1      16.322  20.895   6.561  1.00  0.00    -0.247 OA
HETATM   33  N3  UNL     1      14.913  20.859   8.408  1.00  0.00    -0.335 N 
ATOM     34  H3  UNL     1      13.951  20.815   8.744  1.00  0.00     0.165 HD
ATOM     35  H2  UNL     1      13.132  20.722   6.393  1.00  0.00     0.164 HD
BRANCH  33  36
HETATM   36  C23 UNL     1      15.993  20.936   9.372  1.00  0.00     0.023 C 
HETATM   37  C24 UNL     1      17.082  21.879   8.915  1.00  0.00     0.037 C 
HETATM   38  C25 UNL     1      16.538  19.552   9.580  1.00  0.00     0.037 C 
HETATM   39  C26 UNL     1      15.397  21.394  10.689  1.00  0.00     0.037 C 
ENDBRANCH  33  36
ENDBRANCH  22  30
ENDBRANCH   1  22
TORSDOF 9
ENDMDL
