MODEL 8
REMARK VINA RESULT: -9.690998556      1.447      4.026
REMARK  9 active torsions:
REMARK  status: ('A' for Active; 'I' for Inactive)
REMARK    1  A    between atoms: C2_2  and  C4_4 
REMARK    2  A    between atoms: N1_16  and  C12_17 
REMARK    3  A    between atoms: C12_17  and  C13_18 
REMARK    4  A    between atoms: C13_18  and  O3_19 
REMARK    5  A    between atoms: C13_18  and  C14_21 
REMARK    6  A    between atoms: C14_21  and  C15_22 
REMARK    7  A    between atoms: C14_21  and  N2_29 
REMARK    8  A    between atoms: C15_22  and  C16_23 
REMARK       I    between atoms: N2_29  and  C22_31 
REMARK       I    between atoms: C22_31  and  N3_33 
REMARK    9  A    between atoms: N3_33  and  C23_35 
ROOT
HETATM    1  C13 UNL     1      13.086  23.104   6.471  1.00  0.00     0.180 C 
ENDROOT
BRANCH   1   2
HETATM    2  C12 UNL     1      14.082  22.744   5.408  1.00  0.00     0.115 C 
BRANCH   2   3
HETATM    3  N1  UNL     1      14.762  21.519   5.547  1.00  0.00    -0.263 N 
HETATM    4  S1  UNL     1      14.476  20.318   4.383  1.00  0.00     0.268 S 
HETATM    5  C11 UNL     1      15.926  19.375   4.162  1.00  0.00     0.086 A 
HETATM    6  O1  UNL     1      13.434  19.375   4.945  1.00  0.00    -0.200 OA
HETATM    7  O2  UNL     1      14.017  20.915   3.085  1.00  0.00    -0.200 OA
HETATM    8  C6  UNL     1      16.841  18.942   5.083  1.00  0.00    -0.031 A 
HETATM    9  C10 UNL     1      16.127  19.041   2.838  1.00  0.00     0.029 A 
HETATM   10  C5  UNL     1      16.797  19.206   6.562  1.00  0.00     0.050 C 
HETATM   11  C7  UNL     1      17.945  18.189   4.720  1.00  0.00     0.051 A 
HETATM   12  C4  UNL     1      16.635  20.716   6.795  1.00  0.00     0.033 C 
HETATM   13  C27 UNL     1      15.165  21.086   6.825  1.00  0.00     0.086 C 
HETATM   14  C8  UNL     1      18.092  17.887   3.384  1.00  0.00     0.117 A 
HETATM   15  F1  UNL     1      19.154  17.150   2.950  1.00  0.00    -0.206 F 
HETATM   16  C9  UNL     1      17.199  18.297   2.411  1.00  0.00     0.044 A 
BRANCH  12  17
HETATM   17  C2  UNL     1      17.347  21.021   8.066  1.00  0.00    -0.013 C 
HETATM   18  C1  UNL     1      16.539  22.061   8.816  1.00  0.00     0.010 C 
HETATM   19  C3  UNL     1      17.578  19.836   8.950  1.00  0.00     0.010 C 
ENDBRANCH  12  17
ENDBRANCH   2   3
ENDBRANCH   1   2
BRANCH   1  20
HETATM   20  O3  UNL     1      13.527  24.243   7.188  1.00  0.00    -0.388 OA
ATOM     21  H3  UNL     1      12.889  24.944   7.114  1.00  0.00     0.210 HD
ENDBRANCH   1  20
BRANCH   1  22
HETATM   22  C14 UNL     1      11.809  23.581   5.795  1.00  0.00     0.124 C 
BRANCH  22  23
HETATM   23  C15 UNL     1      11.845  23.585   4.308  1.00  0.00     0.066 C 
BRANCH  23  24
HETATM   24  C16 UNL     1      10.679  22.968   3.669  1.00  0.00    -0.056 A 
HETATM   25  C17 UNL     1       9.578  23.757   3.364  1.00  0.00     0.007 A 
HETATM   26  C18 UNL     1       8.464  23.217   2.758  1.00  0.00     0.001 A 
HETATM   27  C19 UNL     1       8.453  21.872   2.453  1.00  0.00     0.000 A 
HETATM   28  C20 UNL     1       9.535  21.071   2.748  1.00  0.00     0.001 A 
HETATM   29  C21 UNL     1      10.653  21.638   3.362  1.00  0.00     0.007 A 
ENDBRANCH  23  24
ENDBRANCH  22  23
BRANCH  22  30
HETATM   30  N2  UNL     1      11.332  24.846   6.286  1.00  0.00    -0.335 N 
HETATM   31  C22 UNL     1      10.074  25.006   6.959  1.00  0.00     0.317 C 
HETATM   32  O4  UNL     1       9.371  23.990   7.117  1.00  0.00    -0.247 OA
HETATM   33  N3  UNL     1       9.629  26.277   7.435  1.00  0.00    -0.335 N 
ATOM     34  H3  UNL     1      10.222  27.095   7.294  1.00  0.00     0.165 HD
ATOM     35  H2  UNL     1      11.917  25.670   6.150  1.00  0.00     0.164 HD
BRANCH  33  36
HETATM   36  C23 UNL     1       8.359  26.438   8.114  1.00  0.00     0.023 C 
HETATM   37  C24 UNL     1       7.924  25.159   8.793  1.00  0.00     0.037 C 
HETATM   38  C25 UNL     1       7.338  26.881   7.105  1.00  0.00     0.037 C 
HETATM   39  C26 UNL     1       8.519  27.558   9.122  1.00  0.00     0.037 C 
ENDBRANCH  33  36
ENDBRANCH  22  30
ENDBRANCH   1  22
TORSDOF 9
ENDMDL
