MODEL 9
REMARK VINA RESULT: -9.595893580      3.217      9.117
REMARK  9 active torsions:
REMARK  status: ('A' for Active; 'I' for Inactive)
REMARK    1  A    between atoms: C2_2  and  C4_4 
REMARK    2  A    between atoms: N1_16  and  C12_17 
REMARK    3  A    between atoms: C12_17  and  C13_18 
REMARK    4  A    between atoms: C13_18  and  O3_19 
REMARK    5  A    between atoms: C13_18  and  C14_21 
REMARK    6  A    between atoms: C14_21  and  C15_22 
REMARK    7  A    between atoms: C14_21  and  N2_29 
REMARK    8  A    between atoms: C15_22  and  C16_23 
REMARK       I    between atoms: N2_29  and  C22_31 
REMARK       I    between atoms: C22_31  and  N3_33 
REMARK    9  A    between atoms: N3_33  and  C23_35 
ROOT
HETATM    1  C13 UNL     1      13.699  23.294   4.677  1.00  0.00     0.180 C 
ENDROOT
BRANCH   1   2
HETATM    2  C12 UNL     1      13.035  23.735   5.948  1.00  0.00     0.115 C 
BRANCH   2   3
HETATM    3  N1  UNL     1      11.650  23.984   5.900  1.00  0.00    -0.263 N 
HETATM    4  S1  UNL     1      10.879  24.445   7.340  1.00  0.00     0.268 S 
HETATM    5  C11 UNL     1       9.562  25.525   6.966  1.00  0.00     0.086 A 
HETATM    6  O1  UNL     1      10.257  23.204   7.942  1.00  0.00    -0.200 OA
HETATM    7  O2  UNL     1      11.845  25.081   8.297  1.00  0.00    -0.200 OA
HETATM    8  C6  UNL     1       8.667  25.493   5.931  1.00  0.00    -0.031 A 
HETATM    9  C10 UNL     1       9.453  26.544   7.892  1.00  0.00     0.029 A 
HETATM   10  C5  UNL     1       8.628  24.472   4.829  1.00  0.00     0.050 C 
HETATM   11  C7  UNL     1       7.672  26.446   5.796  1.00  0.00     0.051 A 
HETATM   12  C4  UNL     1      10.023  24.369   4.194  1.00  0.00     0.033 C 
HETATM   13  C27 UNL     1      10.858  23.341   4.929  1.00  0.00     0.086 C 
HETATM   14  C8  UNL     1       7.612  27.438   6.750  1.00  0.00     0.117 A 
HETATM   15  F1  UNL     1       6.659  28.412   6.683  1.00  0.00    -0.206 F 
HETATM   16  C9  UNL     1       8.489  27.519   7.816  1.00  0.00     0.044 A 
BRANCH  12  17
HETATM   17  C2  UNL     1       9.805  24.036   2.759  1.00  0.00    -0.013 C 
HETATM   18  C1  UNL     1       8.861  25.069   2.178  1.00  0.00     0.010 C 
HETATM   19  C3  UNL     1      11.053  23.981   1.936  1.00  0.00     0.010 C 
ENDBRANCH  12  17
ENDBRANCH   2   3
ENDBRANCH   1   2
BRANCH   1  20
HETATM   20  O3  UNL     1      14.882  24.043   4.457  1.00  0.00    -0.388 OA
ATOM     21  H3  UNL     1      14.771  24.618   3.709  1.00  0.00     0.210 HD
ENDBRANCH   1  20
BRANCH   1  22
HETATM   22  C14 UNL     1      14.209  21.872   4.867  1.00  0.00     0.124 C 
BRANCH  22  23
HETATM   23  C15 UNL     1      13.701  20.882   3.880  1.00  0.00     0.066 C 
BRANCH  23  24
HETATM   24  C16 UNL     1      14.733  20.020   3.297  1.00  0.00    -0.056 A 
HETATM   25  C17 UNL     1      15.863  19.717   4.044  1.00  0.00     0.007 A 
HETATM   26  C18 UNL     1      16.853  18.904   3.534  1.00  0.00     0.001 A 
HETATM   27  C19 UNL     1      16.710  18.391   2.262  1.00  0.00     0.000 A 
HETATM   28  C20 UNL     1      15.597  18.681   1.504  1.00  0.00     0.001 A 
HETATM   29  C21 UNL     1      14.606  19.505   2.039  1.00  0.00     0.007 A 
ENDBRANCH  23  24
ENDBRANCH  22  23
BRANCH  22  30
HETATM   30  N2  UNL     1      14.045  21.372   6.206  1.00  0.00    -0.335 N 
HETATM   31  C22 UNL     1      15.099  21.366   7.180  1.00  0.00     0.317 C 
HETATM   32  O4  UNL     1      16.206  21.819   6.834  1.00  0.00    -0.247 OA
HETATM   33  N3  UNL     1      14.902  20.863   8.502  1.00  0.00    -0.335 N 
ATOM     34  H3  UNL     1      13.986  20.497   8.762  1.00  0.00     0.165 HD
ATOM     35  H2  UNL     1      13.133  21.004   6.477  1.00  0.00     0.164 HD
BRANCH  33  36
HETATM   36  C23 UNL     1      15.968  20.857   9.484  1.00  0.00     0.023 C 
HETATM   37  C24 UNL     1      17.186  21.604   8.991  1.00  0.00     0.037 C 
HETATM   38  C25 UNL     1      16.309  19.429   9.802  1.00  0.00     0.037 C 
HETATM   39  C26 UNL     1      15.424  21.487  10.751  1.00  0.00     0.037 C 
ENDBRANCH  33  36
ENDBRANCH  22  30
ENDBRANCH   1  22
TORSDOF 9
ENDMDL
