MODEL 2
REMARK VINA RESULT: -10.644643560      1.775      2.541
REMARK  10 active torsions:
REMARK  status: ('A' for Active; 'I' for Inactive)
REMARK    1  A    between atoms: C2_2  and  C4_4 
REMARK    2  A    between atoms: N1_16  and  C12_17 
REMARK    3  A    between atoms: C12_17  and  C13_18 
REMARK    4  A    between atoms: C13_18  and  O3_19 
REMARK    5  A    between atoms: C13_18  and  C14_21 
REMARK    6  A    between atoms: C14_21  and  C15_22 
REMARK    7  A    between atoms: C14_21  and  N2_29 
REMARK    8  A    between atoms: C15_22  and  C16_23 
REMARK       I    between atoms: N2_29  and  C22_31 
REMARK    9  A    between atoms: C22_31  and  O5_33 
REMARK   10  A    between atoms: O5_33  and  C23_34 
ROOT
HETATM    1  C13 UNL     1      10.403  22.654   2.977  1.00  0.00     0.155 C 
ENDROOT
BRANCH   1   2
HETATM    2  C12 UNL     1      11.752  22.631   3.677  1.00  0.00     0.141 C 
BRANCH   2   3
HETATM    3  N1  UNL     1      12.129  21.350   4.223  1.00  0.00    -0.203 NA
HETATM    4  S1  UNL     1      12.111  21.362   5.898  1.00  0.00     0.244 S 
HETATM    5  C11 UNL     1      13.685  21.318   6.672  1.00  0.00     0.081 A 
HETATM    6  O1  UNL     1      11.218  20.280   6.506  1.00  0.00    -0.206 OA
HETATM    7  O2  UNL     1      11.504  22.673   6.386  1.00  0.00    -0.206 OA
HETATM    8  C6  UNL     1      14.903  20.937   6.220  1.00  0.00    -0.032 A 
HETATM    9  C10 UNL     1      13.587  21.766   7.988  1.00  0.00     0.028 A 
HETATM   10  C5  UNL     1      15.278  20.425   4.876  1.00  0.00     0.046 C 
HETATM   11  C7  UNL     1      16.048  20.978   7.017  1.00  0.00     0.050 A 
HETATM   12  C4  UNL     1      14.020  19.747   4.329  1.00  0.00     0.007 C 
HETATM   13  C27 UNL     1      13.225  20.756   3.556  1.00  0.00     0.113 C 
HETATM   14  C8  UNL     1      15.929  21.423   8.311  1.00  0.00     0.117 A 
HETATM   15  F1  UNL     1      17.043  21.460   9.080  1.00  0.00    -0.206 F 
HETATM   16  C9  UNL     1      14.696  21.820   8.803  1.00  0.00     0.044 A 
BRANCH  12  17
HETATM   17  C2  UNL     1      14.525  18.626   3.430  1.00  0.00    -0.017 C 
HETATM   18  C1  UNL     1      15.723  17.923   4.055  1.00  0.00     0.010 C 
HETATM   19  C3  UNL     1      14.802  19.113   2.042  1.00  0.00     0.010 C 
ENDBRANCH  12  17
ENDBRANCH   2   3
ENDBRANCH   1   2
BRANCH   1  20
HETATM   20  O3  UNL     1       9.902  21.346   3.339  1.00  0.00    -0.392 OA
ATOM     21  H3  UNL     1       9.227  21.235   2.681  1.00  0.00     0.210 HD
ENDBRANCH   1  20
BRANCH   1  22
HETATM   22  C14 UNL     1       9.418  23.640   3.471  1.00  0.00     0.120 C 
BRANCH  22  23
HETATM   23  C15 UNL     1       8.592  24.332   2.462  1.00  0.00     0.066 C 
BRANCH  23  24
HETATM   24  C16 UNL     1       7.179  23.974   2.369  1.00  0.00    -0.056 A 
HETATM   25  C17 UNL     1       6.343  24.327   1.320  1.00  0.00     0.007 A 
HETATM   26  C18 UNL     1       5.016  23.971   1.246  1.00  0.00     0.001 A 
HETATM   27  C19 UNL     1       4.460  23.232   2.247  1.00  0.00     0.000 A 
HETATM   28  C20 UNL     1       5.241  22.843   3.333  1.00  0.00     0.001 A 
HETATM   29  C21 UNL     1       6.566  23.215   3.373  1.00  0.00     0.007 A 
ENDBRANCH  23  24
ENDBRANCH  22  23
BRANCH  22  30
HETATM   30  N2  UNL     1       9.901  24.563   4.486  1.00  0.00    -0.329 N 
HETATM   31  C22 UNL     1       9.125  25.397   5.298  1.00  0.00     0.361 C 
HETATM   32  O4  UNL     1       7.884  25.422   5.244  1.00  0.00    -0.238 OA
ATOM     33  H2  UNL     1      10.911  24.607   4.619  1.00  0.00     0.165 HD
BRANCH  31  34
HETATM   34  O5  UNL     1       9.695  26.271   6.237  1.00  0.00    -0.296 OA
BRANCH  34  35
HETATM   35  C23 UNL     1       9.436  26.133   7.603  1.00  0.00     0.159 C 
HETATM   36  C24 UNL     1      10.634  25.711   8.399  1.00  0.00     0.061 C 
HETATM   37  C25 UNL     1      10.625  26.633   9.565  1.00  0.00     0.170 C 
HETATM   38  O6  UNL     1       9.622  27.546   9.445  1.00  0.00    -0.389 OA
HETATM   39  C26 UNL     1       9.091  27.470   8.171  1.00  0.00     0.200 C 
ENDBRANCH  34  35
ENDBRANCH  31  34
ENDBRANCH  22  30
ENDBRANCH   1  22
TORSDOF 10
ENDMDL
