MODEL 1
REMARK VINA RESULT: -10.688608304      0.000      0.000
REMARK  10 active torsions:
REMARK  status: ('A' for Active; 'I' for Inactive)
REMARK    1  A    between atoms: C2_2  and  C4_4 
REMARK    2  A    between atoms: N1_16  and  C12_17 
REMARK    3  A    between atoms: C12_17  and  C13_18 
REMARK    4  A    between atoms: C13_18  and  O3_19 
REMARK    5  A    between atoms: C13_18  and  C14_21 
REMARK    6  A    between atoms: C14_21  and  C15_22 
REMARK    7  A    between atoms: C14_21  and  N2_29 
REMARK    8  A    between atoms: C15_22  and  C16_23 
REMARK       I    between atoms: N2_29  and  C22_31 
REMARK    9  A    between atoms: C22_31  and  O5_33 
REMARK   10  A    between atoms: O5_33  and  C23_34 
ROOT
HETATM    1  C13 UNL     1      13.044  24.377   5.097  1.00  0.00     0.155 C 
ENDROOT
BRANCH   1   2
HETATM    2  C12 UNL     1      14.124  23.401   4.659  1.00  0.00     0.141 C 
BRANCH   2   3
HETATM    3  N1  UNL     1      13.862  22.021   4.990  1.00  0.00    -0.203 NA
HETATM    4  S1  UNL     1      13.812  21.781   6.647  1.00  0.00     0.244 S 
HETATM    5  C11 UNL     1      15.175  20.908   7.326  1.00  0.00     0.081 A 
HETATM    6  O1  UNL     1      12.510  21.142   7.132  1.00  0.00    -0.206 OA
HETATM    7  O2  UNL     1      13.859  23.131   7.353  1.00  0.00    -0.206 OA
HETATM    8  C6  UNL     1      16.096  20.091   6.764  1.00  0.00    -0.032 A 
HETATM    9  C10 UNL     1      15.261  21.142   8.698  1.00  0.00     0.028 A 
HETATM   10  C5  UNL     1      16.227  19.679   5.341  1.00  0.00     0.046 C 
HETATM   11  C7  UNL     1      17.113  19.484   7.500  1.00  0.00     0.050 A 
HETATM   12  C4  UNL     1      14.812  19.740   4.763  1.00  0.00     0.007 C 
HETATM   13  C27 UNL     1      14.582  21.105   4.189  1.00  0.00     0.113 C 
HETATM   14  C8  UNL     1      17.180  19.729   8.849  1.00  0.00     0.117 A 
HETATM   15  F1  UNL     1      18.171  19.137   9.559  1.00  0.00    -0.206 F 
HETATM   16  C9  UNL     1      16.253  20.561   9.456  1.00  0.00     0.044 A 
BRANCH  12  17
HETATM   17  C2  UNL     1      14.771  18.665   3.684  1.00  0.00    -0.017 C 
HETATM   18  C1  UNL     1      15.913  17.673   3.858  1.00  0.00     0.010 C 
HETATM   19  C3  UNL     1      14.730  19.262   2.311  1.00  0.00     0.010 C 
ENDBRANCH  12  17
ENDBRANCH   2   3
ENDBRANCH   1   2
BRANCH   1  20
HETATM   20  O3  UNL     1      13.390  25.524   4.285  1.00  0.00    -0.392 OA
ATOM     21  H3  UNL     1      13.018  26.222   4.812  1.00  0.00     0.210 HD
ENDBRANCH   1  20
BRANCH   1  22
HETATM   22  C14 UNL     1      11.650  24.018   4.757  1.00  0.00     0.120 C 
BRANCH  22  23
HETATM   23  C15 UNL     1      11.332  23.832   3.328  1.00  0.00     0.066 C 
BRANCH  23  24
HETATM   24  C16 UNL     1       9.938  23.591   2.961  1.00  0.00    -0.056 A 
HETATM   25  C17 UNL     1       9.072  24.558   2.473  1.00  0.00     0.007 A 
HETATM   26  C18 UNL     1       7.765  24.309   2.123  1.00  0.00     0.001 A 
HETATM   27  C19 UNL     1       7.261  23.050   2.257  1.00  0.00     0.000 A 
HETATM   28  C20 UNL     1       8.074  22.028   2.743  1.00  0.00     0.001 A 
HETATM   29  C21 UNL     1       9.378  22.314   3.081  1.00  0.00     0.007 A 
ENDBRANCH  23  24
ENDBRANCH  22  23
BRANCH  22  30
HETATM   30  N2  UNL     1      10.617  24.783   5.436  1.00  0.00    -0.329 N 
HETATM   31  C22 UNL     1       9.992  24.458   6.645  1.00  0.00     0.361 C 
HETATM   32  O4  UNL     1      10.284  23.443   7.300  1.00  0.00    -0.238 OA
ATOM     33  H2  UNL     1      10.317  25.646   4.985  1.00  0.00     0.165 HD
BRANCH  31  34
HETATM   34  O5  UNL     1       8.986  25.258   7.209  1.00  0.00    -0.296 OA
BRANCH  34  35
HETATM   35  C23 UNL     1       8.720  26.538   6.717  1.00  0.00     0.159 C 
HETATM   36  C24 UNL     1       7.299  26.728   6.279  1.00  0.00     0.061 C 
HETATM   37  C25 UNL     1       6.913  28.028   6.888  1.00  0.00     0.170 C 
HETATM   38  O6  UNL     1       7.923  28.511   7.663  1.00  0.00    -0.389 OA
HETATM   39  C26 UNL     1       8.880  27.528   7.823  1.00  0.00     0.200 C 
ENDBRANCH  34  35
ENDBRANCH  31  34
ENDBRANCH  22  30
ENDBRANCH   1  22
TORSDOF 10
ENDMDL
