MODEL 13
REMARK VINA RESULT: -9.837059667      3.412      9.139
REMARK  10 active torsions:
REMARK  status: ('A' for Active; 'I' for Inactive)
REMARK    1  A    between atoms: C2_2  and  C4_4 
REMARK    2  A    between atoms: N1_16  and  C12_17 
REMARK    3  A    between atoms: C12_17  and  C13_18 
REMARK    4  A    between atoms: C13_18  and  O3_19 
REMARK    5  A    between atoms: C13_18  and  C14_21 
REMARK    6  A    between atoms: C14_21  and  C15_22 
REMARK    7  A    between atoms: C14_21  and  N2_29 
REMARK    8  A    between atoms: C15_22  and  C16_23 
REMARK       I    between atoms: N2_29  and  C22_31 
REMARK    9  A    between atoms: C22_31  and  O5_33 
REMARK   10  A    between atoms: O5_33  and  C23_34 
ROOT
HETATM    1  C13 UNL     1      11.891  21.318   5.078  1.00  0.00     0.155 C 
ENDROOT
BRANCH   1   2
HETATM    2  C12 UNL     1      11.033  22.199   5.971  1.00  0.00     0.141 C 
BRANCH   2   3
HETATM    3  N1  UNL     1      10.831  23.541   5.483  1.00  0.00    -0.203 NA
HETATM    4  S1  UNL     1      11.360  24.687   6.585  1.00  0.00     0.244 S 
HETATM    5  C11 UNL     1      10.097  25.592   7.400  1.00  0.00     0.081 A 
HETATM    6  O1  UNL     1      12.387  25.661   6.006  1.00  0.00    -0.206 OA
HETATM    7  O2  UNL     1      12.097  23.989   7.722  1.00  0.00    -0.206 OA
HETATM    8  C6  UNL     1       8.796  25.806   7.093  1.00  0.00    -0.032 A 
HETATM    9  C10 UNL     1      10.596  26.172   8.566  1.00  0.00     0.028 A 
HETATM   10  C5  UNL     1       8.024  25.311   5.923  1.00  0.00     0.046 C 
HETATM   11  C7  UNL     1       7.950  26.575   7.891  1.00  0.00     0.050 A 
HETATM   12  C4  UNL     1       9.049  25.128   4.801  1.00  0.00     0.007 C 
HETATM   13  C27 UNL     1       9.578  23.727   4.853  1.00  0.00     0.113 C 
HETATM   14  C8  UNL     1       8.462  27.137   9.035  1.00  0.00     0.117 A 
HETATM   15  F1  UNL     1       7.636  27.883   9.807  1.00  0.00    -0.206 F 
HETATM   16  C9  UNL     1       9.790  26.937   9.379  1.00  0.00     0.044 A 
BRANCH  12  17
HETATM   17  C2  UNL     1       8.285  25.389   3.510  1.00  0.00    -0.017 C 
HETATM   18  C1  UNL     1       6.831  24.954   3.639  1.00  0.00     0.010 C 
HETATM   19  C3  UNL     1       8.968  24.773   2.329  1.00  0.00     0.010 C 
ENDBRANCH  12  17
ENDBRANCH   2   3
ENDBRANCH   1   2
BRANCH   1  20
HETATM   20  O3  UNL     1      12.228  22.261   4.033  1.00  0.00    -0.392 OA
ATOM     21  H3  UNL     1      11.390  22.328   3.589  1.00  0.00     0.210 HD
ENDBRANCH   1  20
BRANCH   1  22
HETATM   22  C14 UNL     1      13.168  20.839   5.649  1.00  0.00     0.120 C 
BRANCH  22  23
HETATM   23  C15 UNL     1      14.140  21.864   6.079  1.00  0.00     0.066 C 
BRANCH  23  24
HETATM   24  C16 UNL     1      14.609  21.828   7.462  1.00  0.00    -0.056 A 
HETATM   25  C17 UNL     1      13.919  21.244   8.514  1.00  0.00     0.007 A 
HETATM   26  C18 UNL     1      14.383  21.212   9.809  1.00  0.00     0.001 A 
HETATM   27  C19 UNL     1      15.585  21.780  10.108  1.00  0.00     0.000 A 
HETATM   28  C20 UNL     1      16.332  22.386   9.100  1.00  0.00     0.001 A 
HETATM   29  C21 UNL     1      15.837  22.398   7.815  1.00  0.00     0.007 A 
ENDBRANCH  23  24
ENDBRANCH  22  23
BRANCH  22  30
HETATM   30  N2  UNL     1      13.819  19.759   4.926  1.00  0.00    -0.329 N 
HETATM   31  C22 UNL     1      14.358  19.819   3.636  1.00  0.00     0.361 C 
HETATM   32  O4  UNL     1      14.349  20.857   2.953  1.00  0.00    -0.238 OA
ATOM     33  H2  UNL     1      13.891  18.865   5.409  1.00  0.00     0.165 HD
BRANCH  31  34
HETATM   34  O5  UNL     1      14.949  18.707   3.018  1.00  0.00    -0.296 OA
BRANCH  34  35
HETATM   35  C23 UNL     1      16.296  18.718   2.646  1.00  0.00     0.159 C 
HETATM   36  C24 UNL     1      17.234  18.468   3.789  1.00  0.00     0.061 C 
HETATM   37  C25 UNL     1      18.183  17.458   3.252  1.00  0.00     0.170 C 
HETATM   38  O6  UNL     1      17.817  17.078   1.997  1.00  0.00    -0.389 OA
HETATM   39  C26 UNL     1      16.556  17.573   1.724  1.00  0.00     0.200 C 
ENDBRANCH  34  35
ENDBRANCH  31  34
ENDBRANCH  22  30
ENDBRANCH   1  22
TORSDOF 10
ENDMDL
