MODEL 4
REMARK VINA RESULT: -10.298316852      2.914      7.822
REMARK  10 active torsions:
REMARK  status: ('A' for Active; 'I' for Inactive)
REMARK    1  A    between atoms: C2_2  and  C4_4 
REMARK    2  A    between atoms: N1_16  and  C12_17 
REMARK    3  A    between atoms: C12_17  and  C13_18 
REMARK    4  A    between atoms: C13_18  and  O3_19 
REMARK    5  A    between atoms: C13_18  and  C14_21 
REMARK    6  A    between atoms: C14_21  and  C15_22 
REMARK    7  A    between atoms: C14_21  and  N2_29 
REMARK    8  A    between atoms: C15_22  and  C16_23 
REMARK       I    between atoms: N2_29  and  C22_31 
REMARK    9  A    between atoms: C22_31  and  O5_33 
REMARK   10  A    between atoms: O5_33  and  C23_34 
ROOT
HETATM    1  C13 UNL     1      12.901  20.936   3.667  1.00  0.00     0.155 C 
ENDROOT
BRANCH   1   2
HETATM    2  C12 UNL     1      11.829  21.482   4.596  1.00  0.00     0.141 C 
BRANCH   2   3
HETATM    3  N1  UNL     1      11.414  22.834   4.312  1.00  0.00    -0.203 NA
HETATM    4  S1  UNL     1      12.143  23.935   5.344  1.00  0.00     0.244 S 
HETATM    5  C11 UNL     1      11.090  24.657   6.547  1.00  0.00     0.081 A 
HETATM    6  O1  UNL     1      12.910  25.039   4.614  1.00  0.00    -0.206 OA
HETATM    7  O2  UNL     1      13.204  23.220   6.173  1.00  0.00    -0.206 OA
HETATM    8  C6  UNL     1       9.743  24.776   6.614  1.00  0.00    -0.032 A 
HETATM    9  C10 UNL     1      11.846  25.188   7.591  1.00  0.00     0.028 A 
HETATM   10  C5  UNL     1       8.719  24.305   5.645  1.00  0.00     0.046 C 
HETATM   11  C7  UNL     1       9.095  25.403   7.678  1.00  0.00     0.050 A 
HETATM   12  C4  UNL     1       9.414  24.303   4.281  1.00  0.00     0.007 C 
HETATM   13  C27 UNL     1      10.029  22.955   4.055  1.00  0.00     0.113 C 
HETATM   14  C8  UNL     1       9.858  25.918   8.697  1.00  0.00     0.117 A 
HETATM   15  F1  UNL     1       9.224  26.526   9.728  1.00  0.00    -0.206 F 
HETATM   16  C9  UNL     1      11.240  25.812   8.659  1.00  0.00     0.044 A 
BRANCH  12  17
HETATM   17  C2  UNL     1       8.314  24.592   3.268  1.00  0.00    -0.017 C 
HETATM   18  C1  UNL     1       7.390  23.392   3.108  1.00  0.00     0.010 C 
HETATM   19  C3  UNL     1       8.875  25.066   1.963  1.00  0.00     0.010 C 
ENDBRANCH  12  17
ENDBRANCH   2   3
ENDBRANCH   1   2
BRANCH   1  20
HETATM   20  O3  UNL     1      13.387  22.167   3.082  1.00  0.00    -0.392 OA
ATOM     21  H3  UNL     1      13.588  21.869   2.203  1.00  0.00     0.210 HD
ENDBRANCH   1  20
BRANCH   1  22
HETATM   22  C14 UNL     1      14.061  20.279   4.309  1.00  0.00     0.120 C 
BRANCH  22  23
HETATM   23  C15 UNL     1      14.148  18.810   4.202  1.00  0.00     0.066 C 
BRANCH  23  24
HETATM   24  C16 UNL     1      15.199  18.244   3.359  1.00  0.00    -0.056 A 
HETATM   25  C17 UNL     1      15.177  18.233   1.973  1.00  0.00     0.007 A 
HETATM   26  C18 UNL     1      16.182  17.703   1.195  1.00  0.00     0.001 A 
HETATM   27  C19 UNL     1      17.273  17.148   1.794  1.00  0.00     0.000 A 
HETATM   28  C20 UNL     1      17.362  17.124   3.184  1.00  0.00     0.001 A 
HETATM   29  C21 UNL     1      16.338  17.665   3.929  1.00  0.00     0.007 A 
ENDBRANCH  23  24
ENDBRANCH  22  23
BRANCH  22  30
HETATM   30  N2  UNL     1      14.382  20.735   5.651  1.00  0.00    -0.329 N 
HETATM   31  C22 UNL     1      15.654  20.805   6.231  1.00  0.00     0.361 C 
HETATM   32  O4  UNL     1      16.688  20.487   5.621  1.00  0.00    -0.238 OA
ATOM     33  H2  UNL     1      13.599  21.035   6.231  1.00  0.00     0.165 HD
BRANCH  31  34
HETATM   34  O5  UNL     1      15.854  21.243   7.549  1.00  0.00    -0.296 OA
BRANCH  34  35
HETATM   35  C23 UNL     1      15.138  20.686   8.613  1.00  0.00     0.159 C 
HETATM   36  C24 UNL     1      15.817  20.845   9.939  1.00  0.00     0.061 C 
HETATM   37  C25 UNL     1      14.731  21.320  10.837  1.00  0.00     0.170 C 
HETATM   38  O6  UNL     1      13.581  21.513  10.134  1.00  0.00    -0.389 OA
HETATM   39  C26 UNL     1      13.858  21.436   8.783  1.00  0.00     0.200 C 
ENDBRANCH  34  35
ENDBRANCH  31  34
ENDBRANCH  22  30
ENDBRANCH   1  22
TORSDOF 10
ENDMDL
