MODEL 8
REMARK VINA RESULT: -7.778294973      3.570      7.904
REMARK  5 active torsions:
REMARK  status: ('A' for Active; 'I' for Inactive)
REMARK    1  A    between atoms: N1_1  and  C1_5 
REMARK    2  A    between atoms: C1_5  and  C2_6 
REMARK    3  A    between atoms: C5_9  and  C6_10 
REMARK    4  A    between atoms: C6_10  and  N2_11 
REMARK       I    between atoms: N2_11  and  C7_13 
REMARK    5  A    between atoms: C7_13  and  C8_15 
ROOT
HETATM    1  N2  UNL     1       1.037  35.480   3.152  1.00  0.00    -0.353 N 
ATOM      2  H2  UNL     1       1.300  34.573   2.766  1.00  0.00     0.163 HD
HETATM    3  C7  UNL     1       1.579  36.625   2.560  1.00  0.00     0.253 C 
HETATM    4  O1  UNL     1       1.280  37.733   3.080  1.00  0.00    -0.268 OA
ENDROOT
BRANCH   1   5
HETATM    5  C6  UNL     1       0.132  35.499   4.273  1.00  0.00     0.161 C 
BRANCH   5   6
HETATM    6  C5  UNL     1      -0.444  34.221   4.648  1.00  0.00    -0.041 A 
HETATM    7  C4  UNL     1       0.241  33.369   5.490  1.00  0.00     0.009 A 
HETATM    8  C3  UNL     1      -0.278  32.149   5.861  1.00  0.00     0.009 A 
HETATM    9  C2  UNL     1      -1.532  31.753   5.372  1.00  0.00    -0.033 A 
HETATM   10  C15 UNL     1      -2.219  32.590   4.534  1.00  0.00     0.009 A 
HETATM   11  C14 UNL     1      -1.672  33.813   4.181  1.00  0.00     0.009 A 
BRANCH   9  12
HETATM   12  C1  UNL     1      -2.079  30.422   5.769  1.00  0.00     0.268 C 
BRANCH  12  13
HETATM   13  N1  UNL     1      -3.283  30.147   4.991  1.00  0.00    -0.075 N 
ATOM     14  H13 UNL     1      -3.966  29.600   5.515  1.00  0.00     0.274 HD
ATOM     15  H12 UNL     1      -3.850  30.982   4.845  1.00  0.00     0.274 HD
ATOM     16  H11 UNL     1      -3.020  29.700   4.113  1.00  0.00     0.274 HD
ENDBRANCH  12  13
ENDBRANCH   9  12
ENDBRANCH   5   6
ENDBRANCH   1   5
BRANCH   3  17
HETATM   17  C8  UNL     1       2.484  36.616   1.361  1.00  0.00     0.057 A 
HETATM   18  C9  UNL     1       1.983  37.048   0.155  1.00  0.00     0.070 A 
HETATM   19  S1  UNL     1       3.318  36.886  -0.884  1.00  0.00    -0.082 SA
HETATM   20  C10 UNL     1       4.473  36.282   0.218  1.00  0.00     0.091 A 
HETATM   21  N3  UNL     1       5.784  35.887   0.128  1.00  0.00    -0.346 N 
HETATM   22  C13 UNL     1       3.767  36.223   1.393  1.00  0.00     0.082 A 
HETATM   23  C11 UNL     1       6.452  35.418   1.204  1.00  0.00     0.184 A 
ATOM     24  H3  UNL     1       6.264  35.950  -0.770  1.00  0.00     0.167 HD
HETATM   25  N4  UNL     1       5.774  35.357   2.352  1.00  0.00    -0.319 N 
HETATM   26  C12 UNL     1       4.498  35.727   2.494  1.00  0.00     0.260 A 
ATOM     27  H4  UNL     1       6.263  35.005   3.176  1.00  0.00     0.169 HD
HETATM   28  O2  UNL     1       3.958  35.621   3.647  1.00  0.00    -0.267 OA
ENDBRANCH   3  17
TORSDOF 5
ENDMDL
