MODEL 13
REMARK VINA RESULT: -7.356909097      3.457      7.881
REMARK  5 active torsions:
REMARK  status: ('A' for Active; 'I' for Inactive)
REMARK    1  A    between atoms: N1_1  and  C1_5 
REMARK    2  A    between atoms: C1_5  and  C2_6 
REMARK    3  A    between atoms: C5_9  and  C6_10 
REMARK    4  A    between atoms: C6_10  and  N2_11 
REMARK       I    between atoms: N2_11  and  C7_13 
REMARK    5  A    between atoms: C7_13  and  C8_15 
ROOT
HETATM    1  N2  UNL     1       0.470  36.158   2.090  1.00  0.00    -0.353 N 
ATOM      2  H2  UNL     1       0.276  35.464   1.367  1.00  0.00     0.163 HD
HETATM    3  C7  UNL     1       1.687  36.844   2.028  1.00  0.00     0.253 C 
HETATM    4  O1  UNL     1       1.930  37.662   2.954  1.00  0.00    -0.268 OA
ENDROOT
BRANCH   1   5
HETATM    5  C6  UNL     1      -0.526  36.369   3.109  1.00  0.00     0.161 C 
BRANCH   5   6
HETATM    6  C5  UNL     1      -0.813  35.230   3.963  1.00  0.00    -0.041 A 
HETATM    7  C4  UNL     1      -2.022  34.574   3.866  1.00  0.00     0.009 A 
HETATM    8  C3  UNL     1      -2.325  33.495   4.664  1.00  0.00     0.009 A 
HETATM    9  C2  UNL     1      -1.386  33.046   5.605  1.00  0.00    -0.033 A 
HETATM   10  C15 UNL     1      -0.183  33.691   5.712  1.00  0.00     0.009 A 
HETATM   11  C14 UNL     1       0.093  34.773   4.892  1.00  0.00     0.009 A 
BRANCH   9  12
HETATM   12  C1  UNL     1      -1.729  31.882   6.476  1.00  0.00     0.268 C 
BRANCH  12  13
HETATM   13  N1  UNL     1      -2.750  32.288   7.437  1.00  0.00    -0.075 N 
ATOM     14  H13 UNL     1      -2.658  31.801   8.329  1.00  0.00     0.274 HD
ATOM     15  H12 UNL     1      -2.607  33.238   7.777  1.00  0.00     0.274 HD
ATOM     16  H11 UNL     1      -3.672  32.160   7.021  1.00  0.00     0.274 HD
ENDBRANCH  12  13
ENDBRANCH   9  12
ENDBRANCH   5   6
ENDBRANCH   1   5
BRANCH   3  17
HETATM   17  C8  UNL     1       2.710  36.665   0.942  1.00  0.00     0.057 A 
HETATM   18  C9  UNL     1       2.368  37.005  -0.346  1.00  0.00     0.070 A 
HETATM   19  S1  UNL     1       3.790  36.666  -1.213  1.00  0.00    -0.082 SA
HETATM   20  C10 UNL     1       4.780  36.108   0.061  1.00  0.00     0.091 A 
HETATM   21  N3  UNL     1       6.064  35.632   0.152  1.00  0.00    -0.346 N 
HETATM   22  C13 UNL     1       3.954  36.205   1.151  1.00  0.00     0.082 A 
HETATM   23  C11 UNL     1       6.584  35.233   1.334  1.00  0.00     0.184 A 
ATOM     24  H3  UNL     1       6.639  35.578  -0.689  1.00  0.00     0.167 HD
HETATM   25  N4  UNL     1       5.787  35.324   2.401  1.00  0.00    -0.319 N 
HETATM   26  C12 UNL     1       4.531  35.778   2.367  1.00  0.00     0.260 A 
ATOM     27  H4  UNL     1       6.162  35.028   3.302  1.00  0.00     0.169 HD
HETATM   28  O2  UNL     1       3.867  35.817   3.458  1.00  0.00    -0.267 OA
ENDBRANCH   3  17
TORSDOF 5
ENDMDL
