MODEL 3
REMARK VINA RESULT: -7.971659889      1.787      2.716
REMARK  5 active torsions:
REMARK  status: ('A' for Active; 'I' for Inactive)
REMARK    1  A    between atoms: N1_1  and  C1_5 
REMARK    2  A    between atoms: C1_5  and  C2_6 
REMARK    3  A    between atoms: C5_9  and  C6_10 
REMARK    4  A    between atoms: C6_10  and  N2_11 
REMARK       I    between atoms: N2_11  and  C7_13 
REMARK    5  A    between atoms: C7_13  and  C8_15 
ROOT
HETATM    1  N2  UNL     1       0.191  36.851   3.784  1.00  0.00    -0.353 N 
ATOM      2  H2  UNL     1       0.855  36.355   4.378  1.00  0.00     0.163 HD
HETATM    3  C7  UNL     1      -1.054  37.183   4.330  1.00  0.00     0.253 C 
HETATM    4  O1  UNL     1      -1.878  37.754   3.567  1.00  0.00    -0.268 OA
ENDROOT
BRANCH   1   5
HETATM    5  C6  UNL     1       0.593  37.167   2.437  1.00  0.00     0.161 C 
BRANCH   5   6
HETATM    6  C5  UNL     1       1.935  36.757   2.062  1.00  0.00    -0.041 A 
HETATM    7  C4  UNL     1       2.349  36.851   0.750  1.00  0.00     0.009 A 
HETATM    8  C3  UNL     1       3.614  36.467   0.363  1.00  0.00     0.009 A 
HETATM    9  C2  UNL     1       4.508  35.965   1.321  1.00  0.00    -0.033 A 
HETATM   10  C15 UNL     1       4.106  35.866   2.626  1.00  0.00     0.009 A 
HETATM   11  C14 UNL     1       2.828  36.263   2.985  1.00  0.00     0.009 A 
BRANCH   9  12
HETATM   12  C1  UNL     1       5.872  35.539   0.888  1.00  0.00     0.268 C 
BRANCH  12  13
HETATM   13  N1  UNL     1       6.207  34.275   1.536  1.00  0.00    -0.075 N 
ATOM     14  H13 UNL     1       6.407  34.389   2.529  1.00  0.00     0.274 HD
ATOM     15  H12 UNL     1       5.400  33.657   1.622  1.00  0.00     0.274 HD
ATOM     16  H11 UNL     1       6.978  33.835   1.033  1.00  0.00     0.274 HD
ENDBRANCH  12  13
ENDBRANCH   9  12
ENDBRANCH   5   6
ENDBRANCH   1   5
BRANCH   3  17
HETATM   17  C8  UNL     1      -1.463  36.901   5.748  1.00  0.00     0.057 A 
HETATM   18  C9  UNL     1      -1.488  37.944   6.644  1.00  0.00     0.070 A 
HETATM   19  S1  UNL     1      -2.009  37.193   8.077  1.00  0.00    -0.082 SA
HETATM   20  C10 UNL     1      -2.186  35.590   7.517  1.00  0.00     0.091 A 
HETATM   21  N3  UNL     1      -2.553  34.398   8.090  1.00  0.00    -0.346 N 
HETATM   22  C13 UNL     1      -1.824  35.689   6.197  1.00  0.00     0.082 A 
HETATM   23  C11 UNL     1      -2.580  33.253   7.375  1.00  0.00     0.184 A 
ATOM     24  H3  UNL     1      -2.812  34.377   9.077  1.00  0.00     0.167 HD
HETATM   25  N4  UNL     1      -2.231  33.340   6.090  1.00  0.00    -0.319 N 
HETATM   26  C12 UNL     1      -1.864  34.472   5.483  1.00  0.00     0.260 A 
ATOM     27  H4  UNL     1      -2.245  32.484   5.533  1.00  0.00     0.169 HD
HETATM   28  O2  UNL     1      -1.551  34.427   4.246  1.00  0.00    -0.267 OA
ENDBRANCH   3  17
TORSDOF 5
ENDMDL
