MODEL 2
REMARK VINA RESULT: -8.328458908      0.060      1.015
REMARK  5 active torsions:
REMARK  status: ('A' for Active; 'I' for Inactive)
REMARK    1  A    between atoms: N1_1  and  C1_5 
REMARK    2  A    between atoms: C1_5  and  C2_6 
REMARK    3  A    between atoms: C5_9  and  C6_10 
REMARK    4  A    between atoms: C6_10  and  N2_11 
REMARK       I    between atoms: N2_11  and  C7_13 
REMARK    5  A    between atoms: C7_13  and  C8_15 
ROOT
HETATM    1  N2  UNL     1       0.631  37.030   3.211  1.00  0.00    -0.353 N 
ATOM      2  H2  UNL     1       1.065  37.683   3.863  1.00  0.00     0.163 HD
HETATM    3  C7  UNL     1      -0.354  36.169   3.705  1.00  0.00     0.253 C 
HETATM    4  O1  UNL     1      -0.845  35.337   2.896  1.00  0.00    -0.268 OA
ENDROOT
BRANCH   1   5
HETATM    5  C6  UNL     1       1.072  37.052   1.839  1.00  0.00     0.161 C 
BRANCH   5   6
HETATM    6  C5  UNL     1       2.448  36.651   1.606  1.00  0.00    -0.041 A 
HETATM    7  C4  UNL     1       2.952  36.609   0.323  1.00  0.00     0.009 A 
HETATM    8  C3  UNL     1       4.251  36.229   0.071  1.00  0.00     0.009 A 
HETATM    9  C2  UNL     1       5.088  35.873   1.139  1.00  0.00    -0.033 A 
HETATM   10  C15 UNL     1       4.597  35.910   2.416  1.00  0.00     0.009 A 
HETATM   11  C14 UNL     1       3.286  36.299   2.639  1.00  0.00     0.009 A 
BRANCH   9  12
HETATM   12  C1  UNL     1       6.491  35.450   0.853  1.00  0.00     0.268 C 
BRANCH  12  13
HETATM   13  N1  UNL     1       7.246  35.416   2.102  1.00  0.00    -0.075 N 
ATOM     14  H13 UNL     1       6.641  35.466   2.922  1.00  0.00     0.274 HD
ATOM     15  H12 UNL     1       7.657  34.500   2.282  1.00  0.00     0.274 HD
ATOM     16  H11 UNL     1       7.945  36.159   2.091  1.00  0.00     0.274 HD
ENDBRANCH  12  13
ENDBRANCH   9  12
ENDBRANCH   5   6
ENDBRANCH   1   5
BRANCH   3  17
HETATM   17  C8  UNL     1      -0.853  36.172   5.122  1.00  0.00     0.057 A 
HETATM   18  C9  UNL     1      -0.353  35.237   5.998  1.00  0.00     0.070 A 
HETATM   19  S1  UNL     1      -1.160  35.611   7.446  1.00  0.00    -0.082 SA
HETATM   20  C10 UNL     1      -2.105  36.932   6.919  1.00  0.00     0.091 A 
HETATM   21  N3  UNL     1      -3.030  37.757   7.508  1.00  0.00    -0.346 N 
HETATM   22  C13 UNL     1      -1.755  37.046   5.598  1.00  0.00     0.082 A 
HETATM   23  C11 UNL     1      -3.647  38.733   6.808  1.00  0.00     0.184 A 
ATOM     24  H3  UNL     1      -3.257  37.630   8.495  1.00  0.00     0.167 HD
HETATM   25  N4  UNL     1      -3.313  38.853   5.521  1.00  0.00    -0.319 N 
HETATM   26  C12 UNL     1      -2.421  38.076   4.900  1.00  0.00     0.260 A 
ATOM     27  H4  UNL     1      -3.769  39.585   4.976  1.00  0.00     0.169 HD
HETATM   28  O2  UNL     1      -2.185  38.289   3.662  1.00  0.00    -0.267 OA
ENDBRANCH   3  17
TORSDOF 5
ENDMDL
