MODEL 1
REMARK VINA RESULT: -8.336596882      0.000      0.000
REMARK  5 active torsions:
REMARK  status: ('A' for Active; 'I' for Inactive)
REMARK    1  A    between atoms: N1_1  and  C1_5 
REMARK    2  A    between atoms: C1_5  and  C2_6 
REMARK    3  A    between atoms: C5_9  and  C6_10 
REMARK    4  A    between atoms: C6_10  and  N2_11 
REMARK       I    between atoms: N2_11  and  C7_13 
REMARK    5  A    between atoms: C7_13  and  C8_15 
ROOT
HETATM    1  N2  UNL     1       0.666  37.025   3.156  1.00  0.00    -0.353 N 
ATOM      2  H2  UNL     1       1.122  37.656   3.815  1.00  0.00     0.163 HD
HETATM    3  C7  UNL     1      -0.339  36.183   3.646  1.00  0.00     0.253 C 
HETATM    4  O1  UNL     1      -0.858  35.378   2.828  1.00  0.00    -0.268 OA
ENDROOT
BRANCH   1   5
HETATM    5  C6  UNL     1       1.096  37.056   1.781  1.00  0.00     0.161 C 
BRANCH   5   6
HETATM    6  C5  UNL     1       2.465  36.641   1.534  1.00  0.00    -0.041 A 
HETATM    7  C4  UNL     1       3.289  36.297   2.585  1.00  0.00     0.009 A 
HETATM    8  C3  UNL     1       4.592  35.904   2.383  1.00  0.00     0.009 A 
HETATM    9  C2  UNL     1       5.104  35.851   1.078  1.00  0.00    -0.033 A 
HETATM   10  C15 UNL     1       4.295  36.192   0.026  1.00  0.00     0.009 A 
HETATM   11  C14 UNL     1       2.987  36.582   0.262  1.00  0.00     0.009 A 
BRANCH   9  12
HETATM   12  C1  UNL     1       6.523  35.436   0.870  1.00  0.00     0.268 C 
BRANCH  12  13
HETATM   13  N1  UNL     1       7.213  35.426   2.156  1.00  0.00    -0.075 N 
ATOM     14  H13 UNL     1       8.081  35.962   2.135  1.00  0.00     0.274 HD
ATOM     15  H12 UNL     1       6.723  35.975   2.863  1.00  0.00     0.274 HD
ATOM     16  H11 UNL     1       7.361  34.461   2.450  1.00  0.00     0.274 HD
ENDBRANCH  12  13
ENDBRANCH   9  12
ENDBRANCH   5   6
ENDBRANCH   1   5
BRANCH   3  17
HETATM   17  C8  UNL     1      -0.827  36.179   5.067  1.00  0.00     0.057 A 
HETATM   18  C9  UNL     1      -0.316  35.242   5.935  1.00  0.00     0.070 A 
HETATM   19  S1  UNL     1      -1.113  35.607   7.390  1.00  0.00    -0.082 SA
HETATM   20  C10 UNL     1      -2.067  36.927   6.877  1.00  0.00     0.091 A 
HETATM   21  N3  UNL     1      -2.991  37.746   7.476  1.00  0.00    -0.346 N 
HETATM   22  C13 UNL     1      -1.728  37.048   5.553  1.00  0.00     0.082 A 
HETATM   23  C11 UNL     1      -3.616  38.724   6.785  1.00  0.00     0.184 A 
ATOM     24  H3  UNL     1      -3.209  37.614   8.464  1.00  0.00     0.167 HD
HETATM   25  N4  UNL     1      -3.292  38.849   5.496  1.00  0.00    -0.319 N 
HETATM   26  C12 UNL     1      -2.403  38.079   4.864  1.00  0.00     0.260 A 
ATOM     27  H4  UNL     1      -3.755  39.583   4.958  1.00  0.00     0.169 HD
HETATM   28  O2  UNL     1      -2.177  38.298   3.626  1.00  0.00    -0.267 OA
ENDBRANCH   3  17
TORSDOF 5
ENDMDL
