MODEL 3
REMARK VINA RESULT: -8.548154333      0.113      1.143
REMARK  5 active torsions:
REMARK  status: ('A' for Active; 'I' for Inactive)
REMARK    1  A    between atoms: O1_1  and  C1_3 
REMARK    2  A    between atoms: C4_6  and  C5_7 
REMARK    3  A    between atoms: C5_7  and  C6_8 
REMARK    4  A    between atoms: C5_7  and  C12_16 
REMARK    5  A    between atoms: C9_11  and  O2_12 
ROOT
HETATM    1  C5  UNL     1      -4.347  -4.097  21.998  1.00  0.00     0.106 C 
ENDROOT
BRANCH   1   2
HETATM    2  C4  UNL     1      -3.276  -3.542  21.134  1.00  0.00    -0.045 A 
HETATM    3  C3  UNL     1      -2.230  -2.881  21.758  1.00  0.00     0.011 A 
HETATM    4  C2  UNL     1      -1.186  -2.337  21.045  1.00  0.00     0.037 A 
HETATM    5  C1  UNL     1      -1.146  -2.434  19.661  1.00  0.00     0.065 A 
HETATM    6  C14 UNL     1      -2.177  -3.086  19.041  1.00  0.00     0.037 A 
HETATM    7  C13 UNL     1      -3.224  -3.629  19.782  1.00  0.00     0.011 A 
BRANCH   5   8
HETATM    8  O1  UNL     1      -0.079  -1.876  18.951  1.00  0.00    -0.361 OA
ATOM      9  H1  UNL     1      -0.048  -0.940  18.796  1.00  0.00     0.217 HD
ENDBRANCH   5   8
ENDBRANCH   1   2
BRANCH   1  10
HETATM   10  C6  UNL     1      -5.126  -5.161  21.315  1.00  0.00    -0.045 A 
HETATM   11  C7  UNL     1      -4.953  -6.506  21.666  1.00  0.00     0.011 A 
HETATM   12  C8  UNL     1      -5.642  -7.534  21.064  1.00  0.00     0.037 A 
HETATM   13  C9  UNL     1      -6.556  -7.288  20.065  1.00  0.00     0.065 A 
HETATM   14  C10 UNL     1      -6.741  -5.974  19.706  1.00  0.00     0.037 A 
HETATM   15  C11 UNL     1      -6.043  -4.924  20.314  1.00  0.00     0.011 A 
BRANCH  13  16
HETATM   16  O2  UNL     1      -7.245  -8.333  19.466  1.00  0.00    -0.361 OA
ATOM     17  H2  UNL     1      -7.710  -8.199  18.648  1.00  0.00     0.217 HD
ENDBRANCH  13  16
ENDBRANCH   1  10
BRANCH   1  18
HETATM   18  C12 UNL     1      -5.175  -3.075  22.706  1.00  0.00     0.200 C 
HETATM   19 CL1  UNL     1      -4.362  -2.093  23.898  1.00  0.00    -0.083 Cl
HETATM   20 CL2  UNL     1      -6.627  -3.857  23.436  1.00  0.00    -0.083 Cl
HETATM   21 CL3  UNL     1      -5.847  -1.938  21.476  1.00  0.00    -0.083 Cl
ENDBRANCH   1  18
TORSDOF 5
ENDMDL
