MODEL 4
REMARK VINA RESULT: -8.529704861      0.210      1.573
REMARK  5 active torsions:
REMARK  status: ('A' for Active; 'I' for Inactive)
REMARK    1  A    between atoms: O1_1  and  C1_3 
REMARK    2  A    between atoms: C4_6  and  C5_7 
REMARK    3  A    between atoms: C5_7  and  C6_8 
REMARK    4  A    between atoms: C5_7  and  C12_16 
REMARK    5  A    between atoms: C9_11  and  O2_12 
ROOT
HETATM    1  C5  UNL     1      -4.220  -4.168  22.055  1.00  0.00     0.106 C 
ENDROOT
BRANCH   1   2
HETATM    2  C4  UNL     1      -3.185  -3.589  21.164  1.00  0.00    -0.045 A 
HETATM    3  C3  UNL     1      -2.143  -2.897  21.761  1.00  0.00     0.011 A 
HETATM    4  C2  UNL     1      -1.131  -2.329  21.022  1.00  0.00     0.037 A 
HETATM    5  C1  UNL     1      -1.120  -2.432  19.637  1.00  0.00     0.065 A 
HETATM    6  C14 UNL     1      -2.147  -3.114  19.044  1.00  0.00     0.037 A 
HETATM    7  C13 UNL     1      -3.162  -3.681  19.811  1.00  0.00     0.011 A 
BRANCH   5   8
HETATM    8  O1  UNL     1      -0.084  -1.850  18.901  1.00  0.00    -0.361 OA
ATOM      9  H1  UNL     1      -0.102  -0.920  18.709  1.00  0.00     0.217 HD
ENDBRANCH   5   8
ENDBRANCH   1   2
BRANCH   1  10
HETATM   10  C6  UNL     1      -4.972  -5.270  21.402  1.00  0.00    -0.045 A 
HETATM   11  C7  UNL     1      -5.898  -4.996  20.388  1.00  0.00     0.011 A 
HETATM   12  C8  UNL     1      -6.627  -5.975  19.751  1.00  0.00     0.037 A 
HETATM   13  C9  UNL     1      -6.479  -7.301  20.086  1.00  0.00     0.065 A 
HETATM   14  C10 UNL     1      -5.574  -7.592  21.079  1.00  0.00     0.037 A 
HETATM   15  C11 UNL     1      -4.830  -6.601  21.730  1.00  0.00     0.011 A 
BRANCH  13  16
HETATM   16  O2  UNL     1      -7.219  -8.279  19.436  1.00  0.00    -0.361 OA
ATOM     17  H2  UNL     1      -8.161  -8.194  19.349  1.00  0.00     0.217 HD
ENDBRANCH  13  16
ENDBRANCH   1  10
BRANCH   1  18
HETATM   18  C12 UNL     1      -5.073  -3.165  22.762  1.00  0.00     0.200 C 
HETATM   19 CL1  UNL     1      -4.279  -2.148  23.938  1.00  0.00    -0.083 Cl
HETATM   20 CL2  UNL     1      -6.494  -3.984  23.512  1.00  0.00    -0.083 Cl
HETATM   21 CL3  UNL     1      -5.790  -2.060  21.528  1.00  0.00    -0.083 Cl
ENDBRANCH   1  18
TORSDOF 5
ENDMDL
