MODEL 5
REMARK VINA RESULT: -8.493925767      0.193      1.093
REMARK  5 active torsions:
REMARK  status: ('A' for Active; 'I' for Inactive)
REMARK    1  A    between atoms: O1_1  and  C1_3 
REMARK    2  A    between atoms: C4_6  and  C5_7 
REMARK    3  A    between atoms: C5_7  and  C6_8 
REMARK    4  A    between atoms: C5_7  and  C12_16 
REMARK    5  A    between atoms: C9_11  and  O2_12 
ROOT
HETATM    1  C5  UNL     1      -4.423  -3.898  22.153  1.00  0.00     0.106 C 
ENDROOT
BRANCH   1   2
HETATM    2  C4  UNL     1      -3.263  -3.382  21.385  1.00  0.00    -0.045 A 
HETATM    3  C3  UNL     1      -3.304  -3.507  20.005  1.00  0.00     0.011 A 
HETATM    4  C2  UNL     1      -2.282  -3.053  19.204  1.00  0.00     0.037 A 
HETATM    5  C1  UNL     1      -1.162  -2.446  19.758  1.00  0.00     0.065 A 
HETATM    6  C14 UNL     1      -1.118  -2.320  21.120  1.00  0.00     0.037 A 
HETATM    7  C13 UNL     1      -2.164  -2.787  21.912  1.00  0.00     0.011 A 
BRANCH   5   8
HETATM    8  O1  UNL     1      -0.132  -1.990  18.931  1.00  0.00    -0.361 OA
ATOM      9  H1  UNL     1       0.774  -2.133  19.176  1.00  0.00     0.217 HD
ENDBRANCH   5   8
ENDBRANCH   1   2
BRANCH   1  10
HETATM   10  C6  UNL     1      -5.145  -4.973  21.426  1.00  0.00    -0.045 A 
HETATM   11  C7  UNL     1      -4.958  -6.317  21.775  1.00  0.00     0.011 A 
HETATM   12  C8  UNL     1      -5.595  -7.355  21.134  1.00  0.00     0.037 A 
HETATM   13  C9  UNL     1      -6.467  -7.121  20.095  1.00  0.00     0.065 A 
HETATM   14  C10 UNL     1      -6.664  -5.808  19.737  1.00  0.00     0.037 A 
HETATM   15  C11 UNL     1      -6.019  -4.748  20.385  1.00  0.00     0.011 A 
BRANCH  13  16
HETATM   16  O2  UNL     1      -7.104  -8.176  19.457  1.00  0.00    -0.361 OA
ATOM     17  H2  UNL     1      -7.631  -8.792  19.952  1.00  0.00     0.217 HD
ENDBRANCH  13  16
ENDBRANCH   1  10
BRANCH   1  18
HETATM   18  C12 UNL     1      -5.303  -2.845  22.744  1.00  0.00     0.200 C 
HETATM   19 CL1  UNL     1      -6.066  -1.742  21.627  1.00  0.00    -0.083 Cl
HETATM   20 CL2  UNL     1      -4.399  -1.923  24.003  1.00  0.00    -0.083 Cl
HETATM   21 CL3  UNL     1      -6.633  -3.660  23.651  1.00  0.00    -0.083 Cl
ENDBRANCH   1  18
TORSDOF 5
ENDMDL
