MODEL 2
REMARK VINA RESULT: -8.636860699      0.088      1.080
REMARK  5 active torsions:
REMARK  status: ('A' for Active; 'I' for Inactive)
REMARK    1  A    between atoms: O1_1  and  C1_3 
REMARK    2  A    between atoms: C4_6  and  C5_7 
REMARK    3  A    between atoms: C5_7  and  C6_8 
REMARK    4  A    between atoms: C5_7  and  C12_16 
REMARK    5  A    between atoms: C9_11  and  O2_12 
ROOT
HETATM    1  C5  UNL     1      -4.330  -4.018  21.993  1.00  0.00     0.106 C 
ENDROOT
BRANCH   1   2
HETATM    2  C4  UNL     1      -3.260  -3.481  21.116  1.00  0.00    -0.045 A 
HETATM    3  C3  UNL     1      -2.170  -2.884  21.730  1.00  0.00     0.011 A 
HETATM    4  C2  UNL     1      -1.124  -2.363  21.006  1.00  0.00     0.037 A 
HETATM    5  C1  UNL     1      -1.124  -2.418  19.618  1.00  0.00     0.065 A 
HETATM    6  C14 UNL     1      -2.198  -3.007  19.008  1.00  0.00     0.037 A 
HETATM    7  C13 UNL     1      -3.247  -3.529  19.761  1.00  0.00     0.011 A 
BRANCH   5   8
HETATM    8  O1  UNL     1      -0.053  -1.884  18.897  1.00  0.00    -0.361 OA
ATOM      9  H1  UNL     1      -0.214  -1.401  18.095  1.00  0.00     0.217 HD
ENDBRANCH   5   8
ENDBRANCH   1   2
BRANCH   1  10
HETATM   10  C6  UNL     1      -5.055  -5.152  21.365  1.00  0.00    -0.045 A 
HETATM   11  C7  UNL     1      -5.988  -4.923  20.345  1.00  0.00     0.011 A 
HETATM   12  C8  UNL     1      -6.693  -5.933  19.731  1.00  0.00     0.037 A 
HETATM   13  C9  UNL     1      -6.513  -7.248  20.095  1.00  0.00     0.065 A 
HETATM   14  C10 UNL     1      -5.601  -7.495  21.094  1.00  0.00     0.037 A 
HETATM   15  C11 UNL     1      -4.881  -6.472  21.722  1.00  0.00     0.011 A 
BRANCH  13  16
HETATM   16  O2  UNL     1      -7.229  -8.258  19.468  1.00  0.00    -0.361 OA
ATOM     17  H2  UNL     1      -7.184  -9.152  19.787  1.00  0.00     0.217 HD
ENDBRANCH  13  16
ENDBRANCH   1  10
BRANCH   1  18
HETATM   18  C12 UNL     1      -5.210  -2.983  22.614  1.00  0.00     0.200 C 
HETATM   19 CL1  UNL     1      -5.991  -1.862  21.528  1.00  0.00    -0.083 Cl
HETATM   20 CL2  UNL     1      -4.298  -2.081  23.883  1.00  0.00    -0.083 Cl
HETATM   21 CL3  UNL     1      -6.526  -3.824  23.518  1.00  0.00    -0.083 Cl
ENDBRANCH   1  18
TORSDOF 5
ENDMDL
