MODEL 1
REMARK VINA RESULT: -8.647888487      0.000      0.000
REMARK  5 active torsions:
REMARK  status: ('A' for Active; 'I' for Inactive)
REMARK    1  A    between atoms: O1_1  and  C1_3 
REMARK    2  A    between atoms: C4_6  and  C5_7 
REMARK    3  A    between atoms: C5_7  and  C6_8 
REMARK    4  A    between atoms: C5_7  and  C12_16 
REMARK    5  A    between atoms: C9_11  and  O2_12 
ROOT
HETATM    1  C5  UNL     1      -4.402  -3.977  21.948  1.00  0.00     0.106 C 
ENDROOT
BRANCH   1   2
HETATM    2  C4  UNL     1      -3.315  -3.453  21.085  1.00  0.00    -0.045 A 
HETATM    3  C3  UNL     1      -2.226  -2.868  21.712  1.00  0.00     0.011 A 
HETATM    4  C2  UNL     1      -1.164  -2.359  21.001  1.00  0.00     0.037 A 
HETATM    5  C1  UNL     1      -1.148  -2.416  19.614  1.00  0.00     0.065 A 
HETATM    6  C14 UNL     1      -2.220  -2.993  18.990  1.00  0.00     0.037 A 
HETATM    7  C13 UNL     1      -3.285  -3.501  19.730  1.00  0.00     0.011 A 
BRANCH   5   8
HETATM    8  O1  UNL     1      -0.061  -1.895  18.905  1.00  0.00    -0.361 OA
ATOM      9  H1  UNL     1       0.519  -2.477  18.430  1.00  0.00     0.217 HD
ENDBRANCH   5   8
ENDBRANCH   1   2
BRANCH   1  10
HETATM   10  C6  UNL     1      -5.169  -5.064  21.288  1.00  0.00    -0.045 A 
HETATM   11  C7  UNL     1      -4.965  -6.401  21.654  1.00  0.00     0.011 A 
HETATM   12  C8  UNL     1      -5.642  -7.450  21.074  1.00  0.00     0.037 A 
HETATM   13  C9  UNL     1      -6.574  -7.234  20.085  1.00  0.00     0.065 A 
HETATM   14  C10 UNL     1      -6.789  -5.928  19.712  1.00  0.00     0.037 A 
HETATM   15  C11 UNL     1      -6.104  -4.858  20.298  1.00  0.00     0.011 A 
BRANCH  13  16
HETATM   16  O2  UNL     1      -7.251  -8.300  19.508  1.00  0.00    -0.361 OA
ATOM     17  H2  UNL     1      -8.184  -8.411  19.647  1.00  0.00     0.217 HD
ENDBRANCH  13  16
ENDBRANCH   1  10
BRANCH   1  18
HETATM   18  C12 UNL     1      -5.242  -2.929  22.603  1.00  0.00     0.200 C 
HETATM   19 CL1  UNL     1      -5.968  -1.736  21.556  1.00  0.00    -0.083 Cl
HETATM   20 CL2  UNL     1      -4.303  -2.115  23.910  1.00  0.00    -0.083 Cl
HETATM   21 CL3  UNL     1      -6.599  -3.747  23.466  1.00  0.00    -0.083 Cl
ENDBRANCH   1  18
TORSDOF 5
ENDMDL
