MODEL 4
REMARK VINA RESULT: -6.362663572      1.489      2.274
REMARK  8 active torsions:
REMARK  status: ('A' for Active; 'I' for Inactive)
REMARK    1  A    between atoms: O1_2  and  C2_3 
REMARK    2  A    between atoms: C5_6  and  N1_7 
REMARK    3  A    between atoms: N1_7  and  C6_9 
REMARK    4  A    between atoms: N2_11  and  C7_13 
REMARK    5  A    between atoms: C7_13  and  C8_14 
REMARK    6  A    between atoms: C8_14  and  C9_15 
REMARK    7  A    between atoms: C9_15  and  N3_16 
REMARK    8  A    between atoms: C14_23  and  O2_24 
ROOT
HETATM    1  C6  UNL     1     -19.917  22.957  -4.052  1.00  0.00     0.151 C 
HETATM    2  S1  UNL     1     -21.020  21.803  -3.293  1.00  0.00    -0.013 SA
HETATM    3  N2  UNL     1     -19.607  22.817  -5.285  1.00  0.00    -0.370 N 
ATOM      4  H2  UNL     1     -18.977  23.485  -5.727  1.00  0.00     0.161 HD
ENDROOT
BRANCH   1   5
HETATM    5  N1  UNL     1     -19.386  24.033  -3.311  1.00  0.00    -0.336 N 
ATOM      6  H1  UNL     1     -19.866  24.932  -3.336  1.00  0.00     0.168 HD
BRANCH   5   7
HETATM    7  C5  UNL     1     -18.207  23.906  -2.533  1.00  0.00     0.036 A 
HETATM    8  C4  UNL     1     -17.140  23.201  -3.102  1.00  0.00     0.032 A 
HETATM    9  C3  UNL     1     -15.953  23.036  -2.419  1.00  0.00     0.042 A 
HETATM   10  C2  UNL     1     -15.792  23.566  -1.159  1.00  0.00     0.101 A 
HETATM   11  C14 UNL     1     -16.848  24.260  -0.602  1.00  0.00     0.103 A 
HETATM   12  C13 UNL     1     -18.046  24.436  -1.272  1.00  0.00     0.069 A 
BRANCH  10  13
HETATM   13  O1  UNL     1     -14.605  23.403  -0.471  1.00  0.00    -0.353 OA
HETATM   14  C1  UNL     1     -13.411  23.833  -1.085  1.00  0.00     0.210 C 
ENDBRANCH  10  13
BRANCH  11  15
HETATM   15  O2  UNL     1     -16.663  24.776   0.652  1.00  0.00    -0.353 OA
HETATM   16  C15 UNL     1     -16.378  26.154   0.805  1.00  0.00     0.210 C 
ENDBRANCH  11  15
ENDBRANCH   5   7
ENDBRANCH   1   5
BRANCH   3  17
HETATM   17  C7  UNL     1     -20.140  21.728  -6.053  1.00  0.00     0.123 C 
BRANCH  17  18
HETATM   18  C8  UNL     1     -19.050  20.784  -6.432  1.00  0.00     0.040 C 
BRANCH  18  19
HETATM   19  C9  UNL     1     -17.674  21.303  -6.254  1.00  0.00     0.130 C 
BRANCH  19  20
HETATM   20  N3  UNL     1     -16.629  20.307  -6.241  1.00  0.00    -0.352 N 
HETATM   21  C10 UNL     1     -16.719  19.115  -6.889  1.00  0.00     0.108 A 
HETATM   22  C11 UNL     1     -15.538  18.466  -6.611  1.00  0.00     0.106 A 
HETATM   23  N4  UNL     1     -14.778  19.246  -5.829  1.00  0.00    -0.361 N 
HETATM   24  C12 UNL     1     -15.447  20.370  -5.604  1.00  0.00     0.182 A 
ATOM     25  H4  UNL     1     -13.851  19.017  -5.470  1.00  0.00     0.166 HD
ENDBRANCH  19  20
ENDBRANCH  18  19
ENDBRANCH  17  18
ENDBRANCH   3  17
TORSDOF 8
ENDMDL
