MODEL 5
REMARK VINA RESULT: -6.352574443      6.036      7.567
REMARK  8 active torsions:
REMARK  status: ('A' for Active; 'I' for Inactive)
REMARK    1  A    between atoms: O1_2  and  C2_3 
REMARK    2  A    between atoms: C5_6  and  N1_7 
REMARK    3  A    between atoms: N1_7  and  C6_9 
REMARK    4  A    between atoms: N2_11  and  C7_13 
REMARK    5  A    between atoms: C7_13  and  C8_14 
REMARK    6  A    between atoms: C8_14  and  C9_15 
REMARK    7  A    between atoms: C9_15  and  N3_16 
REMARK    8  A    between atoms: C14_23  and  O2_24 
ROOT
HETATM    1  C6  UNL     1     -21.853  22.229  -5.353  1.00  0.00     0.151 C 
HETATM    2  S1  UNL     1     -21.908  23.556  -6.520  1.00  0.00    -0.013 SA
HETATM    3  N2  UNL     1     -20.812  21.488  -5.288  1.00  0.00    -0.370 N 
ATOM      4  H2  UNL     1     -20.776  20.726  -4.612  1.00  0.00     0.161 HD
ENDROOT
BRANCH   1   5
HETATM    5  N1  UNL     1     -22.942  21.990  -4.490  1.00  0.00    -0.336 N 
ATOM      6  H1  UNL     1     -23.336  22.770  -3.966  1.00  0.00     0.168 HD
BRANCH   5   7
HETATM    7  C5  UNL     1     -23.508  20.699  -4.327  1.00  0.00     0.036 A 
HETATM    8  C4  UNL     1     -23.322  20.073  -3.088  1.00  0.00     0.032 A 
HETATM    9  C3  UNL     1     -23.845  18.822  -2.839  1.00  0.00     0.042 A 
HETATM   10  C2  UNL     1     -24.565  18.159  -3.808  1.00  0.00     0.101 A 
HETATM   11  C14 UNL     1     -24.744  18.781  -5.029  1.00  0.00     0.103 A 
HETATM   12  C13 UNL     1     -24.228  20.037  -5.296  1.00  0.00     0.069 A 
BRANCH  10  13
HETATM   13  O1  UNL     1     -25.090  16.906  -3.563  1.00  0.00    -0.353 OA
HETATM   14  C1  UNL     1     -25.552  16.614  -2.264  1.00  0.00     0.210 C 
ENDBRANCH  10  13
BRANCH  11  15
HETATM   15  O2  UNL     1     -25.463  18.101  -5.975  1.00  0.00    -0.353 OA
HETATM   16  C15 UNL     1     -26.531  18.750  -6.639  1.00  0.00     0.210 C 
ENDBRANCH  11  15
ENDBRANCH   5   7
ENDBRANCH   1   5
BRANCH   3  17
HETATM   17  C7  UNL     1     -19.696  21.719  -6.159  1.00  0.00     0.123 C 
BRANCH  17  18
HETATM   18  C8  UNL     1     -18.417  21.485  -5.430  1.00  0.00     0.040 C 
BRANCH  18  19
HETATM   19  C9  UNL     1     -17.230  21.266  -6.289  1.00  0.00     0.130 C 
BRANCH  19  20
HETATM   20  N3  UNL     1     -16.825  19.891  -6.452  1.00  0.00    -0.352 N 
HETATM   21  C10 UNL     1     -15.713  19.361  -5.878  1.00  0.00     0.108 A 
HETATM   22  C11 UNL     1     -15.684  18.049  -6.294  1.00  0.00     0.106 A 
HETATM   23  N4  UNL     1     -16.741  17.812  -7.084  1.00  0.00    -0.361 N 
HETATM   24  C12 UNL     1     -17.437  18.939  -7.179  1.00  0.00     0.182 A 
ATOM     25  H4  UNL     1     -16.970  16.925  -7.532  1.00  0.00     0.166 HD
ENDBRANCH  19  20
ENDBRANCH  18  19
ENDBRANCH  17  18
ENDBRANCH   3  17
TORSDOF 8
ENDMDL
