MODEL 1
REMARK VINA RESULT: -6.480432774      0.000      0.000
REMARK  8 active torsions:
REMARK  status: ('A' for Active; 'I' for Inactive)
REMARK    1  A    between atoms: O1_2  and  C2_3 
REMARK    2  A    between atoms: C5_6  and  N1_7 
REMARK    3  A    between atoms: N1_7  and  C6_9 
REMARK    4  A    between atoms: N2_11  and  C7_13 
REMARK    5  A    between atoms: C7_13  and  C8_14 
REMARK    6  A    between atoms: C8_14  and  C9_15 
REMARK    7  A    between atoms: C9_15  and  N3_16 
REMARK    8  A    between atoms: C14_23  and  O2_24 
ROOT
HETATM    1  C6  UNL     1     -19.113  23.666  -3.437  1.00  0.00     0.151 C 
HETATM    2  S1  UNL     1     -20.492  22.577  -3.243  1.00  0.00    -0.013 SA
HETATM    3  N2  UNL     1     -18.521  23.739  -4.569  1.00  0.00    -0.370 N 
ATOM      4  H2  UNL     1     -17.729  24.371  -4.685  1.00  0.00     0.161 HD
ENDROOT
BRANCH   1   5
HETATM    5  N1  UNL     1     -18.669  24.458  -2.358  1.00  0.00    -0.336 N 
ATOM      6  H1  UNL     1     -18.995  25.421  -2.288  1.00  0.00     0.168 HD
BRANCH   5   7
HETATM    7  C5  UNL     1     -17.784  23.959  -1.368  1.00  0.00     0.036 A 
HETATM    8  C4  UNL     1     -18.329  23.671  -0.111  1.00  0.00     0.032 A 
HETATM    9  C3  UNL     1     -17.543  23.174   0.907  1.00  0.00     0.042 A 
HETATM   10  C2  UNL     1     -16.200  22.949   0.708  1.00  0.00     0.101 A 
HETATM   11  C14 UNL     1     -15.666  23.236  -0.534  1.00  0.00     0.103 A 
HETATM   12  C13 UNL     1     -16.440  23.734  -1.568  1.00  0.00     0.069 A 
BRANCH  10  13
HETATM   13  O1  UNL     1     -15.409  22.453   1.725  1.00  0.00    -0.353 OA
HETATM   14  C1  UNL     1     -15.918  21.407   2.521  1.00  0.00     0.210 C 
ENDBRANCH  10  13
BRANCH  11  15
HETATM   15  O2  UNL     1     -14.329  23.004  -0.707  1.00  0.00    -0.353 OA
HETATM   16  C15 UNL     1     -13.696  23.426  -1.900  1.00  0.00     0.210 C 
ENDBRANCH  11  15
ENDBRANCH   5   7
ENDBRANCH   1   5
BRANCH   3  17
HETATM   17  C7  UNL     1     -18.961  22.940  -5.676  1.00  0.00     0.123 C 
BRANCH  17  18
HETATM   18  C8  UNL     1     -17.849  22.072  -6.158  1.00  0.00     0.040 C 
BRANCH  18  19
HETATM   19  C9  UNL     1     -18.007  20.627  -5.873  1.00  0.00     0.130 C 
BRANCH  19  20
HETATM   20  N3  UNL     1     -16.811  19.831  -6.010  1.00  0.00    -0.352 N 
HETATM   21  C10 UNL     1     -16.803  18.562  -6.495  1.00  0.00     0.108 A 
HETATM   22  C11 UNL     1     -15.485  18.166  -6.442  1.00  0.00     0.106 A 
HETATM   23  N4  UNL     1     -14.743  19.165  -5.944  1.00  0.00    -0.361 N 
HETATM   24  C12 UNL     1     -15.555  20.181  -5.680  1.00  0.00     0.182 A 
ATOM     25  H4  UNL     1     -13.734  19.147  -5.794  1.00  0.00     0.166 HD
ENDBRANCH  19  20
ENDBRANCH  18  19
ENDBRANCH  17  18
ENDBRANCH   3  17
TORSDOF 8
ENDMDL
