MODEL 13
REMARK VINA RESULT: -6.168332620      5.759      6.713
REMARK  8 active torsions:
REMARK  status: ('A' for Active; 'I' for Inactive)
REMARK    1  A    between atoms: O1_2  and  C2_3 
REMARK    2  A    between atoms: C5_6  and  N1_7 
REMARK    3  A    between atoms: N1_7  and  C6_9 
REMARK    4  A    between atoms: N2_11  and  C7_13 
REMARK    5  A    between atoms: C7_13  and  C8_14 
REMARK    6  A    between atoms: C8_14  and  C9_15 
REMARK    7  A    between atoms: C9_15  and  N3_16 
REMARK    8  A    between atoms: C14_23  and  O2_24 
ROOT
HETATM    1  C6  UNL     1     -22.082  21.423  -4.447  1.00  0.00     0.151 C 
HETATM    2  S1  UNL     1     -22.800  21.429  -6.063  1.00  0.00    -0.013 SA
HETATM    3  N2  UNL     1     -20.816  21.558  -4.318  1.00  0.00    -0.370 N 
ATOM      4  H2  UNL     1     -20.400  21.561  -3.387  1.00  0.00     0.161 HD
ENDROOT
BRANCH   1   5
HETATM    5  N1  UNL     1     -22.894  21.279  -3.304  1.00  0.00    -0.336 N 
ATOM      6  H1  UNL     1     -23.359  22.103  -2.923  1.00  0.00     0.168 HD
BRANCH   5   7
HETATM    7  C5  UNL     1     -23.086  20.027  -2.665  1.00  0.00     0.036 A 
HETATM    8  C4  UNL     1     -22.363  19.795  -1.488  1.00  0.00     0.032 A 
HETATM    9  C3  UNL     1     -22.495  18.609  -0.797  1.00  0.00     0.042 A 
HETATM   10  C2  UNL     1     -23.344  17.625  -1.251  1.00  0.00     0.101 A 
HETATM   11  C14 UNL     1     -24.054  17.859  -2.413  1.00  0.00     0.103 A 
HETATM   12  C13 UNL     1     -23.935  19.043  -3.119  1.00  0.00     0.069 A 
BRANCH  10  13
HETATM   13  O1  UNL     1     -23.479  16.435  -0.562  1.00  0.00    -0.353 OA
HETATM   14  C1  UNL     1     -22.520  16.118   0.421  1.00  0.00     0.210 C 
ENDBRANCH  10  13
BRANCH  11  15
HETATM   15  O2  UNL     1     -24.891  16.866  -2.844  1.00  0.00    -0.353 OA
HETATM   16  C15 UNL     1     -25.530  16.988  -4.101  1.00  0.00     0.210 C 
ENDBRANCH  11  15
ENDBRANCH   5   7
ENDBRANCH   1   5
BRANCH   3  17
HETATM   17  C7  UNL     1     -19.976  21.705  -5.472  1.00  0.00     0.123 C 
BRANCH  17  18
HETATM   18  C8  UNL     1     -18.545  21.526  -5.093  1.00  0.00     0.040 C 
BRANCH  18  19
HETATM   19  C9  UNL     1     -17.587  21.531  -6.223  1.00  0.00     0.130 C 
BRANCH  19  20
HETATM   20  N3  UNL     1     -16.612  20.466  -6.217  1.00  0.00    -0.352 N 
HETATM   21  C10 UNL     1     -16.808  19.264  -6.821  1.00  0.00     0.108 A 
HETATM   22  C11 UNL     1     -15.663  18.544  -6.567  1.00  0.00     0.106 A 
HETATM   23  N4  UNL     1     -14.821  19.294  -5.841  1.00  0.00    -0.361 N 
HETATM   24  C12 UNL     1     -15.404  20.468  -5.628  1.00  0.00     0.182 A 
ATOM     25  H4  UNL     1     -13.898  19.013  -5.510  1.00  0.00     0.166 HD
ENDBRANCH  19  20
ENDBRANCH  18  19
ENDBRANCH  17  18
ENDBRANCH   3  17
TORSDOF 8
ENDMDL
