MODEL 7
REMARK VINA RESULT: -6.292615909      3.332      4.628
REMARK  8 active torsions:
REMARK  status: ('A' for Active; 'I' for Inactive)
REMARK    1  A    between atoms: O1_2  and  C2_3 
REMARK    2  A    between atoms: C5_6  and  N1_7 
REMARK    3  A    between atoms: N1_7  and  C6_9 
REMARK    4  A    between atoms: N2_11  and  C7_13 
REMARK    5  A    between atoms: C7_13  and  C8_14 
REMARK    6  A    between atoms: C8_14  and  C9_15 
REMARK    7  A    between atoms: C9_15  and  N3_16 
REMARK    8  A    between atoms: C14_23  and  O2_24 
ROOT
HETATM    1  C6  UNL     1     -14.868  24.295  -0.762  1.00  0.00     0.151 C 
HETATM    2  S1  UNL     1     -16.220  25.129   0.013  1.00  0.00    -0.013 SA
HETATM    3  N2  UNL     1     -15.088  23.535  -1.768  1.00  0.00    -0.370 N 
ATOM      4  H2  UNL     1     -14.308  23.057  -2.221  1.00  0.00     0.161 HD
ENDROOT
BRANCH   1   5
HETATM    5  N1  UNL     1     -13.553  24.467  -0.285  1.00  0.00    -0.336 N 
ATOM      6  H1  UNL     1     -12.969  25.192  -0.702  1.00  0.00     0.168 HD
BRANCH   5   7
HETATM    7  C5  UNL     1     -13.014  23.666   0.755  1.00  0.00     0.036 A 
HETATM    8  C4  UNL     1     -11.781  24.060   1.290  1.00  0.00     0.032 A 
HETATM    9  C3  UNL     1     -11.188  23.345   2.309  1.00  0.00     0.042 A 
HETATM   10  C2  UNL     1     -11.800  22.224   2.824  1.00  0.00     0.101 A 
HETATM   11  C14 UNL     1     -13.016  21.840   2.292  1.00  0.00     0.103 A 
HETATM   12  C13 UNL     1     -13.626  22.545   1.270  1.00  0.00     0.069 A 
BRANCH  10  13
HETATM   13  O1  UNL     1     -11.210  21.504   3.844  1.00  0.00    -0.353 OA
HETATM   14  C1  UNL     1     -11.469  21.892   5.175  1.00  0.00     0.210 C 
ENDBRANCH  10  13
BRANCH  11  15
HETATM   15  O2  UNL     1     -13.602  20.722   2.821  1.00  0.00    -0.353 OA
HETATM   16  C15 UNL     1     -14.754  20.856   3.632  1.00  0.00     0.210 C 
ENDBRANCH  11  15
ENDBRANCH   5   7
ENDBRANCH   1   5
BRANCH   3  17
HETATM   17  C7  UNL     1     -16.420  23.349  -2.265  1.00  0.00     0.123 C 
BRANCH  17  18
HETATM   18  C8  UNL     1     -16.390  22.597  -3.552  1.00  0.00     0.040 C 
BRANCH  18  19
HETATM   19  C9  UNL     1     -17.655  22.611  -4.323  1.00  0.00     0.130 C 
BRANCH  19  20
HETATM   20  N3  UNL     1     -17.759  21.620  -5.367  1.00  0.00    -0.352 N 
HETATM   21  C10 UNL     1     -16.708  20.879  -5.807  1.00  0.00     0.108 A 
HETATM   22  C11 UNL     1     -17.223  20.082  -6.804  1.00  0.00     0.106 A 
HETATM   23  N4  UNL     1     -18.531  20.342  -6.946  1.00  0.00    -0.361 N 
HETATM   24  C12 UNL     1     -18.855  21.282  -6.067  1.00  0.00     0.182 A 
ATOM     25  H4  UNL     1     -19.164  19.897  -7.611  1.00  0.00     0.166 HD
ENDBRANCH  19  20
ENDBRANCH  18  19
ENDBRANCH  17  18
ENDBRANCH   3  17
TORSDOF 8
ENDMDL
