MODEL 6
REMARK VINA RESULT: -6.347844564      5.440      7.117
REMARK  8 active torsions:
REMARK  status: ('A' for Active; 'I' for Inactive)
REMARK    1  A    between atoms: O1_2  and  C2_3 
REMARK    2  A    between atoms: C5_6  and  N1_7 
REMARK    3  A    between atoms: N1_7  and  C6_9 
REMARK    4  A    between atoms: N2_11  and  C7_13 
REMARK    5  A    between atoms: C7_13  and  C8_14 
REMARK    6  A    between atoms: C8_14  and  C9_15 
REMARK    7  A    between atoms: C9_15  and  N3_16 
REMARK    8  A    between atoms: C14_23  and  O2_24 
ROOT
HETATM    1  C6  UNL     1     -21.375  22.984  -6.209  1.00  0.00     0.151 C 
HETATM    2  S1  UNL     1     -21.359  24.534  -5.359  1.00  0.00    -0.013 SA
HETATM    3  N2  UNL     1     -20.268  22.441  -6.551  1.00  0.00    -0.370 N 
ATOM      4  H2  UNL     1     -20.274  21.543  -7.036  1.00  0.00     0.161 HD
ENDROOT
BRANCH   1   5
HETATM    5  N1  UNL     1     -22.594  22.342  -6.504  1.00  0.00    -0.336 N 
ATOM      6  H1  UNL     1     -23.117  22.633  -7.330  1.00  0.00     0.168 HD
BRANCH   5   7
HETATM    7  C5  UNL     1     -23.119  21.305  -5.691  1.00  0.00     0.036 A 
HETATM    8  C4  UNL     1     -22.681  21.252  -4.362  1.00  0.00     0.032 A 
HETATM    9  C3  UNL     1     -23.145  20.282  -3.499  1.00  0.00     0.042 A 
HETATM   10  C2  UNL     1     -24.056  19.342  -3.928  1.00  0.00     0.101 A 
HETATM   11  C14 UNL     1     -24.485  19.399  -5.240  1.00  0.00     0.103 A 
HETATM   12  C13 UNL     1     -24.030  20.365  -6.120  1.00  0.00     0.069 A 
BRANCH  10  13
HETATM   13  O1  UNL     1     -24.524  18.369  -3.067  1.00  0.00    -0.353 OA
HETATM   14  C1  UNL     1     -23.809  18.127  -1.876  1.00  0.00     0.210 C 
ENDBRANCH  10  13
BRANCH  11  15
HETATM   15  O2  UNL     1     -25.389  18.453  -5.642  1.00  0.00    -0.353 OA
HETATM   16  C15 UNL     1     -26.503  18.840  -6.424  1.00  0.00     0.210 C 
ENDBRANCH  11  15
ENDBRANCH   5   7
ENDBRANCH   1   5
BRANCH   3  17
HETATM   17  C7  UNL     1     -19.018  23.082  -6.257  1.00  0.00     0.123 C 
BRANCH  17  18
HETATM   18  C8  UNL     1     -18.136  22.160  -5.486  1.00  0.00     0.040 C 
BRANCH  18  19
HETATM   19  C9  UNL     1     -18.226  20.731  -5.868  1.00  0.00     0.130 C 
BRANCH  19  20
HETATM   20  N3  UNL     1     -16.966  20.035  -5.976  1.00  0.00    -0.352 N 
HETATM   21  C10 UNL     1     -16.835  18.796  -6.518  1.00  0.00     0.108 A 
HETATM   22  C11 UNL     1     -15.496  18.497  -6.411  1.00  0.00     0.106 A 
HETATM   23  N4  UNL     1     -14.859  19.522  -5.828  1.00  0.00    -0.361 N 
HETATM   24  C12 UNL     1     -15.760  20.461  -5.562  1.00  0.00     0.182 A 
ATOM     25  H4  UNL     1     -13.861  19.572  -5.624  1.00  0.00     0.166 HD
ENDBRANCH  19  20
ENDBRANCH  18  19
ENDBRANCH  17  18
ENDBRANCH   3  17
TORSDOF 8
ENDMDL
