MODEL 2
REMARK VINA RESULT: -6.467179438      6.025      7.549
REMARK  8 active torsions:
REMARK  status: ('A' for Active; 'I' for Inactive)
REMARK    1  A    between atoms: O1_2  and  C2_3 
REMARK    2  A    between atoms: C5_6  and  N1_7 
REMARK    3  A    between atoms: N1_7  and  C6_9 
REMARK    4  A    between atoms: N2_11  and  C7_13 
REMARK    5  A    between atoms: C7_13  and  C8_14 
REMARK    6  A    between atoms: C8_14  and  C9_15 
REMARK    7  A    between atoms: C9_15  and  N3_16 
REMARK    8  A    between atoms: C14_23  and  O2_24 
ROOT
HETATM    1  C6  UNL     1     -21.572  22.088  -4.315  1.00  0.00     0.151 C 
HETATM    2  S1  UNL     1     -21.156  23.103  -2.929  1.00  0.00    -0.013 SA
HETATM    3  N2  UNL     1     -20.639  21.566  -5.018  1.00  0.00    -0.370 N 
ATOM      4  H2  UNL     1     -20.876  20.974  -5.815  1.00  0.00     0.161 HD
ENDROOT
BRANCH   1   5
HETATM    5  N1  UNL     1     -22.921  21.843  -4.643  1.00  0.00    -0.336 N 
ATOM      6  H1  UNL     1     -23.478  22.602  -5.035  1.00  0.00     0.168 HD
BRANCH   5   7
HETATM    7  C5  UNL     1     -23.529  20.576  -4.447  1.00  0.00     0.036 A 
HETATM    8  C4  UNL     1     -23.360  19.975  -3.194  1.00  0.00     0.032 A 
HETATM    9  C3  UNL     1     -23.924  18.748  -2.914  1.00  0.00     0.042 A 
HETATM   10  C2  UNL     1     -24.669  18.087  -3.864  1.00  0.00     0.101 A 
HETATM   11  C14 UNL     1     -24.833  18.685  -5.099  1.00  0.00     0.103 A 
HETATM   12  C13 UNL     1     -24.275  19.916  -5.398  1.00  0.00     0.069 A 
BRANCH  10  13
HETATM   13  O1  UNL     1     -25.235  16.858  -3.588  1.00  0.00    -0.353 OA
HETATM   14  C1  UNL     1     -25.733  16.625  -2.289  1.00  0.00     0.210 C 
ENDBRANCH  10  13
BRANCH  11  15
HETATM   15  O2  UNL     1     -25.577  18.008  -6.026  1.00  0.00    -0.353 OA
HETATM   16  C15 UNL     1     -26.599  18.687  -6.732  1.00  0.00     0.210 C 
ENDBRANCH  11  15
ENDBRANCH   5   7
ENDBRANCH   1   5
BRANCH   3  17
HETATM   17  C7  UNL     1     -19.261  21.805  -4.697  1.00  0.00     0.123 C 
BRANCH  17  18
HETATM   18  C8  UNL     1     -18.415  21.657  -5.915  1.00  0.00     0.040 C 
BRANCH  18  19
HETATM   19  C9  UNL     1     -18.252  20.268  -6.406  1.00  0.00     0.130 C 
BRANCH  19  20
HETATM   20  N3  UNL     1     -16.919  19.724  -6.301  1.00  0.00    -0.352 N 
HETATM   21  C10 UNL     1     -16.583  18.475  -6.718  1.00  0.00     0.108 A 
HETATM   22  C11 UNL     1     -15.244  18.347  -6.424  1.00  0.00     0.106 A 
HETATM   23  N4  UNL     1     -14.806  19.479  -5.855  1.00  0.00    -0.361 N 
HETATM   24  C12 UNL     1     -15.832  20.319  -5.781  1.00  0.00     0.182 A 
ATOM     25  H4  UNL     1     -13.855  19.663  -5.536  1.00  0.00     0.166 HD
ENDBRANCH  19  20
ENDBRANCH  18  19
ENDBRANCH  17  18
ENDBRANCH   3  17
TORSDOF 8
ENDMDL
