MODEL 1
REMARK VINA RESULT: -6.224346792      0.000      0.000
REMARK  8 active torsions:
REMARK  status: ('A' for Active; 'I' for Inactive)
REMARK    1  A    between atoms: O1_2  and  C2_3 
REMARK    2  A    between atoms: C5_6  and  N1_7 
REMARK    3  A    between atoms: C6_9  and  N2_11 
REMARK    4  A    between atoms: N2_11  and  C7_13 
REMARK    5  A    between atoms: C7_13  and  C8_14 
REMARK    6  A    between atoms: C8_14  and  C9_15 
REMARK    7  A    between atoms: C9_15  and  N3_16 
REMARK    8  A    between atoms: C14_23  and  O2_24 
ROOT
HETATM    1  N1  UNL     1     -19.556  23.365  -2.191  1.00  0.00    -0.336 N 
ATOM      2  H1  UNL     1     -20.142  22.865  -1.523  1.00  0.00     0.168 HD
HETATM    3  C6  UNL     1     -19.894  23.268  -3.410  1.00  0.00     0.155 C 
HETATM    4  S1  UNL     1     -21.352  22.286  -3.875  1.00  0.00    -0.013 SA
ENDROOT
BRANCH   3   5
HETATM    5  N2  UNL     1     -19.103  23.959  -4.357  1.00  0.00    -0.350 N 
ATOM      6  H2  UNL     1     -18.896  24.945  -4.194  1.00  0.00     0.167 HD
BRANCH   5   7
HETATM    7  C7  UNL     1     -18.592  23.351  -5.503  1.00  0.00     0.065 C 
BRANCH   7   8
HETATM    8  C8  UNL     1     -17.684  22.185  -5.204  1.00  0.00     0.065 C 
BRANCH   8   9
HETATM    9  C9  UNL     1     -17.976  20.875  -5.760  1.00  0.00     0.134 C 
BRANCH   9  10
HETATM   10  N3  UNL     1     -16.885  19.963  -5.956  1.00  0.00    -0.351 N 
HETATM   11  C10 UNL     1     -17.089  18.690  -6.381  1.00  0.00     0.108 A 
HETATM   12  C11 UNL     1     -15.865  18.080  -6.417  1.00  0.00     0.106 A 
HETATM   13  N4  UNL     1     -14.959  18.986  -6.020  1.00  0.00    -0.361 N 
HETATM   14  C12 UNL     1     -15.574  20.131  -5.739  1.00  0.00     0.182 A 
ATOM     15  H4  UNL     1     -13.955  18.821  -5.945  1.00  0.00     0.166 HD
ENDBRANCH   9  10
ENDBRANCH   8   9
ENDBRANCH   7   8
ENDBRANCH   5   7
ENDBRANCH   3   5
BRANCH   1  16
HETATM   16  C5  UNL     1     -18.492  24.064  -1.657  1.00  0.00     0.036 A 
HETATM   17  C4  UNL     1     -18.669  25.286  -1.045  1.00  0.00     0.032 A 
HETATM   18  C3  UNL     1     -17.592  25.953  -0.450  1.00  0.00     0.042 A 
HETATM   19  C2  UNL     1     -16.334  25.408  -0.460  1.00  0.00     0.101 A 
HETATM   20  C14 UNL     1     -16.149  24.191  -1.067  1.00  0.00     0.103 A 
HETATM   21  C13 UNL     1     -17.227  23.527  -1.662  1.00  0.00     0.069 A 
BRANCH  19  22
HETATM   22  O1  UNL     1     -15.246  26.086   0.142  1.00  0.00    -0.353 OA
HETATM   23  C1  UNL     1     -15.120  26.066   1.566  1.00  0.00     0.210 C 
ENDBRANCH  19  22
BRANCH  20  24
HETATM   24  O2  UNL     1     -14.876  23.648  -1.072  1.00  0.00    -0.353 OA
HETATM   25  C15 UNL     1     -13.931  23.805  -2.090  1.00  0.00     0.210 C 
ENDBRANCH  20  24
ENDBRANCH   1  16
TORSDOF 8
ENDMDL
