MODEL 2
REMARK VINA RESULT: -6.184796227      0.905      1.907
REMARK  8 active torsions:
REMARK  status: ('A' for Active; 'I' for Inactive)
REMARK    1  A    between atoms: O1_2  and  C2_3 
REMARK    2  A    between atoms: C5_6  and  N1_7 
REMARK    3  A    between atoms: C6_9  and  N2_11 
REMARK    4  A    between atoms: N2_11  and  C7_13 
REMARK    5  A    between atoms: C7_13  and  C8_14 
REMARK    6  A    between atoms: C8_14  and  C9_15 
REMARK    7  A    between atoms: C9_15  and  N3_16 
REMARK    8  A    between atoms: C14_23  and  O2_24 
ROOT
HETATM    1  N1  UNL     1     -19.338  23.553  -2.298  1.00  0.00    -0.336 N 
ATOM      2  H1  UNL     1     -19.928  23.214  -1.539  1.00  0.00     0.168 HD
HETATM    3  C6  UNL     1     -19.893  23.648  -3.435  1.00  0.00     0.155 C 
HETATM    4  S1  UNL     1     -21.643  23.195  -3.634  1.00  0.00    -0.013 SA
ENDROOT
BRANCH   3   5
HETATM    5  N2  UNL     1     -19.099  24.123  -4.504  1.00  0.00    -0.350 N 
ATOM      6  H2  UNL     1     -18.451  24.892  -4.327  1.00  0.00     0.167 HD
BRANCH   5   7
HETATM    7  C7  UNL     1     -19.162  23.587  -5.790  1.00  0.00     0.065 C 
BRANCH   7   8
HETATM    8  C8  UNL     1     -18.071  22.585  -6.071  1.00  0.00     0.065 C 
BRANCH   8   9
HETATM    9  C9  UNL     1     -18.259  21.188  -5.719  1.00  0.00     0.134 C 
BRANCH   9  10
HETATM   10  N3  UNL     1     -17.138  20.301  -5.841  1.00  0.00    -0.351 N 
HETATM   11  C10 UNL     1     -17.271  19.052  -6.357  1.00  0.00     0.108 A 
HETATM   12  C11 UNL     1     -16.040  18.459  -6.290  1.00  0.00     0.106 A 
HETATM   13  N4  UNL     1     -15.200  19.350  -5.744  1.00  0.00    -0.361 N 
HETATM   14  C12 UNL     1     -15.862  20.470  -5.470  1.00  0.00     0.182 A 
ATOM     15  H4  UNL     1     -14.208  19.193  -5.566  1.00  0.00     0.166 HD
ENDBRANCH   9  10
ENDBRANCH   8   9
ENDBRANCH   7   8
ENDBRANCH   5   7
ENDBRANCH   3   5
BRANCH   1  16
HETATM   16  C5  UNL     1     -18.033  23.853  -1.962  1.00  0.00     0.036 A 
HETATM   17  C4  UNL     1     -16.972  23.182  -2.530  1.00  0.00     0.032 A 
HETATM   18  C3  UNL     1     -15.652  23.541  -2.230  1.00  0.00     0.042 A 
HETATM   19  C2  UNL     1     -15.382  24.569  -1.365  1.00  0.00     0.101 A 
HETATM   20  C14 UNL     1     -16.433  25.244  -0.796  1.00  0.00     0.103 A 
HETATM   21  C13 UNL     1     -17.751  24.883  -1.096  1.00  0.00     0.069 A 
BRANCH  19  22
HETATM   22  O1  UNL     1     -14.047  24.930  -1.062  1.00  0.00    -0.353 OA
HETATM   23  C1  UNL     1     -13.315  24.146  -0.116  1.00  0.00     0.210 C 
ENDBRANCH  19  22
BRANCH  20  24
HETATM   24  O2  UNL     1     -16.151  26.282   0.076  1.00  0.00    -0.353 OA
HETATM   25  C15 UNL     1     -16.157  26.193   1.471  1.00  0.00     0.210 C 
ENDBRANCH  20  24
ENDBRANCH   1  16
TORSDOF 8
ENDMDL
