MODEL 5
REMARK VINA RESULT: -7.044186314      3.134      6.218
REMARK  3 active torsions:
REMARK  status: ('A' for Active; 'I' for Inactive)
REMARK    1  A    between atoms: C2_2  and  C3_3 
REMARK    2  A    between atoms: C2_2  and  C4_6 
REMARK    3  A    between atoms: C7_9  and  C8_10 
ROOT
HETATM    1  C4  UNL     1     -16.904 -15.881  44.582  1.00  0.00    -0.012 A 
HETATM    2  C5  UNL     1     -17.397 -15.985  45.841  1.00  0.00     0.014 A 
HETATM    3  C6  UNL     1     -18.176 -17.048  46.201  1.00  0.00     0.013 A 
HETATM    4  C7  UNL     1     -18.543 -18.096  45.383  1.00  0.00    -0.023 A 
HETATM    5  C14 UNL     1     -18.028 -17.982  44.096  1.00  0.00    -0.015 A 
HETATM    6  C15 UNL     1     -18.344 -18.983  43.217  1.00  0.00     0.013 A 
HETATM    7  C16 UNL     1     -17.846 -18.927  41.923  1.00  0.00     0.001 A 
HETATM    8  C17 UNL     1     -17.058 -17.882  41.535  1.00  0.00     0.001 A 
HETATM    9  C18 UNL     1     -16.733 -16.840  42.422  1.00  0.00     0.013 A 
HETATM   10  C19 UNL     1     -17.234 -16.913  43.702  1.00  0.00    -0.014 A 
ENDROOT
BRANCH   4  11
HETATM   11  C8  UNL     1     -19.271 -19.257  45.899  1.00  0.00    -0.069 C 
HETATM   12  C9  UNL     1     -18.388 -20.262  46.588  1.00  0.00     0.035 C 
HETATM   13  C10 UNL     1     -19.296 -21.344  47.111  1.00  0.00     0.004 C 
HETATM   14  C11 UNL     1     -20.316 -21.749  46.062  1.00  0.00     0.001 C 
HETATM   15  C12 UNL     1     -21.297 -20.681  45.729  1.00  0.00     0.004 C 
HETATM   16  C13 UNL     1     -20.661 -19.342  46.239  1.00  0.00     0.035 C 
ENDBRANCH   4  11
BRANCH   1  17
HETATM   17  C2  UNL     1     -16.295 -14.638  44.093  1.00  0.00     0.026 C 
HETATM   18  C1  UNL     1     -17.055 -13.389  44.192  1.00  0.00     0.056 C 
BRANCH  17  19
HETATM   19  C3  UNL     1     -14.819 -14.620  44.225  1.00  0.00     0.205 C 
HETATM   20  O1  UNL     1     -14.288 -14.773  45.330  1.00  0.00    -0.644 OA
HETATM   21  O2  UNL     1     -14.074 -14.440  43.079  1.00  0.00    -0.644 OA
ENDBRANCH  17  19
ENDBRANCH   1  17
TORSDOF 3
ENDMDL
