MODEL 17
REMARK VINA RESULT: -6.192754120      1.330      1.546
REMARK  3 active torsions:
REMARK  status: ('A' for Active; 'I' for Inactive)
REMARK    1  A    between atoms: C2_2  and  C3_3 
REMARK    2  A    between atoms: C2_2  and  C4_6 
REMARK    3  A    between atoms: C7_9  and  C8_10 
ROOT
HETATM    1  C4  UNL     1     -19.288 -18.759  45.335  1.00  0.00    -0.012 A 
HETATM    2  C5  UNL     1     -19.049 -17.796  46.259  1.00  0.00     0.014 A 
HETATM    3  C6  UNL     1     -18.048 -16.885  46.078  1.00  0.00     0.013 A 
HETATM    4  C7  UNL     1     -17.196 -16.824  44.995  1.00  0.00    -0.023 A 
HETATM    5  C14 UNL     1     -17.453 -17.812  44.050  1.00  0.00    -0.015 A 
HETATM    6  C15 UNL     1     -16.652 -17.823  42.940  1.00  0.00     0.013 A 
HETATM    7  C16 UNL     1     -16.872 -18.779  41.959  1.00  0.00     0.001 A 
HETATM    8  C17 UNL     1     -17.870 -19.699  42.107  1.00  0.00     0.001 A 
HETATM    9  C18 UNL     1     -18.694 -19.707  43.246  1.00  0.00     0.013 A 
HETATM   10  C19 UNL     1     -18.463 -18.752  44.208  1.00  0.00    -0.014 A 
ENDROOT
BRANCH   4  11
HETATM   11  C8  UNL     1     -16.240 -15.728  44.828  1.00  0.00    -0.069 C 
HETATM   12  C9  UNL     1     -16.892 -14.390  44.601  1.00  0.00     0.035 C 
HETATM   13  C10 UNL     1     -15.779 -13.378  44.520  1.00  0.00     0.004 C 
HETATM   14  C11 UNL     1     -14.648 -13.886  43.643  1.00  0.00     0.001 C 
HETATM   15  C12 UNL     1     -13.931 -15.063  44.204  1.00  0.00     0.004 C 
HETATM   16  C13 UNL     1     -14.885 -15.666  45.292  1.00  0.00     0.035 C 
ENDBRANCH   4  11
BRANCH   1  17
HETATM   17  C2  UNL     1     -20.167 -19.899  45.619  1.00  0.00     0.026 C 
HETATM   18  C1  UNL     1     -21.300 -20.161  44.727  1.00  0.00     0.056 C 
BRANCH  17  19
HETATM   19  C3  UNL     1     -19.465 -21.027  46.277  1.00  0.00     0.205 C 
HETATM   20  O1  UNL     1     -19.200 -22.054  45.643  1.00  0.00    -0.644 OA
HETATM   21  O2  UNL     1     -19.117 -20.881  47.603  1.00  0.00    -0.644 OA
ENDBRANCH  17  19
ENDBRANCH   1  17
TORSDOF 3
ENDMDL
