MODEL 6
REMARK VINA RESULT: -6.809114062      3.037      6.087
REMARK  3 active torsions:
REMARK  status: ('A' for Active; 'I' for Inactive)
REMARK    1  A    between atoms: C2_2  and  C3_3 
REMARK    2  A    between atoms: C2_2  and  C4_6 
REMARK    3  A    between atoms: C7_9  and  C8_10 
ROOT
HETATM    1  C4  UNL     1     -16.924 -16.299  44.328  1.00  0.00    -0.012 A 
HETATM    2  C5  UNL     1     -17.288 -16.599  45.599  1.00  0.00     0.014 A 
HETATM    3  C6  UNL     1     -17.985 -17.741  45.876  1.00  0.00     0.013 A 
HETATM    4  C7  UNL     1     -18.387 -18.687  44.956  1.00  0.00    -0.023 A 
HETATM    5  C14 UNL     1     -18.004 -18.372  43.656  1.00  0.00    -0.015 A 
HETATM    6  C15 UNL     1     -18.364 -19.260  42.677  1.00  0.00     0.013 A 
HETATM    7  C16 UNL     1     -17.997 -19.002  41.365  1.00  0.00     0.001 A 
HETATM    8  C17 UNL     1     -17.293 -17.874  41.056  1.00  0.00     0.001 A 
HETATM    9  C18 UNL     1     -16.926 -16.947  42.048  1.00  0.00     0.013 A 
HETATM   10  C19 UNL     1     -17.297 -17.218  43.345  1.00  0.00    -0.014 A 
ENDROOT
BRANCH   4  11
HETATM   11  C8  UNL     1     -19.015 -19.944  45.367  1.00  0.00    -0.069 C 
HETATM   12  C9  UNL     1     -20.515 -19.936  45.242  1.00  0.00     0.035 C 
HETATM   13  C10 UNL     1     -20.986 -21.311  45.635  1.00  0.00     0.004 C 
HETATM   14  C11 UNL     1     -20.283 -21.784  46.896  1.00  0.00     0.001 C 
HETATM   15  C12 UNL     1     -18.823 -22.015  46.722  1.00  0.00     0.004 C 
HETATM   16  C13 UNL     1     -18.421 -21.248  45.416  1.00  0.00     0.035 C 
ENDBRANCH   4  11
BRANCH   1  17
HETATM   17  C2  UNL     1     -16.416 -14.971  43.964  1.00  0.00     0.026 C 
HETATM   18  C1  UNL     1     -17.262 -13.798  44.202  1.00  0.00     0.056 C 
BRANCH  17  19
HETATM   19  C3  UNL     1     -14.943 -14.859  44.079  1.00  0.00     0.205 C 
HETATM   20  O1  UNL     1     -14.239 -14.809  43.066  1.00  0.00    -0.644 OA
HETATM   21  O2  UNL     1     -14.399 -14.803  45.345  1.00  0.00    -0.644 OA
ENDBRANCH  17  19
ENDBRANCH   1  17
TORSDOF 3
ENDMDL
