MODEL 2
REMARK VINA RESULT: -7.547117302      0.893      1.612
REMARK  3 active torsions:
REMARK  status: ('A' for Active; 'I' for Inactive)
REMARK    1  A    between atoms: C2_2  and  C3_3 
REMARK    2  A    between atoms: C2_2  and  C4_6 
REMARK    3  A    between atoms: C7_9  and  C8_10 
ROOT
HETATM    1  C4  UNL     1     -19.273 -18.972  45.504  1.00  0.00    -0.012 A 
HETATM    2  C5  UNL     1     -18.947 -17.958  46.342  1.00  0.00     0.014 A 
HETATM    3  C6  UNL     1     -18.029 -17.015  45.974  1.00  0.00     0.013 A 
HETATM    4  C7  UNL     1     -17.354 -16.968  44.772  1.00  0.00    -0.023 A 
HETATM    5  C14 UNL     1     -17.701 -18.009  43.918  1.00  0.00    -0.015 A 
HETATM    6  C15 UNL     1     -17.076 -18.039  42.700  1.00  0.00     0.013 A 
HETATM    7  C16 UNL     1     -17.393 -19.049  41.803  1.00  0.00     0.001 A 
HETATM    8  C17 UNL     1     -18.311 -20.002  42.138  1.00  0.00     0.001 A 
HETATM    9  C18 UNL     1     -18.953 -19.992  43.389  1.00  0.00     0.013 A 
HETATM   10  C19 UNL     1     -18.628 -18.983  44.266  1.00  0.00    -0.014 A 
ENDROOT
BRANCH   4  11
HETATM   11  C8  UNL     1     -16.489 -15.841  44.418  1.00  0.00    -0.069 C 
HETATM   12  C9  UNL     1     -15.039 -16.221  44.271  1.00  0.00     0.035 C 
HETATM   13  C10 UNL     1     -14.311 -14.974  43.843  1.00  0.00     0.004 C 
HETATM   14  C11 UNL     1     -14.754 -13.778  44.667  1.00  0.00     0.001 C 
HETATM   15  C12 UNL     1     -16.170 -13.380  44.440  1.00  0.00     0.004 C 
HETATM   16  C13 UNL     1     -16.860 -14.618  43.771  1.00  0.00     0.035 C 
ENDBRANCH   4  11
BRANCH   1  17
HETATM   17  C2  UNL     1     -20.042 -20.135  45.963  1.00  0.00     0.026 C 
HETATM   18  C1  UNL     1     -19.403 -21.098  46.864  1.00  0.00     0.056 C 
BRANCH  17  19
HETATM   19  C3  UNL     1     -21.496 -19.865  46.076  1.00  0.00     0.205 C 
HETATM   20  O1  UNL     1     -22.035 -19.798  47.185  1.00  0.00    -0.644 OA
HETATM   21  O2  UNL     1     -22.208 -19.683  44.910  1.00  0.00    -0.644 OA
ENDBRANCH  17  19
ENDBRANCH   1  17
TORSDOF 3
ENDMDL
