MODEL 10
REMARK VINA RESULT: -6.639656288      1.085      1.615
REMARK  3 active torsions:
REMARK  status: ('A' for Active; 'I' for Inactive)
REMARK    1  A    between atoms: C2_2  and  C3_3 
REMARK    2  A    between atoms: C2_2  and  C4_6 
REMARK    3  A    between atoms: C7_9  and  C8_10 
ROOT
HETATM    1  C4  UNL     1     -19.328 -19.967  44.417  1.00  0.00    -0.012 A 
HETATM    2  C5  UNL     1     -18.856 -19.296  45.496  1.00  0.00     0.014 A 
HETATM    3  C6  UNL     1     -17.917 -18.314  45.353  1.00  0.00     0.013 A 
HETATM    4  C7  UNL     1     -17.358 -17.896  44.164  1.00  0.00    -0.023 A 
HETATM    5  C14 UNL     1     -17.853 -18.586  43.063  1.00  0.00    -0.015 A 
HETATM    6  C15 UNL     1     -17.350 -18.233  41.839  1.00  0.00     0.013 A 
HETATM    7  C16 UNL     1     -17.818 -18.881  40.705  1.00  0.00     0.001 A 
HETATM    8  C17 UNL     1     -18.762 -19.861  40.813  1.00  0.00     0.001 A 
HETATM    9  C18 UNL     1     -19.280 -20.243  42.063  1.00  0.00     0.013 A 
HETATM   10  C19 UNL     1     -18.806 -19.590  43.177  1.00  0.00    -0.014 A 
ENDROOT
BRANCH   4  11
HETATM   11  C8  UNL     1     -16.457 -16.744  44.099  1.00  0.00    -0.069 C 
HETATM   12  C9  UNL     1     -15.065 -17.043  44.588  1.00  0.00     0.035 C 
HETATM   13  C10 UNL     1     -14.261 -15.784  44.390  1.00  0.00     0.004 C 
HETATM   14  C11 UNL     1     -15.038 -14.566  44.858  1.00  0.00     0.001 C 
HETATM   15  C12 UNL     1     -16.247 -14.271  44.042  1.00  0.00     0.004 C 
HETATM   16  C13 UNL     1     -16.565 -15.590  43.256  1.00  0.00     0.035 C 
ENDBRANCH   4  11
BRANCH   1  17
HETATM   17  C2  UNL     1     -20.127 -21.190  44.558  1.00  0.00     0.026 C 
HETATM   18  C1  UNL     1     -19.467 -22.420  45.004  1.00  0.00     0.056 C 
BRANCH  17  19
HETATM   19  C3  UNL     1     -21.537 -20.927  44.932  1.00  0.00     0.205 C 
HETATM   20  O1  UNL     1     -22.068 -19.848  44.647  1.00  0.00    -0.644 OA
HETATM   21  O2  UNL     1     -22.224 -21.924  45.591  1.00  0.00    -0.644 OA
ENDBRANCH  17  19
ENDBRANCH   1  17
TORSDOF 3
ENDMDL
