MODEL 8
REMARK VINA RESULT: -6.710758289      3.308      6.269
REMARK  3 active torsions:
REMARK  status: ('A' for Active; 'I' for Inactive)
REMARK    1  A    between atoms: C2_2  and  C3_3 
REMARK    2  A    between atoms: C2_2  and  C4_6 
REMARK    3  A    between atoms: C7_9  and  C8_10 
ROOT
HETATM    1  C4  UNL     1     -16.422 -16.369  44.374  1.00  0.00    -0.012 A 
HETATM    2  C5  UNL     1     -16.439 -16.940  45.604  1.00  0.00     0.014 A 
HETATM    3  C6  UNL     1     -16.952 -18.193  45.786  1.00  0.00     0.013 A 
HETATM    4  C7  UNL     1     -17.486 -19.000  44.802  1.00  0.00    -0.023 A 
HETATM    5  C14 UNL     1     -17.458 -18.407  43.544  1.00  0.00    -0.015 A 
HETATM    6  C15 UNL     1     -17.971 -19.140  42.508  1.00  0.00     0.013 A 
HETATM    7  C16 UNL     1     -17.956 -18.603  41.229  1.00  0.00     0.001 A 
HETATM    8  C17 UNL     1     -17.445 -17.356  41.013  1.00  0.00     0.001 A 
HETATM    9  C18 UNL     1     -16.925 -16.586  42.068  1.00  0.00     0.013 A 
HETATM   10  C19 UNL     1     -16.946 -17.134  43.330  1.00  0.00    -0.014 A 
ENDROOT
BRANCH   4  11
HETATM   11  C8  UNL     1     -17.888 -20.381  45.073  1.00  0.00    -0.069 C 
HETATM   12  C9  UNL     1     -16.727 -21.312  45.299  1.00  0.00     0.035 C 
HETATM   13  C10 UNL     1     -17.314 -22.659  45.629  1.00  0.00     0.004 C 
HETATM   14  C11 UNL     1     -18.451 -23.000  44.682  1.00  0.00     0.001 C 
HETATM   15  C12 UNL     1     -19.643 -22.120  44.827  1.00  0.00     0.004 C 
HETATM   16  C13 UNL     1     -19.142 -20.846  45.590  1.00  0.00     0.035 C 
ENDBRANCH   4  11
BRANCH   1  17
HETATM   17  C2  UNL     1     -16.130 -14.943  44.190  1.00  0.00     0.026 C 
HETATM   18  C1  UNL     1     -17.101 -13.952  44.663  1.00  0.00     0.056 C 
BRANCH  17  19
HETATM   19  C3  UNL     1     -14.680 -14.636  44.225  1.00  0.00     0.205 C 
HETATM   20  O1  UNL     1     -14.086 -14.544  45.305  1.00  0.00    -0.644 OA
HETATM   21  O2  UNL     1     -14.029 -14.469  43.022  1.00  0.00    -0.644 OA
ENDBRANCH  17  19
ENDBRANCH   1  17
TORSDOF 3
ENDMDL
