MODEL 1
REMARK VINA RESULT: -7.548433777      0.000      0.000
REMARK  3 active torsions:
REMARK  status: ('A' for Active; 'I' for Inactive)
REMARK    1  A    between atoms: C2_2  and  C3_3 
REMARK    2  A    between atoms: C2_2  and  C4_6 
REMARK    3  A    between atoms: C7_9  and  C8_10 
ROOT
HETATM    1  C4  UNL     1     -19.224 -19.184  44.700  1.00  0.00    -0.012 A 
HETATM    2  C5  UNL     1     -19.031 -18.391  45.783  1.00  0.00     0.014 A 
HETATM    3  C6  UNL     1     -18.124 -17.370  45.749  1.00  0.00     0.013 A 
HETATM    4  C7  UNL     1     -17.332 -17.027  44.673  1.00  0.00    -0.023 A 
HETATM    5  C14 UNL     1     -17.541 -17.843  43.567  1.00  0.00    -0.015 A 
HETATM    6  C15 UNL     1     -16.794 -17.572  42.452  1.00  0.00     0.013 A 
HETATM    7  C16 UNL     1     -16.971 -18.346  41.315  1.00  0.00     0.001 A 
HETATM    8  C17 UNL     1     -17.875 -19.369  41.314  1.00  0.00     0.001 A 
HETATM    9  C18 UNL     1     -18.643 -19.668  42.454  1.00  0.00     0.013 A 
HETATM   10  C19 UNL     1     -18.455 -18.889  43.572  1.00  0.00    -0.014 A 
ENDROOT
BRANCH   4  11
HETATM   11  C8  UNL     1     -16.486 -15.832  44.690  1.00  0.00    -0.069 C 
HETATM   12  C9  UNL     1     -17.251 -14.552  44.490  1.00  0.00     0.035 C 
HETATM   13  C10 UNL     1     -16.250 -13.432  44.604  1.00  0.00     0.004 C 
HETATM   14  C11 UNL     1     -14.989 -13.751  43.819  1.00  0.00     0.001 C 
HETATM   15  C12 UNL     1     -14.210 -14.894  44.368  1.00  0.00     0.004 C 
HETATM   16  C13 UNL     1     -15.198 -15.676  45.300  1.00  0.00     0.035 C 
ENDBRANCH   4  11
BRANCH   1  17
HETATM   17  C2  UNL     1     -19.984 -20.437  44.787  1.00  0.00     0.026 C 
HETATM   18  C1  UNL     1     -19.570 -21.452  45.760  1.00  0.00     0.056 C 
BRANCH  17  19
HETATM   19  C3  UNL     1     -21.418 -20.274  44.450  1.00  0.00     0.205 C 
HETATM   20  O1  UNL     1     -21.864 -20.715  43.386  1.00  0.00    -0.644 OA
HETATM   21  O2  UNL     1     -22.224 -19.628  45.364  1.00  0.00    -0.644 OA
ENDBRANCH  17  19
ENDBRANCH   1  17
TORSDOF 3
ENDMDL
