MODEL 3
REMARK VINA RESULT: -7.608581943      2.035      5.416
REMARK  10 active torsions:
REMARK  status: ('A' for Active; 'I' for Inactive)
REMARK       I    between atoms: C2_2  and  N1_4 
REMARK    1  A    between atoms: N1_4  and  C3_6 
REMARK    2  A    between atoms: C4_7  and  O2_8 
REMARK    3  A    between atoms: C6_11  and  O3_12 
REMARK    4  A    between atoms: C6_11  and  C7_14 
REMARK    5  A    between atoms: C8_18  and  C9_19 
REMARK    6  A    between atoms: C9_19  and  O7_20 
REMARK    7  A    between atoms: C9_19  and  C10_22 
REMARK    8  A    between atoms: C10_22  and  O8_23 
REMARK    9  A    between atoms: C10_22  and  C11_25 
REMARK   10  A    between atoms: C11_25  and  O9_26 
ROOT
HETATM    1  C3  UNL     1      16.865  28.918  10.669  1.00  0.00     0.145 C 
HETATM    2  C4  UNL     1      15.358  28.629  10.645  1.00  0.00     0.149 C 
HETATM    3  C5  UNL     1      15.210  27.226  11.229  1.00  0.00     0.114 C 
HETATM    4  C6  UNL     1      15.754  27.281  12.641  1.00  0.00     0.256 C 
HETATM    5  O6  UNL     1      17.130  27.561  12.555  1.00  0.00    -0.336 OA
HETATM    6  C8  UNL     1      17.266  28.856  12.109  1.00  0.00     0.182 C 
ENDROOT
BRANCH   6   7
HETATM    7  C9  UNL     1      18.639  29.380  12.388  1.00  0.00     0.180 C 
BRANCH   7   8
HETATM    8  O7  UNL     1      19.428  28.447  13.042  1.00  0.00    -0.390 OA
ATOM      9  H7  UNL     1      20.153  28.154  12.504  1.00  0.00     0.210 HD
ENDBRANCH   7   8
BRANCH   7  10
HETATM   10  C10 UNL     1      18.473  30.605  13.286  1.00  0.00     0.173 C 
BRANCH  10  11
HETATM   11  O8  UNL     1      19.728  31.231  13.365  1.00  0.00    -0.391 OA
ATOM     12  H8  UNL     1      19.612  32.027  13.869  1.00  0.00     0.210 HD
ENDBRANCH  10  11
BRANCH  10  13
HETATM   13  C11 UNL     1      18.078  30.183  14.681  1.00  0.00     0.198 C 
BRANCH  13  14
HETATM   14  O9  UNL     1      19.253  30.094  15.430  1.00  0.00    -0.398 OA
ATOM     15  H9  UNL     1      19.021  30.272  16.334  1.00  0.00     0.209 HD
ENDBRANCH  13  14
ENDBRANCH  10  13
ENDBRANCH   7  10
ENDBRANCH   6   7
BRANCH   1  16
HETATM   16  N1  UNL     1      17.176  30.167  10.027  1.00  0.00    -0.352 N 
HETATM   17  C2  UNL     1      18.232  30.268   9.082  1.00  0.00     0.214 C 
HETATM   18  C1  UNL     1      18.571  31.547   8.407  1.00  0.00     0.117 C 
HETATM   19  O1  UNL     1      18.924  29.260   8.783  1.00  0.00    -0.274 OA
ATOM     20  H1  UNL     1      16.628  30.996  10.256  1.00  0.00     0.163 HD
ENDBRANCH   1  16
BRANCH   2  21
HETATM   21  O2  UNL     1      14.826  28.734   9.388  1.00  0.00    -0.393 OA
ATOM     22  H2  UNL     1      14.110  28.127   9.246  1.00  0.00     0.210 HD
ENDBRANCH   2  21
BRANCH   4  23
HETATM   23  O3  UNL     1      15.082  28.296  13.324  1.00  0.00    -0.357 OA
ATOM     24  H3  UNL     1      15.567  28.487  14.118  1.00  0.00     0.213 HD
ENDBRANCH   4  23
BRANCH   4  25
HETATM   25  C7  UNL     1      15.511  25.968  13.266  1.00  0.00     0.238 C 
HETATM   26  O4  UNL     1      15.683  25.854  14.506  1.00  0.00    -0.644 OA
HETATM   27  O5  UNL     1      15.104  24.848  12.570  1.00  0.00    -0.644 OA
ENDBRANCH   4  25
TORSDOF 10
ENDMDL
