MODEL 1
REMARK VINA RESULT: -8.176978155      0.000      0.000
REMARK  10 active torsions:
REMARK  status: ('A' for Active; 'I' for Inactive)
REMARK       I    between atoms: C2_2  and  N1_4 
REMARK    1  A    between atoms: N1_4  and  C3_6 
REMARK    2  A    between atoms: C4_7  and  O2_8 
REMARK    3  A    between atoms: C6_11  and  O3_12 
REMARK    4  A    between atoms: C6_11  and  C7_14 
REMARK    5  A    between atoms: C8_18  and  C9_19 
REMARK    6  A    between atoms: C9_19  and  O7_20 
REMARK    7  A    between atoms: C9_19  and  C10_22 
REMARK    8  A    between atoms: C10_22  and  O8_23 
REMARK    9  A    between atoms: C10_22  and  C11_25 
REMARK   10  A    between atoms: C11_25  and  O9_26 
ROOT
HETATM    1  C3  UNL     1      17.590  29.037  11.405  1.00  0.00     0.145 C 
HETATM    2  C4  UNL     1      17.904  29.085  12.906  1.00  0.00     0.149 C 
HETATM    3  C5  UNL     1      19.425  29.013  13.000  1.00  0.00     0.114 C 
HETATM    4  C6  UNL     1      19.966  30.224  12.270  1.00  0.00     0.256 C 
HETATM    5  O6  UNL     1      19.619  30.091  10.913  1.00  0.00    -0.336 OA
HETATM    6  C8  UNL     1      18.254  30.241  10.814  1.00  0.00     0.182 C 
ENDROOT
BRANCH   6   7
HETATM    7  C9  UNL     1      17.845  30.540   9.407  1.00  0.00     0.180 C 
BRANCH   7   8
HETATM    8  O7  UNL     1      18.158  29.502   8.544  1.00  0.00    -0.390 OA
ATOM      9  H7  UNL     1      17.999  29.734   7.636  1.00  0.00     0.210 HD
ENDBRANCH   7   8
BRANCH   7  10
HETATM   10  C10 UNL     1      18.613  31.789   8.977  1.00  0.00     0.173 C 
BRANCH  10  11
HETATM   11  O8  UNL     1      18.488  32.727  10.016  1.00  0.00    -0.391 OA
ATOM     12  H8  UNL     1      19.210  33.337   9.929  1.00  0.00     0.210 HD
ENDBRANCH  10  11
BRANCH  10  13
HETATM   13  C11 UNL     1      17.992  32.386   7.736  1.00  0.00     0.198 C 
BRANCH  13  14
HETATM   14  O9  UNL     1      17.646  33.703   8.045  1.00  0.00    -0.398 OA
ATOM     15  H9  UNL     1      17.333  34.104   7.242  1.00  0.00     0.209 HD
ENDBRANCH  13  14
ENDBRANCH  10  13
ENDBRANCH   7  10
ENDBRANCH   6   7
BRANCH   1  16
HETATM   16  N1  UNL     1      16.174  28.970  11.160  1.00  0.00    -0.352 N 
HETATM   17  C2  UNL     1      15.494  27.724  11.101  1.00  0.00     0.214 C 
HETATM   18  C1  UNL     1      14.033  27.631  10.851  1.00  0.00     0.117 C 
HETATM   19  O1  UNL     1      16.119  26.644  11.262  1.00  0.00    -0.274 OA
ATOM     20  H1  UNL     1      15.649  29.834  11.027  1.00  0.00     0.163 HD
ENDBRANCH   1  16
BRANCH   2  21
HETATM   21  O2  UNL     1      17.286  28.081  13.601  1.00  0.00    -0.393 OA
ATOM     22  H2  UNL     1      17.011  28.355  14.468  1.00  0.00     0.210 HD
ENDBRANCH   2  21
BRANCH   4  23
HETATM   23  O3  UNL     1      19.378  31.361  12.824  1.00  0.00    -0.357 OA
ATOM     24  H3  UNL     1      19.632  32.111  12.298  1.00  0.00     0.213 HD
ENDBRANCH   4  23
BRANCH   4  25
HETATM   25  C7  UNL     1      21.429  30.240  12.450  1.00  0.00     0.238 C 
HETATM   26  O4  UNL     1      22.108  29.318  11.929  1.00  0.00    -0.644 OA
HETATM   27  O5  UNL     1      22.106  31.210  13.161  1.00  0.00    -0.644 OA
ENDBRANCH   4  25
TORSDOF 10
ENDMDL
