MODEL 2
REMARK VINA RESULT: -7.648074187      1.880      5.038
REMARK  10 active torsions:
REMARK  status: ('A' for Active; 'I' for Inactive)
REMARK       I    between atoms: C2_2  and  N1_4 
REMARK    1  A    between atoms: N1_4  and  C3_6 
REMARK    2  A    between atoms: C4_7  and  O2_8 
REMARK    3  A    between atoms: C6_11  and  O3_12 
REMARK    4  A    between atoms: C6_11  and  C7_14 
REMARK    5  A    between atoms: C8_18  and  C9_19 
REMARK    6  A    between atoms: C9_19  and  O7_20 
REMARK    7  A    between atoms: C9_19  and  C10_22 
REMARK    8  A    between atoms: C10_22  and  O8_23 
REMARK    9  A    between atoms: C10_22  and  C11_25 
REMARK   10  A    between atoms: C11_25  and  O9_26 
ROOT
HETATM    1  C3  UNL     1      16.681  29.079  10.422  1.00  0.00     0.145 C 
HETATM    2  C4  UNL     1      15.213  28.642  10.514  1.00  0.00     0.149 C 
HETATM    3  C5  UNL     1      15.222  27.386  11.382  1.00  0.00     0.114 C 
HETATM    4  C6  UNL     1      15.779  27.790  12.730  1.00  0.00     0.256 C 
HETATM    5  O6  UNL     1      17.116  28.181  12.537  1.00  0.00    -0.336 OA
HETATM    6  C8  UNL     1      17.108  29.361  11.828  1.00  0.00     0.182 C 
ENDROOT
BRANCH   6   7
HETATM    7  C9  UNL     1      18.423  30.066  11.941  1.00  0.00     0.180 C 
BRANCH   7   8
HETATM    8  O7  UNL     1      19.437  29.382  11.290  1.00  0.00    -0.390 OA
ATOM      9  H7  UNL     1      20.215  29.303  11.829  1.00  0.00     0.210 HD
ENDBRANCH   7   8
BRANCH   7  10
HETATM   10  C10 UNL     1      18.757  30.146  13.431  1.00  0.00     0.173 C 
BRANCH  10  11
HETATM   11  O8  UNL     1      18.236  31.362  13.904  1.00  0.00    -0.391 OA
ATOM     12  H8  UNL     1      17.336  31.199  14.160  1.00  0.00     0.210 HD
ENDBRANCH  10  11
BRANCH  10  13
HETATM   13  C11 UNL     1      20.254  30.174  13.631  1.00  0.00     0.198 C 
BRANCH  13  14
HETATM   14  O9  UNL     1      20.720  31.365  13.070  1.00  0.00    -0.398 OA
ATOM     15  H9  UNL     1      20.509  31.337  12.144  1.00  0.00     0.209 HD
ENDBRANCH  13  14
ENDBRANCH  10  13
ENDBRANCH   7  10
ENDBRANCH   6   7
BRANCH   1  16
HETATM   16  N1  UNL     1      16.849  30.190   9.525  1.00  0.00    -0.352 N 
HETATM   17  C2  UNL     1      17.912  30.223   8.582  1.00  0.00     0.214 C 
HETATM   18  C1  UNL     1      18.105  31.359   7.645  1.00  0.00     0.117 C 
HETATM   19  O1  UNL     1      18.736  29.275   8.512  1.00  0.00    -0.274 OA
ATOM     20  H1  UNL     1      16.192  30.969   9.566  1.00  0.00     0.163 HD
ENDBRANCH   1  16
BRANCH   2  21
HETATM   21  O2  UNL     1      14.654  28.427   9.284  1.00  0.00    -0.393 OA
ATOM     22  H2  UNL     1      13.826  27.963   9.337  1.00  0.00     0.210 HD
ENDBRANCH   2  21
BRANCH   4  23
HETATM   23  O3  UNL     1      15.014  28.853  13.213  1.00  0.00    -0.357 OA
ATOM     24  H3  UNL     1      14.231  28.495  13.614  1.00  0.00     0.213 HD
ENDBRANCH   4  23
BRANCH   4  25
HETATM   25  C7  UNL     1      15.685  26.620  13.623  1.00  0.00     0.238 C 
HETATM   26  O4  UNL     1      16.575  26.460  14.497  1.00  0.00    -0.644 OA
HETATM   27  O5  UNL     1      14.675  25.682  13.558  1.00  0.00    -0.644 OA
ENDBRANCH   4  25
TORSDOF 10
ENDMDL
