MODEL 4
REMARK VINA RESULT: -7.546894151      1.943      5.404
REMARK  10 active torsions:
REMARK  status: ('A' for Active; 'I' for Inactive)
REMARK       I    between atoms: C2_2  and  N1_4 
REMARK    1  A    between atoms: N1_4  and  C3_6 
REMARK    2  A    between atoms: C4_7  and  O2_8 
REMARK    3  A    between atoms: C6_11  and  O3_12 
REMARK    4  A    between atoms: C6_11  and  C7_14 
REMARK    5  A    between atoms: C8_18  and  C9_19 
REMARK    6  A    between atoms: C9_19  and  O7_20 
REMARK    7  A    between atoms: C9_19  and  C10_22 
REMARK    8  A    between atoms: C10_22  and  O8_23 
REMARK    9  A    between atoms: C10_22  and  C11_25 
REMARK   10  A    between atoms: C11_25  and  O9_26 
ROOT
HETATM    1  C3  UNL     1      16.759  28.789  10.632  1.00  0.00     0.145 C 
HETATM    2  C4  UNL     1      15.249  28.517  10.659  1.00  0.00     0.149 C 
HETATM    3  C5  UNL     1      15.110  27.078  11.150  1.00  0.00     0.114 C 
HETATM    4  C6  UNL     1      15.719  27.028  12.535  1.00  0.00     0.256 C 
HETATM    5  O6  UNL     1      17.092  27.299  12.404  1.00  0.00    -0.336 OA
HETATM    6  C8  UNL     1      17.226  28.621  12.044  1.00  0.00     0.182 C 
ENDROOT
BRANCH   6   7
HETATM    7  C9  UNL     1      18.617  29.111  12.294  1.00  0.00     0.180 C 
BRANCH   7   8
HETATM    8  O7  UNL     1      19.565  28.331  11.650  1.00  0.00    -0.390 OA
ATOM      9  H7  UNL     1      20.441  28.686  11.745  1.00  0.00     0.210 HD
ENDBRANCH   7   8
BRANCH   7  10
HETATM   10  C10 UNL     1      18.852  29.030  13.802  1.00  0.00     0.173 C 
BRANCH  10  11
HETATM   11  O8  UNL     1      17.608  29.232  14.423  1.00  0.00    -0.391 OA
ATOM     12  H8  UNL     1      17.505  28.544  15.070  1.00  0.00     0.210 HD
ENDBRANCH  10  11
BRANCH  10  13
HETATM   13  C11 UNL     1      19.777  30.138  14.248  1.00  0.00     0.198 C 
BRANCH  13  14
HETATM   14  O9  UNL     1      19.802  31.088  13.225  1.00  0.00    -0.398 OA
ATOM     15  H9  UNL     1      18.898  31.296  13.017  1.00  0.00     0.209 HD
ENDBRANCH  13  14
ENDBRANCH  10  13
ENDBRANCH   7  10
ENDBRANCH   6   7
BRANCH   1  16
HETATM   16  N1  UNL     1      17.057  30.076  10.066  1.00  0.00    -0.352 N 
HETATM   17  C2  UNL     1      18.116  30.245   9.133  1.00  0.00     0.214 C 
HETATM   18  C1  UNL     1      18.441  31.565   8.534  1.00  0.00     0.117 C 
HETATM   19  O1  UNL     1      18.822  29.265   8.780  1.00  0.00    -0.274 OA
ATOM     20  H1  UNL     1      16.497  30.884  10.339  1.00  0.00     0.163 HD
ENDBRANCH   1  16
BRANCH   2  21
HETATM   21  O2  UNL     1      14.661  28.715   9.439  1.00  0.00    -0.393 OA
ATOM     22  H2  UNL     1      13.820  28.280   9.367  1.00  0.00     0.210 HD
ENDBRANCH   2  21
BRANCH   4  23
HETATM   23  O3  UNL     1      15.093  27.999  13.318  1.00  0.00    -0.357 OA
ATOM     24  H3  UNL     1      15.696  28.258  14.004  1.00  0.00     0.213 HD
ENDBRANCH   4  23
BRANCH   4  25
HETATM   25  C7  UNL     1      15.488  25.677  13.078  1.00  0.00     0.238 C 
HETATM   26  O4  UNL     1      15.657  25.488  14.309  1.00  0.00    -0.644 OA
HETATM   27  O5  UNL     1      15.094  24.598  12.313  1.00  0.00    -0.644 OA
ENDBRANCH   4  25
TORSDOF 10
ENDMDL
