MODEL 1
REMARK VINA RESULT: -8.086209506      0.000      0.000
REMARK  10 active torsions:
REMARK  status: ('A' for Active; 'I' for Inactive)
REMARK       I    between atoms: C2_2  and  N1_4 
REMARK    1  A    between atoms: N1_4  and  C3_6 
REMARK    2  A    between atoms: C4_7  and  O2_8 
REMARK    3  A    between atoms: C6_11  and  O3_12 
REMARK    4  A    between atoms: C6_11  and  C7_14 
REMARK    5  A    between atoms: C8_18  and  C9_19 
REMARK    6  A    between atoms: C9_19  and  O7_20 
REMARK    7  A    between atoms: C9_19  and  C10_22 
REMARK    8  A    between atoms: C10_22  and  O8_23 
REMARK    9  A    between atoms: C10_22  and  C11_25 
REMARK   10  A    between atoms: C11_25  and  O9_26 
ROOT
HETATM    1  C3  UNL     1      20.991  24.341  39.936  1.00  0.00     0.145 C 
HETATM    2  C4  UNL     1      21.701  24.647  41.262  1.00  0.00     0.149 C 
HETATM    3  C5  UNL     1      22.505  25.918  41.002  1.00  0.00     0.114 C 
HETATM    4  C6  UNL     1      21.510  26.997  40.630  1.00  0.00     0.256 C 
HETATM    5  O6  UNL     1      20.909  26.620  39.416  1.00  0.00    -0.336 OA
HETATM    6  C8  UNL     1      20.115  25.523  39.665  1.00  0.00     0.182 C 
ENDROOT
BRANCH   6   7
HETATM    7  C9  UNL     1      19.124  25.314  38.563  1.00  0.00     0.180 C 
BRANCH   7   8
HETATM    8  O7  UNL     1      19.742  25.160  37.333  1.00  0.00    -0.390 OA
ATOM      9  H7  UNL     1      19.449  24.375  36.884  1.00  0.00     0.210 HD
ENDBRANCH   7   8
BRANCH   7  10
HETATM   10  C10 UNL     1      18.239  26.559  38.520  1.00  0.00     0.173 C 
BRANCH  10  11
HETATM   11  O8  UNL     1      17.942  26.899  39.851  1.00  0.00    -0.391 OA
ATOM     12  H8  UNL     1      17.863  27.845  39.886  1.00  0.00     0.210 HD
ENDBRANCH  10  11
BRANCH  10  13
HETATM   13  C11 UNL     1      16.936  26.252  37.820  1.00  0.00     0.198 C 
BRANCH  13  14
HETATM   14  O9  UNL     1      15.914  26.797  38.598  1.00  0.00    -0.398 OA
ATOM     15  H9  UNL     1      15.092  26.571  38.178  1.00  0.00     0.209 HD
ENDBRANCH  13  14
ENDBRANCH  10  13
ENDBRANCH   7  10
ENDBRANCH   6   7
BRANCH   1  16
HETATM   16  N1  UNL     1      20.286  23.089  39.989  1.00  0.00    -0.352 N 
HETATM   17  C2  UNL     1      20.890  21.883  39.543  1.00  0.00     0.214 C 
HETATM   18  C1  UNL     1      20.181  20.578  39.588  1.00  0.00     0.117 C 
HETATM   19  O1  UNL     1      22.063  21.883  39.088  1.00  0.00    -0.274 OA
ATOM     20  H1  UNL     1      19.333  23.067  40.353  1.00  0.00     0.163 HD
ENDBRANCH   1  16
BRANCH   2  21
HETATM   21  O2  UNL     1      22.484  23.608  41.687  1.00  0.00    -0.393 OA
ATOM     22  H2  UNL     1      22.628  23.623  42.626  1.00  0.00     0.210 HD
ENDBRANCH   2  21
BRANCH   4  23
HETATM   23  O3  UNL     1      20.561  27.079  41.650  1.00  0.00    -0.357 OA
ATOM     24  H3  UNL     1      19.698  27.074  41.252  1.00  0.00     0.213 HD
ENDBRANCH   4  23
BRANCH   4  25
HETATM   25  C7  UNL     1      22.252  28.263  40.492  1.00  0.00     0.238 C 
HETATM   26  O4  UNL     1      21.954  29.219  41.252  1.00  0.00    -0.644 OA
HETATM   27  O5  UNL     1      23.260  28.467  39.572  1.00  0.00    -0.644 OA
ENDBRANCH   4  25
TORSDOF 10
ENDMDL
