MODEL 7
REMARK VINA RESULT: -7.489180317      2.182      5.658
REMARK  10 active torsions:
REMARK  status: ('A' for Active; 'I' for Inactive)
REMARK       I    between atoms: C2_2  and  N1_4 
REMARK    1  A    between atoms: N1_4  and  C3_6 
REMARK    2  A    between atoms: C4_7  and  O2_8 
REMARK    3  A    between atoms: C6_11  and  O3_12 
REMARK    4  A    between atoms: C6_11  and  C7_14 
REMARK    5  A    between atoms: C8_18  and  C9_19 
REMARK    6  A    between atoms: C9_19  and  O7_20 
REMARK    7  A    between atoms: C9_19  and  C10_22 
REMARK    8  A    between atoms: C10_22  and  O8_23 
REMARK    9  A    between atoms: C10_22  and  C11_25 
REMARK   10  A    between atoms: C11_25  and  O9_26 
ROOT
HETATM    1  C3  UNL     1      20.979  23.998  40.035  1.00  0.00     0.145 C 
HETATM    2  C4  UNL     1      20.310  22.624  39.893  1.00  0.00     0.149 C 
HETATM    3  C5  UNL     1      21.444  21.658  39.560  1.00  0.00     0.114 C 
HETATM    4  C6  UNL     1      22.410  21.700  40.725  1.00  0.00     0.256 C 
HETATM    5  O6  UNL     1      22.957  22.994  40.776  1.00  0.00    -0.336 OA
HETATM    6  C8  UNL     1      21.956  23.857  41.160  1.00  0.00     0.182 C 
ENDROOT
BRANCH   6   7
HETATM    7  C9  UNL     1      22.520  25.153  41.649  1.00  0.00     0.180 C 
BRANCH   7   8
HETATM    8  O7  UNL     1      23.822  25.350  41.216  1.00  0.00    -0.390 OA
ATOM      9  H7  UNL     1      24.273  26.006  41.734  1.00  0.00     0.210 HD
ENDBRANCH   7   8
BRANCH   7  10
HETATM   10  C10 UNL     1      22.510  25.093  43.177  1.00  0.00     0.173 C 
BRANCH  10  11
HETATM   11  O8  UNL     1      22.981  23.821  43.542  1.00  0.00    -0.391 OA
ATOM     12  H8  UNL     1      22.562  23.594  44.363  1.00  0.00     0.210 HD
ENDBRANCH  10  11
BRANCH  10  13
HETATM   13  C11 UNL     1      21.099  25.232  43.697  1.00  0.00     0.198 C 
BRANCH  13  14
HETATM   14  O9  UNL     1      20.523  26.318  43.035  1.00  0.00    -0.398 OA
ATOM     15  H9  UNL     1      19.727  26.003  42.624  1.00  0.00     0.209 HD
ENDBRANCH  13  14
ENDBRANCH  10  13
ENDBRANCH   7  10
ENDBRANCH   6   7
BRANCH   1  16
HETATM   16  N1  UNL     1      20.011  25.043  40.228  1.00  0.00    -0.352 N 
HETATM   17  C2  UNL     1      19.518  25.803  39.134  1.00  0.00     0.214 C 
HETATM   18  C1  UNL     1      18.517  26.887  39.308  1.00  0.00     0.117 C 
HETATM   19  O1  UNL     1      19.921  25.578  37.963  1.00  0.00    -0.274 OA
ATOM     20  H1  UNL     1      19.671  25.242  41.169  1.00  0.00     0.163 HD
ENDBRANCH   1  16
BRANCH   2  21
HETATM   21  O2  UNL     1      19.321  22.620  38.948  1.00  0.00    -0.393 OA
ATOM     22  H2  UNL     1      18.983  21.748  38.780  1.00  0.00     0.210 HD
ENDBRANCH   2  21
BRANCH   4  23
HETATM   23  O3  UNL     1      21.695  21.416  41.890  1.00  0.00    -0.357 OA
ATOM     24  H3  UNL     1      22.267  20.935  42.477  1.00  0.00     0.213 HD
ENDBRANCH   4  23
BRANCH   4  25
HETATM   25  C7  UNL     1      23.451  20.685  40.480  1.00  0.00     0.238 C 
HETATM   26  O4  UNL     1      24.251  20.410  41.411  1.00  0.00    -0.644 OA
HETATM   27  O5  UNL     1      23.605  20.014  39.284  1.00  0.00    -0.644 OA
ENDBRANCH   4  25
TORSDOF 10
ENDMDL
