MODEL 9
REMARK VINA RESULT: -7.447483814      1.812      4.805
REMARK  10 active torsions:
REMARK  status: ('A' for Active; 'I' for Inactive)
REMARK       I    between atoms: C2_2  and  N1_4 
REMARK    1  A    between atoms: N1_4  and  C3_6 
REMARK    2  A    between atoms: C4_7  and  O2_8 
REMARK    3  A    between atoms: C6_11  and  O3_12 
REMARK    4  A    between atoms: C6_11  and  C7_14 
REMARK    5  A    between atoms: C8_18  and  C9_19 
REMARK    6  A    between atoms: C9_19  and  O7_20 
REMARK    7  A    between atoms: C9_19  and  C10_22 
REMARK    8  A    between atoms: C10_22  and  O8_23 
REMARK    9  A    between atoms: C10_22  and  C11_25 
REMARK   10  A    between atoms: C11_25  and  O9_26 
ROOT
HETATM    1  C3  UNL     1      20.653  25.198  40.556  1.00  0.00     0.145 C 
HETATM    2  C4  UNL     1      21.852  26.156  40.557  1.00  0.00     0.149 C 
HETATM    3  C5  UNL     1      22.405  26.103  41.978  1.00  0.00     0.114 C 
HETATM    4  C6  UNL     1      22.825  24.671  42.231  1.00  0.00     0.256 C 
HETATM    5  O6  UNL     1      21.664  23.877  42.200  1.00  0.00    -0.336 OA
HETATM    6  C8  UNL     1      21.210  23.852  40.900  1.00  0.00     0.182 C 
ENDROOT
BRANCH   6   7
HETATM    7  C9  UNL     1      20.258  22.719  40.684  1.00  0.00     0.180 C 
BRANCH   7   8
HETATM    8  O7  UNL     1      19.523  22.434  41.823  1.00  0.00    -0.390 OA
ATOM      9  H7  UNL     1      18.750  21.917  41.627  1.00  0.00     0.210 HD
ENDBRANCH   7   8
BRANCH   7  10
HETATM   10  C10 UNL     1      21.099  21.496  40.318  1.00  0.00     0.173 C 
BRANCH  10  11
HETATM   11  O8  UNL     1      22.334  21.972  39.847  1.00  0.00    -0.391 OA
ATOM     12  H8  UNL     1      22.916  22.026  40.595  1.00  0.00     0.210 HD
ENDBRANCH  10  11
BRANCH  10  13
HETATM   13  C11 UNL     1      20.442  20.725  39.198  1.00  0.00     0.198 C 
BRANCH  13  14
HETATM   14  O9  UNL     1      19.268  21.405  38.865  1.00  0.00    -0.398 OA
ATOM     15  H9  UNL     1      19.323  21.620  37.942  1.00  0.00     0.209 HD
ENDBRANCH  13  14
ENDBRANCH  10  13
ENDBRANCH   7  10
ENDBRANCH   6   7
BRANCH   1  16
HETATM   16  N1  UNL     1      19.945  25.235  39.305  1.00  0.00    -0.352 N 
HETATM   17  C2  UNL     1      18.907  26.178  39.073  1.00  0.00     0.214 C 
HETATM   18  C1  UNL     1      18.162  26.236  37.789  1.00  0.00     0.117 C 
HETATM   19  O1  UNL     1      18.582  27.006  39.963  1.00  0.00    -0.274 OA
ATOM     20  H1  UNL     1      20.192  24.573  38.570  1.00  0.00     0.163 HD
ENDBRANCH   1  16
BRANCH   2  21
HETATM   21  O2  UNL     1      21.508  27.424  40.173  1.00  0.00    -0.393 OA
ATOM     22  H2  UNL     1      20.567  27.538  40.102  1.00  0.00     0.210 HD
ENDBRANCH   2  21
BRANCH   4  23
HETATM   23  O3  UNL     1      23.712  24.295  41.222  1.00  0.00    -0.357 OA
ATOM     24  H3  UNL     1      24.408  24.942  41.185  1.00  0.00     0.213 HD
ENDBRANCH   4  23
BRANCH   4  25
HETATM   25  C7  UNL     1      23.473  24.621  43.555  1.00  0.00     0.238 C 
HETATM   26  O4  UNL     1      24.619  24.110  43.642  1.00  0.00    -0.644 OA
HETATM   27  O5  UNL     1      22.897  25.102  44.712  1.00  0.00    -0.644 OA
ENDBRANCH   4  25
TORSDOF 10
ENDMDL
