MODEL 10
REMARK VINA RESULT: -7.446236902      2.958      6.019
REMARK  10 active torsions:
REMARK  status: ('A' for Active; 'I' for Inactive)
REMARK       I    between atoms: C2_2  and  N1_4 
REMARK    1  A    between atoms: N1_4  and  C3_6 
REMARK    2  A    between atoms: C4_7  and  O2_8 
REMARK    3  A    between atoms: C6_11  and  O3_12 
REMARK    4  A    between atoms: C6_11  and  C7_14 
REMARK    5  A    between atoms: C8_18  and  C9_19 
REMARK    6  A    between atoms: C9_19  and  O7_20 
REMARK    7  A    between atoms: C9_19  and  C10_22 
REMARK    8  A    between atoms: C10_22  and  O8_23 
REMARK    9  A    between atoms: C10_22  and  C11_25 
REMARK   10  A    between atoms: C11_25  and  O9_26 
ROOT
HETATM    1  C3  UNL     1      22.344  24.295  40.558  1.00  0.00     0.145 C 
HETATM    2  C4  UNL     1      21.711  23.393  39.489  1.00  0.00     0.149 C 
HETATM    3  C5  UNL     1      22.613  22.164  39.416  1.00  0.00     0.114 C 
HETATM    4  C6  UNL     1      22.588  21.522  40.787  1.00  0.00     0.256 C 
HETATM    5  O6  UNL     1      23.176  22.425  41.690  1.00  0.00    -0.336 OA
HETATM    6  C8  UNL     1      22.324  23.498  41.824  1.00  0.00     0.182 C 
ENDROOT
BRANCH   6   7
HETATM    7  C9  UNL     1      22.641  24.289  43.053  1.00  0.00     0.180 C 
BRANCH   7   8
HETATM    8  O7  UNL     1      23.768  23.809  43.702  1.00  0.00    -0.390 OA
ATOM      9  H7  UNL     1      24.557  23.943  43.190  1.00  0.00     0.210 HD
ENDBRANCH   7   8
BRANCH   7  10
HETATM   10  C10 UNL     1      21.439  24.159  43.987  1.00  0.00     0.173 C 
BRANCH  10  11
HETATM   11  O8  UNL     1      20.691  23.055  43.545  1.00  0.00    -0.391 OA
ATOM     12  H8  UNL     1      20.435  22.565  44.317  1.00  0.00     0.210 HD
ENDBRANCH  10  11
BRANCH  10  13
HETATM   13  C11 UNL     1      20.561  25.384  43.885  1.00  0.00     0.198 C 
BRANCH  13  14
HETATM   14  O9  UNL     1      19.496  25.055  43.043  1.00  0.00    -0.398 OA
ATOM     15  H9  UNL     1      18.790  24.744  43.597  1.00  0.00     0.209 HD
ENDBRANCH  13  14
ENDBRANCH  10  13
ENDBRANCH   7  10
ENDBRANCH   6   7
BRANCH   1  16
HETATM   16  N1  UNL     1      21.670  25.561  40.651  1.00  0.00    -0.352 N 
HETATM   17  C2  UNL     1      22.314  26.770  40.273  1.00  0.00     0.214 C 
HETATM   18  C1  UNL     1      21.637  28.089  40.361  1.00  0.00     0.117 C 
HETATM   19  O1  UNL     1      23.497  26.760  39.846  1.00  0.00    -0.274 OA
ATOM     20  H1  UNL     1      20.711  25.592  40.996  1.00  0.00     0.163 HD
ENDBRANCH   1  16
BRANCH   2  21
HETATM   21  O2  UNL     1      21.584  24.025  38.282  1.00  0.00    -0.393 OA
ATOM     22  H2  UNL     1      21.114  23.499  37.645  1.00  0.00     0.210 HD
ENDBRANCH   2  21
BRANCH   4  23
HETATM   23  O3  UNL     1      21.256  21.277  41.125  1.00  0.00    -0.357 OA
ATOM     24  H3  UNL     1      21.245  20.682  41.867  1.00  0.00     0.213 HD
ENDBRANCH   4  23
BRANCH   4  25
HETATM   25  C7  UNL     1      23.356  20.265  40.708  1.00  0.00     0.238 C 
HETATM   26  O4  UNL     1      23.619  19.655  41.775  1.00  0.00    -0.644 OA
HETATM   27  O5  UNL     1      23.808  19.714  39.526  1.00  0.00    -0.644 OA
ENDBRANCH   4  25
TORSDOF 10
ENDMDL
