MODEL 1
REMARK VINA RESULT: -7.306226211      0.000      0.000
REMARK  8 active torsions:
REMARK  status: ('A' for Active; 'I' for Inactive)
REMARK    1  A    between atoms: P1_2  and  O3_5 
REMARK    2  A    between atoms: O3_5  and  P2_6 
REMARK    3  A    between atoms: P2_6  and  O6_9 
REMARK    4  A    between atoms: O6_9  and  C2_10 
REMARK    5  A    between atoms: C2_10  and  C3_11 
REMARK    6  A    between atoms: C4_13  and  N1_14 
REMARK    7  A    between atoms: C10_27  and  O8_28 
REMARK    8  A    between atoms: C11_30  and  O9_31 
ROOT
HETATM    1  C3  UNL     1      -5.955 -43.169  30.915  1.00  0.00     0.180 C 
HETATM    2  O7  UNL     1      -7.343 -43.041  30.906  1.00  0.00    -0.353 OA
HETATM    3  C4  UNL     1      -7.624 -42.979  32.267  1.00  0.00     0.262 C 
HETATM    4  C10 UNL     1      -6.865 -44.139  32.861  1.00  0.00     0.198 C 
HETATM    5  C11 UNL     1      -5.773 -44.370  31.843  1.00  0.00     0.182 C 
ENDROOT
BRANCH   3   6
HETATM    6  N1  UNL     1      -9.024 -43.003  32.561  1.00  0.00    -0.297 N 
HETATM    7  C5  UNL     1     -10.013 -43.256  31.668  1.00  0.00     0.188 A 
HETATM    8  N2  UNL     1     -11.194 -43.196  32.290  1.00  0.00    -0.346 N 
HETATM    9  C6  UNL     1     -10.994 -42.907  33.578  1.00  0.00     0.119 A 
ATOM     10  H2  UNL     1     -12.102 -43.346  31.851  1.00  0.00     0.167 HD
HETATM   11  C7  UNL     1     -11.853 -42.731  34.647  1.00  0.00     0.148 A 
HETATM   12  C9  UNL     1      -9.630 -42.789  33.730  1.00  0.00     0.142 A 
HETATM   13  N3  UNL     1     -13.232 -42.862  34.430  1.00  0.00    -0.080 NA
HETATM   14  N4  UNL     1     -11.287 -42.441  35.832  1.00  0.00    -0.339 N 
HETATM   15  C8  UNL     1      -9.951 -42.324  35.988  1.00  0.00     0.183 A 
ATOM     16  H4  UNL     1     -11.890 -42.305  36.644  1.00  0.00     0.167 HD
HETATM   17  N5  UNL     1      -9.114 -42.497  34.944  1.00  0.00    -0.336 N 
ATOM     18  H5  UNL     1      -8.105 -42.409  35.070  1.00  0.00     0.168 HD
ENDBRANCH   3   6
BRANCH   4  19
HETATM   19  O8  UNL     1      -6.316 -43.710  34.087  1.00  0.00    -0.388 OA
ATOM     20  H8  UNL     1      -6.560 -44.346  34.750  1.00  0.00     0.210 HD
ENDBRANCH   4  19
BRANCH   1  21
HETATM   21  C2  UNL     1      -5.402 -43.525  29.568  1.00  0.00     0.216 C 
BRANCH  21  22
HETATM   22  O6  UNL     1      -4.077 -43.232  29.410  1.00  0.00    -0.287 OA
BRANCH  22  23
HETATM   23  P2  UNL     1      -3.680 -41.777  28.816  1.00  0.00     0.416 P 
HETATM   24  O4  UNL     1      -4.470 -40.399  29.472  1.00  0.00    -0.624 OA
HETATM   25  O5  UNL     1      -2.637 -41.542  27.607  1.00  0.00    -0.624 OA
BRANCH  23  26
HETATM   26  O3  UNL     1      -2.643 -41.571  29.928  1.00  0.00    -0.204 OA
BRANCH  26  27
HETATM   27  P1  UNL     1      -1.453 -42.397  30.395  1.00  0.00     0.255 P 
HETATM   28  C1  UNL     1      -1.458 -43.658  29.227  1.00  0.00     0.154 C 
HETATM   29  O1  UNL     1      -0.477 -41.050  30.185  1.00  0.00    -0.646 OA
HETATM   30  O2  UNL     1      -2.220 -42.577  31.863  1.00  0.00    -0.646 OA
ENDBRANCH  26  27
ENDBRANCH  23  26
ENDBRANCH  22  23
ENDBRANCH  21  22
ENDBRANCH   1  21
BRANCH   5  31
HETATM   31  O9  UNL     1      -4.509 -44.342  32.425  1.00  0.00    -0.390 OA
ATOM     32  H9  UNL     1      -4.098 -45.196  32.360  1.00  0.00     0.210 HD
ENDBRANCH   5  31
TORSDOF 8
ENDMDL
