MODEL 20
REMARK VINA RESULT: -6.635588047      3.820      5.481
REMARK  8 active torsions:
REMARK  status: ('A' for Active; 'I' for Inactive)
REMARK    1  A    between atoms: P1_2  and  O3_5 
REMARK    2  A    between atoms: O3_5  and  P2_6 
REMARK    3  A    between atoms: P2_6  and  O6_9 
REMARK    4  A    between atoms: O6_9  and  C2_10 
REMARK    5  A    between atoms: C2_10  and  C3_11 
REMARK    6  A    between atoms: C4_13  and  N1_14 
REMARK    7  A    between atoms: C10_27  and  O8_28 
REMARK    8  A    between atoms: C11_30  and  O9_31 
ROOT
HETATM    1  C3  UNL     1      -9.279 -43.364  29.751  1.00  0.00     0.180 C 
HETATM    2  O7  UNL     1      -9.495 -43.356  31.129  1.00  0.00    -0.353 OA
HETATM    3  C4  UNL     1      -8.242 -42.979  31.603  1.00  0.00     0.262 C 
HETATM    4  C10 UNL     1      -7.278 -43.887  30.882  1.00  0.00     0.198 C 
HETATM    5  C11 UNL     1      -8.056 -44.275  29.646  1.00  0.00     0.182 C 
ENDROOT
BRANCH   3   6
HETATM    6  N1  UNL     1      -8.129 -43.043  33.028  1.00  0.00    -0.297 N 
HETATM    7  C5  UNL     1      -7.010 -43.382  33.716  1.00  0.00     0.188 A 
HETATM    8  N2  UNL     1      -7.268 -43.337  35.026  1.00  0.00    -0.346 N 
HETATM    9  C6  UNL     1      -8.539 -42.972  35.208  1.00  0.00     0.119 A 
ATOM     10  H2  UNL     1      -6.600 -43.547  35.768  1.00  0.00     0.167 HD
HETATM   11  C7  UNL     1      -9.308 -42.773  36.338  1.00  0.00     0.148 A 
HETATM   12  C9  UNL     1      -9.063 -42.792  33.946  1.00  0.00     0.142 A 
HETATM   13  N3  UNL     1      -8.719 -42.972  37.595  1.00  0.00    -0.080 NA
HETATM   14  N4  UNL     1     -10.585 -42.398  36.140  1.00  0.00    -0.339 N 
HETATM   15  C8  UNL     1     -11.104 -42.221  34.906  1.00  0.00     0.183 A 
ATOM     16  H4  UNL     1     -11.182 -42.242  36.952  1.00  0.00     0.167 HD
HETATM   17  N5  UNL     1     -10.352 -42.414  33.804  1.00  0.00    -0.336 N 
ATOM     18  H5  UNL     1     -10.751 -42.277  32.875  1.00  0.00     0.168 HD
ENDBRANCH   3   6
BRANCH   4  19
HETATM   19  O8  UNL     1      -6.146 -43.122  30.533  1.00  0.00    -0.388 OA
ATOM     20  H8  UNL     1      -5.455 -43.725  30.285  1.00  0.00     0.210 HD
ENDBRANCH   4  19
BRANCH   1  21
HETATM   21  C2  UNL     1     -10.409 -43.998  28.997  1.00  0.00     0.216 C 
BRANCH  21  22
HETATM   22  O6  UNL     1     -10.014 -44.921  28.070  1.00  0.00    -0.287 OA
BRANCH  22  23
HETATM   23  P2  UNL     1     -10.525 -44.737  26.542  1.00  0.00     0.416 P 
HETATM   24  O4  UNL     1     -11.404 -43.311  26.156  1.00  0.00    -0.624 OA
HETATM   25  O5  UNL     1     -10.318 -45.833  25.376  1.00  0.00    -0.624 OA
BRANCH  23  26
HETATM   26  O3  UNL     1      -9.273 -43.925  26.187  1.00  0.00    -0.204 OA
BRANCH  26  27
HETATM   27  P1  UNL     1      -8.165 -44.132  25.164  1.00  0.00     0.255 P 
HETATM   28  C1  UNL     1      -9.068 -44.105  23.701  1.00  0.00     0.154 C 
HETATM   29  O1  UNL     1      -7.426 -42.738  25.731  1.00  0.00    -0.646 OA
HETATM   30  O2  UNL     1      -7.800 -45.568  25.926  1.00  0.00    -0.646 OA
ENDBRANCH  26  27
ENDBRANCH  23  26
ENDBRANCH  22  23
ENDBRANCH  21  22
ENDBRANCH   1  21
BRANCH   5  31
HETATM   31  O9  UNL     1      -7.349 -43.998  28.481  1.00  0.00    -0.390 OA
ATOM     32  H9  UNL     1      -6.884 -44.773  28.186  1.00  0.00     0.210 HD
ENDBRANCH   5  31
TORSDOF 8
ENDMDL
