MODEL 17
REMARK VINA RESULT: -6.699787778      9.425     11.377
REMARK  8 active torsions:
REMARK  status: ('A' for Active; 'I' for Inactive)
REMARK    1  A    between atoms: P1_2  and  O3_5 
REMARK    2  A    between atoms: O3_5  and  P2_6 
REMARK    3  A    between atoms: P2_6  and  O6_9 
REMARK    4  A    between atoms: O6_9  and  C2_10 
REMARK    5  A    between atoms: C2_10  and  C3_11 
REMARK    6  A    between atoms: C4_13  and  N1_14 
REMARK    7  A    between atoms: C10_27  and  O8_28 
REMARK    8  A    between atoms: C11_30  and  O9_31 
ROOT
HETATM    1  C3  UNL     1      -3.651 -41.667  23.496  1.00  0.00     0.180 C 
HETATM    2  O7  UNL     1      -2.314 -41.540  23.871  1.00  0.00    -0.353 OA
HETATM    3  C4  UNL     1      -1.702 -42.466  23.032  1.00  0.00     0.262 C 
HETATM    4  C10 UNL     1      -2.530 -43.717  23.184  1.00  0.00     0.198 C 
HETATM    5  C11 UNL     1      -3.862 -43.173  23.647  1.00  0.00     0.182 C 
ENDROOT
BRANCH   3   6
HETATM    6  N1  UNL     1      -0.314 -42.662  23.317  1.00  0.00    -0.297 N 
HETATM    7  C5  UNL     1       0.412 -43.758  22.984  1.00  0.00     0.188 A 
HETATM    8  N2  UNL     1       1.670 -43.598  23.405  1.00  0.00    -0.346 N 
HETATM    9  C6  UNL     1       1.780 -42.413  24.009  1.00  0.00     0.119 A 
ATOM     10  H2  UNL     1       2.424 -44.274  23.284  1.00  0.00     0.167 HD
HETATM   11  C7  UNL     1       2.837 -41.760  24.613  1.00  0.00     0.148 A 
HETATM   12  C9  UNL     1       0.528 -41.840  23.944  1.00  0.00     0.142 A 
HETATM   13  N3  UNL     1       4.087 -42.394  24.649  1.00  0.00    -0.080 NA
HETATM   14  N4  UNL     1       2.578 -40.545  25.131  1.00  0.00    -0.339 N 
HETATM   15  C8  UNL     1       1.353 -39.979  25.071  1.00  0.00     0.183 A 
ATOM     16  H4  UNL     1       3.334 -40.034  25.585  1.00  0.00     0.167 HD
HETATM   17  N5  UNL     1       0.323 -40.617  24.480  1.00  0.00    -0.336 N 
ATOM     18  H5  UNL     1      -0.599 -40.182  24.437  1.00  0.00     0.168 HD
ENDBRANCH   3   6
BRANCH   4  19
HETATM   19  O8  UNL     1      -2.653 -44.308  21.910  1.00  0.00    -0.388 OA
ATOM     20  H8  UNL     1      -1.851 -44.134  21.432  1.00  0.00     0.210 HD
ENDBRANCH   4  19
BRANCH   1  21
HETATM   21  C2  UNL     1      -4.581 -40.962  24.437  1.00  0.00     0.216 C 
BRANCH  21  22
HETATM   22  O6  UNL     1      -4.465 -39.602  24.426  1.00  0.00    -0.287 OA
BRANCH  22  23
HETATM   23  P2  UNL     1      -4.963 -38.780  25.731  1.00  0.00     0.416 P 
HETATM   24  O4  UNL     1      -5.933 -39.612  26.882  1.00  0.00    -0.624 OA
HETATM   25  O5  UNL     1      -4.661 -37.216  25.992  1.00  0.00    -0.624 OA
BRANCH  23  26
HETATM   26  O3  UNL     1      -3.765 -39.285  26.546  1.00  0.00    -0.204 OA
BRANCH  26  27
HETATM   27  P1  UNL     1      -2.373 -38.720  26.792  1.00  0.00     0.255 P 
HETATM   28  C1  UNL     1      -2.146 -37.789  25.365  1.00  0.00     0.154 C 
HETATM   29  O1  UNL     1      -2.948 -37.999  28.192  1.00  0.00    -0.646 OA
HETATM   30  O2  UNL     1      -1.813 -40.285  26.899  1.00  0.00    -0.646 OA
ENDBRANCH  26  27
ENDBRANCH  23  26
ENDBRANCH  22  23
ENDBRANCH  21  22
ENDBRANCH   1  21
BRANCH   5  31
HETATM   31  O9  UNL     1      -4.906 -43.598  22.832  1.00  0.00    -0.390 OA
ATOM     32  H9  UNL     1      -5.356 -44.334  23.230  1.00  0.00     0.210 HD
ENDBRANCH   5  31
TORSDOF 8
ENDMDL
