MODEL 10
REMARK VINA RESULT: -6.895945831      4.860      7.535
REMARK  8 active torsions:
REMARK  status: ('A' for Active; 'I' for Inactive)
REMARK    1  A    between atoms: P1_2  and  O3_5 
REMARK    2  A    between atoms: O3_5  and  P2_6 
REMARK    3  A    between atoms: P2_6  and  O6_9 
REMARK    4  A    between atoms: O6_9  and  C2_10 
REMARK    5  A    between atoms: C2_10  and  C3_11 
REMARK    6  A    between atoms: C4_13  and  N1_14 
REMARK    7  A    between atoms: C10_27  and  O8_28 
REMARK    8  A    between atoms: C11_30  and  O9_31 
ROOT
HETATM    1  C3  UNL     1      -9.953 -44.364  29.812  1.00  0.00     0.180 C 
HETATM    2  O7  UNL     1     -10.012 -44.222  31.198  1.00  0.00    -0.353 OA
HETATM    3  C4  UNL     1      -8.873 -43.463  31.447  1.00  0.00     0.262 C 
HETATM    4  C10 UNL     1      -7.776 -44.173  30.695  1.00  0.00     0.198 C 
HETATM    5  C11 UNL     1      -8.541 -44.922  29.630  1.00  0.00     0.182 C 
ENDROOT
BRANCH   3   6
HETATM    6  N1  UNL     1      -8.594 -43.295  32.840  1.00  0.00    -0.297 N 
HETATM    7  C5  UNL     1      -7.382 -43.457  33.427  1.00  0.00     0.188 A 
HETATM    8  N2  UNL     1      -7.491 -43.220  34.737  1.00  0.00    -0.346 N 
HETATM    9  C6  UNL     1      -8.757 -42.903  35.018  1.00  0.00     0.119 A 
ATOM     10  H2  UNL     1      -6.729 -43.272  35.413  1.00  0.00     0.167 HD
HETATM   11  C7  UNL     1      -9.405 -42.573  36.193  1.00  0.00     0.148 A 
HETATM   12  C9  UNL     1      -9.434 -42.955  33.819  1.00  0.00     0.142 A 
HETATM   13  N3  UNL     1      -8.663 -42.538  37.383  1.00  0.00    -0.080 NA
HETATM   14  N4  UNL     1     -10.721 -42.307  36.102  1.00  0.00    -0.339 N 
HETATM   15  C8  UNL     1     -11.389 -42.357  34.929  1.00  0.00     0.183 A 
ATOM     16  H4  UNL     1     -11.232 -42.059  36.949  1.00  0.00     0.167 HD
HETATM   17  N5  UNL     1     -10.755 -42.679  33.783  1.00  0.00    -0.336 N 
ATOM     18  H5  UNL     1     -11.267 -42.713  32.901  1.00  0.00     0.168 HD
ENDBRANCH   3   6
BRANCH   4  19
HETATM   19  O8  UNL     1      -6.950 -43.190  30.111  1.00  0.00    -0.388 OA
ATOM     20  H8  UNL     1      -7.414 -42.830  29.364  1.00  0.00     0.210 HD
ENDBRANCH   4  19
BRANCH   1  21
HETATM   21  C2  UNL     1     -10.932 -45.376  29.296  1.00  0.00     0.216 C 
BRANCH  21  22
HETATM   22  O6  UNL     1     -12.174 -44.871  29.036  1.00  0.00    -0.287 OA
BRANCH  22  23
HETATM   23  P2  UNL     1     -13.447 -45.867  29.166  1.00  0.00     0.416 P 
HETATM   24  O4  UNL     1     -13.254 -47.301  30.095  1.00  0.00    -0.624 OA
HETATM   25  O5  UNL     1     -14.864 -45.632  28.430  1.00  0.00    -0.624 OA
BRANCH  23  26
HETATM   26  O3  UNL     1     -13.870 -45.206  30.484  1.00  0.00    -0.204 OA
BRANCH  26  27
HETATM   27  P1  UNL     1     -14.437 -43.832  30.814  1.00  0.00     0.255 P 
HETATM   28  C1  UNL     1     -14.501 -43.125  29.248  1.00  0.00     0.154 C 
HETATM   29  O1  UNL     1     -15.789 -44.581  31.463  1.00  0.00    -0.646 OA
HETATM   30  O2  UNL     1     -13.128 -43.590  31.816  1.00  0.00    -0.646 OA
ENDBRANCH  26  27
ENDBRANCH  23  26
ENDBRANCH  22  23
ENDBRANCH  21  22
ENDBRANCH   1  21
BRANCH   5  31
HETATM   31  O9  UNL     1      -8.070 -44.633  28.353  1.00  0.00    -0.390 OA
ATOM     32  H9  UNL     1      -8.634 -45.025  27.697  1.00  0.00     0.210 HD
ENDBRANCH   5  31
TORSDOF 8
ENDMDL
