MODEL 18
REMARK VINA RESULT: -5.764661370      2.316      4.669
REMARK  6 active torsions:
REMARK  status: ('A' for Active; 'I' for Inactive)
REMARK    1  A    between atoms: C4_6  and  N2_7 
REMARK    2  A    between atoms: N3_10  and  C5_11 
REMARK    3  A    between atoms: C5_11  and  C6_12 
REMARK    4  A    between atoms: C6_12  and  N4_13 
REMARK    5  A    between atoms: N4_13  and  S1_15 
REMARK    6  A    between atoms: S1_15  and  N5_16 
ROOT
HETATM    1  C1  UNL     1      -5.855   5.136  15.065  1.00  0.00     0.089 C 
HETATM    2  C2  UNL     1      -4.875   4.777  14.001  1.00  0.00     0.081 A 
HETATM    3  N1  UNL     1      -4.121   5.697  13.378  1.00  0.00    -0.352 N 
ATOM      4  H1  UNL     1      -4.146   6.699  13.567  1.00  0.00     0.166 HD
HETATM    5  C3  UNL     1      -3.337   5.105  12.477  1.00  0.00     0.144 A 
HETATM    6  C4  UNL     1      -3.610   3.756  12.537  1.00  0.00     0.193 A 
HETATM    7  N3  UNL     1      -4.572   3.569  13.493  1.00  0.00    -0.315 N 
ENDROOT
BRANCH   7   8
HETATM    8  C5  UNL     1      -5.169   2.344  13.906  1.00  0.00     0.152 C 
BRANCH   8   9
HETATM    9  C6  UNL     1      -4.356   1.558  14.896  1.00  0.00     0.154 C 
BRANCH   9  10
HETATM   10  N4  UNL     1      -4.546   1.972  16.258  1.00  0.00    -0.301 N 
ATOM     11  H4  UNL     1      -4.123   2.782  16.710  1.00  0.00     0.173 HD
BRANCH  10  12
HETATM   12  S1  UNL     1      -5.636   0.831  16.991  1.00  0.00     0.312 S 
HETATM   13  O3  UNL     1      -5.430  -0.519  16.354  1.00  0.00    -0.183 OA
HETATM   14  O4  UNL     1      -5.290   0.740  18.436  1.00  0.00    -0.183 OA
BRANCH  12  15
HETATM   15  N5  UNL     1      -7.264   1.277  16.814  1.00  0.00    -0.312 N 
ATOM     16  H52 UNL     1      -8.002   0.607  16.601  1.00  0.00     0.170 HD
ATOM     17  H51 UNL     1      -7.412   2.278  16.943  1.00  0.00     0.170 HD
ENDBRANCH  12  15
ENDBRANCH  10  12
ENDBRANCH   9  10
ENDBRANCH   8   9
ENDBRANCH   7   8
BRANCH   6  18
HETATM   18  N2  UNL     1      -3.024   2.725  11.766  1.00  0.00    -0.096 N 
HETATM   19  O1  UNL     1      -2.064   2.037  12.143  1.00  0.00    -0.530 OA
HETATM   20  O2  UNL     1      -3.545   2.467  10.524  1.00  0.00    -0.530 OA
ENDBRANCH   6  18
TORSDOF 6
ENDMDL
