MODEL 11
REMARK VINA RESULT: -6.030145967      2.377      4.846
REMARK  6 active torsions:
REMARK  status: ('A' for Active; 'I' for Inactive)
REMARK    1  A    between atoms: C4_6  and  N2_7 
REMARK    2  A    between atoms: N3_10  and  C5_11 
REMARK    3  A    between atoms: C5_11  and  C6_12 
REMARK    4  A    between atoms: C6_12  and  N4_13 
REMARK    5  A    between atoms: N4_13  and  S1_15 
REMARK    6  A    between atoms: S1_15  and  N5_16 
ROOT
HETATM    1  C1  UNL     1      -4.112   5.849  14.911  1.00  0.00     0.089 C 
HETATM    2  C2  UNL     1      -4.079   5.481  13.468  1.00  0.00     0.081 A 
HETATM    3  N1  UNL     1      -4.242   6.388  12.491  1.00  0.00    -0.352 N 
ATOM      4  H1  UNL     1      -4.399   7.385  12.638  1.00  0.00     0.166 HD
HETATM    5  C3  UNL     1      -4.168   5.790  11.302  1.00  0.00     0.144 A 
HETATM    6  C4  UNL     1      -3.949   4.451  11.543  1.00  0.00     0.193 A 
HETATM    7  N3  UNL     1      -3.897   4.276  12.899  1.00  0.00    -0.315 N 
ENDROOT
BRANCH   7   8
HETATM    8  C5  UNL     1      -3.689   3.064  13.618  1.00  0.00     0.152 C 
BRANCH   8   9
HETATM    9  C6  UNL     1      -4.946   2.303  13.929  1.00  0.00     0.154 C 
BRANCH   9  10
HETATM   10  N4  UNL     1      -5.290   2.299  15.323  1.00  0.00    -0.301 N 
ATOM     11  H4  UNL     1      -5.789   3.033  15.826  1.00  0.00     0.173 HD
BRANCH  10  12
HETATM   12  S1  UNL     1      -4.697   0.807  15.992  1.00  0.00     0.312 S 
HETATM   13  O3  UNL     1      -4.673  -0.239  14.907  1.00  0.00    -0.183 OA
HETATM   14  O4  UNL     1      -3.306   1.045  16.464  1.00  0.00    -0.183 OA
BRANCH  12  15
HETATM   15  N5  UNL     1      -5.654   0.242  17.276  1.00  0.00    -0.312 N 
ATOM     16  H52 UNL     1      -6.413   0.788  17.682  1.00  0.00     0.170 HD
ATOM     17  H51 UNL     1      -5.382  -0.691  17.586  1.00  0.00     0.170 HD
ENDBRANCH  12  15
ENDBRANCH  10  12
ENDBRANCH   9  10
ENDBRANCH   8   9
ENDBRANCH   7   8
BRANCH   6  18
HETATM   18  N2  UNL     1      -3.802   3.419  10.586  1.00  0.00    -0.096 N 
HETATM   19  O1  UNL     1      -4.721   2.665  10.232  1.00  0.00    -0.530 OA
HETATM   20  O2  UNL     1      -2.571   3.236  10.013  1.00  0.00    -0.530 OA
ENDBRANCH   6  18
TORSDOF 6
ENDMDL
