MODEL 10
REMARK VINA RESULT: -6.066639642      2.529      4.933
REMARK  6 active torsions:
REMARK  status: ('A' for Active; 'I' for Inactive)
REMARK    1  A    between atoms: C4_6  and  N2_7 
REMARK    2  A    between atoms: N3_10  and  C5_11 
REMARK    3  A    between atoms: C5_11  and  C6_12 
REMARK    4  A    between atoms: C6_12  and  N4_13 
REMARK    5  A    between atoms: N4_13  and  S1_15 
REMARK    6  A    between atoms: S1_15  and  N5_16 
ROOT
HETATM    1  C1  UNL     1      -2.506   6.818  14.427  1.00  0.00     0.089 C 
HETATM    2  C2  UNL     1      -2.144   5.730  13.476  1.00  0.00     0.081 A 
HETATM    3  N1  UNL     1      -0.967   5.702  12.830  1.00  0.00    -0.352 N 
ATOM      4  H1  UNL     1      -0.230   6.402  12.925  1.00  0.00     0.166 HD
HETATM    5  C3  UNL     1      -0.905   4.625  12.047  1.00  0.00     0.144 A 
HETATM    6  C4  UNL     1      -2.093   3.947  12.210  1.00  0.00     0.193 A 
HETATM    7  N3  UNL     1      -2.854   4.650  13.104  1.00  0.00    -0.315 N 
ENDROOT
BRANCH   7   8
HETATM    8  C5  UNL     1      -4.159   4.336  13.582  1.00  0.00     0.152 C 
BRANCH   8   9
HETATM    9  C6  UNL     1      -4.186   3.352  14.716  1.00  0.00     0.154 C 
BRANCH   9  10
HETATM   10  N4  UNL     1      -4.345   1.988  14.294  1.00  0.00    -0.301 N 
ATOM     11  H4  UNL     1      -4.332   1.645  13.333  1.00  0.00     0.173 HD
BRANCH  10  12
HETATM   12  S1  UNL     1      -4.564   1.032  15.730  1.00  0.00     0.312 S 
HETATM   13  O3  UNL     1      -4.752  -0.409  15.333  1.00  0.00    -0.183 OA
HETATM   14  O4  UNL     1      -3.324   1.150  16.545  1.00  0.00    -0.183 OA
BRANCH  12  15
HETATM   15  N5  UNL     1      -5.905   1.527  16.646  1.00  0.00    -0.312 N 
ATOM     16  H52 UNL     1      -5.841   1.774  17.633  1.00  0.00     0.170 HD
ATOM     17  H51 UNL     1      -6.766   1.548  16.100  1.00  0.00     0.170 HD
ENDBRANCH  12  15
ENDBRANCH  10  12
ENDBRANCH   9  10
ENDBRANCH   8   9
ENDBRANCH   7   8
BRANCH   6  18
HETATM   18  N2  UNL     1      -2.489   2.742  11.581  1.00  0.00    -0.096 N 
HETATM   19  O1  UNL     1      -2.398   1.624  12.107  1.00  0.00    -0.530 OA
HETATM   20  O2  UNL     1      -3.005   2.812  10.313  1.00  0.00    -0.530 OA
ENDBRANCH   6  18
TORSDOF 6
ENDMDL
