MODEL 5
REMARK VINA RESULT: -6.165665658      1.720      1.932
REMARK  6 active torsions:
REMARK  status: ('A' for Active; 'I' for Inactive)
REMARK    1  A    between atoms: C4_6  and  N2_7 
REMARK    2  A    between atoms: N3_10  and  C5_11 
REMARK    3  A    between atoms: C5_11  and  C6_12 
REMARK    4  A    between atoms: C6_12  and  N4_13 
REMARK    5  A    between atoms: N4_13  and  S1_15 
REMARK    6  A    between atoms: S1_15  and  N5_16 
ROOT
HETATM    1  C1  UNL     1      -6.453   5.187  15.572  1.00  0.00     0.089 C 
HETATM    2  C2  UNL     1      -6.170   3.750  15.847  1.00  0.00     0.081 A 
HETATM    3  N1  UNL     1      -6.982   2.989  16.600  1.00  0.00    -0.352 N 
ATOM      4  H1  UNL     1      -7.843   3.311  17.042  1.00  0.00     0.166 HD
HETATM    5  C3  UNL     1      -6.493   1.751  16.683  1.00  0.00     0.144 A 
HETATM    6  C4  UNL     1      -5.326   1.735  15.951  1.00  0.00     0.193 A 
HETATM    7  N3  UNL     1      -5.140   2.990  15.437  1.00  0.00    -0.315 N 
ENDROOT
BRANCH   7   8
HETATM    8  C5  UNL     1      -4.071   3.450  14.615  1.00  0.00     0.152 C 
BRANCH   8   9
HETATM    9  C6  UNL     1      -4.323   3.327  13.140  1.00  0.00     0.154 C 
BRANCH   9  10
HETATM   10  N4  UNL     1      -3.484   4.172  12.337  1.00  0.00    -0.301 N 
ATOM     11  H4  UNL     1      -3.616   5.169  12.164  1.00  0.00     0.173 HD
BRANCH  10  12
HETATM   12  S1  UNL     1      -2.199   3.177  11.719  1.00  0.00     0.312 S 
HETATM   13  O3  UNL     1      -2.486   1.739  12.064  1.00  0.00    -0.183 OA
HETATM   14  O4  UNL     1      -2.186   3.325  10.238  1.00  0.00    -0.183 OA
BRANCH  12  15
HETATM   15  N5  UNL     1      -0.682   3.600  12.355  1.00  0.00    -0.312 N 
ATOM     16  H52 UNL     1      -0.539   4.417  12.947  1.00  0.00     0.170 HD
ATOM     17  H51 UNL     1       0.054   2.950  12.078  1.00  0.00     0.170 HD
ENDBRANCH  12  15
ENDBRANCH  10  12
ENDBRANCH   9  10
ENDBRANCH   8   9
ENDBRANCH   7   8
BRANCH   6  18
HETATM   18  N2  UNL     1      -4.454   0.639  15.748  1.00  0.00    -0.096 N 
HETATM   19  O1  UNL     1      -3.442   0.422  16.429  1.00  0.00    -0.530 OA
HETATM   20  O2  UNL     1      -4.743  -0.241  14.737  1.00  0.00    -0.530 OA
ENDBRANCH   6  18
TORSDOF 6
ENDMDL
