MODEL 8
REMARK VINA RESULT: -6.099355621      1.902      2.520
REMARK  6 active torsions:
REMARK  status: ('A' for Active; 'I' for Inactive)
REMARK    1  A    between atoms: C4_6  and  N2_7 
REMARK    2  A    between atoms: N3_10  and  C5_11 
REMARK    3  A    between atoms: C5_11  and  C6_12 
REMARK    4  A    between atoms: C6_12  and  N4_13 
REMARK    5  A    between atoms: N4_13  and  S1_15 
REMARK    6  A    between atoms: S1_15  and  N5_16 
ROOT
HETATM    1  C1  UNL     1      -6.348   5.076  14.091  1.00  0.00     0.089 C 
HETATM    2  C2  UNL     1      -6.038   3.833  14.852  1.00  0.00     0.081 A 
HETATM    3  N1  UNL     1      -6.633   3.538  16.019  1.00  0.00    -0.352 N 
ATOM      4  H1  UNL     1      -7.333   4.117  16.483  1.00  0.00     0.166 HD
HETATM    5  C3  UNL     1      -6.171   2.375  16.481  1.00  0.00     0.144 A 
HETATM    6  C4  UNL     1      -5.248   1.922  15.564  1.00  0.00     0.193 A 
HETATM    7  N3  UNL     1      -5.177   2.844  14.555  1.00  0.00    -0.315 N 
ENDROOT
BRANCH   7   8
HETATM    8  C5  UNL     1      -4.361   2.804  13.388  1.00  0.00     0.152 C 
BRANCH   8   9
HETATM    9  C6  UNL     1      -3.160   3.705  13.439  1.00  0.00     0.154 C 
BRANCH   9  10
HETATM   10  N4  UNL     1      -3.021   4.549  12.285  1.00  0.00    -0.301 N 
ATOM     11  H4  UNL     1      -3.469   5.453  12.138  1.00  0.00     0.173 HD
BRANCH  10  12
HETATM   12  S1  UNL     1      -1.944   3.737  11.186  1.00  0.00     0.312 S 
HETATM   13  O3  UNL     1      -1.152   2.708  11.950  1.00  0.00    -0.183 OA
HETATM   14  O4  UNL     1      -2.777   3.046  10.165  1.00  0.00    -0.183 OA
BRANCH  12  15
HETATM   15  N5  UNL     1      -0.865   4.804  10.424  1.00  0.00    -0.312 N 
ATOM     16  H52 UNL     1      -1.088   5.783  10.245  1.00  0.00     0.170 HD
ATOM     17  H51 UNL     1       0.017   4.357  10.173  1.00  0.00     0.170 HD
ENDBRANCH  12  15
ENDBRANCH  10  12
ENDBRANCH   9  10
ENDBRANCH   8   9
ENDBRANCH   7   8
BRANCH   6  18
HETATM   18  N2  UNL     1      -4.493   0.727  15.625  1.00  0.00    -0.096 N 
HETATM   19  O1  UNL     1      -4.754  -0.293  14.970  1.00  0.00    -0.530 OA
HETATM   20  O2  UNL     1      -3.404   0.690  16.456  1.00  0.00    -0.530 OA
ENDBRANCH   6  18
TORSDOF 6
ENDMDL
