MODEL 15
REMARK VINA RESULT: -5.857184103      2.442      4.491
REMARK  6 active torsions:
REMARK  status: ('A' for Active; 'I' for Inactive)
REMARK    1  A    between atoms: C4_6  and  N2_7 
REMARK    2  A    between atoms: N3_10  and  C5_11 
REMARK    3  A    between atoms: C5_11  and  C6_12 
REMARK    4  A    between atoms: C6_12  and  N4_13 
REMARK    5  A    between atoms: N4_13  and  S1_15 
REMARK    6  A    between atoms: S1_15  and  N5_16 
ROOT
HETATM    1  C1  UNL     1      -5.387   5.241  14.777  1.00  0.00     0.089 C 
HETATM    2  C2  UNL     1      -4.059   5.025  14.136  1.00  0.00     0.081 A 
HETATM    3  N1  UNL     1      -2.956   5.681  14.532  1.00  0.00    -0.352 N 
ATOM      4  H1  UNL     1      -2.921   6.368  15.285  1.00  0.00     0.166 HD
HETATM    5  C3  UNL     1      -1.914   5.300  13.792  1.00  0.00     0.144 A 
HETATM    6  C4  UNL     1      -2.384   4.365  12.896  1.00  0.00     0.193 A 
HETATM    7  N3  UNL     1      -3.724   4.206  13.124  1.00  0.00    -0.315 N 
ENDROOT
BRANCH   7   8
HETATM    8  C5  UNL     1      -4.633   3.346  12.444  1.00  0.00     0.152 C 
BRANCH   8   9
HETATM    9  C6  UNL     1      -4.977   2.089  13.191  1.00  0.00     0.154 C 
BRANCH   9  10
HETATM   10  N4  UNL     1      -3.865   1.509  13.890  1.00  0.00    -0.301 N 
ATOM     11  H4  UNL     1      -2.917   1.396  13.533  1.00  0.00     0.173 HD
BRANCH  10  12
HETATM   12  S1  UNL     1      -4.442   1.036  15.462  1.00  0.00     0.312 S 
HETATM   13  O3  UNL     1      -4.762  -0.436  15.441  1.00  0.00    -0.183 OA
HETATM   14  O4  UNL     1      -3.344   1.278  16.437  1.00  0.00    -0.183 OA
BRANCH  12  15
HETATM   15  N5  UNL     1      -5.831   1.892  15.932  1.00  0.00    -0.312 N 
ATOM     16  H52 UNL     1      -6.685   1.431  16.245  1.00  0.00     0.170 HD
ATOM     17  H51 UNL     1      -5.710   2.902  15.864  1.00  0.00     0.170 HD
ENDBRANCH  12  15
ENDBRANCH  10  12
ENDBRANCH   9  10
ENDBRANCH   8   9
ENDBRANCH   7   8
BRANCH   6  18
HETATM   18  N2  UNL     1      -1.644   3.676  11.905  1.00  0.00    -0.096 N 
HETATM   19  O1  UNL     1      -1.288   4.180  10.830  1.00  0.00    -0.530 OA
HETATM   20  O2  UNL     1      -1.297   2.372  12.144  1.00  0.00    -0.530 OA
ENDBRANCH   6  18
TORSDOF 6
ENDMDL
