MODEL 3
REMARK VINA RESULT: -6.271996048      1.339      1.877
REMARK  6 active torsions:
REMARK  status: ('A' for Active; 'I' for Inactive)
REMARK    1  A    between atoms: C4_6  and  N2_7 
REMARK    2  A    between atoms: N3_10  and  C5_11 
REMARK    3  A    between atoms: C5_11  and  C6_12 
REMARK    4  A    between atoms: C6_12  and  N4_13 
REMARK    5  A    between atoms: N4_13  and  S1_15 
REMARK    6  A    between atoms: S1_15  and  N5_16 
ROOT
HETATM    1  C1  UNL     1      -6.159   5.119  14.890  1.00  0.00     0.089 C 
HETATM    2  C2  UNL     1      -6.064   3.819  15.613  1.00  0.00     0.081 A 
HETATM    3  N1  UNL     1      -6.942   3.461  16.565  1.00  0.00    -0.352 N 
ATOM      4  H1  UNL     1      -7.733   4.026  16.875  1.00  0.00     0.166 HD
HETATM    5  C3  UNL     1      -6.624   2.258  17.043  1.00  0.00     0.144 A 
HETATM    6  C4  UNL     1      -5.500   1.844  16.363  1.00  0.00     0.193 A 
HETATM    7  N3  UNL     1      -5.165   2.830  15.475  1.00  0.00    -0.315 N 
ENDROOT
BRANCH   7   8
HETATM    8  C5  UNL     1      -4.076   2.848  14.556  1.00  0.00     0.152 C 
BRANCH   8   9
HETATM    9  C6  UNL     1      -4.348   2.147  13.256  1.00  0.00     0.154 C 
BRANCH   9  10
HETATM   10  N4  UNL     1      -3.223   2.128  12.363  1.00  0.00    -0.301 N 
ATOM     11  H4  UNL     1      -2.353   1.612  12.496  1.00  0.00     0.173 HD
BRANCH  10  12
HETATM   12  S1  UNL     1      -3.625   3.148  11.013  1.00  0.00     0.312 S 
HETATM   13  O3  UNL     1      -2.412   3.289  10.130  1.00  0.00    -0.183 OA
HETATM   14  O4  UNL     1      -4.707   2.475  10.244  1.00  0.00    -0.183 OA
BRANCH  12  15
HETATM   15  N5  UNL     1      -4.135   4.695  11.494  1.00  0.00    -0.312 N 
ATOM     16  H52 UNL     1      -3.491   5.475  11.623  1.00  0.00     0.170 HD
ATOM     17  H51 UNL     1      -5.143   4.749  11.634  1.00  0.00     0.170 HD
ENDBRANCH  12  15
ENDBRANCH  10  12
ENDBRANCH   9  10
ENDBRANCH   8   9
ENDBRANCH   7   8
BRANCH   6  18
HETATM   18  N2  UNL     1      -4.795   0.628  16.527  1.00  0.00    -0.096 N 
HETATM   19  O1  UNL     1      -3.566   0.518  16.413  1.00  0.00    -0.530 OA
HETATM   20  O2  UNL     1      -5.511  -0.501  16.832  1.00  0.00    -0.530 OA
ENDBRANCH   6  18
TORSDOF 6
ENDMDL
