MODEL 14
REMARK VINA RESULT: -6.946485394      0.930      1.666
REMARK  6 active torsions:
REMARK  status: ('A' for Active; 'I' for Inactive)
REMARK    1  A    between atoms: S1_2  and  C1_4 
REMARK    2  A    between atoms: S1_2  and  N1_14 
REMARK    3  A    between atoms: C4_7  and  O3_8 
REMARK    4  A    between atoms: C6_11  and  O4_12 
REMARK    5  A    between atoms: C10_18  and  O5_19 
REMARK    6  A    between atoms: C12_22  and  O6_23 
ROOT
HETATM    1  N1  UNL     1      14.355   1.253 -37.490  1.00  0.00    -0.256 N 
HETATM    2  C7  UNL     1      15.245   0.263 -37.653  1.00  0.00     0.121 A 
HETATM    3  C8  UNL     1      16.495   0.824 -37.521  1.00  0.00    -0.003 A 
HETATM    4  C9  UNL     1      17.767   0.326 -37.585  1.00  0.00     0.050 A 
HETATM    5  C10 UNL     1      18.886   1.136 -37.411  1.00  0.00     0.069 A 
HETATM    6  C11 UNL     1      18.694   2.474 -37.167  1.00  0.00     0.074 A 
HETATM    7  C12 UNL     1      17.428   3.013 -37.095  1.00  0.00     0.080 A 
HETATM    8  C13 UNL     1      16.348   2.166 -37.276  1.00  0.00     0.025 A 
HETATM    9  C14 UNL     1      14.991   2.413 -37.260  1.00  0.00     0.124 A 
ENDROOT
BRANCH   1  10
HETATM   10  S1  UNL     1      12.657   1.071 -37.557  1.00  0.00     0.271 S 
HETATM   11  O1  UNL     1      12.290   0.715 -38.994  1.00  0.00    -0.200 OA
HETATM   12  O2  UNL     1      12.213  -0.132 -36.745  1.00  0.00    -0.200 OA
BRANCH  10  13
HETATM   13  C1  UNL     1      11.776   2.447 -37.028  1.00  0.00     0.113 A 
HETATM   14  C2  UNL     1      11.451   3.433 -37.938  1.00  0.00     0.031 A 
HETATM   15  C3  UNL     1      10.743   4.550 -37.552  1.00  0.00     0.038 A 
HETATM   16  C4  UNL     1      10.352   4.687 -36.235  1.00  0.00     0.068 A 
HETATM   17  C5  UNL     1      10.673   3.697 -35.297  1.00  0.00     0.074 A 
HETATM   18  C6  UNL     1      11.380   2.592 -35.715  1.00  0.00     0.091 A 
BRANCH  16  19
HETATM   19  O3  UNL     1       9.634   5.810 -35.817  1.00  0.00    -0.361 OA
ATOM     20  H3  UNL     1      10.024   6.442 -35.225  1.00  0.00     0.217 HD
ENDBRANCH  16  19
BRANCH  18  21
HETATM   21  O4  UNL     1      11.727   1.582 -34.841  1.00  0.00    -0.359 OA
ATOM     22  H4  UNL     1      11.023   1.033 -34.515  1.00  0.00     0.217 HD
ENDBRANCH  18  21
ENDBRANCH  10  13
ENDBRANCH   1  10
BRANCH   7  23
HETATM   23  O6  UNL     1      17.317   4.372 -36.846  1.00  0.00    -0.360 OA
ATOM     24  H6  UNL     1      16.474   4.703 -36.558  1.00  0.00     0.217 HD
ENDBRANCH   7  23
BRANCH   5  25
HETATM   25  O5  UNL     1      20.167   0.628 -37.475  1.00  0.00    -0.361 OA
ATOM     26  H5  UNL     1      20.348  -0.294 -37.334  1.00  0.00     0.217 HD
ENDBRANCH   5  25
TORSDOF 6
ENDMDL
