MODEL 8
REMARK VINA RESULT: -7.270537095      1.519      6.799
REMARK  6 active torsions:
REMARK  status: ('A' for Active; 'I' for Inactive)
REMARK    1  A    between atoms: S1_2  and  C1_4 
REMARK    2  A    between atoms: S1_2  and  N1_14 
REMARK    3  A    between atoms: C4_7  and  O3_8 
REMARK    4  A    between atoms: C6_11  and  O4_12 
REMARK    5  A    between atoms: C10_18  and  O5_19 
REMARK    6  A    between atoms: C12_22  and  O6_23 
ROOT
HETATM    1  N1  UNL     1      12.739   2.732 -36.308  1.00  0.00    -0.256 N 
HETATM    2  C7  UNL     1      12.270   2.922 -37.549  1.00  0.00     0.121 A 
HETATM    3  C8  UNL     1      11.308   3.903 -37.468  1.00  0.00    -0.003 A 
HETATM    4  C9  UNL     1      10.495   4.509 -38.385  1.00  0.00     0.050 A 
HETATM    5  C10 UNL     1       9.585   5.499 -38.025  1.00  0.00     0.069 A 
HETATM    6  C11 UNL     1       9.513   5.871 -36.704  1.00  0.00     0.074 A 
HETATM    7  C12 UNL     1      10.314   5.284 -35.750  1.00  0.00     0.080 A 
HETATM    8  C13 UNL     1      11.203   4.303 -36.160  1.00  0.00     0.025 A 
HETATM    9  C14 UNL     1      12.114   3.553 -35.447  1.00  0.00     0.124 A 
ENDROOT
BRANCH   1  10
HETATM   10  S1  UNL     1      13.959   1.616 -35.875  1.00  0.00     0.271 S 
HETATM   11  O1  UNL     1      14.205   1.765 -34.376  1.00  0.00    -0.200 OA
HETATM   12  O2  UNL     1      13.465   0.191 -36.036  1.00  0.00    -0.200 OA
BRANCH  10  13
HETATM   13  C1  UNL     1      15.425   1.793 -36.751  1.00  0.00     0.113 A 
HETATM   14  C2  UNL     1      15.958   0.702 -37.406  1.00  0.00     0.031 A 
HETATM   15  C3  UNL     1      17.132   0.806 -38.120  1.00  0.00     0.038 A 
HETATM   16  C4  UNL     1      17.785   2.020 -38.184  1.00  0.00     0.068 A 
HETATM   17  C5  UNL     1      17.259   3.139 -37.526  1.00  0.00     0.074 A 
HETATM   18  C6  UNL     1      16.085   3.003 -36.821  1.00  0.00     0.091 A 
BRANCH  16  19
HETATM   19  O3  UNL     1      18.976   2.152 -38.902  1.00  0.00    -0.361 OA
ATOM     20  H3  UNL     1      19.695   2.668 -38.556  1.00  0.00     0.217 HD
ENDBRANCH  16  19
BRANCH  18  21
HETATM   21  O4  UNL     1      15.515   4.066 -36.151  1.00  0.00    -0.359 OA
ATOM     22  H4  UNL     1      16.062   4.522 -35.521  1.00  0.00     0.217 HD
ENDBRANCH  18  21
ENDBRANCH  10  13
ENDBRANCH   1  10
BRANCH   7  23
HETATM   23  O6  UNL     1      10.182   5.713 -34.440  1.00  0.00    -0.360 OA
ATOM     24  H6  UNL     1      10.953   5.693 -33.885  1.00  0.00     0.217 HD
ENDBRANCH   7  23
BRANCH   5  25
HETATM   25  O5  UNL     1       8.768   6.108 -38.954  1.00  0.00    -0.361 OA
ATOM     26  H5  UNL     1       8.136   5.616 -39.464  1.00  0.00     0.217 HD
ENDBRANCH   5  25
TORSDOF 6
ENDMDL
