MODEL 5
REMARK VINA RESULT: -7.555866097      0.924      1.773
REMARK  6 active torsions:
REMARK  status: ('A' for Active; 'I' for Inactive)
REMARK    1  A    between atoms: S1_2  and  C1_4 
REMARK    2  A    between atoms: S1_2  and  N1_14 
REMARK    3  A    between atoms: C4_7  and  O3_8 
REMARK    4  A    between atoms: C6_11  and  O4_12 
REMARK    5  A    between atoms: C10_18  and  O5_19 
REMARK    6  A    between atoms: C12_22  and  O6_23 
ROOT
HETATM    1  N1  UNL     1      14.343   1.241 -36.605  1.00  0.00    -0.256 N 
HETATM    2  C7  UNL     1      15.230   2.133 -36.140  1.00  0.00     0.121 A 
HETATM    3  C8  UNL     1      16.417   1.894 -36.796  1.00  0.00    -0.003 A 
HETATM    4  C9  UNL     1      17.657   2.469 -36.745  1.00  0.00     0.050 A 
HETATM    5  C10 UNL     1      18.710   2.021 -37.537  1.00  0.00     0.069 A 
HETATM    6  C11 UNL     1      18.485   0.969 -38.392  1.00  0.00     0.074 A 
HETATM    7  C12 UNL     1      17.250   0.365 -38.472  1.00  0.00     0.080 A 
HETATM    8  C13 UNL     1      16.234   0.847 -37.663  1.00  0.00     0.025 A 
HETATM    9  C14 UNL     1      14.920   0.452 -37.526  1.00  0.00     0.124 A 
ENDROOT
BRANCH   1  10
HETATM   10  S1  UNL     1      12.712   1.124 -36.109  1.00  0.00     0.271 S 
HETATM   11  O1  UNL     1      12.067   0.002 -36.918  1.00  0.00    -0.200 OA
HETATM   12  O2  UNL     1      12.621   0.650 -34.670  1.00  0.00    -0.200 OA
BRANCH  10  13
HETATM   13  C1  UNL     1      11.816   2.580 -36.267  1.00  0.00     0.113 A 
HETATM   14  C2  UNL     1      11.419   3.257 -35.132  1.00  0.00     0.031 A 
HETATM   15  C3  UNL     1      10.701   4.429 -35.219  1.00  0.00     0.038 A 
HETATM   16  C4  UNL     1      10.372   4.936 -36.461  1.00  0.00     0.068 A 
HETATM   17  C5  UNL     1      10.765   4.263 -37.624  1.00  0.00     0.074 A 
HETATM   18  C6  UNL     1      11.482   3.094 -37.503  1.00  0.00     0.091 A 
BRANCH  16  19
HETATM   19  O3  UNL     1       9.644   6.123 -36.576  1.00  0.00    -0.361 OA
ATOM     20  H3  UNL     1       8.818   6.141 -37.045  1.00  0.00     0.217 HD
ENDBRANCH  16  19
BRANCH  18  21
HETATM   21  O4  UNL     1      11.900   2.383 -38.610  1.00  0.00    -0.359 OA
ATOM     22  H4  UNL     1      11.227   1.949 -39.123  1.00  0.00     0.217 HD
ENDBRANCH  18  21
ENDBRANCH  10  13
ENDBRANCH   1  10
BRANCH   7  23
HETATM   23  O6  UNL     1      17.101  -0.690 -39.358  1.00  0.00    -0.360 OA
ATOM     24  H6  UNL     1      16.667  -0.518 -40.186  1.00  0.00     0.217 HD
ENDBRANCH   7  23
BRANCH   5  25
HETATM   25  O5  UNL     1      19.959   2.604 -37.483  1.00  0.00    -0.361 OA
ATOM     26  H5  UNL     1      20.745   2.092 -37.333  1.00  0.00     0.217 HD
ENDBRANCH   5  25
TORSDOF 6
ENDMDL
