MODEL 6
REMARK VINA RESULT: -7.368421579      1.429      1.635
REMARK  6 active torsions:
REMARK  status: ('A' for Active; 'I' for Inactive)
REMARK    1  A    between atoms: S1_2  and  C1_4 
REMARK    2  A    between atoms: S1_2  and  N1_14 
REMARK    3  A    between atoms: C4_7  and  O3_8 
REMARK    4  A    between atoms: C6_11  and  O4_12 
REMARK    5  A    between atoms: C10_18  and  O5_19 
REMARK    6  A    between atoms: C12_22  and  O6_23 
ROOT
HETATM    1  N1  UNL     1      14.258   2.238 -36.345  1.00  0.00    -0.256 N 
HETATM    2  C7  UNL     1      15.161   1.633 -37.132  1.00  0.00     0.121 A 
HETATM    3  C8  UNL     1      16.383   2.195 -36.842  1.00  0.00    -0.003 A 
HETATM    4  C9  UNL     1      17.652   1.994 -37.312  1.00  0.00     0.050 A 
HETATM    5  C10 UNL     1      18.740   2.720 -36.834  1.00  0.00     0.069 A 
HETATM    6  C11 UNL     1      18.519   3.663 -35.860  1.00  0.00     0.074 A 
HETATM    7  C12 UNL     1      17.256   3.895 -35.362  1.00  0.00     0.080 A 
HETATM    8  C13 UNL     1      16.207   3.147 -35.870  1.00  0.00     0.025 A 
HETATM    9  C14 UNL     1      14.861   3.156 -35.572  1.00  0.00     0.124 A 
ENDROOT
BRANCH   1  10
HETATM   10  S1  UNL     1      12.585   1.892 -36.319  1.00  0.00     0.271 S 
HETATM   11  O1  UNL     1      12.321   0.829 -37.381  1.00  0.00    -0.200 OA
HETATM   12  O2  UNL     1      12.195   1.225 -35.013  1.00  0.00    -0.200 OA
BRANCH  10  13
HETATM   13  C1  UNL     1      11.574   3.258 -36.563  1.00  0.00     0.113 A 
HETATM   14  C2  UNL     1      10.827   3.744 -35.508  1.00  0.00     0.031 A 
HETATM   15  C3  UNL     1      10.006   4.839 -35.665  1.00  0.00     0.038 A 
HETATM   16  C4  UNL     1       9.929   5.462 -36.895  1.00  0.00     0.068 A 
HETATM   17  C5  UNL     1      10.680   4.984 -37.976  1.00  0.00     0.074 A 
HETATM   18  C6  UNL     1      11.491   3.888 -37.787  1.00  0.00     0.091 A 
BRANCH  16  19
HETATM   19  O3  UNL     1       9.104   6.574 -37.079  1.00  0.00    -0.361 OA
ATOM     20  H3  UNL     1       8.199   6.560 -36.790  1.00  0.00     0.217 HD
ENDBRANCH  16  19
BRANCH  18  21
HETATM   21  O4  UNL     1      12.255   3.368 -38.812  1.00  0.00    -0.359 OA
ATOM     22  H4  UNL     1      13.162   3.648 -38.858  1.00  0.00     0.217 HD
ENDBRANCH  18  21
ENDBRANCH  10  13
ENDBRANCH   1  10
BRANCH   7  23
HETATM   23  O6  UNL     1      17.115   4.864 -34.381  1.00  0.00    -0.360 OA
ATOM     24  H6  UNL     1      16.300   4.888 -33.894  1.00  0.00     0.217 HD
ENDBRANCH   7  23
BRANCH   5  25
HETATM   25  O5  UNL     1      20.017   2.512 -37.311  1.00  0.00    -0.361 OA
ATOM     26  H5  UNL     1      20.292   2.832 -38.162  1.00  0.00     0.217 HD
ENDBRANCH   5  25
TORSDOF 6
ENDMDL
