MODEL 2
REMARK VINA RESULT: -7.724317421      1.490      6.781
REMARK  6 active torsions:
REMARK  status: ('A' for Active; 'I' for Inactive)
REMARK    1  A    between atoms: S1_2  and  C1_4 
REMARK    2  A    between atoms: S1_2  and  N1_14 
REMARK    3  A    between atoms: C4_7  and  O3_8 
REMARK    4  A    between atoms: C6_11  and  O4_12 
REMARK    5  A    between atoms: C10_18  and  O5_19 
REMARK    6  A    between atoms: C12_22  and  O6_23 
ROOT
HETATM    1  N1  UNL     1      12.371   2.418 -36.799  1.00  0.00    -0.256 N 
HETATM    2  C7  UNL     1      11.877   2.975 -37.915  1.00  0.00     0.121 A 
HETATM    3  C8  UNL     1      11.123   4.057 -37.522  1.00  0.00    -0.003 A 
HETATM    4  C9  UNL     1      10.389   4.993 -38.196  1.00  0.00     0.050 A 
HETATM    5  C10 UNL     1       9.705   6.010 -37.535  1.00  0.00     0.069 A 
HETATM    6  C11 UNL     1       9.778   6.065 -36.165  1.00  0.00     0.074 A 
HETATM    7  C12 UNL     1      10.507   5.140 -35.450  1.00  0.00     0.080 A 
HETATM    8  C13 UNL     1      11.170   4.148 -36.153  1.00  0.00     0.025 A 
HETATM    9  C14 UNL     1      11.962   3.106 -35.720  1.00  0.00     0.124 A 
ENDROOT
BRANCH   1  10
HETATM   10  S1  UNL     1      13.381   1.041 -36.749  1.00  0.00     0.271 S 
HETATM   11  O1  UNL     1      13.304   0.468 -35.337  1.00  0.00    -0.200 OA
HETATM   12  O2  UNL     1      12.831  -0.061 -37.634  1.00  0.00    -0.200 OA
BRANCH  10  13
HETATM   13  C1  UNL     1      15.013   1.341 -37.194  1.00  0.00     0.113 A 
HETATM   14  C2  UNL     1      15.475   2.641 -37.232  1.00  0.00     0.031 A 
HETATM   15  C3  UNL     1      16.778   2.921 -37.583  1.00  0.00     0.038 A 
HETATM   16  C4  UNL     1      17.635   1.886 -37.900  1.00  0.00     0.068 A 
HETATM   17  C5  UNL     1      17.184   0.561 -37.867  1.00  0.00     0.074 A 
HETATM   18  C6  UNL     1      15.876   0.314 -37.513  1.00  0.00     0.091 A 
BRANCH  16  19
HETATM   19  O3  UNL     1      18.960   2.143 -38.259  1.00  0.00    -0.361 OA
ATOM     20  H3  UNL     1      19.677   1.825 -37.723  1.00  0.00     0.217 HD
ENDBRANCH  16  19
BRANCH  18  21
HETATM   21  O4  UNL     1      15.370  -0.969 -37.461  1.00  0.00    -0.359 OA
ATOM     22  H4  UNL     1      14.523  -1.115 -37.866  1.00  0.00     0.217 HD
ENDBRANCH  18  21
ENDBRANCH  10  13
ENDBRANCH   1  10
BRANCH   7  23
HETATM   23  O6  UNL     1      10.532   5.262 -34.070  1.00  0.00    -0.360 OA
ATOM     24  H6  UNL     1      11.184   4.763 -33.591  1.00  0.00     0.217 HD
ENDBRANCH   7  23
BRANCH   5  25
HETATM   25  O5  UNL     1       8.965   6.952 -38.220  1.00  0.00    -0.361 OA
ATOM     26  H5  UNL     1       8.136   6.737 -38.630  1.00  0.00     0.217 HD
ENDBRANCH   5  25
TORSDOF 6
ENDMDL
