MODEL 3
REMARK VINA RESULT: -7.571962812      1.619      6.805
REMARK  6 active torsions:
REMARK  status: ('A' for Active; 'I' for Inactive)
REMARK    1  A    between atoms: S1_2  and  C1_4 
REMARK    2  A    between atoms: S1_2  and  N1_14 
REMARK    3  A    between atoms: C4_7  and  O3_8 
REMARK    4  A    between atoms: C6_11  and  O4_12 
REMARK    5  A    between atoms: C10_18  and  O5_19 
REMARK    6  A    between atoms: C12_22  and  O6_23 
ROOT
HETATM    1  N1  UNL     1      12.182   1.933 -37.219  1.00  0.00    -0.256 N 
HETATM    2  C7  UNL     1      12.052   2.290 -35.933  1.00  0.00     0.121 A 
HETATM    3  C8  UNL     1      11.368   3.484 -35.916  1.00  0.00    -0.003 A 
HETATM    4  C9  UNL     1      10.947   4.319 -34.919  1.00  0.00     0.050 A 
HETATM    5  C10 UNL     1      10.255   5.498 -35.186  1.00  0.00     0.069 A 
HETATM    6  C11 UNL     1       9.993   5.820 -36.495  1.00  0.00     0.074 A 
HETATM    7  C12 UNL     1      10.400   5.004 -37.528  1.00  0.00     0.080 A 
HETATM    8  C13 UNL     1      11.085   3.843 -37.210  1.00  0.00     0.025 A 
HETATM    9  C14 UNL     1      11.607   2.851 -38.013  1.00  0.00     0.124 A 
ENDROOT
BRANCH   1  10
HETATM   10  S1  UNL     1      12.957   0.515 -37.774  1.00  0.00     0.271 S 
HETATM   11  O1  UNL     1      12.469  -0.643 -36.909  1.00  0.00    -0.200 OA
HETATM   12  O2  UNL     1      12.492   0.162 -39.175  1.00  0.00    -0.200 OA
BRANCH  10  13
HETATM   13  C1  UNL     1      14.672   0.596 -37.768  1.00  0.00     0.113 A 
HETATM   14  C2  UNL     1      15.299   1.632 -37.105  1.00  0.00     0.031 A 
HETATM   15  C3  UNL     1      16.672   1.729 -37.077  1.00  0.00     0.038 A 
HETATM   16  C4  UNL     1      17.436   0.777 -37.721  1.00  0.00     0.068 A 
HETATM   17  C5  UNL     1      16.819  -0.282 -38.400  1.00  0.00     0.074 A 
HETATM   18  C6  UNL     1      15.444  -0.351 -38.409  1.00  0.00     0.091 A 
BRANCH  16  19
HETATM   19  O3  UNL     1      18.831   0.853 -37.708  1.00  0.00    -0.361 OA
ATOM     20  H3  UNL     1      19.344   0.239 -37.195  1.00  0.00     0.217 HD
ENDBRANCH  16  19
BRANCH  18  21
HETATM   21  O4  UNL     1      14.775  -1.368 -39.059  1.00  0.00    -0.359 OA
ATOM     22  H4  UNL     1      15.284  -1.911 -39.650  1.00  0.00     0.217 HD
ENDBRANCH  18  21
ENDBRANCH  10  13
ENDBRANCH   1  10
BRANCH   7  23
HETATM   23  O6  UNL     1      10.098   5.398 -38.822  1.00  0.00    -0.360 OA
ATOM     24  H6  UNL     1      10.218   4.764 -39.519  1.00  0.00     0.217 HD
ENDBRANCH   7  23
BRANCH   5  25
HETATM   25  O5  UNL     1       9.832   6.337 -34.176  1.00  0.00    -0.361 OA
ATOM     26  H5  UNL     1       9.293   7.099 -34.351  1.00  0.00     0.217 HD
ENDBRANCH   5  25
TORSDOF 6
ENDMDL
