MODEL 1
REMARK VINA RESULT: -7.823829846      0.000      0.000
REMARK  6 active torsions:
REMARK  status: ('A' for Active; 'I' for Inactive)
REMARK    1  A    between atoms: S1_2  and  C1_4 
REMARK    2  A    between atoms: S1_2  and  N1_14 
REMARK    3  A    between atoms: C4_7  and  O3_8 
REMARK    4  A    between atoms: C6_11  and  O4_12 
REMARK    5  A    between atoms: C10_18  and  O5_19 
REMARK    6  A    between atoms: C12_22  and  O6_23 
ROOT
HETATM    1  N1  UNL     1      14.201   1.297 -36.746  1.00  0.00    -0.256 N 
HETATM    2  C7  UNL     1      14.865   0.286 -37.325  1.00  0.00     0.121 A 
HETATM    3  C8  UNL     1      16.098   0.775 -37.691  1.00  0.00    -0.003 A 
HETATM    4  C9  UNL     1      17.187   0.226 -38.309  1.00  0.00     0.050 A 
HETATM    5  C10 UNL     1      18.339   0.965 -38.567  1.00  0.00     0.069 A 
HETATM    6  C11 UNL     1      18.370   2.283 -38.184  1.00  0.00     0.074 A 
HETATM    7  C12 UNL     1      17.293   2.872 -37.559  1.00  0.00     0.080 A 
HETATM    8  C13 UNL     1      16.170   2.095 -37.325  1.00  0.00     0.025 A 
HETATM    9  C14 UNL     1      14.964   2.402 -36.731  1.00  0.00     0.124 A 
ENDROOT
BRANCH   1  10
HETATM   10  S1  UNL     1      12.617   1.201 -36.111  1.00  0.00     0.271 S 
HETATM   11  O1  UNL     1      11.911   0.046 -36.815  1.00  0.00    -0.200 OA
HETATM   12  O2  UNL     1      12.648   0.790 -34.651  1.00  0.00    -0.200 OA
BRANCH  10  13
HETATM   13  C1  UNL     1      11.706   2.649 -36.255  1.00  0.00     0.113 A 
HETATM   14  C2  UNL     1      11.301   3.311 -35.114  1.00  0.00     0.031 A 
HETATM   15  C3  UNL     1      10.570   4.476 -35.190  1.00  0.00     0.038 A 
HETATM   16  C4  UNL     1      10.237   4.991 -36.427  1.00  0.00     0.068 A 
HETATM   17  C5  UNL     1      10.639   4.334 -37.596  1.00  0.00     0.074 A 
HETATM   18  C6  UNL     1      11.368   3.172 -37.486  1.00  0.00     0.091 A 
BRANCH  16  19
HETATM   19  O3  UNL     1       9.497   6.171 -36.531  1.00  0.00    -0.361 OA
ATOM     20  H3  UNL     1       8.555   6.165 -36.406  1.00  0.00     0.217 HD
ENDBRANCH  16  19
BRANCH  18  21
HETATM   21  O4  UNL     1      11.794   2.476 -38.600  1.00  0.00    -0.359 OA
ATOM     22  H4  UNL     1      11.289   2.587 -39.397  1.00  0.00     0.217 HD
ENDBRANCH  18  21
ENDBRANCH  10  13
ENDBRANCH   1  10
BRANCH   7  23
HETATM   23  O6  UNL     1      17.400   4.207 -37.203  1.00  0.00    -0.360 OA
ATOM     24  H6  UNL     1      17.547   4.413 -36.288  1.00  0.00     0.217 HD
ENDBRANCH   7  23
BRANCH   5  25
HETATM   25  O5  UNL     1      19.436   0.406 -39.190  1.00  0.00    -0.361 OA
ATOM     26  H5  UNL     1      19.754   0.727 -40.026  1.00  0.00     0.217 HD
ENDBRANCH   5  25
TORSDOF 6
ENDMDL
