MODEL 3
REMARK VINA RESULT: -9.029512222      2.263      8.728
REMARK  6 active torsions:
REMARK  status: ('A' for Active; 'I' for Inactive)
REMARK    1  A    between atoms: O1_2  and  C2_3 
REMARK    2  A    between atoms: C9_10  and  C10_11 
REMARK       I    between atoms: C10_11  and  N1_13 
REMARK    3  A    between atoms: N1_13  and  S1_15 
REMARK    4  A    between atoms: S1_15  and  C11_18 
REMARK    5  A    between atoms: N2_25  and  C18_26 
REMARK    6  A    between atoms: C18_26  and  C19_27 
ROOT
HETATM    1  C2  UNL     1      22.479   5.561   4.432  1.00  0.00     0.069 A 
HETATM    2  C3  UNL     1      23.432   6.385   3.872  1.00  0.00     0.039 A 
HETATM    3  C4  UNL     1      23.056   7.593   3.328  1.00  0.00     0.033 A 
HETATM    4  C5  UNL     1      21.753   8.040   3.309  1.00  0.00     0.046 A 
HETATM    5  C6  UNL     1      20.801   7.217   3.868  1.00  0.00    -0.004 A 
HETATM    6  C7  UNL     1      21.166   5.997   4.419  1.00  0.00     0.050 A 
HETATM    7  C8  UNL     1      19.613   7.894   3.716  1.00  0.00     0.049 A 
HETATM    8  C9  UNL     1      19.862   9.108   3.073  1.00  0.00     0.105 A 
HETATM    9  N2  UNL     1      21.170   9.185   2.830  1.00  0.00    -0.332 N 
ENDROOT
BRANCH   8  10
HETATM   10  C10 UNL     1      18.858  10.102   2.737  1.00  0.00     0.281 C 
HETATM   11  O2  UNL     1      18.548  11.061   3.477  1.00  0.00    -0.265 OA
HETATM   12  N1  UNL     1      18.134  10.040   1.493  1.00  0.00    -0.245 N 
ATOM     13  H1  UNL     1      18.354   9.273   0.858  1.00  0.00     0.182 HD
BRANCH  12  14
HETATM   14  S1  UNL     1      16.943  11.148   1.005  1.00  0.00     0.265 S 
HETATM   15  O3  UNL     1      17.508  12.540   0.796  1.00  0.00    -0.200 OA
HETATM   16  O4  UNL     1      15.878  11.287   2.053  1.00  0.00    -0.200 OA
BRANCH  14  17
HETATM   17  C11 UNL     1      16.171  10.695  -0.495  1.00  0.00     0.080 A 
HETATM   18  C12 UNL     1      16.959  10.197  -1.495  1.00  0.00     0.026 A 
HETATM   19  C13 UNL     1      16.409   9.821  -2.718  1.00  0.00     0.008 A 
HETATM   20  C14 UNL     1      15.049   9.941  -2.953  1.00  0.00    -0.062 A 
HETATM   21  C15 UNL     1      14.448   9.547  -4.249  1.00  0.00     0.048 C 
HETATM   22  C16 UNL     1      14.281  10.446  -1.925  1.00  0.00     0.008 A 
HETATM   23  C17 UNL     1      14.825  10.820  -0.710  1.00  0.00     0.026 A 
ENDBRANCH  14  17
ENDBRANCH  12  14
ENDBRANCH   8  10
BRANCH   9  24
HETATM   24  C18 UNL     1      21.902  10.268   2.177  1.00  0.00     0.242 C 
BRANCH  24  25
HETATM   25  C19 UNL     1      21.946  10.062   0.692  1.00  0.00     0.191 C 
HETATM   26  O5  UNL     1      20.890  10.376   0.061  1.00  0.00    -0.647 OA
HETATM   27  O6  UNL     1      23.033   9.570   0.016  1.00  0.00    -0.647 OA
ENDBRANCH  24  25
ENDBRANCH   9  24
BRANCH   1  28
HETATM   28  O1  UNL     1      22.825   4.324   4.994  1.00  0.00    -0.356 OA
HETATM   29  C1  UNL     1      24.118   4.158   5.540  1.00  0.00     0.210 C 
ENDBRANCH   1  28
TORSDOF 6
ENDMDL
