MODEL 1
REMARK VINA RESULT: -9.125890944      0.000      0.000
REMARK  6 active torsions:
REMARK  status: ('A' for Active; 'I' for Inactive)
REMARK    1  A    between atoms: O1_2  and  C2_3 
REMARK    2  A    between atoms: C9_10  and  C10_11 
REMARK       I    between atoms: C10_11  and  N1_13 
REMARK    3  A    between atoms: N1_13  and  S1_15 
REMARK    4  A    between atoms: S1_15  and  C11_18 
REMARK    5  A    between atoms: N2_25  and  C18_26 
REMARK    6  A    between atoms: C18_26  and  C19_27 
ROOT
HETATM    1  C2  UNL     1      13.839   9.908  -3.473  1.00  0.00     0.069 A 
HETATM    2  C3  UNL     1      13.237  10.185  -2.264  1.00  0.00     0.039 A 
HETATM    3  C4  UNL     1      14.013  10.451  -1.159  1.00  0.00     0.033 A 
HETATM    4  C5  UNL     1      15.391  10.456  -1.187  1.00  0.00     0.046 A 
HETATM    5  C6  UNL     1      15.993  10.180  -2.394  1.00  0.00    -0.004 A 
HETATM    6  C7  UNL     1      15.222   9.910  -3.516  1.00  0.00     0.050 A 
HETATM    7  C8  UNL     1      17.344  10.251  -2.142  1.00  0.00     0.049 A 
HETATM    8  C9  UNL     1      17.537  10.568  -0.796  1.00  0.00     0.105 A 
HETATM    9  N2  UNL     1      16.340  10.691  -0.224  1.00  0.00    -0.332 N 
ENDROOT
BRANCH   8  10
HETATM   10  C10 UNL     1      18.827  10.734  -0.150  1.00  0.00     0.281 C 
HETATM   11  O2  UNL     1      19.544  11.751  -0.269  1.00  0.00    -0.265 OA
HETATM   12  N1  UNL     1      19.376   9.703   0.694  1.00  0.00    -0.245 N 
ATOM     13  H1  UNL     1      18.826   8.854   0.819  1.00  0.00     0.182 HD
BRANCH  12  14
HETATM   14  S1  UNL     1      20.872   9.796   1.494  1.00  0.00     0.265 S 
HETATM   15  O3  UNL     1      20.895  10.896   2.538  1.00  0.00    -0.200 OA
HETATM   16  O4  UNL     1      21.976  10.117   0.530  1.00  0.00    -0.200 OA
BRANCH  14  17
HETATM   17  C11 UNL     1      21.290   8.315   2.322  1.00  0.00     0.080 A 
HETATM   18  C12 UNL     1      22.307   7.560   1.806  1.00  0.00     0.026 A 
HETATM   19  C13 UNL     1      22.688   6.366   2.413  1.00  0.00     0.008 A 
HETATM   20  C14 UNL     1      22.050   5.913   3.555  1.00  0.00    -0.062 A 
HETATM   21  C15 UNL     1      22.442   4.645   4.213  1.00  0.00     0.048 C 
HETATM   22  C16 UNL     1      21.029   6.698   4.051  1.00  0.00     0.008 A 
HETATM   23  C17 UNL     1      20.648   7.882   3.450  1.00  0.00     0.026 A 
ENDBRANCH  14  17
ENDBRANCH  12  14
ENDBRANCH   8  10
BRANCH   9  24
HETATM   24  C18 UNL     1      16.035  11.015   1.168  1.00  0.00     0.242 C 
BRANCH  24  25
HETATM   25  C19 UNL     1      15.970   9.771   2.002  1.00  0.00     0.191 C 
HETATM   26  O5  UNL     1      17.027   9.482   2.643  1.00  0.00    -0.647 OA
HETATM   27  O6  UNL     1      14.864   8.966   2.099  1.00  0.00    -0.647 OA
ENDBRANCH  24  25
ENDBRANCH   9  24
BRANCH   1  28
HETATM   28  O1  UNL     1      13.080   9.633  -4.618  1.00  0.00    -0.356 OA
HETATM   29  C1  UNL     1      11.670   9.632  -4.522  1.00  0.00     0.210 C 
ENDBRANCH   1  28
TORSDOF 6
ENDMDL
