MODEL 2
REMARK VINA RESULT: -9.048914905      2.624      8.708
REMARK  6 active torsions:
REMARK  status: ('A' for Active; 'I' for Inactive)
REMARK    1  A    between atoms: O1_2  and  C2_3 
REMARK    2  A    between atoms: C9_10  and  C10_11 
REMARK       I    between atoms: C10_11  and  N1_13 
REMARK    3  A    between atoms: N1_13  and  S1_15 
REMARK    4  A    between atoms: S1_15  and  C11_18 
REMARK    5  A    between atoms: N2_25  and  C18_26 
REMARK    6  A    between atoms: C18_26  and  C19_27 
ROOT
HETATM    1  C2  UNL     1      21.597   9.068   5.228  1.00  0.00     0.069 A 
HETATM    2  C3  UNL     1      22.230   9.306   4.027  1.00  0.00     0.039 A 
HETATM    3  C4  UNL     1      21.485   9.626   2.914  1.00  0.00     0.033 A 
HETATM    4  C5  UNL     1      20.110   9.727   2.928  1.00  0.00     0.046 A 
HETATM    5  C6  UNL     1      19.479   9.489   4.128  1.00  0.00    -0.004 A 
HETATM    6  C7  UNL     1      20.217   9.165   5.257  1.00  0.00     0.050 A 
HETATM    7  C8  UNL     1      18.138   9.654   3.863  1.00  0.00     0.049 A 
HETATM    8  C9  UNL     1      17.981   9.986   2.516  1.00  0.00     0.105 A 
HETATM    9  N2  UNL     1      19.190  10.028   1.957  1.00  0.00    -0.332 N 
ENDROOT
BRANCH   8  10
HETATM   10  C10 UNL     1      16.712  10.242   1.857  1.00  0.00     0.281 C 
HETATM   11  O2  UNL     1      16.294  11.382   1.562  1.00  0.00    -0.265 OA
HETATM   12  N1  UNL     1      15.831   9.162   1.493  1.00  0.00    -0.245 N 
ATOM     13  H1  UNL     1      16.131   8.213   1.716  1.00  0.00     0.182 HD
BRANCH  12  14
HETATM   14  S1  UNL     1      14.329   9.350   0.722  1.00  0.00     0.265 S 
HETATM   15  O3  UNL     1      13.522  10.491   1.313  1.00  0.00    -0.200 OA
HETATM   16  O4  UNL     1      13.486   8.120   0.882  1.00  0.00    -0.200 OA
BRANCH  14  17
HETATM   17  C11 UNL     1      14.482   9.683  -0.986  1.00  0.00     0.080 A 
HETATM   18  C12 UNL     1      13.382  10.157  -1.645  1.00  0.00     0.026 A 
HETATM   19  C13 UNL     1      13.433  10.438  -3.009  1.00  0.00     0.008 A 
HETATM   20  C14 UNL     1      14.598  10.246  -3.732  1.00  0.00    -0.062 A 
HETATM   21  C15 UNL     1      14.669  10.538  -5.182  1.00  0.00     0.048 C 
HETATM   22  C16 UNL     1      15.690   9.767  -3.038  1.00  0.00     0.008 A 
HETATM   23  C17 UNL     1      15.641   9.487  -1.685  1.00  0.00     0.026 A 
ENDBRANCH  14  17
ENDBRANCH  12  14
ENDBRANCH   8  10
BRANCH   9  24
HETATM   24  C18 UNL     1      19.530  10.333   0.569  1.00  0.00     0.242 C 
BRANCH  24  25
HETATM   25  C19 UNL     1      19.877  11.784   0.412  1.00  0.00     0.191 C 
HETATM   26  O5  UNL     1      18.901  12.560   0.176  1.00  0.00    -0.647 OA
HETATM   27  O6  UNL     1      21.149  12.285   0.510  1.00  0.00    -0.647 OA
ENDBRANCH  24  25
ENDBRANCH   9  24
BRANCH   1  28
HETATM   28  O1  UNL     1      22.324   8.738   6.380  1.00  0.00    -0.356 OA
HETATM   29  C1  UNL     1      23.730   8.877   6.366  1.00  0.00     0.210 C 
ENDBRANCH   1  28
TORSDOF 6
ENDMDL
