MODEL 5
REMARK VINA RESULT: -8.994853804      3.422      4.899
REMARK  6 active torsions:
REMARK  status: ('A' for Active; 'I' for Inactive)
REMARK    1  A    between atoms: O1_2  and  C2_3 
REMARK    2  A    between atoms: C9_10  and  C10_11 
REMARK       I    between atoms: C10_11  and  N1_13 
REMARK    3  A    between atoms: N1_13  and  S1_15 
REMARK    4  A    between atoms: S1_15  and  C11_18 
REMARK    5  A    between atoms: N2_25  and  C18_26 
REMARK    6  A    between atoms: C18_26  and  C19_27 
ROOT
HETATM    1  C2  UNL     1      13.674  10.060  -4.188  1.00  0.00     0.069 A 
HETATM    2  C3  UNL     1      14.998   9.920  -4.549  1.00  0.00     0.039 A 
HETATM    3  C4  UNL     1      15.977   9.961  -3.582  1.00  0.00     0.033 A 
HETATM    4  C5  UNL     1      15.709  10.138  -2.242  1.00  0.00     0.046 A 
HETATM    5  C6  UNL     1      14.388  10.277  -1.882  1.00  0.00    -0.004 A 
HETATM    6  C7  UNL     1      13.391  10.238  -2.846  1.00  0.00     0.050 A 
HETATM    7  C8  UNL     1      14.406  10.436  -0.515  1.00  0.00     0.049 A 
HETATM    8  C9  UNL     1      15.730  10.390  -0.072  1.00  0.00     0.105 A 
HETATM    9  N2  UNL     1      16.514  10.208  -1.134  1.00  0.00    -0.332 N 
ENDROOT
BRANCH   8  10
HETATM   10  C10 UNL     1      16.157  10.517   1.310  1.00  0.00     0.281 C 
HETATM   11  O2  UNL     1      15.995  11.546   2.001  1.00  0.00    -0.265 OA
HETATM   12  N1  UNL     1      16.815   9.430   1.990  1.00  0.00    -0.245 N 
ATOM     13  H1  UNL     1      16.969   8.570   1.464  1.00  0.00     0.182 HD
BRANCH  12  14
HETATM   14  S1  UNL     1      17.353   9.475   3.600  1.00  0.00     0.265 S 
HETATM   15  O3  UNL     1      18.042  10.784   3.938  1.00  0.00    -0.200 OA
HETATM   16  O4  UNL     1      18.364   8.397   3.858  1.00  0.00    -0.200 OA
BRANCH  14  17
HETATM   17  C11 UNL     1      16.055   9.286   4.753  1.00  0.00     0.080 A 
HETATM   18  C12 UNL     1      16.383   9.204   6.078  1.00  0.00     0.026 A 
HETATM   19  C13 UNL     1      15.398   9.047   7.050  1.00  0.00     0.008 A 
HETATM   20  C14 UNL     1      14.060   8.971   6.701  1.00  0.00    -0.062 A 
HETATM   21  C15 UNL     1      13.000   8.803   7.722  1.00  0.00     0.048 C 
HETATM   22  C16 UNL     1      13.761   9.058   5.358  1.00  0.00     0.008 A 
HETATM   23  C17 UNL     1      14.737   9.213   4.391  1.00  0.00     0.026 A 
ENDBRANCH  14  17
ENDBRANCH  12  14
ENDBRANCH   8  10
BRANCH   9  24
HETATM   24  C18 UNL     1      17.971  10.095  -1.168  1.00  0.00     0.242 C 
BRANCH  24  25
HETATM   25  C19 UNL     1      18.607  11.143  -0.305  1.00  0.00     0.191 C 
HETATM   26  O5  UNL     1      19.359  10.710   0.622  1.00  0.00    -0.647 OA
HETATM   27  O6  UNL     1      18.418  12.491  -0.466  1.00  0.00    -0.647 OA
ENDBRANCH  24  25
ENDBRANCH   9  24
BRANCH   1  28
HETATM   28  O1  UNL     1      12.652  10.024  -5.146  1.00  0.00    -0.356 OA
HETATM   29  C1  UNL     1      11.345   9.670  -4.740  1.00  0.00     0.210 C 
ENDBRANCH   1  28
TORSDOF 6
ENDMDL
