MODEL 1
REMARK VINA RESULT: -7.094910128      0.000      0.000
REMARK  3 active torsions:
REMARK  status: ('A' for Active; 'I' for Inactive)
REMARK    1  A    between atoms: O1_2  and  C2_3 
REMARK    2  A    between atoms: C4_5  and  O2_6 
REMARK    3  A    between atoms: C13_18  and  O4_19 
ROOT
HETATM    1  C2  UNL     1      24.256  41.658  21.304  1.00  0.00     0.073 A 
HETATM    2  C3  UNL     1      25.387  41.670  20.494  1.00  0.00     0.074 A 
HETATM    3  C4  UNL     1      25.918  40.521  19.973  1.00  0.00     0.088 A 
HETATM    4  C6  UNL     1      25.322  39.323  20.253  1.00  0.00     0.092 A 
HETATM    5  C7  UNL     1      25.774  38.111  19.780  1.00  0.00     0.262 A 
HETATM    6  O3  UNL     1      26.810  38.153  19.043  1.00  0.00    -0.267 OA
HETATM    7  N1  UNL     1      25.177  36.945  20.064  1.00  0.00    -0.308 N 
ATOM      8  H1  UNL     1      25.552  36.074  19.690  1.00  0.00     0.170 HD
HETATM    9  C8  UNL     1      24.095  36.928  20.838  1.00  0.00     0.118 A 
HETATM   10  C9  UNL     1      23.431  35.683  21.161  1.00  0.00     0.009 A 
HETATM   11  C10 UNL     1      22.298  35.744  21.981  1.00  0.00     0.024 A 
HETATM   12  C11 UNL     1      21.618  34.599  22.328  1.00  0.00    -0.027 A 
HETATM   13  C12 UNL     1      20.419  34.614  23.189  1.00  0.00     0.051 C 
HETATM   14  C13 UNL     1      22.072  33.386  21.853  1.00  0.00     0.077 A 
HETATM   15  C14 UNL     1      23.187  33.304  21.044  1.00  0.00    -0.027 A 
HETATM   16  C15 UNL     1      23.673  31.981  20.534  1.00  0.00     0.051 C 
HETATM   17  C16 UNL     1      23.873  34.468  20.696  1.00  0.00     0.024 A 
HETATM   18  N2  UNL     1      23.585  38.073  21.345  1.00  0.00    -0.341 N 
ATOM     19  H2  UNL     1      22.755  38.050  21.937  1.00  0.00     0.167 HD
HETATM   20  C17 UNL     1      24.181  39.236  21.060  1.00  0.00     0.055 A 
HETATM   21  C18 UNL     1      23.680  40.436  21.566  1.00  0.00     0.067 A 
ENDROOT
BRANCH   3  22
HETATM   22  O2  UNL     1      27.034  40.577  19.180  1.00  0.00    -0.355 OA
HETATM   23  C5  UNL     1      28.015  41.569  19.230  1.00  0.00     0.210 C 
ENDBRANCH   3  22
BRANCH  14  24
HETATM   24  O4  UNL     1      21.380  32.242  22.208  1.00  0.00    -0.360 OA
ATOM     25  H4  UNL     1      21.868  31.433  22.303  1.00  0.00     0.217 HD
ENDBRANCH  14  24
BRANCH   1  26
HETATM   26  O1  UNL     1      23.771  42.844  21.797  1.00  0.00    -0.356 OA
HETATM   27  C1  UNL     1      22.870  42.918  22.867  1.00  0.00     0.210 C 
ENDBRANCH   1  26
TORSDOF 3
ENDMDL
