MODEL 8
REMARK VINA RESULT: -6.604415914      1.651      8.071
REMARK  3 active torsions:
REMARK  status: ('A' for Active; 'I' for Inactive)
REMARK    1  A    between atoms: O1_2  and  C2_3 
REMARK    2  A    between atoms: C4_5  and  O2_6 
REMARK    3  A    between atoms: C13_18  and  O4_19 
ROOT
HETATM    1  C2  UNL     1      23.314  32.890  20.719  1.00  0.00     0.073 A 
HETATM    2  C3  UNL     1      22.319  32.682  21.668  1.00  0.00     0.074 A 
HETATM    3  C4  UNL     1      21.805  33.706  22.418  1.00  0.00     0.088 A 
HETATM    4  C6  UNL     1      22.281  34.974  22.231  1.00  0.00     0.092 A 
HETATM    5  C7  UNL     1      21.834  36.073  22.931  1.00  0.00     0.262 A 
HETATM    6  O3  UNL     1      20.924  35.852  23.792  1.00  0.00    -0.267 OA
HETATM    7  N1  UNL     1      22.311  37.310  22.736  1.00  0.00    -0.308 N 
ATOM      8  H1  UNL     1      21.947  38.091  23.280  1.00  0.00     0.170 HD
HETATM    9  C8  UNL     1      23.263  37.515  21.829  1.00  0.00     0.118 A 
HETATM   10  C9  UNL     1      23.797  38.841  21.597  1.00  0.00     0.009 A 
HETATM   11  C10 UNL     1      24.797  38.978  20.628  1.00  0.00     0.024 A 
HETATM   12  C11 UNL     1      25.349  40.210  20.357  1.00  0.00    -0.027 A 
HETATM   13  C12 UNL     1      26.405  40.404  19.343  1.00  0.00     0.051 C 
HETATM   14  C13 UNL     1      24.900  41.308  21.058  1.00  0.00     0.077 A 
HETATM   15  C14 UNL     1      23.916  41.194  22.018  1.00  0.00    -0.027 A 
HETATM   16  C15 UNL     1      23.434  42.395  22.776  1.00  0.00     0.051 C 
HETATM   17  C16 UNL     1      23.360  39.944  22.289  1.00  0.00     0.024 A 
HETATM   18  N2  UNL     1      23.759  36.491  21.098  1.00  0.00    -0.341 N 
ATOM     19  H2  UNL     1      24.489  36.658  20.406  1.00  0.00     0.167 HD
HETATM   20  C17 UNL     1      23.281  35.258  21.294  1.00  0.00     0.055 A 
HETATM   21  C18 UNL     1      23.771  34.178  20.556  1.00  0.00     0.067 A 
ENDROOT
BRANCH   3  22
HETATM   22  O2  UNL     1      20.825  33.457  23.342  1.00  0.00    -0.355 OA
HETATM   23  C5  UNL     1      20.717  32.301  24.118  1.00  0.00     0.210 C 
ENDBRANCH   3  22
BRANCH  14  24
HETATM   24  O4  UNL     1      25.462  42.541  20.777  1.00  0.00    -0.360 OA
ATOM     25  H4  UNL     1      24.914  43.313  20.853  1.00  0.00     0.217 HD
ENDBRANCH  14  24
BRANCH   1  26
HETATM   26  O1  UNL     1      23.789  31.823  19.998  1.00  0.00    -0.356 OA
HETATM   27  C1  UNL     1      23.837  30.518  20.504  1.00  0.00     0.210 C 
ENDBRANCH   1  26
TORSDOF 3
ENDMDL
