MODEL 2
REMARK VINA RESULT: -7.022985174      2.390      7.042
REMARK  3 active torsions:
REMARK  status: ('A' for Active; 'I' for Inactive)
REMARK    1  A    between atoms: O1_2  and  C2_3 
REMARK    2  A    between atoms: C4_5  and  O2_6 
REMARK    3  A    between atoms: C13_18  and  O4_19 
ROOT
HETATM    1  C2  UNL     1      24.878  37.494  20.242  1.00  0.00     0.073 A 
HETATM    2  C3  UNL     1      25.960  38.085  19.599  1.00  0.00     0.074 A 
HETATM    3  C4  UNL     1      26.209  39.429  19.683  1.00  0.00     0.088 A 
HETATM    4  C6  UNL     1      25.370  40.218  20.421  1.00  0.00     0.092 A 
HETATM    5  C7  UNL     1      25.530  41.578  20.571  1.00  0.00     0.262 A 
HETATM    6  O3  UNL     1      26.527  42.090  19.970  1.00  0.00    -0.267 OA
HETATM    7  N1  UNL     1      24.699  42.337  21.298  1.00  0.00    -0.308 N 
ATOM      8  H1  UNL     1      24.860  43.341  21.377  1.00  0.00     0.170 HD
HETATM    9  C8  UNL     1      23.662  41.777  21.916  1.00  0.00     0.118 A 
HETATM   10  C9  UNL     1      22.749  42.573  22.708  1.00  0.00     0.009 A 
HETATM   11  C10 UNL     1      21.682  41.913  23.328  1.00  0.00     0.024 A 
HETATM   12  C11 UNL     1      20.775  42.609  24.096  1.00  0.00    -0.027 A 
HETATM   13  C12 UNL     1      19.634  41.957  24.769  1.00  0.00     0.051 C 
HETATM   14  C13 UNL     1      20.937  43.970  24.244  1.00  0.00     0.077 A 
HETATM   15  C14 UNL     1      21.981  44.640  23.641  1.00  0.00    -0.027 A 
HETATM   16  C15 UNL     1      22.148  46.120  23.809  1.00  0.00     0.051 C 
HETATM   17  C16 UNL     1      22.897  43.930  22.864  1.00  0.00     0.024 A 
HETATM   18  N2  UNL     1      23.432  40.447  21.821  1.00  0.00    -0.341 N 
ATOM     19  H2  UNL     1      22.635  40.027  22.298  1.00  0.00     0.167 HD
HETATM   20  C17 UNL     1      24.263  39.691  21.095  1.00  0.00     0.055 A 
HETATM   21  C18 UNL     1      24.054  38.316  20.977  1.00  0.00     0.067 A 
ENDROOT
BRANCH   3  22
HETATM   22  O2  UNL     1      27.286  39.971  19.033  1.00  0.00    -0.355 OA
HETATM   23  C5  UNL     1      28.519  39.344  18.846  1.00  0.00     0.210 C 
ENDBRANCH   3  22
BRANCH  14  24
HETATM   24  O4  UNL     1      20.020  44.659  25.018  1.00  0.00    -0.360 OA
ATOM     25  H4  UNL     1      20.217  45.556  25.259  1.00  0.00     0.217 HD
ENDBRANCH  14  24
BRANCH   1  26
HETATM   26  O1  UNL     1      24.681  36.141  20.120  1.00  0.00    -0.356 OA
HETATM   27  C1  UNL     1      24.022  35.372  21.088  1.00  0.00     0.210 C 
ENDBRANCH   1  26
TORSDOF 3
ENDMDL
