MODEL 4
REMARK VINA RESULT: -6.913086943      2.402      6.834
REMARK  3 active torsions:
REMARK  status: ('A' for Active; 'I' for Inactive)
REMARK    1  A    between atoms: O1_2  and  C2_3 
REMARK    2  A    between atoms: C4_5  and  O2_6 
REMARK    3  A    between atoms: C13_18  and  O4_19 
ROOT
HETATM    1  C2  UNL     1      22.348  38.986  23.038  1.00  0.00     0.073 A 
HETATM    2  C3  UNL     1      22.097  37.622  22.929  1.00  0.00     0.074 A 
HETATM    3  C4  UNL     1      22.855  36.806  22.132  1.00  0.00     0.088 A 
HETATM    4  C6  UNL     1      23.890  37.344  21.419  1.00  0.00     0.092 A 
HETATM    5  C7  UNL     1      24.712  36.614  20.589  1.00  0.00     0.262 A 
HETATM    6  O3  UNL     1      24.459  35.370  20.510  1.00  0.00    -0.267 OA
HETATM    7  N1  UNL     1      25.723  37.157  19.897  1.00  0.00    -0.308 N 
ATOM      8  H1  UNL     1      26.302  36.573  19.295  1.00  0.00     0.170 HD
HETATM    9  C8  UNL     1      25.967  38.461  19.997  1.00  0.00     0.118 A 
HETATM   10  C9  UNL     1      27.053  39.073  19.261  1.00  0.00     0.009 A 
HETATM   11  C10 UNL     1      27.248  40.451  19.416  1.00  0.00     0.024 A 
HETATM   12  C11 UNL     1      28.261  41.097  18.745  1.00  0.00    -0.027 A 
HETATM   13  C12 UNL     1      28.506  42.547  18.879  1.00  0.00     0.051 C 
HETATM   14  C13 UNL     1      29.083  40.365  17.916  1.00  0.00     0.077 A 
HETATM   15  C14 UNL     1      28.907  39.007  17.748  1.00  0.00    -0.027 A 
HETATM   16  C15 UNL     1      29.806  38.219  16.843  1.00  0.00     0.051 C 
HETATM   17  C16 UNL     1      27.878  38.356  18.430  1.00  0.00     0.024 A 
HETATM   18  N2  UNL     1      25.208  39.251  20.789  1.00  0.00    -0.341 N 
ATOM     19  H2  UNL     1      25.402  40.250  20.859  1.00  0.00     0.167 HD
HETATM   20  C17 UNL     1      24.200  38.708  21.480  1.00  0.00     0.055 A 
HETATM   21  C18 UNL     1      23.397  39.495  22.307  1.00  0.00     0.067 A 
ENDROOT
BRANCH   3  22
HETATM   22  O2  UNL     1      22.574  35.468  22.054  1.00  0.00    -0.355 OA
HETATM   23  C5  UNL     1      21.451  34.842  22.598  1.00  0.00     0.210 C 
ENDBRANCH   3  22
BRANCH  14  24
HETATM   24  O4  UNL     1      30.097  41.026  17.247  1.00  0.00    -0.360 OA
ATOM     25  H4  UNL     1      30.193  40.877  16.314  1.00  0.00     0.217 HD
ENDBRANCH  14  24
BRANCH   1  26
HETATM   26  O1  UNL     1      21.553  39.752  23.854  1.00  0.00    -0.356 OA
HETATM   27  C1  UNL     1      20.441  40.466  23.390  1.00  0.00     0.210 C 
ENDBRANCH   1  26
TORSDOF 3
ENDMDL
