MODEL 5
REMARK VINA RESULT: -7.170816528      2.410      8.794
REMARK  7 active torsions:
REMARK  status: ('A' for Active; 'I' for Inactive)
REMARK    1  A    between atoms: O1_2  and  C2_3 
REMARK    2  A    between atoms: C4_5  and  O2_6 
REMARK    3  A    between atoms: C8_13  and  C9_14 
REMARK    4  A    between atoms: C13_18  and  O4_19 
REMARK    5  A    between atoms: O4_19  and  C14_20 
REMARK    6  A    between atoms: C14_20  and  C15_21 
REMARK    7  A    between atoms: C15_21  and  O5_22 
ROOT
HETATM    1  C2  UNL     1      -7.147  44.766  39.587  1.00  0.00     0.073 A 
HETATM    2  C3  UNL     1      -6.525  43.538  39.550  1.00  0.00     0.074 A 
HETATM    3  C4  UNL     1      -6.626  42.699  40.668  1.00  0.00     0.088 A 
HETATM    4  C6  UNL     1      -7.340  43.109  41.775  1.00  0.00     0.092 A 
HETATM    5  C7  UNL     1      -7.458  42.308  42.888  1.00  0.00     0.262 A 
HETATM    6  O3  UNL     1      -6.895  41.182  42.870  1.00  0.00    -0.267 OA
HETATM    7  N1  UNL     1      -8.168  42.732  43.976  1.00  0.00    -0.308 N 
ATOM      8  H1  UNL     1      -8.238  42.117  44.786  1.00  0.00     0.170 HD
HETATM    9  C8  UNL     1      -8.776  43.923  44.020  1.00  0.00     0.118 A 
HETATM   10  N2  UNL     1      -8.656  44.710  42.919  1.00  0.00    -0.341 N 
ATOM     11  H2  UNL     1      -9.107  45.624  42.922  1.00  0.00     0.167 HD
HETATM   12  C19 UNL     1      -7.967  44.336  41.826  1.00  0.00     0.055 A 
HETATM   13  C20 UNL     1      -7.857  45.148  40.717  1.00  0.00     0.067 A 
ENDROOT
BRANCH   9  14
HETATM   14  C9  UNL     1      -9.542  44.391  45.180  1.00  0.00     0.009 A 
HETATM   15  C10 UNL     1     -10.016  45.692  45.220  1.00  0.00     0.024 A 
HETATM   16  C11 UNL     1     -10.745  46.209  46.275  1.00  0.00    -0.027 A 
HETATM   17  C12 UNL     1     -11.231  47.614  46.266  1.00  0.00     0.051 C 
HETATM   18  C13 UNL     1     -11.002  45.368  47.332  1.00  0.00     0.080 A 
HETATM   19  C16 UNL     1     -10.557  44.071  47.345  1.00  0.00    -0.027 A 
HETATM   20  C17 UNL     1     -10.868  43.216  48.515  1.00  0.00     0.051 C 
HETATM   21  C18 UNL     1      -9.820  43.581  46.255  1.00  0.00     0.024 A 
BRANCH  18  22
HETATM   22  O4  UNL     1     -11.726  45.845  48.404  1.00  0.00    -0.348 OA
BRANCH  22  23
HETATM   23  C14 UNL     1     -11.134  46.229  49.631  1.00  0.00     0.201 C 
BRANCH  23  24
HETATM   24  C15 UNL     1     -11.166  47.746  49.725  1.00  0.00     0.190 C 
BRANCH  24  25
HETATM   25  O5  UNL     1      -9.897  48.285  49.487  1.00  0.00    -0.399 OA
ATOM     26  H5  UNL     1      -9.434  48.431  50.303  1.00  0.00     0.209 HD
ENDBRANCH  24  25
ENDBRANCH  23  24
ENDBRANCH  22  23
ENDBRANCH  18  22
ENDBRANCH   9  14
BRANCH   3  27
HETATM   27  O2  UNL     1      -6.024  41.450  40.697  1.00  0.00    -0.355 OA
HETATM   28  C5  UNL     1      -5.177  41.107  39.617  1.00  0.00     0.210 C 
ENDBRANCH   3  27
BRANCH   1  29
HETATM   29  O1  UNL     1      -7.069  45.623  38.503  1.00  0.00    -0.356 OA
HETATM   30  C1  UNL     1      -6.041  46.591  38.477  1.00  0.00     0.210 C 
ENDBRANCH   1  29
TORSDOF 7
ENDMDL
