MODEL 2
REMARK VINA RESULT: -7.458559015      0.100      1.632
REMARK  7 active torsions:
REMARK  status: ('A' for Active; 'I' for Inactive)
REMARK    1  A    between atoms: O1_2  and  C2_3 
REMARK    2  A    between atoms: C4_5  and  O2_6 
REMARK    3  A    between atoms: C8_13  and  C9_14 
REMARK    4  A    between atoms: C13_18  and  O4_19 
REMARK    5  A    between atoms: O4_19  and  C14_20 
REMARK    6  A    between atoms: C14_20  and  C15_21 
REMARK    7  A    between atoms: C15_21  and  O5_22 
ROOT
HETATM    1  C2  UNL     1     -10.409  44.139  47.118  1.00  0.00     0.073 A 
HETATM    2  C3  UNL     1     -10.978  45.270  46.576  1.00  0.00     0.074 A 
HETATM    3  C4  UNL     1     -10.646  45.625  45.262  1.00  0.00     0.088 A 
HETATM    4  C6  UNL     1      -9.767  44.846  44.538  1.00  0.00     0.092 A 
HETATM    5  C7  UNL     1      -9.422  45.168  43.245  1.00  0.00     0.262 A 
HETATM    6  O3  UNL     1      -9.934  46.200  42.735  1.00  0.00    -0.267 OA
HETATM    7  N1  UNL     1      -8.549  44.385  42.544  1.00  0.00    -0.308 N 
ATOM      8  H1  UNL     1      -8.312  44.650  41.588  1.00  0.00     0.170 HD
HETATM    9  C8  UNL     1      -7.993  43.284  43.062  1.00  0.00     0.118 A 
HETATM   10  N2  UNL     1      -8.336  42.971  44.339  1.00  0.00    -0.341 N 
ATOM     11  H2  UNL     1      -7.929  42.139  44.763  1.00  0.00     0.167 HD
HETATM   12  C19 UNL     1      -9.191  43.712  45.068  1.00  0.00     0.055 A 
HETATM   13  C20 UNL     1      -9.528  43.378  46.363  1.00  0.00     0.067 A 
ENDROOT
BRANCH   9  14
HETATM   14  C9  UNL     1      -7.055  42.434  42.322  1.00  0.00     0.009 A 
HETATM   15  C10 UNL     1      -6.215  41.569  43.005  1.00  0.00     0.024 A 
HETATM   16  C11 UNL     1      -5.305  40.735  42.381  1.00  0.00    -0.027 A 
HETATM   17  C12 UNL     1      -4.427  39.824  43.163  1.00  0.00     0.051 C 
HETATM   18  C13 UNL     1      -5.246  40.783  41.009  1.00  0.00     0.080 A 
HETATM   19  C16 UNL     1      -6.054  41.621  40.283  1.00  0.00    -0.027 A 
HETATM   20  C17 UNL     1      -5.942  41.626  38.805  1.00  0.00     0.051 C 
HETATM   21  C18 UNL     1      -6.967  42.454  40.951  1.00  0.00     0.024 A 
BRANCH  18  22
HETATM   22  O4  UNL     1      -4.352  39.969  40.349  1.00  0.00    -0.348 OA
BRANCH  22  23
HETATM   23  C14 UNL     1      -3.201  40.456  39.686  1.00  0.00     0.201 C 
BRANCH  23  24
HETATM   24  C15 UNL     1      -2.000  39.648  40.154  1.00  0.00     0.190 C 
BRANCH  24  25
HETATM   25  O5  UNL     1      -0.925  40.491  40.461  1.00  0.00    -0.399 OA
ATOM     26  H5  UNL     1      -0.187  39.990  40.787  1.00  0.00     0.209 HD
ENDBRANCH  24  25
ENDBRANCH  23  24
ENDBRANCH  22  23
ENDBRANCH  18  22
ENDBRANCH   9  14
BRANCH   3  27
HETATM   27  O2  UNL     1     -11.183  46.752  44.655  1.00  0.00    -0.355 OA
HETATM   28  C5  UNL     1     -11.296  47.924  45.438  1.00  0.00     0.210 C 
ENDBRANCH   3  27
BRANCH   1  29
HETATM   29  O1  UNL     1     -10.711  43.756  48.413  1.00  0.00    -0.356 OA
HETATM   30  C1  UNL     1      -9.923  42.756  49.024  1.00  0.00     0.210 C 
ENDBRANCH   1  29
TORSDOF 7
ENDMDL
