MODEL 3
REMARK VINA RESULT: -7.415668685      5.489      8.135
REMARK  7 active torsions:
REMARK  status: ('A' for Active; 'I' for Inactive)
REMARK    1  A    between atoms: O1_2  and  C2_3 
REMARK    2  A    between atoms: C4_5  and  O2_6 
REMARK    3  A    between atoms: C8_13  and  C9_14 
REMARK    4  A    between atoms: C13_18  and  O4_19 
REMARK    5  A    between atoms: O4_19  and  C14_20 
REMARK    6  A    between atoms: C14_20  and  C15_21 
REMARK    7  A    between atoms: C15_21  and  O5_22 
ROOT
HETATM    1  C2  UNL     1      -6.310  48.269  35.011  1.00  0.00     0.073 A 
HETATM    2  C3  UNL     1      -7.064  49.362  35.378  1.00  0.00     0.074 A 
HETATM    3  C4  UNL     1      -7.722  49.340  36.614  1.00  0.00     0.088 A 
HETATM    4  C6  UNL     1      -7.606  48.239  37.438  1.00  0.00     0.092 A 
HETATM    5  C7  UNL     1      -8.239  48.188  38.659  1.00  0.00     0.262 A 
HETATM    6  O3  UNL     1      -8.932  49.179  39.008  1.00  0.00    -0.267 OA
HETATM    7  N1  UNL     1      -8.113  47.089  39.461  1.00  0.00    -0.308 N 
ATOM      8  H1  UNL     1      -8.594  47.080  40.360  1.00  0.00     0.170 HD
HETATM    9  C8  UNL     1      -7.382  46.023  39.113  1.00  0.00     0.118 A 
HETATM   10  N2  UNL     1      -6.759  46.079  37.907  1.00  0.00    -0.341 N 
ATOM     11  H2  UNL     1      -6.195  45.283  37.613  1.00  0.00     0.167 HD
HETATM   12  C19 UNL     1      -6.855  47.139  37.084  1.00  0.00     0.055 A 
HETATM   13  C20 UNL     1      -6.214  47.178  35.863  1.00  0.00     0.067 A 
ENDROOT
BRANCH   9  14
HETATM   14  C9  UNL     1      -7.236  44.837  39.963  1.00  0.00     0.009 A 
HETATM   15  C10 UNL     1      -6.617  43.701  39.469  1.00  0.00     0.024 A 
HETATM   16  C11 UNL     1      -6.440  42.544  40.206  1.00  0.00    -0.027 A 
HETATM   17  C12 UNL     1      -5.767  41.352  39.626  1.00  0.00     0.051 C 
HETATM   18  C13 UNL     1      -6.914  42.543  41.497  1.00  0.00     0.080 A 
HETATM   19  C16 UNL     1      -7.535  43.640  42.036  1.00  0.00    -0.027 A 
HETATM   20  C17 UNL     1      -8.023  43.575  43.434  1.00  0.00     0.051 C 
HETATM   21  C18 UNL     1      -7.696  44.798  41.258  1.00  0.00     0.024 A 
BRANCH  18  22
HETATM   22  O4  UNL     1      -6.758  41.409  42.264  1.00  0.00    -0.348 OA
BRANCH  22  23
HETATM   23  C14 UNL     1      -5.705  41.238  43.194  1.00  0.00     0.201 C 
BRANCH  23  24
HETATM   24  C15 UNL     1      -4.741  40.201  42.640  1.00  0.00     0.190 C 
BRANCH  24  25
HETATM   25  O5  UNL     1      -4.233  39.398  43.668  1.00  0.00    -0.399 OA
ATOM     26  H5  UNL     1      -3.643  39.894  44.223  1.00  0.00     0.209 HD
ENDBRANCH  24  25
ENDBRANCH  23  24
ENDBRANCH  22  23
ENDBRANCH  18  22
ENDBRANCH   9  14
BRANCH   3  27
HETATM   27  O2  UNL     1      -8.498  50.407  37.045  1.00  0.00    -0.355 OA
HETATM   28  C5  UNL     1      -8.679  51.486  36.149  1.00  0.00     0.210 C 
ENDBRANCH   3  27
BRANCH   1  29
HETATM   29  O1  UNL     1      -5.646  48.252  33.797  1.00  0.00    -0.356 OA
HETATM   30  C1  UNL     1      -6.370  48.560  32.624  1.00  0.00     0.210 C 
ENDBRANCH   1  29
TORSDOF 7
ENDMDL
