MODEL 1
REMARK VINA RESULT: -7.552824283      0.000      0.000
REMARK  7 active torsions:
REMARK  status: ('A' for Active; 'I' for Inactive)
REMARK    1  A    between atoms: O1_2  and  C2_3 
REMARK    2  A    between atoms: C4_5  and  O2_6 
REMARK    3  A    between atoms: C8_13  and  C9_14 
REMARK    4  A    between atoms: C13_18  and  O4_19 
REMARK    5  A    between atoms: O4_19  and  C14_20 
REMARK    6  A    between atoms: C14_20  and  C15_21 
REMARK    7  A    between atoms: C15_21  and  O5_22 
ROOT
HETATM    1  C2  UNL     1     -10.470  44.175  47.146  1.00  0.00     0.073 A 
HETATM    2  C3  UNL     1     -11.027  45.293  46.568  1.00  0.00     0.074 A 
HETATM    3  C4  UNL     1     -10.668  45.621  45.254  1.00  0.00     0.088 A 
HETATM    4  C6  UNL     1      -9.774  44.828  44.565  1.00  0.00     0.092 A 
HETATM    5  C7  UNL     1      -9.402  45.122  43.273  1.00  0.00     0.262 A 
HETATM    6  O3  UNL     1      -9.903  46.142  42.731  1.00  0.00    -0.267 OA
HETATM    7  N1  UNL     1      -8.515  44.325  42.607  1.00  0.00    -0.308 N 
ATOM      8  H1  UNL     1      -8.258  44.570  41.651  1.00  0.00     0.170 HD
HETATM    9  C8  UNL     1      -7.969  43.236  43.160  1.00  0.00     0.118 A 
HETATM   10  N2  UNL     1      -8.339  42.950  44.436  1.00  0.00    -0.341 N 
ATOM     11  H2  UNL     1      -7.940  42.126  44.886  1.00  0.00     0.167 HD
HETATM   12  C19 UNL     1      -9.208  43.705  45.131  1.00  0.00     0.055 A 
HETATM   13  C20 UNL     1      -9.573  43.398  46.425  1.00  0.00     0.067 A 
ENDROOT
BRANCH   9  14
HETATM   14  C9  UNL     1      -7.016  42.370  42.458  1.00  0.00     0.009 A 
HETATM   15  C10 UNL     1      -6.950  42.389  41.075  1.00  0.00     0.024 A 
HETATM   16  C11 UNL     1      -6.079  41.605  40.339  1.00  0.00    -0.027 A 
HETATM   17  C12 UNL     1      -6.050  41.665  38.854  1.00  0.00     0.051 C 
HETATM   18  C13 UNL     1      -5.243  40.769  41.040  1.00  0.00     0.080 A 
HETATM   19  C16 UNL     1      -5.265  40.711  42.410  1.00  0.00    -0.027 A 
HETATM   20  C17 UNL     1      -4.337  39.788  43.105  1.00  0.00     0.051 C 
HETATM   21  C18 UNL     1      -6.163  41.522  43.123  1.00  0.00     0.024 A 
BRANCH  18  22
HETATM   22  O4  UNL     1      -4.360  39.971  40.344  1.00  0.00    -0.348 OA
BRANCH  22  23
HETATM   23  C14 UNL     1      -3.224  40.475  39.667  1.00  0.00     0.201 C 
BRANCH  23  24
HETATM   24  C15 UNL     1      -2.004  39.697  40.134  1.00  0.00     0.190 C 
BRANCH  24  25
HETATM   25  O5  UNL     1      -0.960  40.567  40.469  1.00  0.00    -0.399 OA
ATOM     26  H5  UNL     1      -0.796  40.551  41.404  1.00  0.00     0.209 HD
ENDBRANCH  24  25
ENDBRANCH  23  24
ENDBRANCH  22  23
ENDBRANCH  18  22
ENDBRANCH   9  14
BRANCH   3  27
HETATM   27  O2  UNL     1     -11.192  46.734  44.613  1.00  0.00    -0.355 OA
HETATM   28  C5  UNL     1     -11.390  47.902  45.387  1.00  0.00     0.210 C 
ENDBRANCH   3  27
BRANCH   1  29
HETATM   29  O1  UNL     1     -10.798  43.818  48.442  1.00  0.00    -0.356 OA
HETATM   30  C1  UNL     1      -9.910  42.990  49.162  1.00  0.00     0.210 C 
ENDBRANCH   1  29
TORSDOF 7
ENDMDL
