MODEL 12
REMARK VINA RESULT: -6.978479625      2.298      8.867
REMARK  7 active torsions:
REMARK  status: ('A' for Active; 'I' for Inactive)
REMARK    1  A    between atoms: O1_2  and  C2_3 
REMARK    2  A    between atoms: C4_5  and  O2_6 
REMARK    3  A    between atoms: C8_13  and  C9_14 
REMARK    4  A    between atoms: C13_18  and  O4_19 
REMARK    5  A    between atoms: O4_19  and  C14_20 
REMARK    6  A    between atoms: C14_20  and  C15_21 
REMARK    7  A    between atoms: C15_21  and  O5_22 
ROOT
HETATM    1  C2  UNL     1      -7.702  44.773  39.801  1.00  0.00     0.073 A 
HETATM    2  C3  UNL     1      -6.845  43.699  39.725  1.00  0.00     0.074 A 
HETATM    3  C4  UNL     1      -6.691  42.880  40.851  1.00  0.00     0.088 A 
HETATM    4  C6  UNL     1      -7.392  43.158  42.006  1.00  0.00     0.092 A 
HETATM    5  C7  UNL     1      -7.263  42.372  43.129  1.00  0.00     0.262 A 
HETATM    6  O3  UNL     1      -6.483  41.386  43.074  1.00  0.00    -0.267 OA
HETATM    7  N1  UNL     1      -7.965  42.664  44.264  1.00  0.00    -0.308 N 
ATOM      8  H1  UNL     1      -7.848  42.064  45.080  1.00  0.00     0.170 HD
HETATM    9  C8  UNL     1      -8.801  43.705  44.347  1.00  0.00     0.118 A 
HETATM   10  N2  UNL     1      -8.925  44.477  43.236  1.00  0.00    -0.341 N 
ATOM     11  H2  UNL     1      -9.553  45.279  43.267  1.00  0.00     0.167 HD
HETATM   12  C19 UNL     1      -8.254  44.230  42.097  1.00  0.00     0.055 A 
HETATM   13  C20 UNL     1      -8.393  45.025  40.978  1.00  0.00     0.067 A 
ENDROOT
BRANCH   9  14
HETATM   14  C9  UNL     1      -9.562  44.030  45.558  1.00  0.00     0.009 A 
HETATM   15  C10 UNL     1      -9.584  43.144  46.623  1.00  0.00     0.024 A 
HETATM   16  C11 UNL     1     -10.275  43.376  47.798  1.00  0.00    -0.027 A 
HETATM   17  C12 UNL     1     -10.264  42.391  48.911  1.00  0.00     0.051 C 
HETATM   18  C13 UNL     1     -10.973  44.557  47.893  1.00  0.00     0.080 A 
HETATM   19  C16 UNL     1     -10.986  45.470  46.869  1.00  0.00    -0.027 A 
HETATM   20  C17 UNL     1     -11.758  46.724  47.034  1.00  0.00     0.051 C 
HETATM   21  C18 UNL     1     -10.271  45.200  45.691  1.00  0.00     0.024 A 
BRANCH  18  22
HETATM   22  O4  UNL     1     -11.676  44.827  49.047  1.00  0.00    -0.348 OA
BRANCH  22  23
HETATM   23  C14 UNL     1     -11.125  45.527  50.147  1.00  0.00     0.201 C 
BRANCH  23  24
HETATM   24  C15 UNL     1     -11.510  44.795  51.423  1.00  0.00     0.190 C 
BRANCH  24  25
HETATM   25  O5  UNL     1     -10.389  44.193  52.007  1.00  0.00    -0.399 OA
ATOM     26  H5  UNL     1     -10.213  43.350  51.606  1.00  0.00     0.209 HD
ENDBRANCH  24  25
ENDBRANCH  23  24
ENDBRANCH  22  23
ENDBRANCH  18  22
ENDBRANCH   9  14
BRANCH   3  27
HETATM   27  O2  UNL     1      -5.843  41.782  40.841  1.00  0.00    -0.355 OA
HETATM   28  C5  UNL     1      -5.584  41.167  39.594  1.00  0.00     0.210 C 
ENDBRANCH   3  27
BRANCH   1  29
HETATM   29  O1  UNL     1      -7.881  45.606  38.710  1.00  0.00    -0.356 OA
HETATM   30  C1  UNL     1      -6.814  46.443  38.314  1.00  0.00     0.210 C 
ENDBRANCH   1  29
TORSDOF 7
ENDMDL
