MODEL 17
REMARK VINA RESULT: -3.687226418      3.568      4.627
REMARK  0 active torsions:
REMARK  status: ('A' for Active; 'I' for Inactive)
ROOT
HETATM    1  C1  UNL     1       7.656  -8.113  -3.008  1.00  0.00     0.050 C 
HETATM    2  C2  UNL     1       7.870  -7.166  -1.903  1.00  0.00    -0.036 A 
HETATM    3  C3  UNL     1       8.407  -5.905  -2.035  1.00  0.00     0.009 A 
HETATM    4  C4  UNL     1       8.565  -5.090  -0.929  1.00  0.00     0.003 A 
HETATM    5  C5  UNL     1       8.201  -5.485   0.351  1.00  0.00     0.028 A 
HETATM    6  C6  UNL     1       7.664  -6.748   0.471  1.00  0.00     0.071 A 
HETATM    7  N1  UNL     1       7.281  -7.180   1.768  1.00  0.00    -0.100 NA
HETATM    8  C7  UNL     1       7.500  -7.571  -0.620  1.00  0.00     0.076 A 
HETATM    9  N2  UNL     1       6.941  -8.865  -0.437  1.00  0.00    -0.100 NA
ENDROOT
TORSDOF 0
ENDMDL
