MODEL 6
REMARK VINA RESULT: -4.135588879      1.620      2.831
REMARK  0 active torsions:
REMARK  status: ('A' for Active; 'I' for Inactive)
ROOT
HETATM    1  C1  UNL     1      12.935  -4.644   0.542  1.00  0.00     0.050 C 
HETATM    2  C2  UNL     1      12.081  -4.199  -0.568  1.00  0.00    -0.036 A 
HETATM    3  C3  UNL     1      12.491  -3.395  -1.608  1.00  0.00     0.009 A 
HETATM    4  C4  UNL     1      11.605  -3.033  -2.607  1.00  0.00     0.003 A 
HETATM    5  C5  UNL     1      10.282  -3.449  -2.622  1.00  0.00     0.028 A 
HETATM    6  C6  UNL     1       9.882  -4.253  -1.578  1.00  0.00     0.071 A 
HETATM    7  N1  UNL     1       8.534  -4.696  -1.565  1.00  0.00    -0.100 NA
HETATM    8  C7  UNL     1      10.752  -4.623  -0.576  1.00  0.00     0.076 A 
HETATM    9  N2  UNL     1      10.285  -5.455   0.478  1.00  0.00    -0.100 NA
ENDROOT
TORSDOF 0
ENDMDL
