MODEL 18
REMARK VINA RESULT: -3.682977860      2.553      3.406
REMARK  0 active torsions:
REMARK  status: ('A' for Active; 'I' for Inactive)
ROOT
HETATM    1  C1  UNL     1       8.058  -4.088  -0.153  1.00  0.00     0.050 C 
HETATM    2  C2  UNL     1       8.551  -5.394   0.308  1.00  0.00    -0.036 A 
HETATM    3  C3  UNL     1       7.754  -6.448   0.696  1.00  0.00     0.009 A 
HETATM    4  C4  UNL     1       8.320  -7.640   1.114  1.00  0.00     0.003 A 
HETATM    5  C5  UNL     1       9.692  -7.839   1.168  1.00  0.00     0.028 A 
HETATM    6  C6  UNL     1      10.479  -6.778   0.779  1.00  0.00     0.071 A 
HETATM    7  N1  UNL     1      11.887  -6.953   0.822  1.00  0.00    -0.100 NA
HETATM    8  C7  UNL     1       9.932  -5.587   0.359  1.00  0.00     0.076 A 
HETATM    9  N2  UNL     1      10.793  -4.525  -0.032  1.00  0.00    -0.100 NA
ENDROOT
TORSDOF 0
ENDMDL
