MODEL 19
REMARK VINA RESULT: -3.682664107      3.387      4.523
REMARK  0 active torsions:
REMARK  status: ('A' for Active; 'I' for Inactive)
ROOT
HETATM    1  C1  UNL     1       8.803  -5.288  -1.963  1.00  0.00     0.050 C 
HETATM    2  C2  UNL     1       8.153  -6.513  -1.474  1.00  0.00    -0.036 A 
HETATM    3  C3  UNL     1       7.971  -7.660  -2.214  1.00  0.00     0.009 A 
HETATM    4  C4  UNL     1       7.346  -8.762  -1.658  1.00  0.00     0.003 A 
HETATM    5  C5  UNL     1       6.876  -8.778  -0.353  1.00  0.00     0.028 A 
HETATM    6  C6  UNL     1       7.063  -7.625   0.378  1.00  0.00     0.071 A 
HETATM    7  N1  UNL     1       6.593  -7.611   1.717  1.00  0.00    -0.100 NA
HETATM    8  C7  UNL     1       7.684  -6.520  -0.161  1.00  0.00     0.076 A 
HETATM    9  N2  UNL     1       7.850  -5.357   0.639  1.00  0.00    -0.100 NA
ENDROOT
TORSDOF 0
ENDMDL
