MODEL 6
REMARK VINA RESULT: -4.951130200      1.560      2.792
REMARK  0 active torsions:
REMARK  status: ('A' for Active; 'I' for Inactive)
ROOT
HETATM    1  N1  UNL     1       9.645  -3.153  -2.927  1.00  0.00    -0.102 NA
HETATM    2  C1  UNL     1      10.835  -3.355  -2.181  1.00  0.00     0.053 A 
HETATM    3  C2  UNL     1      11.979  -2.690  -2.567  1.00  0.00     0.027 A 
HETATM    4  C3  UNL     1      13.174  -2.853  -1.869  1.00  0.00     0.002 A 
HETATM    5  C4  UNL     1      13.212  -3.698  -0.769  1.00  0.00     0.009 A 
HETATM    6  C5  UNL     1      12.050  -4.352  -0.404  1.00  0.00    -0.025 A 
HETATM    7  C6  UNL     1      10.874  -4.190  -1.093  1.00  0.00    -0.024 A 
HETATM    8  C7  UNL     1       9.605  -4.886  -0.718  1.00  0.00     0.068 C 
HETATM    9  C8  UNL     1       9.767  -5.761   0.489  1.00  0.00     0.237 C 
HETATM   10  N2  UNL     1      11.108  -6.340   0.445  1.00  0.00    -0.071 N 
ATOM     11  H21 UNL     1      11.320  -6.798  -0.442  1.00  0.00     0.277 HD
ATOM     12  H22 UNL     1      11.212  -7.161   1.040  1.00  0.00     0.277 HD
HETATM   13  C9  UNL     1      12.029  -5.276   0.773  1.00  0.00     0.271 C 
ENDROOT
TORSDOF 0
ENDMDL
