MODEL 19
REMARK VINA RESULT: -4.214295932      3.312      5.821
REMARK  0 active torsions:
REMARK  status: ('A' for Active; 'I' for Inactive)
ROOT
HETATM    1  N1  UNL     1       7.421  -7.743  -3.409  1.00  0.00    -0.102 NA
HETATM    2  C1  UNL     1       7.095  -8.056  -2.064  1.00  0.00     0.053 A 
HETATM    3  C2  UNL     1       6.113  -8.991  -1.821  1.00  0.00     0.027 A 
HETATM    4  C3  UNL     1       5.756  -9.334  -0.519  1.00  0.00     0.002 A 
HETATM    5  C4  UNL     1       6.399  -8.724   0.549  1.00  0.00     0.009 A 
HETATM    6  C5  UNL     1       7.380  -7.789   0.276  1.00  0.00    -0.025 A 
HETATM    7  C6  UNL     1       7.730  -7.453  -1.008  1.00  0.00    -0.024 A 
HETATM    8  C7  UNL     1       8.788  -6.446  -1.328  1.00  0.00     0.068 C 
HETATM    9  C8  UNL     1       9.417  -5.864  -0.096  1.00  0.00     0.237 C 
HETATM   10  N2  UNL     1       8.379  -5.755   0.926  1.00  0.00    -0.071 N 
ATOM     11  H21 UNL     1       7.545  -5.264   0.603  1.00  0.00     0.277 HD
ATOM     12  H22 UNL     1       8.622  -5.113   1.680  1.00  0.00     0.277 HD
HETATM   13  C9  UNL     1       8.108  -7.098   1.386  1.00  0.00     0.271 C 
ENDROOT
TORSDOF 0
ENDMDL
