MODEL 14
REMARK VINA RESULT: -4.530559487      1.001      3.039
REMARK  0 active torsions:
REMARK  status: ('A' for Active; 'I' for Inactive)
ROOT
HETATM    1  N1  UNL     1       8.717  -4.670  -1.788  1.00  0.00    -0.102 NA
HETATM    2  C1  UNL     1      10.047  -4.189  -1.684  1.00  0.00     0.053 A 
HETATM    3  C2  UNL     1      10.499  -3.283  -2.619  1.00  0.00     0.027 A 
HETATM    4  C3  UNL     1      11.797  -2.780  -2.563  1.00  0.00     0.002 A 
HETATM    5  C4  UNL     1      12.647  -3.198  -1.549  1.00  0.00     0.009 A 
HETATM    6  C5  UNL     1      12.169  -4.108  -0.625  1.00  0.00    -0.025 A 
HETATM    7  C6  UNL     1      10.890  -4.602  -0.683  1.00  0.00    -0.024 A 
HETATM    8  C7  UNL     1      10.349  -5.585   0.305  1.00  0.00     0.068 C 
HETATM    9  C8  UNL     1      11.354  -5.954   1.356  1.00  0.00     0.237 C 
HETATM   10  N2  UNL     1      12.672  -5.973   0.726  1.00  0.00    -0.071 N 
ATOM     11  H21 UNL     1      12.708  -6.550  -0.115  1.00  0.00     0.277 HD
ATOM     12  H22 UNL     1      13.368  -6.489   1.264  1.00  0.00     0.277 HD
HETATM   13  C9  UNL     1      13.039  -4.596   0.491  1.00  0.00     0.271 C 
ENDROOT
TORSDOF 0
ENDMDL
