MODEL 18
REMARK VINA RESULT: -4.217669774      2.656      5.005
REMARK  0 active torsions:
REMARK  status: ('A' for Active; 'I' for Inactive)
ROOT
HETATM    1  N1  UNL     1       7.682  -8.017  -3.085  1.00  0.00    -0.102 NA
HETATM    2  C1  UNL     1       7.700  -7.669  -1.710  1.00  0.00     0.053 A 
HETATM    3  C2  UNL     1       7.345  -8.623  -0.780  1.00  0.00     0.027 A 
HETATM    4  C3  UNL     1       7.346  -8.332   0.582  1.00  0.00     0.002 A 
HETATM    5  C4  UNL     1       7.709  -7.063   1.009  1.00  0.00     0.009 A 
HETATM    6  C5  UNL     1       8.060  -6.125   0.056  1.00  0.00    -0.025 A 
HETATM    7  C6  UNL     1       8.058  -6.414  -1.286  1.00  0.00    -0.024 A 
HETATM    8  C7  UNL     1       8.435  -5.418  -2.336  1.00  0.00     0.068 C 
HETATM    9  C8  UNL     1       8.817  -4.089  -1.754  1.00  0.00     0.237 C 
HETATM   10  N2  UNL     1       7.977  -3.857  -0.581  1.00  0.00    -0.071 N 
ATOM     11  H21 UNL     1       6.981  -3.965  -0.771  1.00  0.00     0.277 HD
ATOM     12  H22 UNL     1       7.947  -2.879  -0.295  1.00  0.00     0.277 HD
HETATM   13  C9  UNL     1       8.460  -4.740   0.455  1.00  0.00     0.271 C 
ENDROOT
TORSDOF 0
ENDMDL
