MODEL 6
REMARK VINA RESULT: -6.189691816      3.322      4.844
REMARK  1 active torsions:
REMARK  status: ('A' for Active; 'I' for Inactive)
REMARK    1  A    between atoms: O1_1  and  C1_3 
ROOT
HETATM    1  C1  UNL     1       7.611 -31.266 -33.328  1.00  0.00     0.079 A 
HETATM    2  C2  UNL     1       7.812 -32.102 -32.223  1.00  0.00     0.054 A 
HETATM    3  C3  UNL     1       7.078 -31.876 -31.087  1.00  0.00     0.091 A 
HETATM    4  N1  UNL     1       6.168 -30.899 -30.953  1.00  0.00    -0.365 N 
ATOM      5  H1  UNL     1       5.650 -30.776 -30.083  1.00  0.00     0.165 HD
HETATM    6  C4  UNL     1       5.961 -30.086 -32.004  1.00  0.00     0.046 A 
HETATM    7  C5  UNL     1       5.029 -29.083 -31.870  1.00  0.00     0.054 A 
HETATM    8  C6  UNL     1       4.801 -28.236 -32.935  1.00  0.00     0.036 A 
HETATM    9 CL1  UNL     1       3.621 -26.948 -32.798  1.00  0.00    -0.084 Cl
HETATM   10  C7  UNL     1       5.513 -28.420 -34.102  1.00  0.00     0.025 A 
HETATM   11  C8  UNL     1       6.463 -29.434 -34.254  1.00  0.00     0.018 A 
HETATM   12  C9  UNL     1       6.676 -30.265 -33.184  1.00  0.00     0.024 A 
ENDROOT
BRANCH   1  13
HETATM   13  O1  UNL     1       8.358 -31.522 -34.441  1.00  0.00    -0.360 OA
ATOM     14  H1  UNL     1       8.340 -32.411 -34.775  1.00  0.00     0.217 HD
ENDBRANCH   1  13
TORSDOF 1
ENDMDL
