MODEL 2
REMARK VINA RESULT: -6.320440369      1.665      2.144
REMARK  1 active torsions:
REMARK  status: ('A' for Active; 'I' for Inactive)
REMARK    1  A    between atoms: O1_1  and  C1_3 
ROOT
HETATM    1  C1  UNL     1       4.178 -27.443 -35.854  1.00  0.00     0.079 A 
HETATM    2  C2  UNL     1       4.712 -28.364 -36.765  1.00  0.00     0.054 A 
HETATM    3  C3  UNL     1       5.269 -29.520 -36.279  1.00  0.00     0.091 A 
HETATM    4  N1  UNL     1       5.341 -29.838 -34.977  1.00  0.00    -0.365 N 
ATOM      5  H1  UNL     1       5.767 -30.714 -34.672  1.00  0.00     0.165 HD
HETATM    6  C4  UNL     1       4.834 -28.967 -34.088  1.00  0.00     0.046 A 
HETATM    7  C5  UNL     1       4.907 -29.291 -32.754  1.00  0.00     0.054 A 
HETATM    8  C6  UNL     1       4.393 -28.410 -31.823  1.00  0.00     0.036 A 
HETATM    9 CL1  UNL     1       4.470 -28.793 -30.114  1.00  0.00    -0.084 Cl
HETATM   10  C7  UNL     1       3.822 -27.233 -32.259  1.00  0.00     0.025 A 
HETATM   11  C8  UNL     1       3.740 -26.890 -33.610  1.00  0.00     0.018 A 
HETATM   12  C9  UNL     1       4.256 -27.777 -34.521  1.00  0.00     0.024 A 
ENDROOT
BRANCH   1  13
HETATM   13  O1  UNL     1       3.632 -26.306 -36.374  1.00  0.00    -0.360 OA
ATOM     14  H1  UNL     1       3.000 -25.847 -35.833  1.00  0.00     0.217 HD
ENDBRANCH   1  13
TORSDOF 1
ENDMDL
