MODEL 3
REMARK VINA RESULT: -6.261972637      3.170      4.535
REMARK  1 active torsions:
REMARK  status: ('A' for Active; 'I' for Inactive)
REMARK    1  A    between atoms: O1_1  and  C1_3 
ROOT
HETATM    1  C1  UNL     1       5.647 -29.596 -31.818  1.00  0.00     0.079 A 
HETATM    2  C2  UNL     1       5.095 -29.169 -30.604  1.00  0.00     0.054 A 
HETATM    3  C3  UNL     1       4.184 -28.143 -30.622  1.00  0.00     0.091 A 
HETATM    4  N1  UNL     1       3.777 -27.510 -31.733  1.00  0.00    -0.365 N 
ATOM      5  H1  UNL     1       3.096 -26.752 -31.687  1.00  0.00     0.165 HD
HETATM    6  C4  UNL     1       4.296 -27.907 -32.908  1.00  0.00     0.046 A 
HETATM    7  C5  UNL     1       3.881 -27.259 -34.048  1.00  0.00     0.054 A 
HETATM    8  C6  UNL     1       4.401 -27.649 -35.265  1.00  0.00     0.036 A 
HETATM    9 CL1  UNL     1       3.893 -26.845 -36.738  1.00  0.00    -0.084 Cl
HETATM   10  C7  UNL     1       5.320 -28.677 -35.303  1.00  0.00     0.025 A 
HETATM   11  C8  UNL     1       5.752 -29.344 -34.154  1.00  0.00     0.018 A 
HETATM   12  C9  UNL     1       5.224 -28.942 -32.953  1.00  0.00     0.024 A 
ENDROOT
BRANCH   1  13
HETATM   13  O1  UNL     1       6.548 -30.620 -31.761  1.00  0.00    -0.360 OA
ATOM     14  H1  UNL     1       6.406 -31.279 -31.092  1.00  0.00     0.217 HD
ENDBRANCH   1  13
TORSDOF 1
ENDMDL
