MODEL 10
REMARK VINA RESULT: -5.950621830      2.711      3.758
REMARK  1 active torsions:
REMARK  status: ('A' for Active; 'I' for Inactive)
REMARK    1  A    between atoms: O1_1  and  C1_3 
ROOT
HETATM    1  C1  UNL     1       4.541 -28.462 -31.978  1.00  0.00     0.079 A 
HETATM    2  C2  UNL     1       3.901 -27.276 -31.595  1.00  0.00     0.054 A 
HETATM    3  C3  UNL     1       3.477 -26.413 -32.574  1.00  0.00     0.091 A 
HETATM    4  N1  UNL     1       3.630 -26.625 -33.890  1.00  0.00    -0.365 N 
ATOM      5  H1  UNL     1       3.294 -25.947 -34.575  1.00  0.00     0.165 HD
HETATM    6  C4  UNL     1       4.242 -27.758 -34.277  1.00  0.00     0.046 A 
HETATM    7  C5  UNL     1       4.401 -27.977 -35.625  1.00  0.00     0.054 A 
HETATM    8  C6  UNL     1       5.026 -29.133 -36.045  1.00  0.00     0.036 A 
HETATM    9 CL1  UNL     1       5.245 -29.444 -37.756  1.00  0.00    -0.084 Cl
HETATM   10  C7  UNL     1       5.472 -30.035 -35.101  1.00  0.00     0.025 A 
HETATM   11  C8  UNL     1       5.318 -29.826 -33.729  1.00  0.00     0.018 A 
HETATM   12  C9  UNL     1       4.695 -28.671 -33.330  1.00  0.00     0.024 A 
ENDROOT
BRANCH   1  13
HETATM   13  O1  UNL     1       4.948 -29.295 -30.977  1.00  0.00    -0.360 OA
ATOM     14  H1  UNL     1       5.144 -30.192 -31.219  1.00  0.00     0.217 HD
ENDBRANCH   1  13
TORSDOF 1
ENDMDL
