MODEL 2
REMARK VINA RESULT: -5.363287627      8.547      9.614
REMARK  1 active torsions:
REMARK  status: ('A' for Active; 'I' for Inactive)
REMARK    1  A    between atoms: C6_9  and  N3_10 
ROOT
HETATM    1  C1  UNL     1       8.057 -35.292 -33.922  1.00  0.00     0.051 C 
HETATM    2  C2  UNL     1       8.225 -35.650 -35.339  1.00  0.00    -0.024 A 
HETATM    3  C3  UNL     1       7.096 -36.018 -36.061  1.00  0.00     0.026 A 
HETATM    4  C4  UNL     1       7.287 -36.355 -37.381  1.00  0.00     0.090 A 
HETATM    5  N1  UNL     1       8.497 -36.336 -37.963  1.00  0.00    -0.353 N 
ATOM      6  H1  UNL     1       8.601 -36.593 -38.945  1.00  0.00     0.166 HD
HETATM    7  C5  UNL     1       9.574 -35.974 -37.234  1.00  0.00     0.150 A 
HETATM    8  N2  UNL     1      10.880 -35.952 -37.836  1.00  0.00    -0.080 NA
HETATM    9  C6  UNL     1       9.475 -35.622 -35.910  1.00  0.00     0.149 A 
ENDROOT
BRANCH   9  10
HETATM   10  N3  UNL     1      10.636 -35.225 -35.147  1.00  0.00    -0.112 N 
HETATM   11  O1  UNL     1      11.310 -36.008 -34.473  1.00  0.00    -0.532 OA
HETATM   12  O2  UNL     1      10.932 -33.863 -35.235  1.00  0.00    -0.532 OA
ENDBRANCH   9  10
TORSDOF 1
ENDMDL
