MODEL 10
REMARK VINA RESULT: -4.985573018      5.964      6.752
REMARK  1 active torsions:
REMARK  status: ('A' for Active; 'I' for Inactive)
REMARK    1  A    between atoms: C6_9  and  N3_10 
ROOT
HETATM    1  C1  UNL     1       8.168 -33.394 -36.504  1.00  0.00     0.051 C 
HETATM    2  C2  UNL     1       7.877 -33.347 -35.063  1.00  0.00    -0.024 A 
HETATM    3  C3  UNL     1       6.804 -32.574 -34.636  1.00  0.00     0.026 A 
HETATM    4  C4  UNL     1       6.562 -32.544 -33.282  1.00  0.00     0.090 A 
HETATM    5  N1  UNL     1       7.313 -33.221 -32.399  1.00  0.00    -0.353 N 
ATOM      6  H1  UNL     1       7.104 -33.175 -31.401  1.00  0.00     0.166 HD
HETATM    7  C5  UNL     1       8.348 -33.963 -32.847  1.00  0.00     0.150 A 
HETATM    8  N2  UNL     1       9.170 -34.692 -31.918  1.00  0.00    -0.080 NA
HETATM    9  C6  UNL     1       8.662 -34.051 -34.181  1.00  0.00     0.149 A 
ENDROOT
BRANCH   9  10
HETATM   10  N3  UNL     1       9.767 -34.858 -34.644  1.00  0.00    -0.112 N 
HETATM   11  O1  UNL     1       9.681 -36.068 -34.867  1.00  0.00    -0.532 OA
HETATM   12  O2  UNL     1      10.955 -34.145 -34.817  1.00  0.00    -0.532 OA
ENDBRANCH   9  10
TORSDOF 1
ENDMDL
