MODEL 6
REMARK VINA RESULT: -5.179881313      2.158      3.198
REMARK  1 active torsions:
REMARK  status: ('A' for Active; 'I' for Inactive)
REMARK    1  A    between atoms: C6_9  and  N3_10 
ROOT
HETATM    1  C1  UNL     1       5.356 -30.353 -32.912  1.00  0.00     0.051 C 
HETATM    2  C2  UNL     1       4.746 -29.087 -33.346  1.00  0.00    -0.024 A 
HETATM    3  C3  UNL     1       4.780 -28.773 -34.700  1.00  0.00     0.026 A 
HETATM    4  C4  UNL     1       4.208 -27.579 -35.073  1.00  0.00     0.090 A 
HETATM    5  N1  UNL     1       3.639 -26.743 -34.189  1.00  0.00    -0.353 N 
ATOM      6  H1  UNL     1       3.225 -25.865 -34.503  1.00  0.00     0.166 HD
HETATM    7  C5  UNL     1       3.622 -27.078 -32.882  1.00  0.00     0.150 A 
HETATM    8  N2  UNL     1       3.023 -26.195 -31.917  1.00  0.00    -0.080 NA
HETATM    9  C6  UNL     1       4.170 -28.250 -32.420  1.00  0.00     0.149 A 
ENDROOT
BRANCH   9  10
HETATM   10  N3  UNL     1       4.133 -28.598 -31.019  1.00  0.00    -0.112 N 
HETATM   11  O1  UNL     1       5.088 -28.450 -30.253  1.00  0.00    -0.532 OA
HETATM   12  O2  UNL     1       2.910 -29.127 -30.600  1.00  0.00    -0.532 OA
ENDBRANCH   9  10
TORSDOF 1
ENDMDL
