MODEL 9
REMARK VINA RESULT: -5.020591815      7.621      8.939
REMARK  1 active torsions:
REMARK  status: ('A' for Active; 'I' for Inactive)
REMARK    1  A    between atoms: C6_9  and  N3_10 
ROOT
HETATM    1  C1  UNL     1       6.951 -34.672 -36.880  1.00  0.00     0.051 C 
HETATM    2  C2  UNL     1       8.337 -35.111 -36.654  1.00  0.00    -0.024 A 
HETATM    3  C3  UNL     1       8.963 -35.847 -37.652  1.00  0.00     0.026 A 
HETATM    4  C4  UNL     1      10.256 -36.249 -37.408  1.00  0.00     0.090 A 
HETATM    5  N1  UNL     1      10.900 -35.954 -36.267  1.00  0.00    -0.353 N 
ATOM      6  H1  UNL     1      11.859 -36.270 -36.120  1.00  0.00     0.166 HD
HETATM    7  C5  UNL     1      10.263 -35.237 -35.317  1.00  0.00     0.150 A 
HETATM    8  N2  UNL     1      10.933 -34.915 -34.085  1.00  0.00    -0.080 NA
HETATM    9  C6  UNL     1       8.973 -34.795 -35.477  1.00  0.00     0.149 A 
ENDROOT
BRANCH   9  10
HETATM   10  N3  UNL     1       8.310 -34.018 -34.455  1.00  0.00    -0.112 N 
HETATM   11  O1  UNL     1       8.392 -32.791 -34.370  1.00  0.00    -0.532 OA
HETATM   12  O2  UNL     1       7.563 -34.785 -33.557  1.00  0.00    -0.532 OA
ENDBRANCH   9  10
TORSDOF 1
ENDMDL
