MODEL 4
REMARK VINA RESULT: -5.854433357      2.745      4.404
REMARK  1 active torsions:
REMARK  status: ('A' for Active; 'I' for Inactive)
REMARK    1  A    between atoms: N1_2  and  C1_4 
ROOT
HETATM    1  C1  UNL     1       4.414 -28.489 -32.281  1.00  0.00     0.105 A 
HETATM    2  C2  UNL     1       3.681 -27.322 -32.302  1.00  0.00     0.038 A 
HETATM    3  C3  UNL     1       3.374 -26.759 -33.516  1.00  0.00     0.034 A 
HETATM    4  C4  UNL     1       3.780 -27.330 -34.710  1.00  0.00     0.060 A 
HETATM    5  N2  UNL     1       3.622 -26.996 -36.009  1.00  0.00    -0.351 N 
ATOM      6  H2  UNL     1       3.121 -26.178 -36.357  1.00  0.00     0.166 HD
HETATM    7  C5  UNL     1       4.243 -27.935 -36.779  1.00  0.00     0.181 A 
HETATM    8  N3  UNL     1       4.788 -28.853 -35.971  1.00  0.00    -0.350 N 
ATOM      9  H3  UNL     1       5.316 -29.673 -36.272  1.00  0.00     0.166 HD
HETATM   10  C6  UNL     1       4.525 -28.514 -34.702  1.00  0.00     0.062 A 
HETATM   11  C7  UNL     1       4.819 -29.058 -33.467  1.00  0.00     0.068 A 
ENDROOT
BRANCH   1  12
HETATM   12  N1  UNL     1       4.768 -29.128 -31.063  1.00  0.00    -0.116 N 
HETATM   13  O1  UNL     1       5.654 -29.981 -31.001  1.00  0.00    -0.532 OA
HETATM   14  O2  UNL     1       4.093 -28.773 -29.928  1.00  0.00    -0.532 OA
ENDBRANCH   1  12
TORSDOF 1
ENDMDL
