MODEL 2
REMARK VINA RESULT: -5.993221250      2.874      4.468
REMARK  1 active torsions:
REMARK  status: ('A' for Active; 'I' for Inactive)
REMARK    1  A    between atoms: N1_2  and  C1_4 
ROOT
HETATM    1  C1  UNL     1       4.507 -28.606 -31.852  1.00  0.00     0.105 A 
HETATM    2  C2  UNL     1       3.726 -27.470 -31.830  1.00  0.00     0.038 A 
HETATM    3  C3  UNL     1       3.385 -26.883 -33.023  1.00  0.00     0.034 A 
HETATM    4  C4  UNL     1       3.802 -27.398 -34.237  1.00  0.00     0.060 A 
HETATM    5  N2  UNL     1       3.618 -27.030 -35.524  1.00  0.00    -0.351 N 
ATOM      6  H2  UNL     1       3.081 -26.223 -35.842  1.00  0.00     0.166 HD
HETATM    7  C5  UNL     1       4.270 -27.918 -36.328  1.00  0.00     0.181 A 
HETATM    8  N3  UNL     1       4.861 -28.837 -35.555  1.00  0.00    -0.350 N 
ATOM      9  H3  UNL     1       5.419 -29.625 -35.886  1.00  0.00     0.166 HD
HETATM   10  C6  UNL     1       4.596 -28.550 -34.273  1.00  0.00     0.062 A 
HETATM   11  C7  UNL     1       4.924 -29.120 -33.059  1.00  0.00     0.068 A 
ENDROOT
BRANCH   1  12
HETATM   12  N1  UNL     1       4.899 -29.268 -30.658  1.00  0.00    -0.116 N 
HETATM   13  O1  UNL     1       4.552 -28.875 -29.544  1.00  0.00    -0.532 OA
HETATM   14  O2  UNL     1       5.689 -30.378 -30.765  1.00  0.00    -0.532 OA
ENDBRANCH   1  12
TORSDOF 1
ENDMDL
