MODEL 9
REMARK VINA RESULT: -5.719689374      2.923      4.854
REMARK  1 active torsions:
REMARK  status: ('A' for Active; 'I' for Inactive)
REMARK    1  A    between atoms: N1_2  and  C1_4 
ROOT
HETATM    1  C1  UNL     1       4.623 -28.909 -32.044  1.00  0.00     0.105 A 
HETATM    2  C2  UNL     1       5.289 -29.862 -32.785  1.00  0.00     0.038 A 
HETATM    3  C3  UNL     1       5.314 -29.733 -34.151  1.00  0.00     0.034 A 
HETATM    4  C4  UNL     1       4.691 -28.680 -34.798  1.00  0.00     0.060 A 
HETATM    5  N2  UNL     1       4.562 -28.321 -36.094  1.00  0.00    -0.351 N 
ATOM      6  H2  UNL     1       4.947 -28.826 -36.893  1.00  0.00     0.166 HD
HETATM    7  C5  UNL     1       3.832 -27.171 -36.157  1.00  0.00     0.181 A 
HETATM    8  N3  UNL     1       3.504 -26.808 -34.911  1.00  0.00    -0.350 N 
ATOM      9  H3  UNL     1       2.958 -25.985 -34.654  1.00  0.00     0.166 HD
HETATM   10  C6  UNL     1       4.012 -27.707 -34.057  1.00  0.00     0.062 A 
HETATM   11  C7  UNL     1       4.003 -27.861 -32.685  1.00  0.00     0.068 A 
ENDROOT
BRANCH   1  12
HETATM   12  N1  UNL     1       4.556 -28.977 -30.626  1.00  0.00    -0.116 N 
HETATM   13  O1  UNL     1       3.864 -28.204 -29.963  1.00  0.00    -0.532 OA
HETATM   14  O2  UNL     1       5.292 -29.937 -29.991  1.00  0.00    -0.532 OA
ENDBRANCH   1  12
TORSDOF 1
ENDMDL
