MODEL 10
REMARK VINA RESULT: -5.694676029      0.904      2.137
REMARK  1 active torsions:
REMARK  status: ('A' for Active; 'I' for Inactive)
REMARK    1  A    between atoms: N1_2  and  C1_4 
ROOT
HETATM    1  C1  UNL     1       4.714 -28.031 -34.556  1.00  0.00     0.105 A 
HETATM    2  C2  UNL     1       5.776 -28.906 -34.463  1.00  0.00     0.038 A 
HETATM    3  C3  UNL     1       6.055 -29.474 -33.245  1.00  0.00     0.034 A 
HETATM    4  C4  UNL     1       5.304 -29.194 -32.118  1.00  0.00     0.060 A 
HETATM    5  N2  UNL     1       5.357 -29.601 -30.831  1.00  0.00    -0.351 N 
ATOM      6  H2  UNL     1       6.037 -30.255 -30.441  1.00  0.00     0.166 HD
HETATM    7  C5  UNL     1       4.352 -28.993 -30.139  1.00  0.00     0.181 A 
HETATM    8  N3  UNL     1       3.670 -28.209 -30.983  1.00  0.00    -0.350 N 
ATOM      9  H3  UNL     1       2.863 -27.633 -30.741  1.00  0.00     0.166 HD
HETATM   10  C6  UNL     1       4.225 -28.308 -32.199  1.00  0.00     0.062 A 
HETATM   11  C7  UNL     1       3.966 -27.750 -33.435  1.00  0.00     0.068 A 
ENDROOT
BRANCH   1  12
HETATM   12  N1  UNL     1       4.366 -27.405 -35.782  1.00  0.00    -0.116 N 
HETATM   13  O1  UNL     1       4.208 -26.187 -35.878  1.00  0.00    -0.532 OA
HETATM   14  O2  UNL     1       4.204 -28.194 -36.887  1.00  0.00    -0.532 OA
ENDBRANCH   1  12
TORSDOF 1
ENDMDL
