MODEL 3
REMARK VINA RESULT: -9.612910728      0.874      8.421
REMARK  3 active torsions:
REMARK  status: ('A' for Active; 'I' for Inactive)
REMARK    1  A    between atoms: C5_7  and  O1_8 
REMARK    2  A    between atoms: O1_8  and  C6_9 
REMARK    3  A    between atoms: C6_9  and  C7_10 
ROOT
HETATM    1  O1  UNL     1       2.415  15.188  39.366  1.00  0.00    -0.345 OA
ENDROOT
BRANCH   1   2
HETATM    2  C5  UNL     1       2.534  15.942  38.219  1.00  0.00     0.071 A 
HETATM    3  C4  UNL     1       3.165  17.168  38.333  1.00  0.00     0.067 A 
HETATM    4  C3  UNL     1       3.298  17.943  37.208  1.00  0.00     0.044 A 
HETATM    5  N1  UNL     1       3.921  19.137  37.353  1.00  0.00    -0.365 N 
HETATM    6  C18 UNL     1       2.830  17.558  35.965  1.00  0.00    -0.009 A 
HETATM    7  C2  UNL     1       4.096  19.961  36.311  1.00  0.00     0.088 A 
ATOM      8  H1  UNL     1       4.262  19.414  38.273  1.00  0.00     0.165 HD
HETATM    9  C1  UNL     1       3.631  19.584  35.065  1.00  0.00     0.018 A 
HETATM   10  C19 UNL     1       2.993  18.377  34.881  1.00  0.00     0.015 A 
HETATM   11  C17 UNL     1       2.208  16.333  35.900  1.00  0.00     0.016 A 
HETATM   12  C16 UNL     1       2.059  15.527  37.015  1.00  0.00     0.038 A 
ENDBRANCH   1   2
BRANCH   1  13
HETATM   13  C6  UNL     1       2.763  15.679  40.615  1.00  0.00     0.232 C 
BRANCH  13  14
HETATM   14  C7  UNL     1       3.426  14.624  41.448  1.00  0.00     0.034 A 
HETATM   15  C8  UNL     1       4.062  13.531  40.846  1.00  0.00     0.028 A 
HETATM   16  C9  UNL     1       4.645  12.612  41.693  1.00  0.00     0.016 A 
HETATM   17  C10 UNL     1       4.609  12.753  43.065  1.00  0.00    -0.009 A 
HETATM   18  C11 UNL     1       5.179  11.853  43.921  1.00  0.00     0.013 A 
HETATM   19  C15 UNL     1       3.965  13.857  43.635  1.00  0.00     0.042 A 
HETATM   20  C12 UNL     1       5.141  11.997  45.292  1.00  0.00     0.001 A 
HETATM   21  C13 UNL     1       4.510  13.081  45.863  1.00  0.00     0.002 A 
HETATM   22  C14 UNL     1       3.933  13.991  45.006  1.00  0.00     0.030 A 
HETATM   23  N2  UNL     1       3.410  14.731  42.791  1.00  0.00    -0.357 N 
ATOM     24  H2  UNL     1       2.938  15.541  43.194  1.00  0.00     0.166 HD
ENDBRANCH  13  14
ENDBRANCH   1  13
TORSDOF 3
ENDMDL
