MODEL 1
REMARK VINA RESULT: -9.897930091      0.000      0.000
REMARK  3 active torsions:
REMARK  status: ('A' for Active; 'I' for Inactive)
REMARK    1  A    between atoms: C5_7  and  O1_8 
REMARK    2  A    between atoms: O1_8  and  C6_9 
REMARK    3  A    between atoms: C6_9  and  C7_10 
ROOT
HETATM    1  O1  UNL     1       3.425  14.586  40.039  1.00  0.00    -0.345 OA
ENDROOT
BRANCH   1   2
HETATM    2  C5  UNL     1       3.792  13.993  41.228  1.00  0.00     0.071 A 
HETATM    3  C4  UNL     1       3.472  14.666  42.393  1.00  0.00     0.067 A 
HETATM    4  C3  UNL     1       3.825  14.101  43.593  1.00  0.00     0.044 A 
HETATM    5  N1  UNL     1       3.498  14.785  44.715  1.00  0.00    -0.365 N 
HETATM    6  C18 UNL     1       4.488  12.891  43.694  1.00  0.00    -0.009 A 
HETATM    7  C2  UNL     1       3.802  14.312  45.932  1.00  0.00     0.088 A 
ATOM      8  H1  UNL     1       3.010  15.677  44.632  1.00  0.00     0.165 HD
HETATM    9  C1  UNL     1       4.464  13.104  46.041  1.00  0.00     0.018 A 
HETATM   10  C19 UNL     1       4.813  12.382  44.922  1.00  0.00     0.015 A 
HETATM   11  C17 UNL     1       4.787  12.259  42.510  1.00  0.00     0.016 A 
HETATM   12  C16 UNL     1       4.444  12.801  41.283  1.00  0.00     0.038 A 
ENDBRANCH   1   2
BRANCH   1  13
HETATM   13  C6  UNL     1       2.784  15.814  39.990  1.00  0.00     0.232 C 
BRANCH  13  14
HETATM   14  C7  UNL     1       2.791  16.375  38.600  1.00  0.00     0.034 A 
HETATM   15  C8  UNL     1       2.263  15.643  37.530  1.00  0.00     0.028 A 
HETATM   16  C9  UNL     1       2.314  16.241  36.288  1.00  0.00     0.016 A 
HETATM   17  C10 UNL     1       2.854  17.496  36.100  1.00  0.00    -0.009 A 
HETATM   18  C11 UNL     1       2.913  18.106  34.878  1.00  0.00     0.013 A 
HETATM   19  C15 UNL     1       3.373  18.202  37.192  1.00  0.00     0.042 A 
HETATM   20  C12 UNL     1       3.455  19.361  34.694  1.00  0.00     0.001 A 
HETATM   21  C13 UNL     1       3.968  20.064  35.763  1.00  0.00     0.002 A 
HETATM   22  C14 UNL     1       3.911  19.456  36.996  1.00  0.00     0.030 A 
HETATM   23  N2  UNL     1       3.311  17.599  38.382  1.00  0.00    -0.357 N 
ATOM     24  H2  UNL     1       3.685  18.103  39.186  1.00  0.00     0.166 HD
ENDBRANCH  13  14
ENDBRANCH   1  13
TORSDOF 3
ENDMDL
