MODEL 4
REMARK VINA RESULT: -9.281517192      0.895      1.030
REMARK  3 active torsions:
REMARK  status: ('A' for Active; 'I' for Inactive)
REMARK    1  A    between atoms: C5_7  and  O1_8 
REMARK    2  A    between atoms: O1_8  and  C6_9 
REMARK    3  A    between atoms: C6_9  and  C7_10 
ROOT
HETATM    1  O1  UNL     1       3.897  15.632  41.168  1.00  0.00    -0.345 OA
ENDROOT
BRANCH   1   2
HETATM    2  C5  UNL     1       4.202  14.542  41.953  1.00  0.00     0.071 A 
HETATM    3  C4  UNL     1       4.023  14.678  43.318  1.00  0.00     0.067 A 
HETATM    4  C3  UNL     1       4.319  13.610  44.127  1.00  0.00     0.044 A 
HETATM    5  N1  UNL     1       4.133  13.776  45.458  1.00  0.00    -0.365 N 
HETATM    6  C18 UNL     1       4.790  12.403  43.644  1.00  0.00    -0.009 A 
HETATM    7  C2  UNL     1       4.395  12.789  46.326  1.00  0.00     0.088 A 
ATOM      8  H1  UNL     1       3.786  14.670  45.806  1.00  0.00     0.165 HD
HETATM    9  C1  UNL     1       4.866  11.579  45.851  1.00  0.00     0.018 A 
HETATM   10  C19 UNL     1       5.067  11.375  44.504  1.00  0.00     0.015 A 
HETATM   11  C17 UNL     1       4.953  12.313  42.281  1.00  0.00     0.016 A 
HETATM   12  C16 UNL     1       4.663  13.371  41.438  1.00  0.00     0.038 A 
ENDBRANCH   1   2
BRANCH   1  13
HETATM   13  C6  UNL     1       2.612  15.881  40.712  1.00  0.00     0.232 C 
BRANCH  13  14
HETATM   14  C7  UNL     1       2.600  16.143  39.236  1.00  0.00     0.034 A 
HETATM   15  C8  UNL     1       2.152  15.167  38.338  1.00  0.00     0.028 A 
HETATM   16  C9  UNL     1       2.178  15.500  37.000  1.00  0.00     0.016 A 
HETATM   17  C10 UNL     1       2.620  16.729  36.559  1.00  0.00    -0.009 A 
HETATM   18  C11 UNL     1       2.655  17.078  35.238  1.00  0.00     0.013 A 
HETATM   19  C15 UNL     1       3.063  17.683  37.482  1.00  0.00     0.042 A 
HETATM   20  C12 UNL     1       3.099  18.308  34.799  1.00  0.00     0.001 A 
HETATM   21  C13 UNL     1       3.534  19.254  35.702  1.00  0.00     0.002 A 
HETATM   22  C14 UNL     1       3.503  18.910  37.033  1.00  0.00     0.030 A 
HETATM   23  N2  UNL     1       3.026  17.334  38.771  1.00  0.00    -0.357 N 
ATOM     24  H2  UNL     1       3.344  18.021  39.455  1.00  0.00     0.166 HD
ENDBRANCH  13  14
ENDBRANCH   1  13
TORSDOF 3
ENDMDL
