MODEL 7
REMARK VINA RESULT: -9.084970404      4.367      7.286
REMARK  3 active torsions:
REMARK  status: ('A' for Active; 'I' for Inactive)
REMARK    1  A    between atoms: C5_7  and  O1_8 
REMARK    2  A    between atoms: O1_8  and  C6_9 
REMARK    3  A    between atoms: C6_9  and  C7_10 
ROOT
HETATM    1  O1  UNL     1       6.498  11.776  46.056  1.00  0.00    -0.345 OA
ENDROOT
BRANCH   1   2
HETATM    2  C5  UNL     1       6.981  10.850  45.157  1.00  0.00     0.071 A 
HETATM    3  C4  UNL     1       6.587   9.536  45.332  1.00  0.00     0.067 A 
HETATM    4  C3  UNL     1       7.053   8.591  44.453  1.00  0.00     0.044 A 
HETATM    5  N1  UNL     1       6.649   7.313  44.653  1.00  0.00    -0.365 N 
HETATM    6  C18 UNL     1       7.899   8.888  43.400  1.00  0.00    -0.009 A 
HETATM    7  C2  UNL     1       7.052   6.322  43.846  1.00  0.00     0.088 A 
ATOM      8  H1  UNL     1       6.027   7.102  45.432  1.00  0.00     0.165 HD
HETATM    9  C1  UNL     1       7.897   6.611  42.790  1.00  0.00     0.018 A 
HETATM   10  C19 UNL     1       8.328   7.898  42.558  1.00  0.00     0.015 A 
HETATM   11  C17 UNL     1       8.264  10.207  43.265  1.00  0.00     0.016 A 
HETATM   12  C16 UNL     1       7.812  11.185  44.134  1.00  0.00     0.038 A 
ENDBRANCH   1   2
BRANCH   1  13
HETATM   13  C6  UNL     1       5.141  12.001  46.232  1.00  0.00     0.232 C 
BRANCH  13  14
HETATM   14  C7  UNL     1       4.591  12.875  45.146  1.00  0.00     0.034 A 
HETATM   15  C8  UNL     1       3.987  14.101  45.451  1.00  0.00     0.028 A 
HETATM   16  C9  UNL     1       3.510  14.837  44.386  1.00  0.00     0.016 A 
HETATM   17  C10 UNL     1       3.618  14.395  43.083  1.00  0.00    -0.009 A 
HETATM   18  C11 UNL     1       3.152  15.109  42.015  1.00  0.00     0.013 A 
HETATM   19  C15 UNL     1       4.226  13.164  42.813  1.00  0.00     0.042 A 
HETATM   20  C12 UNL     1       3.260  14.664  40.714  1.00  0.00     0.001 A 
HETATM   21  C13 UNL     1       3.859  13.454  40.437  1.00  0.00     0.002 A 
HETATM   22  C14 UNL     1       4.330  12.731  41.508  1.00  0.00     0.030 A 
HETATM   23  N2  UNL     1       4.679  12.474  43.863  1.00  0.00    -0.357 N 
ATOM     24  H2  UNL     1       5.126  11.575  43.679  1.00  0.00     0.166 HD
ENDBRANCH  13  14
ENDBRANCH   1  13
TORSDOF 3
ENDMDL
