MODEL 2
REMARK VINA RESULT: -9.673420321      1.254      1.955
REMARK  3 active torsions:
REMARK  status: ('A' for Active; 'I' for Inactive)
REMARK    1  A    between atoms: C5_7  and  O1_8 
REMARK    2  A    between atoms: O1_8  and  C6_9 
REMARK    3  A    between atoms: C6_9  and  C7_10 
ROOT
HETATM    1  O1  UNL     1       3.145  14.677  40.079  1.00  0.00    -0.345 OA
ENDROOT
BRANCH   1   2
HETATM    2  C5  UNL     1       3.649  14.106  41.228  1.00  0.00     0.071 A 
HETATM    3  C4  UNL     1       4.285  12.885  41.098  1.00  0.00     0.067 A 
HETATM    4  C3  UNL     1       4.797  12.290  42.224  1.00  0.00     0.044 A 
HETATM    5  N1  UNL     1       5.413  11.095  42.063  1.00  0.00    -0.365 N 
HETATM    6  C18 UNL     1       4.707  12.853  43.484  1.00  0.00    -0.009 A 
HETATM    7  C2  UNL     1       5.943  10.439  43.105  1.00  0.00     0.088 A 
ATOM      8  H1  UNL     1       5.474  10.686  41.131  1.00  0.00     0.165 HD
HETATM    9  C1  UNL     1       5.857  10.995  44.368  1.00  0.00     0.018 A 
HETATM   10  C19 UNL     1       5.238  12.209  44.569  1.00  0.00     0.015 A 
HETATM   11  C17 UNL     1       4.066  14.067  43.565  1.00  0.00     0.016 A 
HETATM   12  C16 UNL     1       3.540  14.694  42.449  1.00  0.00     0.038 A 
ENDBRANCH   1   2
BRANCH   1  13
HETATM   13  C6  UNL     1       2.791  16.015  40.010  1.00  0.00     0.232 C 
BRANCH  13  14
HETATM   14  C7  UNL     1       2.793  16.505  38.594  1.00  0.00     0.034 A 
HETATM   15  C8  UNL     1       2.261  15.720  37.564  1.00  0.00     0.028 A 
HETATM   16  C9  UNL     1       2.308  16.255  36.293  1.00  0.00     0.016 A 
HETATM   17  C10 UNL     1       2.848  17.499  36.040  1.00  0.00    -0.009 A 
HETATM   18  C11 UNL     1       2.904  18.046  34.789  1.00  0.00     0.013 A 
HETATM   19  C15 UNL     1       3.372  18.258  37.093  1.00  0.00     0.042 A 
HETATM   20  C12 UNL     1       3.445  19.289  34.539  1.00  0.00     0.001 A 
HETATM   21  C13 UNL     1       3.962  20.045  35.569  1.00  0.00     0.002 A 
HETATM   22  C14 UNL     1       3.910  19.500  36.831  1.00  0.00     0.030 A 
HETATM   23  N2  UNL     1       3.313  17.716  38.312  1.00  0.00    -0.357 N 
ATOM     24  H2  UNL     1       3.691  18.260  39.088  1.00  0.00     0.166 HD
ENDBRANCH  13  14
ENDBRANCH   1  13
TORSDOF 3
ENDMDL
