MODEL 17
REMARK VINA RESULT: -8.568502166      1.014      1.779
REMARK  3 active torsions:
REMARK  status: ('A' for Active; 'I' for Inactive)
REMARK    1  A    between atoms: C5_7  and  O1_8 
REMARK    2  A    between atoms: O1_8  and  C6_9 
REMARK    3  A    between atoms: C6_9  and  C7_10 
ROOT
HETATM    1  O1  UNL     1       2.928  15.465  40.459  1.00  0.00    -0.345 OA
ENDROOT
BRANCH   1   2
HETATM    2  C5  UNL     1       3.481  14.590  41.367  1.00  0.00     0.071 A 
HETATM    3  C4  UNL     1       3.317  14.885  42.708  1.00  0.00     0.067 A 
HETATM    4  C3  UNL     1       3.858  14.032  43.638  1.00  0.00     0.044 A 
HETATM    5  N1  UNL     1       3.680  14.350  44.942  1.00  0.00    -0.365 N 
HETATM    6  C18 UNL     1       4.561  12.890  43.298  1.00  0.00    -0.009 A 
HETATM    7  C2  UNL     1       4.172  13.577  45.920  1.00  0.00     0.088 A 
ATOM      8  H1  UNL     1       3.161  15.194  45.184  1.00  0.00     0.165 HD
HETATM    9  C1  UNL     1       4.875  12.434  45.589  1.00  0.00     0.018 A 
HETATM   10  C19 UNL     1       5.076  12.080  44.273  1.00  0.00     0.015 A 
HETATM   11  C17 UNL     1       4.700  12.637  41.953  1.00  0.00     0.016 A 
HETATM   12  C16 UNL     1       4.166  13.477  40.991  1.00  0.00     0.038 A 
ENDBRANCH   1   2
BRANCH   1  13
HETATM   13  C6  UNL     1       2.376  15.040  39.261  1.00  0.00     0.232 C 
BRANCH  13  14
HETATM   14  C7  UNL     1       2.593  16.049  38.174  1.00  0.00     0.034 A 
HETATM   15  C8  UNL     1       3.166  17.296  38.458  1.00  0.00     0.028 A 
HETATM   16  C9  UNL     1       3.326  18.158  37.394  1.00  0.00     0.016 A 
HETATM   17  C10 UNL     1       2.946  17.820  36.112  1.00  0.00    -0.009 A 
HETATM   18  C11 UNL     1       3.096  18.661  35.045  1.00  0.00     0.013 A 
HETATM   19  C15 UNL     1       2.376  16.566  35.862  1.00  0.00     0.042 A 
HETATM   20  C12 UNL     1       2.715  18.320  33.764  1.00  0.00     0.001 A 
HETATM   21  C13 UNL     1       2.154  17.087  33.508  1.00  0.00     0.002 A 
HETATM   22  C14 UNL     1       1.999  16.236  34.578  1.00  0.00     0.030 A 
HETATM   23  N2  UNL     1       2.233  15.751  36.911  1.00  0.00    -0.357 N 
ATOM     24  H2  UNL     1       1.820  14.834  36.741  1.00  0.00     0.166 HD
ENDBRANCH  13  14
ENDBRANCH   1  13
TORSDOF 3
ENDMDL
