MODEL 5
REMARK VINA RESULT: -9.219718904      1.417      8.284
REMARK  3 active torsions:
REMARK  status: ('A' for Active; 'I' for Inactive)
REMARK    1  A    between atoms: C5_7  and  O1_8 
REMARK    2  A    between atoms: O1_8  and  C6_9 
REMARK    3  A    between atoms: C6_9  and  C7_10 
ROOT
HETATM    1  O1  UNL     1       2.391  15.114  39.355  1.00  0.00    -0.345 OA
ENDROOT
BRANCH   1   2
HETATM    2  C5  UNL     1       2.509  15.878  38.215  1.00  0.00     0.071 A 
HETATM    3  C4  UNL     1       3.117  17.114  38.345  1.00  0.00     0.067 A 
HETATM    4  C3  UNL     1       3.249  17.899  37.227  1.00  0.00     0.044 A 
HETATM    5  N1  UNL     1       3.848  19.103  37.387  1.00  0.00    -0.365 N 
HETATM    6  C18 UNL     1       2.802  17.515  35.976  1.00  0.00    -0.009 A 
HETATM    7  C2  UNL     1       4.021  19.938  36.353  1.00  0.00     0.088 A 
ATOM      8  H1  UNL     1       4.174  19.379  38.313  1.00  0.00     0.165 HD
HETATM    9  C1  UNL     1       3.578  19.561  35.099  1.00  0.00     0.018 A 
HETATM   10  C19 UNL     1       2.964  18.345  34.899  1.00  0.00     0.015 A 
HETATM   11  C17 UNL     1       2.204  16.279  35.894  1.00  0.00     0.016 A 
HETATM   12  C16 UNL     1       2.056  15.463  37.002  1.00  0.00     0.038 A 
ENDBRANCH   1   2
BRANCH   1  13
HETATM   13  C6  UNL     1       2.728  15.597  40.610  1.00  0.00     0.232 C 
BRANCH  13  14
HETATM   14  C7  UNL     1       3.428  14.552  41.425  1.00  0.00     0.034 A 
HETATM   15  C8  UNL     1       3.556  14.693  42.812  1.00  0.00     0.028 A 
HETATM   16  C9  UNL     1       4.216  13.680  43.477  1.00  0.00     0.016 A 
HETATM   17  C10 UNL     1       4.725  12.580  42.818  1.00  0.00    -0.009 A 
HETATM   18  C11 UNL     1       5.381  11.567  43.459  1.00  0.00     0.013 A 
HETATM   19  C15 UNL     1       4.579  12.470  41.431  1.00  0.00     0.042 A 
HETATM   20  C12 UNL     1       5.890  10.469  42.797  1.00  0.00     0.001 A 
HETATM   21  C13 UNL     1       5.750  10.351  41.431  1.00  0.00     0.002 A 
HETATM   22  C14 UNL     1       5.091  11.368  40.780  1.00  0.00     0.030 A 
HETATM   23  N2  UNL     1       3.936  13.465  40.813  1.00  0.00    -0.357 N 
ATOM     24  H2  UNL     1       3.822  13.396  39.801  1.00  0.00     0.166 HD
ENDBRANCH  13  14
ENDBRANCH   1  13
TORSDOF 3
ENDMDL
