MODEL 2
REMARK VINA RESULT: -12.527784520      2.271     12.722
REMARK  7 active torsions:
REMARK  status: ('A' for Active; 'I' for Inactive)
REMARK    1  A    between atoms: C1_2  and  C2_3 
REMARK       I    between atoms: C1_2  and  N3_19 
REMARK    2  A    between atoms: C2_3  and  C3_4 
REMARK    3  A    between atoms: C3_4  and  S1_5 
REMARK    4  A    between atoms: S1_5  and  C4_6 
REMARK    5  A    between atoms: N3_19  and  C12_21 
REMARK    6  A    between atoms: C15_24  and  C16_25 
REMARK    7  A    between atoms: C17_30  and  C18_31 
ROOT
HETATM    1  O1  UNL     1      29.951  44.409  -0.089  1.00  0.00    -0.274 OA
HETATM    2  C1  UNL     1      29.665  44.650   1.107  1.00  0.00     0.218 C 
HETATM    3  N3  UNL     1      29.911  43.670   2.091  1.00  0.00    -0.356 N 
ATOM      4  H3  UNL     1      29.677  43.868   3.063  1.00  0.00     0.162 HD
ENDROOT
BRANCH   3   5
HETATM    5  C12 UNL     1      30.489  42.390   1.747  1.00  0.00     0.084 C 
HETATM    6  C13 UNL     1      29.340  41.405   1.611  1.00  0.00     0.026 C 
HETATM    7  C14 UNL     1      29.932  40.094   1.143  1.00  0.00     0.015 C 
HETATM    8  C15 UNL     1      30.985  39.601   2.103  1.00  0.00     0.062 C 
HETATM    9  C24 UNL     1      31.108  40.541   3.280  1.00  0.00     0.015 C 
HETATM   10  C25 UNL     1      31.471  41.914   2.794  1.00  0.00     0.026 C 
BRANCH   8  11
HETATM   11  C16 UNL     1      32.264  39.413   1.408  1.00  0.00     0.144 A 
HETATM   12  N4  UNL     1      32.943  40.276   0.617  1.00  0.00    -0.281 N 
HETATM   13  N5  UNL     1      34.045  39.694   0.201  1.00  0.00    -0.277 N 
ATOM     14  H4  UNL     1      32.647  41.223   0.381  1.00  0.00     0.189 HD
HETATM   15  C17 UNL     1      34.089  38.456   0.718  1.00  0.00     0.174 A 
ATOM     16  H5  UNL     1      34.748  40.111  -0.408  1.00  0.00     0.189 HD
HETATM   17  O3  UNL     1      32.998  38.341   1.431  1.00  0.00    -0.277 OA
BRANCH  15  18
HETATM   18  C18 UNL     1      35.124  37.434   0.536  1.00  0.00     0.017 A 
HETATM   19  C19 UNL     1      36.214  37.651  -0.278  1.00  0.00     0.016 A 
HETATM   20  C20 UNL     1      37.198  36.682  -0.450  1.00  0.00     0.001 A 
HETATM   21  C21 UNL     1      37.087  35.476   0.206  1.00  0.00     0.000 A 
HETATM   22  C22 UNL     1      35.996  35.256   1.021  1.00  0.00     0.001 A 
HETATM   23  C23 UNL     1      35.015  36.241   1.182  1.00  0.00     0.016 A 
ENDBRANCH  15  18
ENDBRANCH   8  11
ENDBRANCH   3   5
BRANCH   2  24
HETATM   24  C2  UNL     1      29.074  45.968   1.440  1.00  0.00     0.113 C 
BRANCH  24  25
HETATM   25  C3  UNL     1      27.572  45.881   1.553  1.00  0.00     0.091 C 
BRANCH  25  26
HETATM   26  S1  UNL     1      26.878  46.273  -0.095  1.00  0.00    -0.093 SA
BRANCH  26  27
HETATM   27  C4  UNL     1      25.149  45.800  -0.047  1.00  0.00     0.147 A 
HETATM   28  N1  UNL     1      24.223  46.535   0.596  1.00  0.00    -0.336 N 
HETATM   29  C5  UNL     1      22.919  46.191   0.640  1.00  0.00     0.049 A 
ATOM     30  H1  UNL     1      24.520  47.387   1.071  1.00  0.00     0.168 HD
HETATM   31  C6  UNL     1      21.969  46.942   1.298  1.00  0.00     0.030 A 
HETATM   32  C10 UNL     1      22.483  45.041   0.008  1.00  0.00     0.059 A 
HETATM   33  C7  UNL     1      20.633  46.594   1.346  1.00  0.00     0.002 A 
HETATM   34  C8  UNL     1      20.199  45.438   0.709  1.00  0.00     0.001 A 
HETATM   35  C9  UNL     1      21.153  44.691   0.053  1.00  0.00     0.019 A 
HETATM   36  C11 UNL     1      23.438  44.292  -0.650  1.00  0.00     0.259 A 
HETATM   37  O2  UNL     1      23.050  43.235  -1.234  1.00  0.00    -0.267 OA
HETATM   38  N2  UNL     1      24.726  44.681  -0.663  1.00  0.00    -0.303 N 
ATOM     39  H2  UNL     1      25.408  44.105  -1.157  1.00  0.00     0.171 HD
ENDBRANCH  26  27
ENDBRANCH  25  26
ENDBRANCH  24  25
ENDBRANCH   2  24
TORSDOF 7
ENDMDL
