MODEL 1
REMARK VINA RESULT: -12.634590663      0.000      0.000
REMARK  7 active torsions:
REMARK  status: ('A' for Active; 'I' for Inactive)
REMARK    1  A    between atoms: C1_2  and  C2_3 
REMARK       I    between atoms: C1_2  and  N3_19 
REMARK    2  A    between atoms: C2_3  and  C3_4 
REMARK    3  A    between atoms: C3_4  and  S1_5 
REMARK    4  A    between atoms: S1_5  and  C4_6 
REMARK    5  A    between atoms: N3_19  and  C12_21 
REMARK    6  A    between atoms: C15_24  and  C16_25 
REMARK    7  A    between atoms: C17_30  and  C18_31 
ROOT
HETATM    1  O1  UNL     1      29.506  41.269   0.725  1.00  0.00    -0.274 OA
HETATM    2  C1  UNL     1      30.256  41.824   1.562  1.00  0.00     0.218 C 
HETATM    3  N3  UNL     1      30.112  43.203   1.816  1.00  0.00    -0.356 N 
ATOM      4  H3  UNL     1      30.724  43.653   2.496  1.00  0.00     0.162 HD
ENDROOT
BRANCH   3   5
HETATM    5  C12 UNL     1      29.114  43.993   1.130  1.00  0.00     0.084 C 
HETATM    6  C13 UNL     1      29.853  45.078   0.365  1.00  0.00     0.026 C 
HETATM    7  C14 UNL     1      28.821  45.835  -0.441  1.00  0.00     0.015 C 
HETATM    8  C15 UNL     1      27.748  46.406   0.452  1.00  0.00     0.062 C 
HETATM    9  C24 UNL     1      28.045  46.094   1.901  1.00  0.00     0.015 C 
HETATM   10  C25 UNL     1      28.121  44.607   2.092  1.00  0.00     0.026 C 
BRANCH   8  11
HETATM   11  C16 UNL     1      26.425  45.920   0.040  1.00  0.00     0.144 A 
HETATM   12  N4  UNL     1      26.100  45.072  -0.963  1.00  0.00    -0.281 N 
HETATM   13  N5  UNL     1      24.796  44.910  -0.975  1.00  0.00    -0.277 N 
ATOM     14  H4  UNL     1      26.759  44.630  -1.604  1.00  0.00     0.189 HD
HETATM   15  C17 UNL     1      24.269  45.649   0.014  1.00  0.00     0.174 A 
ATOM     16  H5  UNL     1      24.273  44.324  -1.625  1.00  0.00     0.189 HD
HETATM   17  O3  UNL     1      25.290  46.232   0.590  1.00  0.00    -0.277 OA
BRANCH  15  18
HETATM   18  C18 UNL     1      22.860  45.788   0.389  1.00  0.00     0.017 A 
HETATM   19  C19 UNL     1      22.426  46.828   1.182  1.00  0.00     0.016 A 
HETATM   20  C20 UNL     1      21.087  46.963   1.538  1.00  0.00     0.001 A 
HETATM   21  C21 UNL     1      20.169  46.038   1.092  1.00  0.00     0.000 A 
HETATM   22  C22 UNL     1      20.601  44.995   0.299  1.00  0.00     0.001 A 
HETATM   23  C23 UNL     1      21.951  44.876  -0.050  1.00  0.00     0.016 A 
ENDBRANCH  15  18
ENDBRANCH   8  11
ENDBRANCH   3   5
BRANCH   2  24
HETATM   24  C2  UNL     1      31.273  40.997   2.255  1.00  0.00     0.113 C 
BRANCH  24  25
HETATM   25  C3  UNL     1      32.331  40.514   1.295  1.00  0.00     0.091 C 
BRANCH  25  26
HETATM   26  S1  UNL     1      32.161  38.695   1.167  1.00  0.00    -0.093 SA
BRANCH  26  27
HETATM   27  C4  UNL     1      33.756  38.069   0.636  1.00  0.00     0.147 A 
HETATM   28  N1  UNL     1      34.584  38.787  -0.143  1.00  0.00    -0.336 N 
HETATM   29  C5  UNL     1      35.786  38.328  -0.549  1.00  0.00     0.049 A 
ATOM     30  H1  UNL     1      34.291  39.718  -0.440  1.00  0.00     0.168 HD
HETATM   31  C6  UNL     1      36.637  39.062  -1.347  1.00  0.00     0.030 A 
HETATM   32  C10 UNL     1      36.214  37.070  -0.166  1.00  0.00     0.059 A 
HETATM   33  C7  UNL     1      37.868  38.597  -1.766  1.00  0.00     0.002 A 
HETATM   34  C8  UNL     1      38.295  37.333  -1.378  1.00  0.00     0.001 A 
HETATM   35  C9  UNL     1      37.441  36.603  -0.580  1.00  0.00     0.019 A 
HETATM   36  C11 UNL     1      35.359  36.339   0.634  1.00  0.00     0.259 A 
HETATM   37  O2  UNL     1      35.741  35.183   0.992  1.00  0.00    -0.267 OA
HETATM   38  N2  UNL     1      34.170  36.845   1.010  1.00  0.00    -0.303 N 
ATOM     39  H2  UNL     1      33.561  36.279   1.601  1.00  0.00     0.171 HD
ENDBRANCH  26  27
ENDBRANCH  25  26
ENDBRANCH  24  25
ENDBRANCH   2  24
TORSDOF 7
ENDMDL
