MODEL 4
REMARK VINA RESULT: -12.208694121      0.980      1.792
REMARK  7 active torsions:
REMARK  status: ('A' for Active; 'I' for Inactive)
REMARK    1  A    between atoms: C1_2  and  C2_3 
REMARK       I    between atoms: C1_2  and  N3_19 
REMARK    2  A    between atoms: C2_3  and  C3_4 
REMARK    3  A    between atoms: C3_4  and  S1_5 
REMARK    4  A    between atoms: S1_5  and  C4_6 
REMARK    5  A    between atoms: N3_19  and  C12_21 
REMARK    6  A    between atoms: C15_24  and  C16_25 
REMARK    7  A    between atoms: C17_30  and  C18_31 
ROOT
HETATM    1  O1  UNL     1      29.216  41.129   1.131  1.00  0.00    -0.274 OA
HETATM    2  C1  UNL     1      30.064  41.691   1.863  1.00  0.00     0.218 C 
HETATM    3  N3  UNL     1      30.057  43.096   1.980  1.00  0.00    -0.356 N 
ATOM      4  H3  UNL     1      30.749  43.552   2.575  1.00  0.00     0.162 HD
ENDROOT
BRANCH   3   5
HETATM    5  C12 UNL     1      29.089  43.904   1.272  1.00  0.00     0.084 C 
HETATM    6  C13 UNL     1      29.865  44.977   0.527  1.00  0.00     0.026 C 
HETATM    7  C14 UNL     1      28.865  45.754  -0.301  1.00  0.00     0.015 C 
HETATM    8  C15 UNL     1      27.781  46.342   0.567  1.00  0.00     0.062 C 
HETATM    9  C24 UNL     1      28.039  46.022   2.022  1.00  0.00     0.015 C 
HETATM   10  C25 UNL     1      28.085  44.534   2.212  1.00  0.00     0.026 C 
BRANCH   8  11
HETATM   11  C16 UNL     1      26.461  45.879   0.123  1.00  0.00     0.144 A 
HETATM   12  N4  UNL     1      26.143  45.051  -0.899  1.00  0.00    -0.281 N 
HETATM   13  N5  UNL     1      24.838  44.906  -0.938  1.00  0.00    -0.277 N 
ATOM     14  H4  UNL     1      26.808  44.611  -1.534  1.00  0.00     0.189 HD
HETATM   15  C17 UNL     1      24.302  45.636   0.054  1.00  0.00     0.174 A 
ATOM     16  H5  UNL     1      24.320  44.336  -1.606  1.00  0.00     0.189 HD
HETATM   17  O3  UNL     1      25.319  46.197   0.657  1.00  0.00    -0.277 OA
BRANCH  15  18
HETATM   18  C18 UNL     1      22.888  45.787   0.405  1.00  0.00     0.017 A 
HETATM   19  C19 UNL     1      21.943  44.874  -0.007  1.00  0.00     0.016 A 
HETATM   20  C20 UNL     1      20.599  45.016   0.327  1.00  0.00     0.001 A 
HETATM   21  C21 UNL     1      20.197  46.092   1.087  1.00  0.00     0.000 A 
HETATM   22  C22 UNL     1      21.142  47.009   1.500  1.00  0.00     0.001 A 
HETATM   23  C23 UNL     1      22.489  46.850   1.155  1.00  0.00     0.016 A 
ENDBRANCH  15  18
ENDBRANCH   8  11
ENDBRANCH   3   5
BRANCH   2  24
HETATM   24  C2  UNL     1      31.048  40.846   2.581  1.00  0.00     0.113 C 
BRANCH  24  25
HETATM   25  C3  UNL     1      32.233  40.523   1.705  1.00  0.00     0.091 C 
BRANCH  25  26
HETATM   26  S1  UNL     1      32.123  38.747   1.274  1.00  0.00    -0.093 SA
BRANCH  26  27
HETATM   27  C4  UNL     1      33.752  38.258   0.705  1.00  0.00     0.147 A 
HETATM   28  N1  UNL     1      34.382  37.171   1.185  1.00  0.00    -0.336 N 
HETATM   29  C5  UNL     1      35.607  36.791   0.764  1.00  0.00     0.049 A 
ATOM     30  H1  UNL     1      33.914  36.609   1.895  1.00  0.00     0.168 HD
HETATM   31  C6  UNL     1      36.255  35.677   1.254  1.00  0.00     0.030 A 
HETATM   32  C10 UNL     1      36.271  37.530  -0.198  1.00  0.00     0.059 A 
HETATM   33  C7  UNL     1      37.509  35.285   0.828  1.00  0.00     0.002 A 
HETATM   34  C8  UNL     1      38.171  36.030  -0.139  1.00  0.00     0.001 A 
HETATM   35  C9  UNL     1      37.520  37.143  -0.626  1.00  0.00     0.019 A 
HETATM   36  C11 UNL     1      35.618  38.645  -0.686  1.00  0.00     0.259 A 
HETATM   37  O2  UNL     1      36.216  39.331  -1.570  1.00  0.00    -0.267 OA
HETATM   38  N2  UNL     1      34.396  38.978  -0.232  1.00  0.00    -0.303 N 
ATOM     39  H2  UNL     1      33.941  39.808  -0.613  1.00  0.00     0.171 HD
ENDBRANCH  26  27
ENDBRANCH  25  26
ENDBRANCH  24  25
ENDBRANCH   2  24
TORSDOF 7
ENDMDL
