MODEL 5
REMARK VINA RESULT: -12.100085405      2.556     12.284
REMARK  7 active torsions:
REMARK  status: ('A' for Active; 'I' for Inactive)
REMARK    1  A    between atoms: C1_2  and  C2_3 
REMARK       I    between atoms: C1_2  and  N3_19 
REMARK    2  A    between atoms: C2_3  and  C3_4 
REMARK    3  A    between atoms: C3_4  and  S1_5 
REMARK    4  A    between atoms: S1_5  and  C4_6 
REMARK    5  A    between atoms: N3_19  and  C12_21 
REMARK    6  A    between atoms: C15_24  and  C16_25 
REMARK    7  A    between atoms: C17_30  and  C18_31 
ROOT
HETATM    1  O1  UNL     1      29.126  45.605   2.390  1.00  0.00    -0.274 OA
HETATM    2  C1  UNL     1      28.025  45.166   1.982  1.00  0.00     0.218 C 
HETATM    3  N3  UNL     1      27.876  43.785   1.739  1.00  0.00    -0.356 N 
ATOM      4  H3  UNL     1      26.980  43.430   1.406  1.00  0.00     0.162 HD
ENDROOT
BRANCH   3   5
HETATM    5  C12 UNL     1      28.969  42.863   1.952  1.00  0.00     0.084 C 
HETATM    6  C13 UNL     1      29.498  43.116   3.354  1.00  0.00     0.026 C 
HETATM    7  C14 UNL     1      30.567  42.078   3.619  1.00  0.00     0.015 C 
HETATM    8  C15 UNL     1      31.661  42.150   2.583  1.00  0.00     0.062 C 
HETATM    9  C24 UNL     1      31.392  43.272   1.607  1.00  0.00     0.015 C 
HETATM   10  C25 UNL     1      30.070  43.048   0.931  1.00  0.00     0.026 C 
BRANCH   8  11
HETATM   11  C16 UNL     1      31.814  40.854   1.910  1.00  0.00     0.144 A 
HETATM   12  N4  UNL     1      30.863  39.976   1.518  1.00  0.00    -0.281 N 
HETATM   13  N5  UNL     1      31.446  38.943   0.952  1.00  0.00    -0.277 N 
ATOM     14  H4  UNL     1      29.857  40.096   1.641  1.00  0.00     0.189 HD
HETATM   15  C17 UNL     1      32.773  39.143   0.974  1.00  0.00     0.174 A 
ATOM     16  H5  UNL     1      30.971  38.129   0.563  1.00  0.00     0.189 HD
HETATM   17  O3  UNL     1      32.937  40.303   1.558  1.00  0.00    -0.277 OA
BRANCH  15  18
HETATM   18  C18 UNL     1      33.830  38.268   0.460  1.00  0.00     0.017 A 
HETATM   19  C19 UNL     1      34.993  38.781  -0.071  1.00  0.00     0.016 A 
HETATM   20  C20 UNL     1      35.999  37.950  -0.558  1.00  0.00     0.001 A 
HETATM   21  C21 UNL     1      35.834  36.584  -0.511  1.00  0.00     0.000 A 
HETATM   22  C22 UNL     1      34.670  36.068   0.019  1.00  0.00     0.001 A 
HETATM   23  C23 UNL     1      33.669  36.918   0.504  1.00  0.00     0.016 A 
ENDBRANCH  15  18
ENDBRANCH   8  11
ENDBRANCH   3   5
BRANCH   2  24
HETATM   24  C2  UNL     1      26.916  46.127   1.771  1.00  0.00     0.113 C 
BRANCH  24  25
HETATM   25  C3  UNL     1      27.034  46.812   0.432  1.00  0.00     0.091 C 
BRANCH  25  26
HETATM   26  S1  UNL     1      26.455  45.628  -0.838  1.00  0.00    -0.093 SA
BRANCH  26  27
HETATM   27  C4  UNL     1      24.713  45.347  -0.519  1.00  0.00     0.147 A 
HETATM   28  N1  UNL     1      23.986  46.168   0.260  1.00  0.00    -0.336 N 
HETATM   29  C5  UNL     1      22.675  45.969   0.507  1.00  0.00     0.049 A 
ATOM     30  H1  UNL     1      24.445  46.976   0.680  1.00  0.00     0.168 HD
HETATM   31  C6  UNL     1      21.927  46.809   1.304  1.00  0.00     0.030 A 
HETATM   32  C10 UNL     1      22.021  44.883  -0.046  1.00  0.00     0.059 A 
HETATM   33  C7  UNL     1      20.585  46.609   1.562  1.00  0.00     0.002 A 
HETATM   34  C8  UNL     1      19.932  45.517   1.003  1.00  0.00     0.001 A 
HETATM   35  C9  UNL     1      20.683  44.680   0.208  1.00  0.00     0.019 A 
HETATM   36  C11 UNL     1      22.774  44.044  -0.843  1.00  0.00     0.259 A 
HETATM   37  O2  UNL     1      22.185  43.044  -1.357  1.00  0.00    -0.267 OA
HETATM   38  N2  UNL     1      24.079  44.289  -1.058  1.00  0.00    -0.303 N 
ATOM     39  H2  UNL     1      24.607  43.650  -1.652  1.00  0.00     0.171 HD
ENDBRANCH  26  27
ENDBRANCH  25  26
ENDBRANCH  24  25
ENDBRANCH   2  24
TORSDOF 7
ENDMDL
