MODEL 3
REMARK VINA RESULT: -12.527041772      0.931      1.285
REMARK  7 active torsions:
REMARK  status: ('A' for Active; 'I' for Inactive)
REMARK    1  A    between atoms: C1_2  and  C2_3 
REMARK       I    between atoms: C1_2  and  N3_19 
REMARK    2  A    between atoms: C2_3  and  C3_4 
REMARK    3  A    between atoms: C3_4  and  S1_5 
REMARK    4  A    between atoms: S1_5  and  C4_6 
REMARK    5  A    between atoms: N3_19  and  C12_21 
REMARK    6  A    between atoms: C15_24  and  C16_25 
REMARK    7  A    between atoms: C17_30  and  C18_31 
ROOT
HETATM    1  O1  UNL     1      29.224  40.205   0.706  1.00  0.00    -0.274 OA
HETATM    2  C1  UNL     1      29.918  40.488   1.710  1.00  0.00     0.218 C 
HETATM    3  N3  UNL     1      29.968  41.822   2.165  1.00  0.00    -0.356 N 
ATOM      4  H3  UNL     1      30.535  42.050   2.982  1.00  0.00     0.162 HD
ENDROOT
BRANCH   3   5
HETATM    5  C12 UNL     1      29.233  42.871   1.497  1.00  0.00     0.084 C 
HETATM    6  C13 UNL     1      30.249  43.905   1.040  1.00  0.00     0.026 C 
HETATM    7  C14 UNL     1      29.495  44.947   0.243  1.00  0.00     0.015 C 
HETATM    8  C15 UNL     1      28.394  45.566   1.066  1.00  0.00     0.062 C 
HETATM    9  C24 UNL     1      28.395  44.996   2.466  1.00  0.00     0.015 C 
HETATM   10  C25 UNL     1      28.205  43.508   2.405  1.00  0.00     0.026 C 
BRANCH   8  11
HETATM   11  C16 UNL     1      27.097  45.394   0.399  1.00  0.00     0.144 A 
HETATM   12  N4  UNL     1      26.823  44.862  -0.814  1.00  0.00    -0.281 N 
HETATM   13  N5  UNL     1      25.525  44.906  -1.014  1.00  0.00    -0.277 N 
ATOM     14  H4  UNL     1      27.512  44.486  -1.466  1.00  0.00     0.189 HD
HETATM   15  C17 UNL     1      24.952  45.465   0.063  1.00  0.00     0.174 A 
ATOM     16  H5  UNL     1      25.037  44.572  -1.844  1.00  0.00     0.189 HD
HETATM   17  O3  UNL     1      25.939  45.738   0.878  1.00  0.00    -0.277 OA
BRANCH  15  18
HETATM   18  C18 UNL     1      23.529  45.725   0.300  1.00  0.00     0.017 A 
HETATM   19  C19 UNL     1      22.552  44.904  -0.218  1.00  0.00     0.016 A 
HETATM   20  C20 UNL     1      21.200  45.148   0.007  1.00  0.00     0.001 A 
HETATM   21  C21 UNL     1      20.823  46.235   0.764  1.00  0.00     0.000 A 
HETATM   22  C22 UNL     1      21.799  47.061   1.283  1.00  0.00     0.001 A 
HETATM   23  C23 UNL     1      23.154  46.799   1.046  1.00  0.00     0.016 A 
ENDBRANCH  15  18
ENDBRANCH   8  11
ENDBRANCH   3   5
BRANCH   2  24
HETATM   24  C2  UNL     1      30.664  39.398   2.383  1.00  0.00     0.113 C 
BRANCH  24  25
HETATM   25  C3  UNL     1      31.471  38.596   1.393  1.00  0.00     0.091 C 
BRANCH  25  26
HETATM   26  S1  UNL     1      32.736  39.716   0.687  1.00  0.00    -0.093 SA
BRANCH  26  27
HETATM   27  C4  UNL     1      34.171  38.703   0.327  1.00  0.00     0.147 A 
HETATM   28  N1  UNL     1      35.170  39.131  -0.466  1.00  0.00    -0.336 N 
HETATM   29  C5  UNL     1      36.255  38.380  -0.745  1.00  0.00     0.049 A 
ATOM     30  H1  UNL     1      35.104  40.064  -0.874  1.00  0.00     0.168 HD
HETATM   31  C6  UNL     1      37.280  38.817  -1.557  1.00  0.00     0.030 A 
HETATM   32  C10 UNL     1      36.377  37.111  -0.210  1.00  0.00     0.059 A 
HETATM   33  C7  UNL     1      38.393  38.051  -1.846  1.00  0.00     0.002 A 
HETATM   34  C8  UNL     1      38.511  36.777  -1.305  1.00  0.00     0.001 A 
HETATM   35  C9  UNL     1      37.484  36.345  -0.495  1.00  0.00     0.019 A 
HETATM   36  C11 UNL     1      35.348  36.678   0.603  1.00  0.00     0.259 A 
HETATM   37  O2  UNL     1      35.448  35.514   1.101  1.00  0.00    -0.267 OA
HETATM   38  N2  UNL     1      34.288  37.468   0.849  1.00  0.00    -0.303 N 
ATOM     39  H2  UNL     1      33.544  37.118   1.453  1.00  0.00     0.171 HD
ENDBRANCH  26  27
ENDBRANCH  25  26
ENDBRANCH  24  25
ENDBRANCH   2  24
TORSDOF 7
ENDMDL
