MODEL 16
REMARK VINA RESULT: -10.895820392      2.322     12.287
REMARK  7 active torsions:
REMARK  status: ('A' for Active; 'I' for Inactive)
REMARK    1  A    between atoms: C1_2  and  C2_3 
REMARK       I    between atoms: C1_2  and  N3_19 
REMARK    2  A    between atoms: C2_3  and  C3_4 
REMARK    3  A    between atoms: C3_4  and  S1_5 
REMARK    4  A    between atoms: S1_5  and  C4_6 
REMARK    5  A    between atoms: N3_19  and  C12_21 
REMARK    6  A    between atoms: C15_24  and  C16_25 
REMARK    7  A    between atoms: C17_30  and  C18_31 
ROOT
HETATM    1  O1  UNL     1      27.717  43.504   2.479  1.00  0.00    -0.274 OA
HETATM    2  C1  UNL     1      28.367  44.533   2.183  1.00  0.00     0.218 C 
HETATM    3  N3  UNL     1      29.641  44.403   1.592  1.00  0.00    -0.356 N 
ATOM      4  H3  UNL     1      30.169  45.242   1.353  1.00  0.00     0.162 HD
ENDROOT
BRANCH   3   5
HETATM    5  C12 UNL     1      30.213  43.103   1.320  1.00  0.00     0.084 C 
HETATM    6  C13 UNL     1      29.061  42.172   0.983  1.00  0.00     0.026 C 
HETATM    7  C14 UNL     1      29.665  40.842   0.590  1.00  0.00     0.015 C 
HETATM    8  C15 UNL     1      30.530  40.291   1.695  1.00  0.00     0.062 C 
HETATM    9  C24 UNL     1      30.502  41.209   2.896  1.00  0.00     0.015 C 
HETATM   10  C25 UNL     1      30.994  42.571   2.501  1.00  0.00     0.026 C 
BRANCH   8  11
HETATM   11  C16 UNL     1      31.895  40.056   1.209  1.00  0.00     0.144 A 
HETATM   12  N4  UNL     1      32.857  40.953   0.893  1.00  0.00    -0.281 N 
HETATM   13  N5  UNL     1      33.930  40.304   0.500  1.00  0.00    -0.277 N 
ATOM     14  H4  UNL     1      32.765  41.967   0.950  1.00  0.00     0.189 HD
HETATM   15  C17 UNL     1      33.672  38.988   0.558  1.00  0.00     0.174 A 
ATOM     16  H5  UNL     1      34.808  40.727   0.202  1.00  0.00     0.189 HD
HETATM   17  O3  UNL     1      32.440  38.896   0.989  1.00  0.00    -0.277 OA
BRANCH  15  18
HETATM   18  C18 UNL     1      34.562  37.874   0.218  1.00  0.00     0.017 A 
HETATM   19  C19 UNL     1      34.147  36.565   0.321  1.00  0.00     0.016 A 
HETATM   20  C20 UNL     1      34.990  35.506  -0.003  1.00  0.00     0.001 A 
HETATM   21  C21 UNL     1      36.271  35.766  -0.437  1.00  0.00     0.000 A 
HETATM   22  C22 UNL     1      36.690  37.076  -0.541  1.00  0.00     0.001 A 
HETATM   23  C23 UNL     1      35.828  38.128  -0.211  1.00  0.00     0.016 A 
ENDBRANCH  15  18
ENDBRANCH   8  11
ENDBRANCH   3   5
BRANCH   2  24
HETATM   24  C2  UNL     1      27.764  45.857   2.469  1.00  0.00     0.113 C 
BRANCH  24  25
HETATM   25  C3  UNL     1      27.944  46.802   1.307  1.00  0.00     0.091 C 
BRANCH  25  26
HETATM   26  S1  UNL     1      27.362  45.934  -0.196  1.00  0.00    -0.093 SA
BRANCH  26  27
HETATM   27  C4  UNL     1      25.584  45.770  -0.035  1.00  0.00     0.147 A 
HETATM   28  N1  UNL     1      24.902  44.762  -0.609  1.00  0.00    -0.336 N 
HETATM   29  C5  UNL     1      23.565  44.627  -0.495  1.00  0.00     0.049 A 
ATOM     30  H1  UNL     1      25.418  44.071  -1.152  1.00  0.00     0.168 HD
HETATM   31  C6  UNL     1      22.864  43.595  -1.081  1.00  0.00     0.030 A 
HETATM   32  C10 UNL     1      22.833  45.547   0.234  1.00  0.00     0.059 A 
HETATM   33  C7  UNL     1      21.494  43.452  -0.968  1.00  0.00     0.002 A 
HETATM   34  C8  UNL     1      20.764  44.378  -0.234  1.00  0.00     0.001 A 
HETATM   35  C9  UNL     1      21.469  45.408   0.350  1.00  0.00     0.019 A 
HETATM   36  C11 UNL     1      23.540  46.579   0.820  1.00  0.00     0.259 A 
HETATM   37  O2  UNL     1      22.880  47.429   1.492  1.00  0.00    -0.267 OA
HETATM   38  N2  UNL     1      24.874  46.667   0.675  1.00  0.00    -0.303 N 
ATOM     39  H2  UNL     1      25.366  47.442   1.120  1.00  0.00     0.171 HD
ENDBRANCH  26  27
ENDBRANCH  25  26
ENDBRANCH  24  25
ENDBRANCH   2  24
TORSDOF 7
ENDMDL
