MODEL 12
REMARK VINA RESULT: -6.013621190      1.673      2.373
REMARK  1 active torsions:
REMARK  status: ('A' for Active; 'I' for Inactive)
REMARK    1  A    between atoms: N1_2  and  C1_4 
ROOT
HETATM    1  C1  UNL     1       4.757 -29.144 -32.967  1.00  0.00     0.130 A 
HETATM    2  C2  UNL     1       4.166 -28.346 -31.977  1.00  0.00     0.038 A 
HETATM    3  C3  UNL     1       3.443 -27.217 -32.279  1.00  0.00     0.003 A 
HETATM    4  C4  UNL     1       3.308 -26.880 -33.608  1.00  0.00     0.014 A 
HETATM    5  C5  UNL     1       3.878 -27.649 -34.594  1.00  0.00    -0.007 A 
HETATM    6  C6  UNL     1       3.702 -27.252 -35.919  1.00  0.00     0.015 A 
HETATM    7  C7  UNL     1       4.294 -28.060 -36.868  1.00  0.00     0.018 A 
HETATM    8  C8  UNL     1       5.021 -29.193 -36.581  1.00  0.00     0.088 A 
HETATM    9  N2  UNL     1       5.158 -29.527 -35.279  1.00  0.00    -0.363 N 
ATOM     10  H2  UNL     1       5.692 -30.361 -35.034  1.00  0.00     0.165 HD
HETATM   11  C9  UNL     1       4.605 -28.781 -34.287  1.00  0.00     0.075 A 
ENDROOT
BRANCH   1  12
HETATM   12  N1  UNL     1       5.477 -30.298 -32.585  1.00  0.00    -0.113 N 
HETATM   13  O1  UNL     1       5.377 -31.347 -33.283  1.00  0.00    -0.532 OA
HETATM   14  O2  UNL     1       6.290 -30.361 -31.490  1.00  0.00    -0.532 OA
ENDBRANCH   1  12
TORSDOF 1
ENDMDL
