MODEL 2
REMARK VINA RESULT: -6.450873882      3.355      4.714
REMARK  1 active torsions:
REMARK  status: ('A' for Active; 'I' for Inactive)
REMARK    1  A    between atoms: N1_2  and  C1_4 
ROOT
HETATM    1  C1  UNL     1       4.178 -27.603 -35.875  1.00  0.00     0.130 A 
HETATM    2  C2  UNL     1       4.765 -28.740 -36.449  1.00  0.00     0.038 A 
HETATM    3  C3  UNL     1       5.105 -29.846 -35.705  1.00  0.00     0.003 A 
HETATM    4  C4  UNL     1       4.850 -29.810 -34.353  1.00  0.00     0.014 A 
HETATM    5  C5  UNL     1       4.274 -28.706 -33.770  1.00  0.00    -0.007 A 
HETATM    6  C6  UNL     1       4.041 -28.737 -32.396  1.00  0.00     0.015 A 
HETATM    7  C7  UNL     1       3.460 -27.604 -31.864  1.00  0.00     0.018 A 
HETATM    8  C8  UNL     1       3.114 -26.490 -32.595  1.00  0.00     0.088 A 
HETATM    9  N2  UNL     1       3.365 -26.519 -33.922  1.00  0.00    -0.363 N 
ATOM     10  H2  UNL     1       3.120 -25.708 -34.491  1.00  0.00     0.165 HD
HETATM   11  C9  UNL     1       3.935 -27.598 -34.520  1.00  0.00     0.075 A 
ENDROOT
BRANCH   1  12
HETATM   12  N1  UNL     1       3.844 -26.508 -36.702  1.00  0.00    -0.113 N 
HETATM   13  O1  UNL     1       4.567 -25.471 -36.673  1.00  0.00    -0.532 OA
HETATM   14  O2  UNL     1       2.772 -26.489 -37.547  1.00  0.00    -0.532 OA
ENDBRANCH   1  12
TORSDOF 1
ENDMDL
