MODEL 3
REMARK VINA RESULT: -6.430233572      1.078      1.576
REMARK  1 active torsions:
REMARK  status: ('A' for Active; 'I' for Inactive)
REMARK    1  A    between atoms: N1_2  and  C1_4 
ROOT
HETATM    1  C1  UNL     1       4.372 -28.334 -32.315  1.00  0.00     0.130 A 
HETATM    2  C2  UNL     1       3.641 -27.247 -31.814  1.00  0.00     0.038 A 
HETATM    3  C3  UNL     1       3.024 -26.336 -32.637  1.00  0.00     0.003 A 
HETATM    4  C4  UNL     1       3.141 -26.519 -33.997  1.00  0.00     0.014 A 
HETATM    5  C5  UNL     1       3.852 -27.579 -34.509  1.00  0.00    -0.007 A 
HETATM    6  C6  UNL     1       3.929 -27.708 -35.895  1.00  0.00     0.015 A 
HETATM    7  C7  UNL     1       4.653 -28.789 -36.354  1.00  0.00     0.018 A 
HETATM    8  C8  UNL     1       5.277 -29.709 -35.543  1.00  0.00     0.088 A 
HETATM    9  N2  UNL     1       5.167 -29.531 -34.208  1.00  0.00    -0.363 N 
ATOM     10  H2  UNL     1       5.619 -30.197 -33.580  1.00  0.00     0.165 HD
HETATM   11  C9  UNL     1       4.471 -28.491 -33.679  1.00  0.00     0.075 A 
ENDROOT
BRANCH   1  12
HETATM   12  N1  UNL     1       4.971 -29.238 -31.410  1.00  0.00    -0.113 N 
HETATM   13  O1  UNL     1       4.366 -29.530 -30.339  1.00  0.00    -0.532 OA
HETATM   14  O2  UNL     1       6.184 -29.830 -31.614  1.00  0.00    -0.532 OA
ENDBRANCH   1  12
TORSDOF 1
ENDMDL
