MODEL 1
REMARK VINA RESULT: -6.505938394      0.000      0.000
REMARK  1 active torsions:
REMARK  status: ('A' for Active; 'I' for Inactive)
REMARK    1  A    between atoms: N1_2  and  C1_4 
ROOT
HETATM    1  C1  UNL     1       4.188 -28.369 -32.759  1.00  0.00     0.130 A 
HETATM    2  C2  UNL     1       3.550 -27.175 -33.125  1.00  0.00     0.038 A 
HETATM    3  C3  UNL     1       3.443 -26.772 -34.436  1.00  0.00     0.003 A 
HETATM    4  C4  UNL     1       3.988 -27.587 -35.403  1.00  0.00     0.014 A 
HETATM    5  C5  UNL     1       4.617 -28.763 -35.065  1.00  0.00    -0.007 A 
HETATM    6  C6  UNL     1       5.145 -29.541 -36.093  1.00  0.00     0.015 A 
HETATM    7  C7  UNL     1       5.764 -30.710 -35.699  1.00  0.00     0.018 A 
HETATM    8  C8  UNL     1       5.879 -31.127 -34.393  1.00  0.00     0.088 A 
HETATM    9  N2  UNL     1       5.348 -30.329 -33.440  1.00  0.00    -0.363 N 
ATOM     10  H2  UNL     1       5.418 -30.611 -32.462  1.00  0.00     0.165 HD
HETATM   11  C9  UNL     1       4.724 -29.163 -33.749  1.00  0.00     0.075 A 
ENDROOT
BRANCH   1  12
HETATM   12  N1  UNL     1       4.252 -28.727 -31.394  1.00  0.00    -0.113 N 
HETATM   13  O1  UNL     1       3.183 -28.782 -30.721  1.00  0.00    -0.532 OA
HETATM   14  O2  UNL     1       5.411 -29.022 -30.736  1.00  0.00    -0.532 OA
ENDBRANCH   1  12
TORSDOF 1
ENDMDL
