MODEL 1
REMARK VINA RESULT: -6.679652519      0.000      0.000
REMARK  4 active torsions:
REMARK  status: ('A' for Active; 'I' for Inactive)
REMARK       I    between atoms: C2_2  and  N1_4 
REMARK    1  A    between atoms: N1_4  and  C3_6 
REMARK    2  A    between atoms: C6_12  and  O2_13 
REMARK    3  A    between atoms: C7_15  and  O3_16 
REMARK    4  A    between atoms: C8_18  and  O4_19 
ROOT
HETATM    1  C3  UNL     1      67.996  -7.159   3.462  1.00  0.00     0.141 C 
HETATM    2  C4  UNL     1      67.978  -8.329   2.521  1.00  0.00     0.260 C 
HETATM    3  N2  UNL     1      66.674  -8.920   2.386  1.00  0.00    -0.071 N 
ATOM      4  H21 UNL     1      66.432  -9.086   1.409  1.00  0.00     0.277 HD
ATOM      5  H22 UNL     1      65.932  -8.258   2.615  1.00  0.00     0.277 HD
HETATM    6  C5  UNL     1      66.578 -10.126   3.173  1.00  0.00     0.266 C 
HETATM    7  C6  UNL     1      67.039  -9.943   4.583  1.00  0.00     0.175 C 
HETATM    8  C7  UNL     1      66.837  -8.542   5.088  1.00  0.00     0.179 C 
HETATM    9  C8  UNL     1      68.059  -7.672   4.862  1.00  0.00     0.173 C 
ENDROOT
BRANCH   1  10
HETATM   10  N1  UNL     1      69.094  -6.302   3.095  1.00  0.00    -0.353 N 
HETATM   11  C2  UNL     1      69.157  -4.925   3.329  1.00  0.00     0.214 C 
HETATM   12  C1  UNL     1      70.327  -4.110   2.921  1.00  0.00     0.117 C 
HETATM   13  O1  UNL     1      68.210  -4.346   3.899  1.00  0.00    -0.274 OA
ATOM     14  H1  UNL     1      69.890  -6.735   2.627  1.00  0.00     0.163 HD
ENDBRANCH   1  10
BRANCH   9  15
HETATM   15  O4  UNL     1      67.988  -6.651   5.813  1.00  0.00    -0.391 OA
ATOM     16  H4  UNL     1      68.531  -6.821   6.574  1.00  0.00     0.210 HD
ENDBRANCH   9  15
BRANCH   8  17
HETATM   17  O3  UNL     1      66.510  -8.593   6.440  1.00  0.00    -0.390 OA
ATOM     18  H3  UNL     1      67.267  -8.330   6.949  1.00  0.00     0.210 HD
ENDBRANCH   8  17
BRANCH   7  19
HETATM   19  O2  UNL     1      66.312 -10.814   5.404  1.00  0.00    -0.391 OA
ATOM     20  H2  UNL     1      65.457 -10.433   5.565  1.00  0.00     0.210 HD
ENDBRANCH   7  19
TORSDOF 4
ENDMDL
