MODEL 14
REMARK VINA RESULT: -4.958414272      2.666      4.907
REMARK  4 active torsions:
REMARK  status: ('A' for Active; 'I' for Inactive)
REMARK       I    between atoms: C2_2  and  N1_4 
REMARK    1  A    between atoms: N1_4  and  C3_6 
REMARK    2  A    between atoms: C6_12  and  O2_13 
REMARK    3  A    between atoms: C7_15  and  O3_16 
REMARK    4  A    between atoms: C8_18  and  O4_19 
ROOT
HETATM    1  C3  UNL     1      65.866  -8.605   2.997  1.00  0.00     0.141 C 
HETATM    2  C4  UNL     1      67.245  -8.909   3.508  1.00  0.00     0.260 C 
HETATM    3  N2  UNL     1      67.512  -8.313   4.790  1.00  0.00    -0.071 N 
ATOM      4  H21 UNL     1      67.936  -8.978   5.437  1.00  0.00     0.277 HD
ATOM      5  H22 UNL     1      66.652  -8.125   5.306  1.00  0.00     0.277 HD
HETATM    6  C5  UNL     1      68.317  -7.125   4.639  1.00  0.00     0.266 C 
HETATM    7  C6  UNL     1      67.784  -6.182   3.609  1.00  0.00     0.175 C 
HETATM    8  C7  UNL     1      66.290  -6.259   3.463  1.00  0.00     0.179 C 
HETATM    9  C8  UNL     1      65.872  -7.243   2.386  1.00  0.00     0.173 C 
ENDROOT
BRANCH   1  10
HETATM   10  N1  UNL     1      65.477  -9.657   2.093  1.00  0.00    -0.353 N 
HETATM   11  C2  UNL     1      66.072  -9.920   0.856  1.00  0.00     0.214 C 
HETATM   12  C1  UNL     1      65.613 -11.027  -0.019  1.00  0.00     0.117 C 
HETATM   13  O1  UNL     1      67.021  -9.214   0.458  1.00  0.00    -0.274 OA
ATOM     14  H1  UNL     1      64.705 -10.259   2.380  1.00  0.00     0.163 HD
ENDBRANCH   1  10
BRANCH   9  15
HETATM   15  O4  UNL     1      64.605  -6.837   1.963  1.00  0.00    -0.391 OA
ATOM     16  H4  UNL     1      64.134  -7.523   1.505  1.00  0.00     0.210 HD
ENDBRANCH   9  15
BRANCH   8  17
HETATM   17  O3  UNL     1      65.799  -4.986   3.187  1.00  0.00    -0.390 OA
ATOM     18  H3  UNL     1      65.762  -4.869   2.245  1.00  0.00     0.210 HD
ENDBRANCH   8  17
BRANCH   7  19
HETATM   19  O2  UNL     1      68.121  -4.876   3.986  1.00  0.00    -0.391 OA
ATOM     20  H2  UNL     1      67.400  -4.511   4.485  1.00  0.00     0.210 HD
ENDBRANCH   7  19
TORSDOF 4
ENDMDL
