MODEL 11
REMARK VINA RESULT: -5.034271747      3.370      4.880
REMARK  4 active torsions:
REMARK  status: ('A' for Active; 'I' for Inactive)
REMARK       I    between atoms: C2_2  and  N1_4 
REMARK    1  A    between atoms: N1_4  and  C3_6 
REMARK    2  A    between atoms: C6_12  and  O2_13 
REMARK    3  A    between atoms: C7_15  and  O3_16 
REMARK    4  A    between atoms: C8_18  and  O4_19 
ROOT
HETATM    1  C3  UNL     1      66.502  -9.661   2.777  1.00  0.00     0.141 C 
HETATM    2  C4  UNL     1      66.605 -10.645   1.647  1.00  0.00     0.260 C 
HETATM    3  N2  UNL     1      67.104 -10.055   0.434  1.00  0.00    -0.071 N 
ATOM      4  H21 UNL     1      67.835 -10.625   0.008  1.00  0.00     0.277 HD
ATOM      5  H22 UNL     1      67.655  -9.216   0.619  1.00  0.00     0.277 HD
HETATM    6  C5  UNL     1      66.023  -9.794  -0.486  1.00  0.00     0.266 C 
HETATM    7  C6  UNL     1      64.882  -9.061   0.142  1.00  0.00     0.175 C 
HETATM    8  C7  UNL     1      65.312  -8.170   1.274  1.00  0.00     0.179 C 
HETATM    9  C8  UNL     1      65.243  -8.876   2.615  1.00  0.00     0.173 C 
ENDROOT
BRANCH   1  10
HETATM   10  N1  UNL     1      66.591 -10.387   4.018  1.00  0.00    -0.353 N 
HETATM   11  C2  UNL     1      67.136  -9.893   5.206  1.00  0.00     0.214 C 
HETATM   12  C1  UNL     1      67.190 -10.706   6.446  1.00  0.00     0.117 C 
HETATM   13  O1  UNL     1      67.595  -8.734   5.246  1.00  0.00    -0.274 OA
ATOM     14  H1  UNL     1      66.227 -11.340   4.030  1.00  0.00     0.163 HD
ENDBRANCH   1  10
BRANCH   9  15
HETATM   15  O4  UNL     1      65.108  -7.871   3.575  1.00  0.00    -0.391 OA
ATOM     16  H4  UNL     1      64.210  -7.762   3.867  1.00  0.00     0.210 HD
ENDBRANCH   9  15
BRANCH   8  17
HETATM   17  O3  UNL     1      64.515  -7.029   1.275  1.00  0.00    -0.390 OA
ATOM     18  H3  UNL     1      65.043  -6.285   1.011  1.00  0.00     0.210 HD
ENDBRANCH   8  17
BRANCH   7  19
HETATM   19  O2  UNL     1      64.273  -8.266  -0.835  1.00  0.00    -0.391 OA
ATOM     20  H2  UNL     1      64.367  -7.355  -0.584  1.00  0.00     0.210 HD
ENDBRANCH   7  19
TORSDOF 4
ENDMDL
