MODEL 4
REMARK VINA RESULT: -5.585831366      2.346      4.528
REMARK  4 active torsions:
REMARK  status: ('A' for Active; 'I' for Inactive)
REMARK       I    between atoms: C2_2  and  N1_4 
REMARK    1  A    between atoms: N1_4  and  C3_6 
REMARK    2  A    between atoms: C6_12  and  O2_13 
REMARK    3  A    between atoms: C7_15  and  O3_16 
REMARK    4  A    between atoms: C8_18  and  O4_19 
ROOT
HETATM    1  C3  UNL     1      66.741  -9.045   2.430  1.00  0.00     0.141 C 
HETATM    2  C4  UNL     1      67.176  -7.673   2.857  1.00  0.00     0.260 C 
HETATM    3  N2  UNL     1      68.365  -7.689   3.666  1.00  0.00    -0.071 N 
ATOM      4  H21 UNL     1      69.044  -6.993   3.356  1.00  0.00     0.277 HD
ATOM      5  H22 UNL     1      68.922  -8.527   3.504  1.00  0.00     0.277 HD
HETATM    6  C5  UNL     1      68.032  -7.528   5.061  1.00  0.00     0.266 C 
HETATM    7  C6  UNL     1      66.953  -8.456   5.518  1.00  0.00     0.175 C 
HETATM    8  C7  UNL     1      66.928  -9.746   4.748  1.00  0.00     0.179 C 
HETATM    9  C8  UNL     1      65.993  -9.682   3.555  1.00  0.00     0.173 C 
ENDROOT
BRANCH   1  10
HETATM   10  N1  UNL     1      65.983  -8.920   1.212  1.00  0.00    -0.353 N 
HETATM   11  C2  UNL     1      65.729  -9.955   0.308  1.00  0.00     0.214 C 
HETATM   12  C1  UNL     1      64.936  -9.744  -0.929  1.00  0.00     0.117 C 
HETATM   13  O1  UNL     1      66.174 -11.099   0.530  1.00  0.00    -0.274 OA
ATOM     14  H1  UNL     1      65.600  -8.000   0.991  1.00  0.00     0.163 HD
ENDBRANCH   1  10
BRANCH   9  15
HETATM   15  O4  UNL     1      65.627 -11.001   3.279  1.00  0.00    -0.391 OA
ATOM     16  H4  UNL     1      64.695 -11.096   3.117  1.00  0.00     0.210 HD
ENDBRANCH   9  15
BRANCH   8  17
HETATM   17  O3  UNL     1      66.559 -10.776   5.609  1.00  0.00    -0.390 OA
ATOM     18  H3  UNL     1      66.089 -11.437   5.113  1.00  0.00     0.210 HD
ENDBRANCH   8  17
BRANCH   7  19
HETATM   19  O2  UNL     1      67.166  -8.754   6.868  1.00  0.00    -0.391 OA
ATOM     20  H2  UNL     1      67.827  -8.162   7.207  1.00  0.00     0.210 HD
ENDBRANCH   7  19
TORSDOF 4
ENDMDL
