MODEL 1
REMARK VINA RESULT: -10.131617788      0.000      0.000
REMARK  7 active torsions:
REMARK  status: ('A' for Active; 'I' for Inactive)
REMARK    1  A    between atoms: O1_2  and  C2_3 
REMARK    2  A    between atoms: C9_10  and  C10_11 
REMARK       I    between atoms: C10_11  and  N1_13 
REMARK    3  A    between atoms: N1_13  and  S1_15 
REMARK    4  A    between atoms: S1_15  and  C11_18 
REMARK    5  A    between atoms: C14_21  and  C15_22 
REMARK    6  A    between atoms: N2_28  and  C21_29 
REMARK    7  A    between atoms: C21_29  and  C22_30 
ROOT
HETATM    1  C10 UNL     1      19.285  10.300  -0.207  1.00  0.00     0.281 C 
HETATM    2  O2  UNL     1      19.956  11.356  -0.502  1.00  0.00    -0.265 OA
HETATM    3  N1  UNL     1      20.091   9.235   0.256  1.00  0.00    -0.245 N 
ATOM      4  H1  UNL     1      19.644   8.353   0.504  1.00  0.00     0.182 HD
ENDROOT
BRANCH   1   5
HETATM    5  C9  UNL     1      17.856  10.323  -0.372  1.00  0.00     0.105 A 
HETATM    6  C8  UNL     1      17.250  10.190  -1.633  1.00  0.00     0.049 A 
HETATM    7  C6  UNL     1      15.891  10.279  -1.502  1.00  0.00    -0.004 A 
HETATM    8  C5  UNL     1      15.659  10.469  -0.162  1.00  0.00     0.046 A 
HETATM    9  C7  UNL     1      14.898  10.210  -2.452  1.00  0.00     0.050 A 
HETATM   10  C4  UNL     1      14.332  10.596   0.237  1.00  0.00     0.033 A 
HETATM   11  N2  UNL     1      16.856  10.491   0.488  1.00  0.00    -0.332 N 
HETATM   12  C3  UNL     1      13.294  10.536  -0.671  1.00  0.00     0.039 A 
HETATM   13  C2  UNL     1      13.602  10.340  -2.021  1.00  0.00     0.069 A 
BRANCH  13  14
HETATM   14  O1  UNL     1      12.564  10.282  -2.913  1.00  0.00    -0.356 OA
HETATM   15  C1  UNL     1      12.605   9.844  -4.235  1.00  0.00     0.210 C 
ENDBRANCH  13  14
BRANCH  11  16
HETATM   16  C21 UNL     1      16.915  10.688   1.914  1.00  0.00     0.242 C 
BRANCH  16  17
HETATM   17  C22 UNL     1      17.031  12.146   2.204  1.00  0.00     0.191 C 
HETATM   18  O5  UNL     1      16.138  12.795   2.817  1.00  0.00    -0.647 OA
HETATM   19  O6  UNL     1      18.150  12.897   1.814  1.00  0.00    -0.647 OA
ENDBRANCH  16  17
ENDBRANCH  11  16
ENDBRANCH   1   5
BRANCH   3  20
HETATM   20  S1  UNL     1      21.813   9.376   0.418  1.00  0.00     0.265 S 
HETATM   21  O3  UNL     1      22.179  10.786   0.747  1.00  0.00    -0.200 OA
HETATM   22  O4  UNL     1      22.412   8.976  -0.920  1.00  0.00    -0.200 OA
BRANCH  20  23
HETATM   23  C11 UNL     1      22.478   8.300   1.596  1.00  0.00     0.080 A 
HETATM   24  C12 UNL     1      22.701   8.766   2.888  1.00  0.00     0.026 A 
HETATM   25  C13 UNL     1      23.224   7.973   3.875  1.00  0.00     0.009 A 
HETATM   26  C14 UNL     1      23.549   6.653   3.593  1.00  0.00    -0.051 A 
HETATM   27  C19 UNL     1      23.326   6.180   2.293  1.00  0.00     0.009 A 
HETATM   28  C20 UNL     1      22.797   6.998   1.311  1.00  0.00     0.026 A 
BRANCH  26  29
HETATM   29  C15 UNL     1      24.093   5.821   4.676  1.00  0.00    -0.024 C 
HETATM   30  C16 UNL     1      23.224   4.577   4.882  1.00  0.00     0.019 C 
HETATM   31  C17 UNL     1      25.487   5.391   4.257  1.00  0.00     0.019 C 
HETATM   32  C18 UNL     1      24.201   6.583   5.961  1.00  0.00     0.019 C 
ENDBRANCH  26  29
ENDBRANCH  20  23
ENDBRANCH   3  20
TORSDOF 7
ENDMDL
