MODEL 2
REMARK VINA RESULT: -10.095607578      2.356      9.598
REMARK  7 active torsions:
REMARK  status: ('A' for Active; 'I' for Inactive)
REMARK    1  A    between atoms: O1_2  and  C2_3 
REMARK    2  A    between atoms: C9_10  and  C10_11 
REMARK       I    between atoms: C10_11  and  N1_13 
REMARK    3  A    between atoms: N1_13  and  S1_15 
REMARK    4  A    between atoms: S1_15  and  C11_18 
REMARK    5  A    between atoms: C14_21  and  C15_22 
REMARK    6  A    between atoms: N2_28  and  C21_29 
REMARK    7  A    between atoms: C21_29  and  C22_30 
ROOT
HETATM    1  C10 UNL     1      18.765  10.160   2.532  1.00  0.00     0.281 C 
HETATM    2  O2  UNL     1      18.549  11.235   3.202  1.00  0.00    -0.265 OA
HETATM    3  N1  UNL     1      17.836   9.958   1.484  1.00  0.00    -0.245 N 
ATOM      4  H1  UNL     1      17.923   9.123   0.905  1.00  0.00     0.182 HD
ENDROOT
BRANCH   1   5
HETATM    5  C9  UNL     1      19.874   9.324   2.906  1.00  0.00     0.105 A 
HETATM    6  C8  UNL     1      19.693   8.095   3.560  1.00  0.00     0.049 A 
HETATM    7  C6  UNL     1      20.911   7.530   3.824  1.00  0.00    -0.004 A 
HETATM    8  C5  UNL     1      21.843   8.410   3.333  1.00  0.00     0.046 A 
HETATM    9  C7  UNL     1      21.227   6.343   4.444  1.00  0.00     0.050 A 
HETATM   10  C4  UNL     1      23.181   8.062   3.484  1.00  0.00     0.033 A 
HETATM   11  N2  UNL     1      21.190   9.476   2.790  1.00  0.00    -0.332 N 
HETATM   12  C3  UNL     1      23.558   6.886   4.099  1.00  0.00     0.039 A 
HETATM   13  C2  UNL     1      22.557   6.034   4.574  1.00  0.00     0.069 A 
BRANCH  13  14
HETATM   14  O1  UNL     1      22.944   4.869   5.183  1.00  0.00    -0.356 OA
HETATM   15  C1  UNL     1      24.236   4.485   5.537  1.00  0.00     0.210 C 
ENDBRANCH  13  14
BRANCH  11  16
HETATM   16  C21 UNL     1      21.925  10.569   2.206  1.00  0.00     0.242 C 
BRANCH  16  17
HETATM   17  C22 UNL     1      21.812  10.500   0.721  1.00  0.00     0.191 C 
HETATM   18  O5  UNL     1      22.469   9.679   0.022  1.00  0.00    -0.647 OA
HETATM   19  O6  UNL     1      20.961  11.349  -0.002  1.00  0.00    -0.647 OA
ENDBRANCH  16  17
ENDBRANCH  11  16
ENDBRANCH   1   5
BRANCH   3  20
HETATM   20  S1  UNL     1      16.555  11.080   1.150  1.00  0.00     0.265 S 
HETATM   21  O3  UNL     1      17.096  12.471   1.109  1.00  0.00    -0.200 OA
HETATM   22  O4  UNL     1      15.547  10.941   2.277  1.00  0.00    -0.200 OA
BRANCH  20  23
HETATM   23  C11 UNL     1      15.707  10.729  -0.316  1.00  0.00     0.080 A 
HETATM   24  C12 UNL     1      16.424  10.281  -1.421  1.00  0.00     0.026 A 
HETATM   25  C13 UNL     1      15.822   9.983  -2.614  1.00  0.00     0.009 A 
HETATM   26  C14 UNL     1      14.447  10.126  -2.744  1.00  0.00    -0.051 A 
HETATM   27  C19 UNL     1      13.722  10.576  -1.633  1.00  0.00     0.009 A 
HETATM   28  C20 UNL     1      14.349  10.873  -0.436  1.00  0.00     0.026 A 
BRANCH  26  29
HETATM   29  C15 UNL     1      13.827   9.782  -4.031  1.00  0.00    -0.024 C 
HETATM   30  C16 UNL     1      14.448  10.607  -5.162  1.00  0.00     0.019 C 
HETATM   31  C17 UNL     1      14.096   8.310  -4.282  1.00  0.00     0.019 C 
HETATM   32  C18 UNL     1      12.344   9.991  -4.006  1.00  0.00     0.019 C 
ENDBRANCH  26  29
ENDBRANCH  20  23
ENDBRANCH   3  20
TORSDOF 7
ENDMDL
