MODEL 4
REMARK VINA RESULT: -9.785441622      4.796      6.536
REMARK  7 active torsions:
REMARK  status: ('A' for Active; 'I' for Inactive)
REMARK    1  A    between atoms: O1_2  and  C2_3 
REMARK    2  A    between atoms: C9_10  and  C10_11 
REMARK       I    between atoms: C10_11  and  N1_13 
REMARK    3  A    between atoms: N1_13  and  S1_15 
REMARK    4  A    between atoms: S1_15  and  C11_18 
REMARK    5  A    between atoms: C14_21  and  C15_22 
REMARK    6  A    between atoms: N2_28  and  C21_29 
REMARK    7  A    between atoms: C21_29  and  C22_30 
ROOT
HETATM    1  C10 UNL     1      15.076  11.053   1.256  1.00  0.00     0.281 C 
HETATM    2  O2  UNL     1      14.090  11.250   2.057  1.00  0.00    -0.265 OA
HETATM    3  N1  UNL     1      16.334  11.333   1.837  1.00  0.00    -0.245 N 
ATOM      4  H1  UNL     1      17.174  11.215   1.271  1.00  0.00     0.182 HD
ENDROOT
BRANCH   1   5
HETATM    5  C9  UNL     1      14.799  10.589  -0.077  1.00  0.00     0.105 A 
HETATM    6  C8  UNL     1      13.612  10.922  -0.750  1.00  0.00     0.049 A 
HETATM    7  C6  UNL     1      13.597  10.323  -1.980  1.00  0.00    -0.004 A 
HETATM    8  C5  UNL     1      14.773   9.621  -2.066  1.00  0.00     0.046 A 
HETATM    9  C7  UNL     1      12.648  10.359  -2.977  1.00  0.00     0.050 A 
HETATM   10  C4  UNL     1      15.000   8.909  -3.239  1.00  0.00     0.033 A 
HETATM   11  N2  UNL     1      15.472   9.800  -0.909  1.00  0.00    -0.332 N 
HETATM   12  C3  UNL     1      14.085   8.907  -4.273  1.00  0.00     0.039 A 
HETATM   13  C2  UNL     1      12.907   9.645  -4.119  1.00  0.00     0.069 A 
BRANCH  13  14
HETATM   14  O1  UNL     1      12.006   9.635  -5.152  1.00  0.00    -0.356 OA
HETATM   15  C1  UNL     1      10.620   9.755  -5.069  1.00  0.00     0.210 C 
ENDBRANCH  13  14
BRANCH  11  16
HETATM   16  C21 UNL     1      16.749   9.164  -0.716  1.00  0.00     0.242 C 
BRANCH  16  17
HETATM   17  C22 UNL     1      17.824  10.197  -0.755  1.00  0.00     0.191 C 
HETATM   18  O5  UNL     1      17.929  11.040  -1.688  1.00  0.00    -0.647 OA
HETATM   19  O6  UNL     1      18.795  10.300   0.252  1.00  0.00    -0.647 OA
ENDBRANCH  16  17
ENDBRANCH  11  16
ENDBRANCH   1   5
BRANCH   3  20
HETATM   20  S1  UNL     1      16.500  11.871   3.479  1.00  0.00     0.265 S 
HETATM   21  O3  UNL     1      15.828  13.194   3.650  1.00  0.00    -0.200 OA
HETATM   22  O4  UNL     1      17.989  12.000   3.748  1.00  0.00    -0.200 OA
BRANCH  20  23
HETATM   23  C11 UNL     1      15.887  10.739   4.633  1.00  0.00     0.080 A 
HETATM   24  C12 UNL     1      14.783  11.090   5.404  1.00  0.00     0.026 A 
HETATM   25  C13 UNL     1      14.241  10.248   6.337  1.00  0.00     0.009 A 
HETATM   26  C14 UNL     1      14.801   8.993   6.534  1.00  0.00    -0.051 A 
HETATM   27  C19 UNL     1      15.913   8.635   5.760  1.00  0.00     0.009 A 
HETATM   28  C20 UNL     1      16.445   9.501   4.822  1.00  0.00     0.026 A 
BRANCH  26  29
HETATM   29  C15 UNL     1      14.189   8.103   7.531  1.00  0.00    -0.024 C 
HETATM   30  C16 UNL     1      15.108   7.946   8.745  1.00  0.00     0.019 C 
HETATM   31  C17 UNL     1      12.887   8.747   7.971  1.00  0.00     0.019 C 
HETATM   32  C18 UNL     1      13.875   6.756   6.955  1.00  0.00     0.019 C 
ENDBRANCH  26  29
ENDBRANCH  20  23
ENDBRANCH   3  20
TORSDOF 7
ENDMDL
