MODEL 3
REMARK VINA RESULT: -9.794316151      0.939      1.269
REMARK  7 active torsions:
REMARK  status: ('A' for Active; 'I' for Inactive)
REMARK    1  A    between atoms: O1_2  and  C2_3 
REMARK    2  A    between atoms: C9_10  and  C10_11 
REMARK       I    between atoms: C10_11  and  N1_13 
REMARK    3  A    between atoms: N1_13  and  S1_15 
REMARK    4  A    between atoms: S1_15  and  C11_18 
REMARK    5  A    between atoms: C14_21  and  C15_22 
REMARK    6  A    between atoms: N2_28  and  C21_29 
REMARK    7  A    between atoms: C21_29  and  C22_30 
ROOT
HETATM    1  C10 UNL     1      19.255  10.434  -0.289  1.00  0.00     0.281 C 
HETATM    2  O2  UNL     1      19.917  11.512  -0.518  1.00  0.00    -0.265 OA
HETATM    3  N1  UNL     1      20.062   9.368   0.170  1.00  0.00    -0.245 N 
ATOM      4  H1  UNL     1      19.623   8.469   0.367  1.00  0.00     0.182 HD
ENDROOT
BRANCH   1   5
HETATM    5  C9  UNL     1      17.834  10.436  -0.514  1.00  0.00     0.105 A 
HETATM    6  C8  UNL     1      17.277  10.101  -1.759  1.00  0.00     0.049 A 
HETATM    7  C6  UNL     1      15.915  10.218  -1.701  1.00  0.00    -0.004 A 
HETATM    8  C5  UNL     1      15.632  10.625  -0.421  1.00  0.00     0.046 A 
HETATM    9  C7  UNL     1      14.960   9.998  -2.666  1.00  0.00     0.050 A 
HETATM   10  C4  UNL     1      14.292  10.823  -0.102  1.00  0.00     0.033 A 
HETATM   11  N2  UNL     1      16.803  10.748   0.266  1.00  0.00    -0.332 N 
HETATM   12  C3  UNL     1      13.291  10.620  -1.030  1.00  0.00     0.039 A 
HETATM   13  C2  UNL     1      13.649  10.204  -2.315  1.00  0.00     0.069 A 
BRANCH  13  14
HETATM   14  O1  UNL     1      12.646  10.006  -3.227  1.00  0.00    -0.356 OA
HETATM   15  C1  UNL     1      12.777   9.770  -4.595  1.00  0.00     0.210 C 
ENDBRANCH  13  14
BRANCH  11  16
HETATM   16  C21 UNL     1      16.808  11.176   1.641  1.00  0.00     0.242 C 
BRANCH  16  17
HETATM   17  C22 UNL     1      17.046   9.997   2.522  1.00  0.00     0.191 C 
HETATM   18  O5  UNL     1      16.115   9.248   2.929  1.00  0.00    -0.647 OA
HETATM   19  O6  UNL     1      18.330   9.639   2.959  1.00  0.00    -0.647 OA
ENDBRANCH  16  17
ENDBRANCH  11  16
ENDBRANCH   1   5
BRANCH   3  20
HETATM   20  S1  UNL     1      21.773   9.535   0.410  1.00  0.00     0.265 S 
HETATM   21  O3  UNL     1      22.095  10.936   0.814  1.00  0.00    -0.200 OA
HETATM   22  O4  UNL     1      22.434   9.206  -0.918  1.00  0.00    -0.200 OA
BRANCH  20  23
HETATM   23  C11 UNL     1      22.412   8.420   1.567  1.00  0.00     0.080 A 
HETATM   24  C12 UNL     1      22.631   8.852   2.872  1.00  0.00     0.026 A 
HETATM   25  C13 UNL     1      23.134   8.029   3.843  1.00  0.00     0.009 A 
HETATM   26  C14 UNL     1      23.441   6.711   3.532  1.00  0.00    -0.051 A 
HETATM   27  C19 UNL     1      23.221   6.272   2.220  1.00  0.00     0.009 A 
HETATM   28  C20 UNL     1      22.713   7.121   1.254  1.00  0.00     0.026 A 
BRANCH  26  29
HETATM   29  C15 UNL     1      23.963   5.845   4.599  1.00  0.00    -0.024 C 
HETATM   30  C16 UNL     1      25.403   5.425   4.291  1.00  0.00     0.019 C 
HETATM   31  C17 UNL     1      23.943   6.651   5.885  1.00  0.00     0.019 C 
HETATM   32  C18 UNL     1      23.111   4.628   4.794  1.00  0.00     0.019 C 
ENDBRANCH  26  29
ENDBRANCH  20  23
ENDBRANCH   3  20
TORSDOF 7
ENDMDL
