MODEL 11
REMARK VINA RESULT: -9.341037197      4.485      6.451
REMARK  7 active torsions:
REMARK  status: ('A' for Active; 'I' for Inactive)
REMARK    1  A    between atoms: O1_2  and  C2_3 
REMARK    2  A    between atoms: C9_10  and  C10_11 
REMARK       I    between atoms: C10_11  and  N1_13 
REMARK    3  A    between atoms: N1_13  and  S1_15 
REMARK    4  A    between atoms: S1_15  and  C11_18 
REMARK    5  A    between atoms: C14_21  and  C15_22 
REMARK    6  A    between atoms: N2_28  and  C21_29 
REMARK    7  A    between atoms: C21_29  and  C22_30 
ROOT
HETATM    1  C10 UNL     1      16.343  10.705   1.311  1.00  0.00     0.281 C 
HETATM    2  O2  UNL     1      16.266  11.860   1.868  1.00  0.00    -0.265 OA
HETATM    3  N1  UNL     1      17.047   9.755   2.086  1.00  0.00    -0.245 N 
ATOM      4  H1  UNL     1      17.168   8.812   1.717  1.00  0.00     0.182 HD
ENDROOT
BRANCH   1   5
HETATM    5  C9  UNL     1      15.733  10.519   0.021  1.00  0.00     0.105 A 
HETATM    6  C8  UNL     1      14.363  10.743  -0.193  1.00  0.00     0.049 A 
HETATM    7  C6  UNL     1      14.048  10.459  -1.494  1.00  0.00    -0.004 A 
HETATM    8  C5  UNL     1      15.223  10.060  -2.082  1.00  0.00     0.046 A 
HETATM    9  C7  UNL     1      12.843  10.527  -2.155  1.00  0.00     0.050 A 
HETATM   10  C4  UNL     1      15.169   9.707  -3.426  1.00  0.00     0.033 A 
HETATM   11  N2  UNL     1      16.214  10.105  -1.147  1.00  0.00    -0.332 N 
HETATM   12  C3  UNL     1      13.988   9.754  -4.140  1.00  0.00     0.039 A 
HETATM   13  C2  UNL     1      12.829  10.171  -3.480  1.00  0.00     0.069 A 
BRANCH  13  14
HETATM   14  O1  UNL     1      11.663  10.214  -4.199  1.00  0.00    -0.356 OA
HETATM   15  C1  UNL     1      11.061   9.172  -4.902  1.00  0.00     0.210 C 
ENDBRANCH  13  14
BRANCH  11  16
HETATM   16  C21 UNL     1      17.561   9.724  -1.485  1.00  0.00     0.242 C 
BRANCH  16  17
HETATM   17  C22 UNL     1      18.517  10.664  -0.830  1.00  0.00     0.191 C 
HETATM   18  O5  UNL     1      18.564  11.895  -1.107  1.00  0.00    -0.647 OA
HETATM   19  O6  UNL     1      19.432  10.237   0.144  1.00  0.00    -0.647 OA
ENDBRANCH  16  17
ENDBRANCH  11  16
ENDBRANCH   1   5
BRANCH   3  20
HETATM   20  S1  UNL     1      17.712  10.136   3.643  1.00  0.00     0.265 S 
HETATM   21  O3  UNL     1      18.307  11.505   3.620  1.00  0.00    -0.200 OA
HETATM   22  O4  UNL     1      18.786   9.100   3.925  1.00  0.00    -0.200 OA
BRANCH  20  23
HETATM   23  C11 UNL     1      16.559  10.010   4.926  1.00  0.00     0.080 A 
HETATM   24  C12 UNL     1      16.744   9.042   5.908  1.00  0.00     0.026 A 
HETATM   25  C13 UNL     1      15.875   8.882   6.954  1.00  0.00     0.009 A 
HETATM   26  C14 UNL     1      14.764   9.708   7.055  1.00  0.00    -0.051 A 
HETATM   27  C19 UNL     1      14.575  10.685   6.068  1.00  0.00     0.009 A 
HETATM   28  C20 UNL     1      15.465  10.830   5.020  1.00  0.00     0.026 A 
BRANCH  26  29
HETATM   29  C15 UNL     1      13.858   9.525   8.197  1.00  0.00    -0.024 C 
HETATM   30  C16 UNL     1      14.615   8.937   9.392  1.00  0.00     0.019 C 
HETATM   31  C17 UNL     1      13.323  10.895   8.573  1.00  0.00     0.019 C 
HETATM   32  C18 UNL     1      12.696   8.646   7.850  1.00  0.00     0.019 C 
ENDBRANCH  26  29
ENDBRANCH  20  23
ENDBRANCH   3  20
TORSDOF 7
ENDMDL
