MODEL 3
REMARK VINA RESULT: -10.083768161      2.227      9.524
REMARK  6 active torsions:
REMARK  status: ('A' for Active; 'I' for Inactive)
REMARK    1  A    between atoms: O1_2  and  C2_3 
REMARK    2  A    between atoms: C9_10  and  C10_11 
REMARK       I    between atoms: C10_11  and  N1_13 
REMARK    3  A    between atoms: N1_13  and  S1_15 
REMARK    4  A    between atoms: S1_15  and  C11_18 
REMARK    5  A    between atoms: N2_28  and  C21_29 
REMARK    6  A    between atoms: C21_29  and  C22_30 
ROOT
HETATM    1  C10 UNL     1      19.024  10.920   0.023  1.00  0.00     0.281 C 
HETATM    2  O2  UNL     1      19.645  12.028  -0.227  1.00  0.00    -0.265 OA
HETATM    3  N1  UNL     1      19.709  10.047   0.875  1.00  0.00    -0.245 N 
ATOM      4  H1  UNL     1      19.289   9.148   1.112  1.00  0.00     0.182 HD
ENDROOT
BRANCH   1   5
HETATM    5  C9  UNL     1      17.725  10.699  -0.591  1.00  0.00     0.105 A 
HETATM    6  C8  UNL     1      17.558  10.433  -1.970  1.00  0.00     0.049 A 
HETATM    7  C6  UNL     1      16.234  10.290  -2.278  1.00  0.00    -0.004 A 
HETATM    8  C5  UNL     1      15.567  10.466  -1.093  1.00  0.00     0.046 A 
HETATM    9  C7  UNL     1      15.522  10.029  -3.440  1.00  0.00     0.050 A 
HETATM   10  C4  UNL     1      14.192  10.374  -1.100  1.00  0.00     0.033 A 
HETATM   11  N2  UNL     1      16.489  10.710  -0.097  1.00  0.00    -0.332 N 
HETATM   12  C3  UNL     1      13.489  10.111  -2.273  1.00  0.00     0.039 A 
HETATM   13  C2  UNL     1      14.154   9.934  -3.466  1.00  0.00     0.069 A 
BRANCH  13  14
HETATM   14  O1  UNL     1      13.438   9.671  -4.630  1.00  0.00    -0.356 OA
HETATM   15  C1  UNL     1      12.006   9.614  -4.576  1.00  0.00     0.210 C 
ENDBRANCH  13  14
BRANCH  11  16
HETATM   16  C21 UNL     1      16.047  10.961   1.248  1.00  0.00     0.242 C 
BRANCH  16  17
HETATM   17  C22 UNL     1      16.196   9.710   2.032  1.00  0.00     0.191 C 
HETATM   18  O5  UNL     1      15.273   8.856   2.068  1.00  0.00    -0.647 OA
HETATM   19  O6  UNL     1      17.353   9.440   2.749  1.00  0.00    -0.647 OA
ENDBRANCH  16  17
ENDBRANCH  11  16
ENDBRANCH   1   5
BRANCH   3  20
HETATM   20  S1  UNL     1      21.274  10.470   1.543  1.00  0.00     0.265 S 
HETATM   21  O3  UNL     1      22.120  11.098   0.473  1.00  0.00    -0.200 OA
HETATM   22  O4  UNL     1      21.105  11.467   2.637  1.00  0.00    -0.200 OA
BRANCH  20  23
HETATM   23  C11 UNL     1      22.001   9.009   2.181  1.00  0.00     0.080 A 
HETATM   24  C12 UNL     1      22.218   7.882   1.412  1.00  0.00     0.026 A 
HETATM   25  C13 UNL     1      22.802   6.747   1.970  1.00  0.00     0.014 A 
HETATM   26  C14 UNL     1      23.182   6.703   3.289  1.00  0.00    -0.026 A 
HETATM   27  C15 UNL     1      23.767   5.573   3.852  1.00  0.00     0.012 A 
HETATM   28  C19 UNL     1      22.971   7.821   4.066  1.00  0.00    -0.025 A 
HETATM   29  C16 UNL     1      24.146   5.534   5.176  1.00  0.00     0.001 A 
HETATM   30  C17 UNL     1      23.937   6.651   5.958  1.00  0.00     0.001 A 
HETATM   31  C18 UNL     1      23.356   7.765   5.388  1.00  0.00     0.012 A 
HETATM   32  C20 UNL     1      22.390   8.943   3.505  1.00  0.00     0.037 A 
ENDBRANCH  20  23
ENDBRANCH   3  20
TORSDOF 6
ENDMDL
