MODEL 6
REMARK VINA RESULT: -10.037226256      4.764      9.268
REMARK  6 active torsions:
REMARK  status: ('A' for Active; 'I' for Inactive)
REMARK    1  A    between atoms: O1_2  and  C2_3 
REMARK    2  A    between atoms: C9_10  and  C10_11 
REMARK       I    between atoms: C10_11  and  N1_13 
REMARK    3  A    between atoms: N1_13  and  S1_15 
REMARK    4  A    between atoms: S1_15  and  C11_18 
REMARK    5  A    between atoms: N2_28  and  C21_29 
REMARK    6  A    between atoms: C21_29  and  C22_30 
ROOT
HETATM    1  C10 UNL     1      15.883  11.100   0.968  1.00  0.00     0.281 C 
HETATM    2  O2  UNL     1      16.776  12.024   1.125  1.00  0.00    -0.265 OA
HETATM    3  N1  UNL     1      15.371  10.576   2.159  1.00  0.00    -0.245 N 
ATOM      4  H1  UNL     1      14.669   9.837   2.120  1.00  0.00     0.182 HD
ENDROOT
BRANCH   1   5
HETATM    5  C9  UNL     1      15.518  10.710  -0.384  1.00  0.00     0.105 A 
HETATM    6  C8  UNL     1      14.232  10.932  -0.931  1.00  0.00     0.049 A 
HETATM    7  C6  UNL     1      14.159  10.446  -2.207  1.00  0.00    -0.004 A 
HETATM    8  C5  UNL     1      15.398   9.918  -2.462  1.00  0.00     0.046 A 
HETATM    9  C7  UNL     1      13.171  10.396  -3.180  1.00  0.00     0.050 A 
HETATM   10  C4  UNL     1      15.620   9.348  -3.697  1.00  0.00     0.033 A 
HETATM   11  N2  UNL     1      16.193  10.090  -1.349  1.00  0.00    -0.332 N 
HETATM   12  C3  UNL     1      14.620   9.303  -4.666  1.00  0.00     0.039 A 
HETATM   13  C2  UNL     1      13.373   9.833  -4.413  1.00  0.00     0.069 A 
BRANCH  13  14
HETATM   14  O1  UNL     1      12.385   9.782  -5.391  1.00  0.00    -0.356 OA
HETATM   15  C1  UNL     1      11.010   9.669  -4.996  1.00  0.00     0.210 C 
ENDBRANCH  13  14
BRANCH  11  16
HETATM   16  C21 UNL     1      17.543   9.595  -1.344  1.00  0.00     0.242 C 
BRANCH  16  17
HETATM   17  C22 UNL     1      18.468  10.752  -1.273  1.00  0.00     0.191 C 
HETATM   18  O5  UNL     1      18.169  11.853  -1.804  1.00  0.00    -0.647 OA
HETATM   19  O6  UNL     1      19.690  10.662  -0.621  1.00  0.00    -0.647 OA
ENDBRANCH  16  17
ENDBRANCH  11  16
ENDBRANCH   1   5
BRANCH   3  20
HETATM   20  S1  UNL     1      15.913  11.165   3.720  1.00  0.00     0.265 S 
HETATM   21  O3  UNL     1      17.375  10.865   3.885  1.00  0.00    -0.200 OA
HETATM   22  O4  UNL     1      15.738  12.644   3.790  1.00  0.00    -0.200 OA
BRANCH  20  23
HETATM   23  C11 UNL     1      14.940  10.395   4.956  1.00  0.00     0.080 A 
HETATM   24  C12 UNL     1      14.152   9.287   4.707  1.00  0.00     0.026 A 
HETATM   25  C13 UNL     1      13.399   8.713   5.729  1.00  0.00     0.014 A 
HETATM   26  C14 UNL     1      13.410   9.215   7.007  1.00  0.00    -0.026 A 
HETATM   27  C15 UNL     1      12.660   8.645   8.031  1.00  0.00     0.012 A 
HETATM   28  C19 UNL     1      14.191  10.319   7.267  1.00  0.00    -0.025 A 
HETATM   29  C16 UNL     1      12.675   9.153   9.312  1.00  0.00     0.001 A 
HETATM   30  C17 UNL     1      13.456  10.259   9.577  1.00  0.00     0.001 A 
HETATM   31  C18 UNL     1      14.194  10.815   8.552  1.00  0.00     0.012 A 
HETATM   32  C20 UNL     1      14.936  10.885   6.247  1.00  0.00     0.037 A 
ENDBRANCH  20  23
ENDBRANCH   3  20
TORSDOF 6
ENDMDL
