MODEL 1
REMARK VINA RESULT: -10.385661968      0.000      0.000
REMARK  6 active torsions:
REMARK  status: ('A' for Active; 'I' for Inactive)
REMARK    1  A    between atoms: O1_2  and  C2_3 
REMARK    2  A    between atoms: C9_10  and  C10_11 
REMARK       I    between atoms: C10_11  and  N1_13 
REMARK    3  A    between atoms: N1_13  and  S1_15 
REMARK    4  A    between atoms: S1_15  and  C11_18 
REMARK    5  A    between atoms: N2_28  and  C21_29 
REMARK    6  A    between atoms: C21_29  and  C22_30 
ROOT
HETATM    1  C10 UNL     1      18.780  10.166   2.393  1.00  0.00     0.281 C 
HETATM    2  O2  UNL     1      18.430  11.167   3.136  1.00  0.00    -0.265 OA
HETATM    3  N1  UNL     1      18.039  10.027   1.216  1.00  0.00    -0.245 N 
ATOM      4  H1  UNL     1      18.248   9.255   0.581  1.00  0.00     0.182 HD
ENDROOT
BRANCH   1   5
HETATM    5  C9  UNL     1      19.867   9.313   2.845  1.00  0.00     0.105 A 
HETATM    6  C8  UNL     1      19.658   8.066   3.480  1.00  0.00     0.049 A 
HETATM    7  C6  UNL     1      20.850   7.490   3.819  1.00  0.00    -0.004 A 
HETATM    8  C5  UNL     1      21.810   8.374   3.397  1.00  0.00     0.046 A 
HETATM    9  C7  UNL     1      21.224   6.307   4.441  1.00  0.00     0.050 A 
HETATM   10  C4  UNL     1      23.132   8.049   3.610  1.00  0.00     0.033 A 
HETATM   11  N2  UNL     1      21.190   9.460   2.816  1.00  0.00    -0.332 N 
HETATM   12  C3  UNL     1      23.495   6.858   4.235  1.00  0.00     0.039 A 
HETATM   13  C2  UNL     1      22.534   5.967   4.660  1.00  0.00     0.069 A 
BRANCH  13  14
HETATM   14  O1  UNL     1      22.911   4.781   5.283  1.00  0.00    -0.356 OA
HETATM   15  C1  UNL     1      24.283   4.589   5.656  1.00  0.00     0.210 C 
ENDBRANCH  13  14
BRANCH  11  16
HETATM   16  C21 UNL     1      21.975  10.555   2.314  1.00  0.00     0.242 C 
BRANCH  16  17
HETATM   17  C22 UNL     1      21.840  10.592   0.837  1.00  0.00     0.191 C 
HETATM   18  O5  UNL     1      22.531   9.837   0.106  1.00  0.00    -0.647 OA
HETATM   19  O6  UNL     1      20.949  11.455   0.215  1.00  0.00    -0.647 OA
ENDBRANCH  16  17
ENDBRANCH  11  16
ENDBRANCH   1   5
BRANCH   3  20
HETATM   20  S1  UNL     1      16.756  11.152   0.809  1.00  0.00     0.265 S 
HETATM   21  O3  UNL     1      15.716  11.134   1.891  1.00  0.00    -0.200 OA
HETATM   22  O4  UNL     1      17.306  12.535   0.725  1.00  0.00    -0.200 OA
BRANCH  20  23
HETATM   23  C11 UNL     1      16.098  10.682  -0.745  1.00  0.00     0.080 A 
HETATM   24  C12 UNL     1      16.887  10.263  -1.798  1.00  0.00     0.026 A 
HETATM   25  C13 UNL     1      16.310   9.898  -3.011  1.00  0.00     0.014 A 
HETATM   26  C14 UNL     1      14.952   9.937  -3.208  1.00  0.00    -0.026 A 
HETATM   27  C15 UNL     1      14.369   9.573  -4.419  1.00  0.00     0.012 A 
HETATM   28  C19 UNL     1      14.154  10.353  -2.165  1.00  0.00    -0.025 A 
HETATM   29  C16 UNL     1      13.005   9.614  -4.610  1.00  0.00     0.001 A 
HETATM   30  C17 UNL     1      12.202  10.030  -3.568  1.00  0.00     0.001 A 
HETATM   31  C18 UNL     1      12.792  10.389  -2.374  1.00  0.00     0.012 A 
HETATM   32  C20 UNL     1      14.734  10.715  -0.963  1.00  0.00     0.037 A 
ENDBRANCH  20  23
ENDBRANCH   3  20
TORSDOF 6
ENDMDL
