MODEL 5
REMARK VINA RESULT: -10.060857345      4.055      8.933
REMARK  6 active torsions:
REMARK  status: ('A' for Active; 'I' for Inactive)
REMARK    1  A    between atoms: O1_2  and  C2_3 
REMARK    2  A    between atoms: C9_10  and  C10_11 
REMARK       I    between atoms: C10_11  and  N1_13 
REMARK    3  A    between atoms: N1_13  and  S1_15 
REMARK    4  A    between atoms: S1_15  and  C11_18 
REMARK    5  A    between atoms: N2_28  and  C21_29 
REMARK    6  A    between atoms: C21_29  and  C22_30 
ROOT
HETATM    1  C10 UNL     1      16.409  10.534   1.070  1.00  0.00     0.281 C 
HETATM    2  O2  UNL     1      16.216  11.663   1.673  1.00  0.00    -0.265 OA
HETATM    3  N1  UNL     1      17.054   9.563   1.843  1.00  0.00    -0.245 N 
ATOM      4  H1  UNL     1      17.252   8.649   1.435  1.00  0.00     0.182 HD
ENDROOT
BRANCH   1   5
HETATM    5  C9  UNL     1      15.957  10.395  -0.304  1.00  0.00     0.105 A 
HETATM    6  C8  UNL     1      14.593  10.460  -0.678  1.00  0.00     0.049 A 
HETATM    7  C6  UNL     1      14.452  10.274  -2.025  1.00  0.00    -0.004 A 
HETATM    8  C5  UNL     1      15.726  10.091  -2.499  1.00  0.00     0.046 A 
HETATM    9  C7  UNL     1      13.377  10.240  -2.902  1.00  0.00     0.050 A 
HETATM   10  C4  UNL     1      15.894   9.879  -3.851  1.00  0.00     0.033 A 
HETATM   11  N2  UNL     1      16.609  10.169  -1.442  1.00  0.00    -0.332 N 
HETATM   12  C3  UNL     1      14.806   9.847  -4.720  1.00  0.00     0.039 A 
HETATM   13  C2  UNL     1      13.524  10.029  -4.248  1.00  0.00     0.069 A 
BRANCH  13  14
HETATM   14  O1  UNL     1      12.448   9.996  -5.129  1.00  0.00    -0.356 OA
HETATM   15  C1  UNL     1      11.178   9.511  -4.670  1.00  0.00     0.210 C 
ENDBRANCH  13  14
BRANCH  11  16
HETATM   16  C21 UNL     1      18.017   9.981  -1.665  1.00  0.00     0.242 C 
BRANCH  16  17
HETATM   17  C22 UNL     1      18.761  10.861  -0.730  1.00  0.00     0.191 C 
HETATM   18  O5  UNL     1      18.650  12.113  -0.794  1.00  0.00    -0.647 OA
HETATM   19  O6  UNL     1      19.601  10.337   0.242  1.00  0.00    -0.647 OA
ENDBRANCH  16  17
ENDBRANCH  11  16
ENDBRANCH   1   5
BRANCH   3  20
HETATM   20  S1  UNL     1      17.532   9.888   3.499  1.00  0.00     0.265 S 
HETATM   21  O3  UNL     1      18.686   9.001   3.868  1.00  0.00    -0.200 OA
HETATM   22  O4  UNL     1      17.982  11.303   3.627  1.00  0.00    -0.200 OA
BRANCH  20  23
HETATM   23  C11 UNL     1      16.138   9.615   4.525  1.00  0.00     0.080 A 
HETATM   24  C12 UNL     1      14.880   9.346   4.025  1.00  0.00     0.026 A 
HETATM   25  C13 UNL     1      13.807   9.135   4.887  1.00  0.00     0.014 A 
HETATM   26  C14 UNL     1      13.954   9.183   6.252  1.00  0.00    -0.026 A 
HETATM   27  C15 UNL     1      12.886   8.972   7.118  1.00  0.00     0.012 A 
HETATM   28  C19 UNL     1      15.205   9.450   6.763  1.00  0.00    -0.025 A 
HETATM   29  C16 UNL     1      13.040   9.021   8.487  1.00  0.00     0.001 A 
HETATM   30  C17 UNL     1      14.291   9.288   9.004  1.00  0.00     0.001 A 
HETATM   31  C18 UNL     1      15.341   9.496   8.133  1.00  0.00     0.012 A 
HETATM   32  C20 UNL     1      16.265   9.659   5.900  1.00  0.00     0.037 A 
ENDBRANCH  20  23
ENDBRANCH   3  20
TORSDOF 6
ENDMDL
