MODEL 2
REMARK VINA RESULT: -10.115924633      1.153      1.727
REMARK  6 active torsions:
REMARK  status: ('A' for Active; 'I' for Inactive)
REMARK    1  A    between atoms: O1_2  and  C2_3 
REMARK    2  A    between atoms: C9_10  and  C10_11 
REMARK       I    between atoms: C10_11  and  N1_13 
REMARK    3  A    between atoms: N1_13  and  S1_15 
REMARK    4  A    between atoms: S1_15  and  C11_18 
REMARK    5  A    between atoms: N2_28  and  C21_29 
REMARK    6  A    between atoms: C21_29  and  C22_30 
ROOT
HETATM    1  C10 UNL     1      18.374   9.603   2.943  1.00  0.00     0.281 C 
HETATM    2  O2  UNL     1      18.175  10.512   3.843  1.00  0.00    -0.265 OA
HETATM    3  N1  UNL     1      17.447   9.606   1.896  1.00  0.00    -0.245 N 
ATOM      4  H1  UNL     1      17.530   8.913   1.151  1.00  0.00     0.182 HD
ENDROOT
BRANCH   1   5
HETATM    5  C9  UNL     1      19.499   8.698   3.107  1.00  0.00     0.105 A 
HETATM    6  C8  UNL     1      19.490   7.611   4.013  1.00  0.00     0.049 A 
HETATM    7  C6  UNL     1      20.683   6.943   3.980  1.00  0.00    -0.004 A 
HETATM    8  C5  UNL     1      21.443   7.611   3.054  1.00  0.00     0.046 A 
HETATM    9  C7  UNL     1      21.205   5.839   4.637  1.00  0.00     0.050 A 
HETATM   10  C4  UNL     1      22.719   7.151   2.806  1.00  0.00     0.033 A 
HETATM   11  N2  UNL     1      20.706   8.660   2.547  1.00  0.00    -0.332 N 
HETATM   12  C3  UNL     1      23.231   6.041   3.473  1.00  0.00     0.039 A 
HETATM   13  C2  UNL     1      22.471   5.367   4.404  1.00  0.00     0.069 A 
BRANCH  13  14
HETATM   14  O1  UNL     1      22.997   4.260   5.062  1.00  0.00    -0.356 OA
HETATM   15  C1  UNL     1      24.277   4.363   5.699  1.00  0.00     0.210 C 
ENDBRANCH  13  14
BRANCH  11  16
HETATM   16  C21 UNL     1      21.287   9.543   1.572  1.00  0.00     0.242 C 
BRANCH  16  17
HETATM   17  C22 UNL     1      21.790  10.751   2.272  1.00  0.00     0.191 C 
HETATM   18  O5  UNL     1      22.952  10.782   2.754  1.00  0.00    -0.647 OA
HETATM   19  O6  UNL     1      21.000  11.882   2.419  1.00  0.00    -0.647 OA
ENDBRANCH  16  17
ENDBRANCH  11  16
ENDBRANCH   1   5
BRANCH   3  20
HETATM   20  S1  UNL     1      16.143  10.778   1.839  1.00  0.00     0.265 S 
HETATM   21  O3  UNL     1      15.262  10.603   3.042  1.00  0.00    -0.200 OA
HETATM   22  O4  UNL     1      16.702  12.159   1.877  1.00  0.00    -0.200 OA
BRANCH  20  23
HETATM   23  C11 UNL     1      15.265  10.536   0.342  1.00  0.00     0.080 A 
HETATM   24  C12 UNL     1      13.886  10.483   0.281  1.00  0.00     0.026 A 
HETATM   25  C13 UNL     1      13.240  10.291  -0.938  1.00  0.00     0.014 A 
HETATM   26  C14 UNL     1      13.936  10.151  -2.113  1.00  0.00    -0.026 A 
HETATM   27  C15 UNL     1      13.296   9.959  -3.333  1.00  0.00     0.012 A 
HETATM   28  C19 UNL     1      15.312  10.202  -2.065  1.00  0.00    -0.025 A 
HETATM   29  C16 UNL     1      14.000   9.819  -4.509  1.00  0.00     0.001 A 
HETATM   30  C17 UNL     1      15.378   9.870  -4.466  1.00  0.00     0.001 A 
HETATM   31  C18 UNL     1      16.000  10.059  -3.250  1.00  0.00     0.012 A 
HETATM   32  C20 UNL     1      15.947  10.392  -0.851  1.00  0.00     0.037 A 
ENDBRANCH  20  23
ENDBRANCH   3  20
TORSDOF 6
ENDMDL
