MODEL 4
REMARK VINA RESULT: -8.389618048      3.073      6.927
REMARK  2 active torsions:
REMARK  status: ('A' for Active; 'I' for Inactive)
REMARK    1  A    between atoms: N4_10  and  C5_11 
REMARK    2  A    between atoms: C9_21  and  O6_22 
ROOT
HETATM    1  N1  UNL     1      17.491  -2.634  85.229  1.00  0.00    -0.063 NA
HETATM    2  C1  UNL     1      17.354  -3.027  86.584  1.00  0.00     0.196 A 
HETATM    3  N2  UNL     1      18.167  -3.944  87.139  1.00  0.00    -0.314 N 
ATOM      4  H2  UNL     1      18.898  -4.361  86.562  1.00  0.00     0.170 HD
HETATM    5  C2  UNL     1      18.058  -4.337  88.431  1.00  0.00     0.146 A 
HETATM    6  C3  UNL     1      17.067  -3.777  89.227  1.00  0.00     0.146 A 
HETATM    7  N3  UNL     1      17.216  -4.361  90.432  1.00  0.00    -0.345 N 
ATOM      8  H3  UNL     1      16.640  -4.169  91.251  1.00  0.00     0.167 HD
HETATM    9  C4  UNL     1      18.246  -5.243  90.394  1.00  0.00     0.188 A 
HETATM   10  N4  UNL     1      18.759  -5.224  89.162  1.00  0.00    -0.297 N 
HETATM   11  C10 UNL     1      16.241  -2.847  88.669  1.00  0.00     0.278 A 
HETATM   12  O7  UNL     1      15.335  -2.334  89.396  1.00  0.00    -0.265 OA
HETATM   13  N5  UNL     1      16.391  -2.492  87.386  1.00  0.00    -0.295 N 
ATOM     14  H5  UNL     1      15.759  -1.794  86.995  1.00  0.00     0.171 HD
ENDROOT
BRANCH  10  15
HETATM   15  C5  UNL     1      19.850  -5.990  88.679  1.00  0.00     0.262 C 
HETATM   16  O1  UNL     1      19.770  -6.240  87.288  1.00  0.00    -0.353 OA
HETATM   17  C6  UNL     1      20.967  -6.985  87.163  1.00  0.00     0.180 C 
HETATM   18  C7  UNL     1      21.145  -7.567  85.818  1.00  0.00     0.216 C 
HETATM   19  C8  UNL     1      20.632  -8.130  88.131  1.00  0.00     0.198 C 
HETATM   20  O2  UNL     1      22.321  -8.224  85.713  1.00  0.00    -0.287 OA
HETATM   21  P1  UNL     1      22.763  -8.877  87.180  1.00  0.00     0.408 P 
HETATM   22  O3  UNL     1      24.232  -9.565  87.318  1.00  0.00    -0.624 OA
HETATM   23  O4  UNL     1      22.006 -10.160  86.852  1.00  0.00    -0.624 OA
HETATM   24  O5  UNL     1      21.831  -8.650  88.535  1.00  0.00    -0.279 OA
HETATM   25  C9  UNL     1      19.969  -7.362  89.241  1.00  0.00     0.199 C 
BRANCH  25  26
HETATM   26  O6  UNL     1      20.651  -7.432  90.437  1.00  0.00    -0.388 OA
ATOM     27  H6  UNL     1      21.565  -7.177  90.385  1.00  0.00     0.210 HD
ENDBRANCH  25  26
ENDBRANCH  10  15
TORSDOF 2
ENDMDL
