MODEL 3
REMARK VINA RESULT: -8.593162178      3.533      7.169
REMARK  2 active torsions:
REMARK  status: ('A' for Active; 'I' for Inactive)
REMARK    1  A    between atoms: N4_10  and  C5_11 
REMARK    2  A    between atoms: C9_21  and  O6_22 
ROOT
HETATM    1  N1  UNL     1      16.931  -2.731  86.262  1.00  0.00    -0.063 NA
HETATM    2  C1  UNL     1      17.378  -3.596  87.292  1.00  0.00     0.196 A 
HETATM    3  N2  UNL     1      18.378  -4.473  87.092  1.00  0.00    -0.314 N 
ATOM      4  H2  UNL     1      18.819  -4.510  86.172  1.00  0.00     0.170 HD
HETATM    5  C2  UNL     1      18.826  -5.310  88.059  1.00  0.00     0.146 A 
HETATM    6  C3  UNL     1      18.234  -5.271  89.315  1.00  0.00     0.146 A 
HETATM    7  N3  UNL     1      18.887  -6.202  90.038  1.00  0.00    -0.345 N 
ATOM      8  H3  UNL     1      18.694  -6.427  91.013  1.00  0.00     0.167 HD
HETATM    9  C4  UNL     1      19.837  -6.796  89.275  1.00  0.00     0.188 A 
HETATM   10  N4  UNL     1      19.795  -6.245  88.060  1.00  0.00    -0.297 N 
HETATM   11  C10 UNL     1      17.221  -4.382  89.522  1.00  0.00     0.278 A 
HETATM   12  O7  UNL     1      16.679  -4.345  90.671  1.00  0.00    -0.265 OA
HETATM   13  N5  UNL     1      16.816  -3.576  88.533  1.00  0.00    -0.295 N 
ATOM     14  H5  UNL     1      16.056  -2.920  88.716  1.00  0.00     0.171 HD
ENDROOT
BRANCH  10  15
HETATM   15  C5  UNL     1      20.614  -6.564  86.948  1.00  0.00     0.262 C 
HETATM   16  O1  UNL     1      19.865  -6.862  85.784  1.00  0.00    -0.353 OA
HETATM   17  C6  UNL     1      20.956  -7.114  84.918  1.00  0.00     0.180 C 
HETATM   18  C7  UNL     1      20.538  -7.622  83.598  1.00  0.00     0.216 C 
HETATM   19  C8  UNL     1      21.602  -8.275  85.688  1.00  0.00     0.198 C 
HETATM   20  O2  UNL     1      21.595  -7.800  82.776  1.00  0.00    -0.287 OA
HETATM   21  P1  UNL     1      22.956  -8.205  83.647  1.00  0.00     0.408 P 
HETATM   22  O3  UNL     1      24.383  -8.296  82.870  1.00  0.00    -0.624 OA
HETATM   23  O4  UNL     1      22.606  -9.684  83.531  1.00  0.00    -0.624 OA
HETATM   24  O5  UNL     1      22.915  -8.304  85.304  1.00  0.00    -0.279 OA
HETATM   25  C9  UNL     1      21.457  -7.780  87.100  1.00  0.00     0.199 C 
BRANCH  25  26
HETATM   26  O6  UNL     1      22.665  -7.562  87.729  1.00  0.00    -0.388 OA
ATOM     27  H6  UNL     1      22.785  -6.678  88.056  1.00  0.00     0.210 HD
ENDBRANCH  25  26
ENDBRANCH  10  15
TORSDOF 2
ENDMDL
