MODEL 2
REMARK VINA RESULT: -9.132956826      1.956      3.489
REMARK  2 active torsions:
REMARK  status: ('A' for Active; 'I' for Inactive)
REMARK    1  A    between atoms: N4_10  and  C5_11 
REMARK    2  A    between atoms: C9_21  and  O6_22 
ROOT
HETATM    1  N1  UNL     1      18.659  -6.512  90.101  1.00  0.00    -0.063 NA
HETATM    2  C1  UNL     1      18.950  -5.952  88.831  1.00  0.00     0.196 A 
HETATM    3  N2  UNL     1      18.273  -4.891  88.355  1.00  0.00    -0.314 N 
ATOM      4  H2  UNL     1      17.534  -4.485  88.930  1.00  0.00     0.170 HD
HETATM    5  C2  UNL     1      18.531  -4.337  87.146  1.00  0.00     0.146 A 
HETATM    6  C3  UNL     1      19.534  -4.880  86.353  1.00  0.00     0.146 A 
HETATM    7  N3  UNL     1      19.546  -4.124  85.238  1.00  0.00    -0.345 N 
ATOM      8  H3  UNL     1      20.173  -4.258  84.446  1.00  0.00     0.167 HD
HETATM    9  C4  UNL     1      18.598  -3.158  85.326  1.00  0.00     0.188 A 
HETATM   10  N4  UNL     1      17.978  -3.294  86.499  1.00  0.00    -0.297 N 
HETATM   11  C10 UNL     1      20.223  -5.955  86.832  1.00  0.00     0.278 A 
HETATM   12  O7  UNL     1      21.141  -6.452  86.108  1.00  0.00    -0.265 OA
HETATM   13  N5  UNL     1      19.929  -6.466  88.034  1.00  0.00    -0.295 N 
ATOM     14  H5  UNL     1      20.461  -7.270  88.368  1.00  0.00     0.171 HD
ENDROOT
BRANCH  10  15
HETATM   15  C5  UNL     1      16.921  -2.495  87.005  1.00  0.00     0.262 C 
HETATM   16  O1  UNL     1      17.077  -2.186  88.378  1.00  0.00    -0.353 OA
HETATM   17  C6  UNL     1      15.902  -1.412  88.530  1.00  0.00     0.180 C 
HETATM   18  C7  UNL     1      15.643  -1.027  89.931  1.00  0.00     0.216 C 
HETATM   19  C8  UNL     1      14.868  -2.476  88.134  1.00  0.00     0.198 C 
HETATM   20  O2  UNL     1      14.548  -0.243  90.037  1.00  0.00    -0.287 OA
HETATM   21  P1  UNL     1      13.437  -0.622  88.855  1.00  0.00     0.408 P 
HETATM   22  O3  UNL     1      12.117   0.318  88.693  1.00  0.00    -0.624 OA
HETATM   23  O4  UNL     1      12.795  -1.658  89.772  1.00  0.00    -0.624 OA
HETATM   24  O5  UNL     1      13.756  -1.793  87.722  1.00  0.00    -0.279 OA
HETATM   25  C9  UNL     1      15.573  -3.122  86.973  1.00  0.00     0.199 C 
BRANCH  25  26
HETATM   26  O6  UNL     1      14.903  -2.976  85.777  1.00  0.00    -0.388 OA
ATOM     27  H6  UNL     1      15.270  -2.317  85.199  1.00  0.00     0.210 HD
ENDBRANCH  25  26
ENDBRANCH  10  15
TORSDOF 2
ENDMDL
