MODEL 8
REMARK VINA RESULT: -8.008116497      3.050      7.217
REMARK  2 active torsions:
REMARK  status: ('A' for Active; 'I' for Inactive)
REMARK    1  A    between atoms: N4_10  and  C5_11 
REMARK    2  A    between atoms: C9_21  and  O6_22 
ROOT
HETATM    1  N1  UNL     1      17.063  -4.684  91.289  1.00  0.00    -0.063 NA
HETATM    2  C1  UNL     1      17.080  -4.118  89.989  1.00  0.00     0.196 A 
HETATM    3  N2  UNL     1      17.960  -4.523  89.055  1.00  0.00    -0.314 N 
ATOM      4  H2  UNL     1      18.627  -5.255  89.297  1.00  0.00     0.170 HD
HETATM    5  C2  UNL     1      17.997  -3.999  87.806  1.00  0.00     0.146 A 
HETATM    6  C3  UNL     1      17.094  -3.001  87.463  1.00  0.00     0.146 A 
HETATM    7  N3  UNL     1      17.380  -2.696  86.182  1.00  0.00    -0.345 N 
ATOM      8  H3  UNL     1      16.895  -1.993  85.625  1.00  0.00     0.167 HD
HETATM    9  C4  UNL     1      18.410  -3.462  85.744  1.00  0.00     0.188 A 
HETATM   10  N4  UNL     1      18.785  -4.260  86.745  1.00  0.00    -0.297 N 
HETATM   11  C10 UNL     1      16.200  -2.589  88.407  1.00  0.00     0.278 A 
HETATM   12  O7  UNL     1      15.374  -1.676  88.094  1.00  0.00    -0.265 OA
HETATM   13  N5  UNL     1      16.204  -3.139  89.627  1.00  0.00    -0.295 N 
ATOM     14  H5  UNL     1      15.524  -2.812  90.314  1.00  0.00     0.171 HD
ENDROOT
BRANCH  10  15
HETATM   15  C5  UNL     1      19.825  -5.224  86.727  1.00  0.00     0.262 C 
HETATM   16  O1  UNL     1      19.731  -6.109  85.626  1.00  0.00    -0.353 OA
HETATM   17  C6  UNL     1      20.877  -6.888  85.914  1.00  0.00     0.180 C 
HETATM   18  C7  UNL     1      21.019  -8.055  85.022  1.00  0.00     0.216 C 
HETATM   19  C8  UNL     1      20.467  -7.403  87.302  1.00  0.00     0.198 C 
HETATM   20  O2  UNL     1      22.149  -8.747  85.284  1.00  0.00    -0.287 OA
HETATM   21  P1  UNL     1      22.546  -8.635  86.899  1.00  0.00     0.408 P 
HETATM   22  O3  UNL     1      23.966  -9.253  87.399  1.00  0.00    -0.624 OA
HETATM   23  O4  UNL     1      21.707  -9.872  87.203  1.00  0.00    -0.624 OA
HETATM   24  O5  UNL     1      21.628  -7.731  87.945  1.00  0.00    -0.279 OA
HETATM   25  C9  UNL     1      19.853  -6.159  87.882  1.00  0.00     0.199 C 
BRANCH  25  26
HETATM   26  O6  UNL     1      20.526  -5.683  88.987  1.00  0.00    -0.388 OA
ATOM     27  H6  UNL     1      19.980  -5.218  89.611  1.00  0.00     0.210 HD
ENDBRANCH  25  26
ENDBRANCH  10  15
TORSDOF 2
ENDMDL
