MODEL 3
REMARK VINA RESULT: -6.575359347      1.380      2.443
REMARK  20 active torsions:
REMARK  status: ('A' for Active; 'I' for Inactive)
REMARK    1  A    between atoms: C2_2  and  C3_3 
REMARK    2  A    between atoms: C3_3  and  C4_4 
REMARK    3  A    between atoms: C4_4  and  O2_6 
REMARK    4  A    between atoms: O2_6  and  C5_7 
REMARK    5  A    between atoms: C5_7  and  C6_8 
REMARK    6  A    between atoms: C6_8  and  C7_9 
REMARK    7  A    between atoms: C6_8  and  O15_34 
REMARK    8  A    between atoms: C7_9  and  O3_10 
REMARK    9  A    between atoms: O3_10  and  P1_11 
REMARK   10  A    between atoms: P1_11  and  O6_14 
REMARK   11  A    between atoms: O6_14  and  C8_15 
REMARK   12  A    between atoms: C9_16  and  O7_17 
REMARK   13  A    between atoms: C10_19  and  O8_20 
REMARK   14  A    between atoms: C11_22  and  O9_23 
REMARK   15  A    between atoms: O9_23  and  P2_24 
REMARK   16  A    between atoms: C12_28  and  O13_29 
REMARK   17  A    between atoms: C13_31  and  O14_32 
REMARK   18  A    between atoms: O15_34  and  C14_35 
REMARK   19  A    between atoms: C14_35  and  C15_37 
REMARK   20  A    between atoms: C15_37  and  C16_38 
ROOT
HETATM    1  O6  UNL     1     -37.824   2.204  -8.172  1.00  0.00    -0.279 OA
ENDROOT
BRANCH   1   2
HETATM    2  P1  UNL     1     -39.398   2.805  -8.062  1.00  0.00     0.408 P 
HETATM    3  O4  UNL     1     -40.384   1.653  -7.994  1.00  0.00    -0.624 OA
HETATM    4  O5  UNL     1     -39.809   3.718  -9.425  1.00  0.00    -0.624 OA
BRANCH   2   5
HETATM    5  O3  UNL     1     -39.555   3.717  -6.667  1.00  0.00    -0.287 OA
BRANCH   5   6
HETATM    6  C7  UNL     1     -38.984   4.973  -6.770  1.00  0.00     0.216 C 
BRANCH   6   7
HETATM    7  C6  UNL     1     -38.245   5.224  -5.447  1.00  0.00     0.180 C 
BRANCH   7   8
HETATM    8  C5  UNL     1     -39.142   4.999  -4.274  1.00  0.00     0.213 C 
BRANCH   8   9
HETATM    9  O2  UNL     1     -40.075   6.048  -4.181  1.00  0.00    -0.319 OA
BRANCH   9  10
HETATM   10  C4  UNL     1     -41.437   5.933  -4.180  1.00  0.00     0.258 C 
HETATM   11  O1  UNL     1     -41.968   5.021  -4.828  1.00  0.00    -0.265 OA
BRANCH  10  12
HETATM   12  C3  UNL     1     -42.322   6.882  -3.412  1.00  0.00     0.111 C 
BRANCH  12  13
HETATM   13  C2  UNL     1     -43.727   6.847  -3.977  1.00  0.00     0.005 C 
HETATM   14  C1  UNL     1     -44.633   6.444  -2.809  1.00  0.00     0.005 C 
ENDBRANCH  12  13
ENDBRANCH  10  12
ENDBRANCH   9  10
ENDBRANCH   8   9
ENDBRANCH   7   8
BRANCH   7  15
HETATM   15  O15 UNL     1     -37.157   4.302  -5.331  1.00  0.00    -0.312 OA
BRANCH  15  16
HETATM   16  C14 UNL     1     -35.964   4.511  -5.989  1.00  0.00     0.259 C 
HETATM   17  O16 UNL     1     -35.353   3.491  -6.407  1.00  0.00    -0.265 OA
BRANCH  16  18
HETATM   18  C15 UNL     1     -35.460   5.889  -6.175  1.00  0.00     0.111 C 
BRANCH  18  19
HETATM   19  C16 UNL     1     -34.783   6.322  -4.878  1.00  0.00     0.005 C 
HETATM   20  C17 UNL     1     -33.975   7.579  -5.159  1.00  0.00     0.005 C 
ENDBRANCH  18  19
ENDBRANCH  16  18
ENDBRANCH  15  16
ENDBRANCH   7  15
ENDBRANCH   6   7
ENDBRANCH   5   6
ENDBRANCH   2   5
ENDBRANCH   1   2
BRANCH   1  21
HETATM   21  C8  UNL     1     -37.866   0.832  -8.162  1.00  0.00     0.197 C 
HETATM   22  C9  UNL     1     -37.715   0.385  -6.725  1.00  0.00     0.181 C 
HETATM   23  C10 UNL     1     -37.208  -1.036  -6.755  1.00  0.00     0.181 C 
HETATM   24  C11 UNL     1     -35.743  -0.996  -7.141  1.00  0.00     0.198 C 
HETATM   25  C12 UNL     1     -35.592  -0.217  -8.377  1.00  0.00     0.181 C 
HETATM   26  C13 UNL     1     -36.868   0.185  -9.072  1.00  0.00     0.181 C 
BRANCH  22  27
HETATM   27  O7  UNL     1     -36.809   1.148  -6.014  1.00  0.00    -0.390 OA
ATOM     28  H7  UNL     1     -35.947   0.752  -5.966  1.00  0.00     0.210 HD
ENDBRANCH  22  27
BRANCH  23  29
HETATM   29  O8  UNL     1     -37.349  -1.634  -5.489  1.00  0.00    -0.390 OA
ATOM     30  H8  UNL     1     -37.147  -2.560  -5.536  1.00  0.00     0.210 HD
ENDBRANCH  23  29
BRANCH  24  31
HETATM   31  O9  UNL     1     -35.293  -2.280  -7.140  1.00  0.00    -0.272 OA
BRANCH  31  32
HETATM   32  P2  UNL     1     -34.222  -2.752  -6.001  1.00  0.00     0.422 P 
HETATM   33  O10 UNL     1     -33.749  -4.174  -6.084  1.00  0.00    -0.617 OA
HETATM   34  O11 UNL     1     -32.819  -1.783  -6.141  1.00  0.00    -0.617 OA
HETATM   35  O12 UNL     1     -34.860  -2.417  -4.465  1.00  0.00    -0.617 OA
ENDBRANCH  31  32
ENDBRANCH  24  31
BRANCH  25  36
HETATM   36  O13 UNL     1     -34.883   0.981  -8.137  1.00  0.00    -0.390 OA
ATOM     37  H13 UNL     1     -34.134   0.826  -7.573  1.00  0.00     0.210 HD
ENDBRANCH  25  36
BRANCH  26  38
HETATM   38  O14 UNL     1     -37.447  -0.923  -9.685  1.00  0.00    -0.390 OA
ATOM     39  H14 UNL     1     -36.770  -1.550  -9.912  1.00  0.00     0.210 HD
ENDBRANCH  26  38
ENDBRANCH   1  21
TORSDOF 20
ENDMDL
