MODEL 1
REMARK VINA RESULT: -6.719552730      0.000      0.000
REMARK  20 active torsions:
REMARK  status: ('A' for Active; 'I' for Inactive)
REMARK    1  A    between atoms: C2_2  and  C3_3 
REMARK    2  A    between atoms: C3_3  and  C4_4 
REMARK    3  A    between atoms: C4_4  and  O2_6 
REMARK    4  A    between atoms: O2_6  and  C5_7 
REMARK    5  A    between atoms: C5_7  and  C6_8 
REMARK    6  A    between atoms: C6_8  and  C7_9 
REMARK    7  A    between atoms: C6_8  and  O15_34 
REMARK    8  A    between atoms: C7_9  and  O3_10 
REMARK    9  A    between atoms: O3_10  and  P1_11 
REMARK   10  A    between atoms: P1_11  and  O6_14 
REMARK   11  A    between atoms: O6_14  and  C8_15 
REMARK   12  A    between atoms: C9_16  and  O7_17 
REMARK   13  A    between atoms: C10_19  and  O8_20 
REMARK   14  A    between atoms: C11_22  and  O9_23 
REMARK   15  A    between atoms: O9_23  and  P2_24 
REMARK   16  A    between atoms: C12_28  and  O13_29 
REMARK   17  A    between atoms: C13_31  and  O14_32 
REMARK   18  A    between atoms: O15_34  and  C14_35 
REMARK   19  A    between atoms: C14_35  and  C15_37 
REMARK   20  A    between atoms: C15_37  and  C16_38 
ROOT
HETATM    1  O6  UNL     1     -39.134   1.918  -8.178  1.00  0.00    -0.279 OA
ENDROOT
BRANCH   1   2
HETATM    2  P1  UNL     1     -39.945   3.386  -7.988  1.00  0.00     0.408 P 
HETATM    3  O4  UNL     1     -41.263   3.156  -7.270  1.00  0.00    -0.624 OA
HETATM    4  O5  UNL     1     -40.320   4.084  -9.482  1.00  0.00    -0.624 OA
BRANCH   2   5
HETATM    5  O3  UNL     1     -39.015   4.427  -7.064  1.00  0.00    -0.287 OA
BRANCH   5   6
HETATM    6  C7  UNL     1     -38.739   5.624  -7.702  1.00  0.00     0.216 C 
BRANCH   6   7
HETATM    7  C6  UNL     1     -37.621   6.299  -6.894  1.00  0.00     0.180 C 
BRANCH   7   8
HETATM    8  C5  UNL     1     -38.163   6.969  -5.673  1.00  0.00     0.213 C 
BRANCH   8   9
HETATM    9  O2  UNL     1     -37.897   6.177  -4.541  1.00  0.00    -0.319 OA
BRANCH   9  10
HETATM   10  C4  UNL     1     -38.791   5.404  -3.854  1.00  0.00     0.258 C 
HETATM   11  O1  UNL     1     -38.491   4.235  -3.575  1.00  0.00    -0.265 OA
BRANCH  10  12
HETATM   12  C3  UNL     1     -40.138   5.926  -3.422  1.00  0.00     0.111 C 
BRANCH  12  13
HETATM   13  C2  UNL     1     -41.214   5.407  -4.353  1.00  0.00     0.005 C 
HETATM   14  C1  UNL     1     -42.520   6.051  -3.877  1.00  0.00     0.005 C 
ENDBRANCH  12  13
ENDBRANCH  10  12
ENDBRANCH   9  10
ENDBRANCH   8   9
ENDBRANCH   7   8
BRANCH   7  15
HETATM   15  O15 UNL     1     -36.690   5.305  -6.453  1.00  0.00    -0.312 OA
BRANCH  15  16
HETATM   16  C14 UNL     1     -35.371   5.332  -6.847  1.00  0.00     0.259 C 
HETATM   17  O16 UNL     1     -34.897   4.271  -7.336  1.00  0.00    -0.265 OA
BRANCH  16  18
HETATM   18  C15 UNL     1     -34.580   6.572  -6.687  1.00  0.00     0.111 C 
BRANCH  18  19
HETATM   19  C16 UNL     1     -34.398   6.825  -5.193  1.00  0.00     0.005 C 
HETATM   20  C17 UNL     1     -33.409   7.967  -5.021  1.00  0.00     0.005 C 
ENDBRANCH  18  19
ENDBRANCH  16  18
ENDBRANCH  15  16
ENDBRANCH   7  15
ENDBRANCH   6   7
ENDBRANCH   5   6
ENDBRANCH   2   5
ENDBRANCH   1   2
BRANCH   1  21
HETATM   21  C8  UNL     1     -37.873   2.029  -7.647  1.00  0.00     0.197 C 
HETATM   22  C9  UNL     1     -36.974   1.088  -8.418  1.00  0.00     0.181 C 
HETATM   23  C10 UNL     1     -35.790   0.785  -7.532  1.00  0.00     0.181 C 
HETATM   24  C11 UNL     1     -36.255  -0.172  -6.451  1.00  0.00     0.198 C 
HETATM   25  C12 UNL     1     -37.444   0.387  -5.793  1.00  0.00     0.181 C 
HETATM   26  C13 UNL     1     -37.812   1.800  -6.168  1.00  0.00     0.181 C 
BRANCH  22  27
HETATM   27  O7  UNL     1     -37.589  -0.107  -8.736  1.00  0.00    -0.390 OA
ATOM     28  H7  UNL     1     -37.577  -0.733  -8.022  1.00  0.00     0.210 HD
ENDBRANCH  22  27
BRANCH  23  29
HETATM   29  O8  UNL     1     -34.758   0.189  -8.280  1.00  0.00    -0.390 OA
ATOM     30  H8  UNL     1     -34.129   0.844  -8.557  1.00  0.00     0.210 HD
ENDBRANCH  23  29
BRANCH  24  31
HETATM   31  O9  UNL     1     -35.175  -0.456  -5.676  1.00  0.00    -0.272 OA
BRANCH  31  32
HETATM   32  P2  UNL     1     -34.752  -2.015  -5.434  1.00  0.00     0.422 P 
HETATM   33  O10 UNL     1     -35.727  -2.854  -4.659  1.00  0.00    -0.617 OA
HETATM   34  O11 UNL     1     -34.588  -2.776  -6.957  1.00  0.00    -0.617 OA
HETATM   35  O12 UNL     1     -33.212  -2.071  -4.725  1.00  0.00    -0.617 OA
ENDBRANCH  31  32
ENDBRANCH  24  31
BRANCH  25  36
HETATM   36  O13 UNL     1     -38.587  -0.399  -6.061  1.00  0.00    -0.390 OA
ATOM     37  H13 UNL     1     -39.363   0.144  -6.135  1.00  0.00     0.210 HD
ENDBRANCH  25  36
BRANCH  26  38
HETATM   38  O14 UNL     1     -36.912   2.695  -5.596  1.00  0.00    -0.390 OA
ATOM     39  H14 UNL     1     -36.654   2.381  -4.737  1.00  0.00     0.210 HD
ENDBRANCH  26  38
ENDBRANCH   1  21
TORSDOF 20
ENDMDL
