MODEL 2
REMARK VINA RESULT: -6.586158396      1.550      2.730
REMARK  20 active torsions:
REMARK  status: ('A' for Active; 'I' for Inactive)
REMARK    1  A    between atoms: C2_2  and  C3_3 
REMARK    2  A    between atoms: C3_3  and  C4_4 
REMARK    3  A    between atoms: C4_4  and  O2_6 
REMARK    4  A    between atoms: O2_6  and  C5_7 
REMARK    5  A    between atoms: C5_7  and  C6_8 
REMARK    6  A    between atoms: C6_8  and  C7_9 
REMARK    7  A    between atoms: C6_8  and  O15_34 
REMARK    8  A    between atoms: C7_9  and  O3_10 
REMARK    9  A    between atoms: O3_10  and  P1_11 
REMARK   10  A    between atoms: P1_11  and  O6_14 
REMARK   11  A    between atoms: O6_14  and  C8_15 
REMARK   12  A    between atoms: C9_16  and  O7_17 
REMARK   13  A    between atoms: C10_19  and  O8_20 
REMARK   14  A    between atoms: C11_22  and  O9_23 
REMARK   15  A    between atoms: O9_23  and  P2_24 
REMARK   16  A    between atoms: C12_28  and  O13_29 
REMARK   17  A    between atoms: C13_31  and  O14_32 
REMARK   18  A    between atoms: O15_34  and  C14_35 
REMARK   19  A    between atoms: C14_35  and  C15_37 
REMARK   20  A    between atoms: C15_37  and  C16_38 
ROOT
HETATM    1  O6  UNL     1     -37.815   2.244  -8.057  1.00  0.00    -0.279 OA
ENDROOT
BRANCH   1   2
HETATM    2  P1  UNL     1     -39.384   2.860  -7.971  1.00  0.00     0.408 P 
HETATM    3  O4  UNL     1     -40.387   1.724  -8.063  1.00  0.00    -0.624 OA
HETATM    4  O5  UNL     1     -39.712   3.904  -9.260  1.00  0.00    -0.624 OA
BRANCH   2   5
HETATM    5  O3  UNL     1     -39.603   3.639  -6.506  1.00  0.00    -0.287 OA
BRANCH   5   6
HETATM    6  C7  UNL     1     -39.085   4.923  -6.489  1.00  0.00     0.216 C 
BRANCH   6   7
HETATM    7  C6  UNL     1     -38.204   5.019  -5.235  1.00  0.00     0.180 C 
BRANCH   7   8
HETATM    8  C5  UNL     1     -38.948   4.589  -4.014  1.00  0.00     0.213 C 
BRANCH   8   9
HETATM    9  O2  UNL     1     -38.776   5.543  -2.993  1.00  0.00    -0.319 OA
BRANCH   9  10
HETATM   10  C4  UNL     1     -39.309   6.801  -2.951  1.00  0.00     0.258 C 
HETATM   11  O1  UNL     1     -40.496   6.966  -3.261  1.00  0.00    -0.265 OA
BRANCH  10  12
HETATM   12  C3  UNL     1     -38.497   8.002  -2.538  1.00  0.00     0.111 C 
BRANCH  12  13
HETATM   13  C2  UNL     1     -37.617   8.450  -3.687  1.00  0.00     0.005 C 
HETATM   14  C1  UNL     1     -36.558   9.366  -3.065  1.00  0.00     0.005 C 
ENDBRANCH  12  13
ENDBRANCH  10  12
ENDBRANCH   9  10
ENDBRANCH   8   9
ENDBRANCH   7   8
BRANCH   7  15
HETATM   15  O15 UNL     1     -37.082   4.142  -5.378  1.00  0.00    -0.312 OA
BRANCH  15  16
HETATM   16  C14 UNL     1     -35.944   4.533  -6.049  1.00  0.00     0.259 C 
HETATM   17  O16 UNL     1     -35.237   3.623  -6.559  1.00  0.00    -0.265 OA
BRANCH  16  18
HETATM   18  C15 UNL     1     -35.603   5.970  -6.142  1.00  0.00     0.111 C 
BRANCH  18  19
HETATM   19  C16 UNL     1     -34.779   6.340  -4.913  1.00  0.00     0.005 C 
HETATM   20  C17 UNL     1     -33.893   7.522  -5.272  1.00  0.00     0.005 C 
ENDBRANCH  18  19
ENDBRANCH  16  18
ENDBRANCH  15  16
ENDBRANCH   7  15
ENDBRANCH   6   7
ENDBRANCH   5   6
ENDBRANCH   2   5
ENDBRANCH   1   2
BRANCH   1  21
HETATM   21  C8  UNL     1     -37.870   0.872  -8.051  1.00  0.00     0.197 C 
HETATM   22  C9  UNL     1     -37.675   0.418  -6.621  1.00  0.00     0.181 C 
HETATM   23  C10 UNL     1     -37.184  -1.008  -6.674  1.00  0.00     0.181 C 
HETATM   24  C11 UNL     1     -35.732  -0.980  -7.108  1.00  0.00     0.198 C 
HETATM   25  C12 UNL     1     -35.614  -0.198  -8.346  1.00  0.00     0.181 C 
HETATM   26  C13 UNL     1     -36.908   0.220  -8.997  1.00  0.00     0.181 C 
BRANCH  22  27
HETATM   27  O7  UNL     1     -36.738   1.169  -5.939  1.00  0.00    -0.390 OA
ATOM     28  H7  UNL     1     -35.895   1.197  -6.375  1.00  0.00     0.210 HD
ENDBRANCH  22  27
BRANCH  23  29
HETATM   29  O8  UNL     1     -37.288  -1.609  -5.406  1.00  0.00    -0.390 OA
ATOM     30  H8  UNL     1     -37.251  -2.555  -5.485  1.00  0.00     0.210 HD
ENDBRANCH  23  29
BRANCH  24  31
HETATM   31  O9  UNL     1     -35.295  -2.268  -7.128  1.00  0.00    -0.272 OA
BRANCH  31  32
HETATM   32  P2  UNL     1     -34.224  -2.767  -6.000  1.00  0.00     0.422 P 
HETATM   33  O10 UNL     1     -33.768  -4.194  -6.103  1.00  0.00    -0.617 OA
HETATM   34  O11 UNL     1     -32.811  -1.813  -6.133  1.00  0.00    -0.617 OA
HETATM   35  O12 UNL     1     -34.851  -2.445  -4.456  1.00  0.00    -0.617 OA
ENDBRANCH  31  32
ENDBRANCH  24  31
BRANCH  25  36
HETATM   36  O13 UNL     1     -34.886   0.993  -8.125  1.00  0.00    -0.390 OA
ATOM     37  H13 UNL     1     -34.035   0.806  -7.745  1.00  0.00     0.210 HD
ENDBRANCH  25  36
BRANCH  26  38
HETATM   38  O14 UNL     1     -37.518  -0.880  -9.594  1.00  0.00    -0.390 OA
ATOM     39  H14 UNL     1     -37.661  -1.557  -8.943  1.00  0.00     0.210 HD
ENDBRANCH  26  38
ENDBRANCH   1  21
TORSDOF 20
ENDMDL
