MODEL 9
REMARK VINA RESULT: -7.427320157      2.792      5.210
REMARK  6 active torsions:
REMARK  status: ('A' for Active; 'I' for Inactive)
REMARK    1  A    between atoms: C1_2  and  C2_4 
REMARK    2  A    between atoms: C2_4  and  C3_5 
REMARK    3  A    between atoms: C3_5  and  C4_6 
REMARK    4  A    between atoms: C4_6  and  C5_8 
REMARK    5  A    between atoms: C9_12  and  O4_13 
REMARK    6  A    between atoms: C10_15  and  C11_16 
ROOT
HETATM    1  C5  UNL     1      26.156  75.693  11.358  1.00  0.00     0.005 C 
HETATM    2  C6  UNL     1      26.722  74.816  10.550  1.00  0.00     0.012 C 
HETATM    3  C7  UNL     1      27.973  74.159  10.858  1.00  0.00    -0.001 C 
HETATM    4  C8  UNL     1      28.599  74.438  11.975  1.00  0.00     0.006 C 
HETATM    5  C9  UNL     1      28.088  75.401  12.941  1.00  0.00     0.160 C 
HETATM    6  C10 UNL     1      26.735  75.971  12.672  1.00  0.00     0.155 C 
ENDROOT
BRANCH   1   7
HETATM    7  C4  UNL     1      24.892  76.287  10.906  1.00  0.00     0.157 C 
HETATM    8  O3  UNL     1      23.808  75.932  11.444  1.00  0.00    -0.293 OA
BRANCH   7   9
HETATM    9  C3  UNL     1      24.785  77.297   9.834  1.00  0.00     0.094 C 
BRANCH   9  10
HETATM   10  C2  UNL     1      25.903  78.332   9.940  1.00  0.00     0.121 C 
BRANCH  10  11
HETATM   11  C1  UNL     1      25.585  79.287  11.027  1.00  0.00     0.172 C 
HETATM   12  O1  UNL     1      26.485  79.662  11.818  1.00  0.00    -0.648 OA
HETATM   13  O2  UNL     1      24.307  79.769  11.179  1.00  0.00    -0.648 OA
ENDBRANCH  10  11
ENDBRANCH   9  10
ENDBRANCH   7   9
ENDBRANCH   1   7
BRANCH   6  14
HETATM   14  C11 UNL     1      25.863  75.433  13.781  1.00  0.00     0.184 C 
HETATM   15  O5  UNL     1      25.768  74.240  14.083  1.00  0.00    -0.647 OA
HETATM   16  O6  UNL     1      25.143  76.394  14.480  1.00  0.00    -0.647 OA
ENDBRANCH   6  14
BRANCH   5  17
HETATM   17  O4  UNL     1      29.022  76.467  13.013  1.00  0.00    -0.391 OA
ATOM     18  H4  UNL     1      29.810  76.186  12.563  1.00  0.00     0.210 HD
ENDBRANCH   5  17
TORSDOF 6
ENDMDL
