MODEL 1
REMARK VINA RESULT: -7.974794023      0.000      0.000
REMARK  6 active torsions:
REMARK  status: ('A' for Active; 'I' for Inactive)
REMARK    1  A    between atoms: C1_2  and  C2_4 
REMARK    2  A    between atoms: C2_4  and  C3_5 
REMARK    3  A    between atoms: C3_5  and  C4_6 
REMARK    4  A    between atoms: C4_6  and  C5_8 
REMARK    5  A    between atoms: C9_12  and  O4_13 
REMARK    6  A    between atoms: C10_15  and  C11_16 
ROOT
HETATM    1  C5  UNL     1      28.100  75.309  12.011  1.00  0.00     0.005 C 
HETATM    2  C6  UNL     1      29.058  75.641  12.856  1.00  0.00     0.012 C 
HETATM    3  C7  UNL     1      29.061  76.887  13.590  1.00  0.00    -0.001 C 
HETATM    4  C8  UNL     1      28.088  77.748  13.416  1.00  0.00     0.006 C 
HETATM    5  C9  UNL     1      26.983  77.509  12.498  1.00  0.00     0.160 C 
HETATM    6  C10 UNL     1      26.926  76.166  11.849  1.00  0.00     0.155 C 
ENDROOT
BRANCH   1   7
HETATM    7  C4  UNL     1      28.240  74.017  11.329  1.00  0.00     0.157 C 
HETATM    8  O3  UNL     1      28.087  72.948  11.981  1.00  0.00    -0.293 OA
BRANCH   7   9
HETATM    9  C3  UNL     1      28.559  73.864   9.895  1.00  0.00     0.094 C 
BRANCH   9  10
HETATM   10  C2  UNL     1      28.688  72.391   9.514  1.00  0.00     0.121 C 
BRANCH  10  11
HETATM   11  C1  UNL     1      30.103  72.091   9.191  1.00  0.00     0.172 C 
HETATM   12  O1  UNL     1      30.899  73.024   8.925  1.00  0.00    -0.648 OA
HETATM   13  O2  UNL     1      30.554  70.793   9.178  1.00  0.00    -0.648 OA
ENDBRANCH  10  11
ENDBRANCH   9  10
ENDBRANCH   7   9
ENDBRANCH   1   7
BRANCH   6  14
HETATM   14  C11 UNL     1      25.689  75.515  12.420  1.00  0.00     0.184 C 
HETATM   15  O5  UNL     1      25.410  75.470  13.621  1.00  0.00    -0.647 OA
HETATM   16  O6  UNL     1      24.838  74.947  11.479  1.00  0.00    -0.647 OA
ENDBRANCH   6  14
BRANCH   5  17
HETATM   17  O4  UNL     1      27.051  78.500  11.484  1.00  0.00    -0.391 OA
ATOM     18  H4  UNL     1      26.636  78.142  10.708  1.00  0.00     0.210 HD
ENDBRANCH   5  17
TORSDOF 6
ENDMDL
