MODEL 8
REMARK VINA RESULT: -7.461924589      3.156      4.874
REMARK  6 active torsions:
REMARK  status: ('A' for Active; 'I' for Inactive)
REMARK    1  A    between atoms: C1_2  and  C2_4 
REMARK    2  A    between atoms: C2_4  and  C3_5 
REMARK    3  A    between atoms: C3_5  and  C4_6 
REMARK    4  A    between atoms: C4_6  and  C5_8 
REMARK    5  A    between atoms: C9_12  and  O4_13 
REMARK    6  A    between atoms: C10_15  and  C11_16 
ROOT
HETATM    1  C5  UNL     1      26.416  75.453  12.614  1.00  0.00     0.005 C 
HETATM    2  C6  UNL     1      27.456  74.837  13.142  1.00  0.00     0.012 C 
HETATM    3  C7  UNL     1      27.598  74.612  14.563  1.00  0.00    -0.001 C 
HETATM    4  C8  UNL     1      26.672  75.039  15.387  1.00  0.00     0.006 C 
HETATM    5  C9  UNL     1      25.485  75.750  14.931  1.00  0.00     0.160 C 
HETATM    6  C10 UNL     1      25.290  75.858  13.455  1.00  0.00     0.155 C 
ENDROOT
BRANCH   1   7
HETATM    7  C4  UNL     1      26.417  75.620  11.155  1.00  0.00     0.157 C 
HETATM    8  O3  UNL     1      26.177  74.629  10.414  1.00  0.00    -0.293 OA
BRANCH   7   9
HETATM    9  C3  UNL     1      26.690  76.898  10.466  1.00  0.00     0.094 C 
BRANCH   9  10
HETATM   10  C2  UNL     1      25.399  77.671  10.209  1.00  0.00     0.121 C 
BRANCH  10  11
HETATM   11  C1  UNL     1      25.391  78.899  11.039  1.00  0.00     0.172 C 
HETATM   12  O1  UNL     1      26.412  79.225  11.691  1.00  0.00    -0.648 OA
HETATM   13  O2  UNL     1      24.268  79.689  11.102  1.00  0.00    -0.648 OA
ENDBRANCH  10  11
ENDBRANCH   9  10
ENDBRANCH   7   9
ENDBRANCH   1   7
BRANCH   6  14
HETATM   14  C11 UNL     1      24.062  75.028  13.167  1.00  0.00     0.184 C 
HETATM   15  O5  UNL     1      23.701  74.054  13.833  1.00  0.00    -0.647 OA
HETATM   16  O6  UNL     1      23.323  75.438  12.064  1.00  0.00    -0.647 OA
ENDBRANCH   6  14
BRANCH   5  17
HETATM   17  O4  UNL     1      25.537  77.058  15.479  1.00  0.00    -0.391 OA
ATOM     18  H4  UNL     1      26.008  77.607  14.862  1.00  0.00     0.210 HD
ENDBRANCH   5  17
TORSDOF 6
ENDMDL
