MODEL 2
REMARK VINA RESULT: -7.927629283      1.245      1.327
REMARK  6 active torsions:
REMARK  status: ('A' for Active; 'I' for Inactive)
REMARK    1  A    between atoms: C1_2  and  C2_4 
REMARK    2  A    between atoms: C2_4  and  C3_5 
REMARK    3  A    between atoms: C3_5  and  C4_6 
REMARK    4  A    between atoms: C4_6  and  C5_8 
REMARK    5  A    between atoms: C9_12  and  O4_13 
REMARK    6  A    between atoms: C10_15  and  C11_16 
ROOT
HETATM    1  C5  UNL     1      27.254  75.085  11.517  1.00  0.00     0.005 C 
HETATM    2  C6  UNL     1      27.971  74.709  12.558  1.00  0.00     0.012 C 
HETATM    3  C7  UNL     1      27.996  75.447  13.802  1.00  0.00    -0.001 C 
HETATM    4  C8  UNL     1      27.294  76.548  13.921  1.00  0.00     0.006 C 
HETATM    5  C9  UNL     1      26.478  77.078  12.838  1.00  0.00     0.160 C 
HETATM    6  C10 UNL     1      26.359  76.237  11.611  1.00  0.00     0.155 C 
ENDROOT
BRANCH   1   7
HETATM    7  C4  UNL     1      27.339  74.242  10.317  1.00  0.00     0.157 C 
HETATM    8  O3  UNL     1      26.284  73.772   9.810  1.00  0.00    -0.293 OA
BRANCH   7   9
HETATM    9  C3  UNL     1      28.602  73.886   9.639  1.00  0.00     0.094 C 
BRANCH   9  10
HETATM   10  C2  UNL     1      28.734  72.373   9.483  1.00  0.00     0.121 C 
BRANCH  10  11
HETATM   11  C1  UNL     1      30.136  72.036   9.144  1.00  0.00     0.172 C 
HETATM   12  O1  UNL     1      30.947  72.946   8.843  1.00  0.00    -0.648 OA
HETATM   13  O2  UNL     1      30.562  70.729   9.154  1.00  0.00    -0.648 OA
ENDBRANCH  10  11
ENDBRANCH   9  10
ENDBRANCH   7   9
ENDBRANCH   1   7
BRANCH   6  14
HETATM   14  C11 UNL     1      24.910  75.813  11.573  1.00  0.00     0.184 C 
HETATM   15  O5  UNL     1      24.447  74.844  12.180  1.00  0.00    -0.647 OA
HETATM   16  O6  UNL     1      24.086  76.609  10.787  1.00  0.00    -0.647 OA
ENDBRANCH   6  14
BRANCH   5  17
HETATM   17  O4  UNL     1      27.021  78.338  12.474  1.00  0.00    -0.391 OA
ATOM     18  H4  UNL     1      26.928  78.915  13.224  1.00  0.00     0.210 HD
ENDBRANCH   5  17
TORSDOF 6
ENDMDL
