MODEL 3
REMARK VINA RESULT: -7.693380750      2.874      5.632
REMARK  6 active torsions:
REMARK  status: ('A' for Active; 'I' for Inactive)
REMARK    1  A    between atoms: C1_2  and  C2_4 
REMARK    2  A    between atoms: C2_4  and  C3_5 
REMARK    3  A    between atoms: C3_5  and  C4_6 
REMARK    4  A    between atoms: C4_6  and  C5_8 
REMARK    5  A    between atoms: C9_12  and  O4_13 
REMARK    6  A    between atoms: C10_15  and  C11_16 
ROOT
HETATM    1  C5  UNL     1      26.440  76.628  11.748  1.00  0.00     0.005 C 
HETATM    2  C6  UNL     1      27.307  77.484  12.255  1.00  0.00     0.012 C 
HETATM    3  C7  UNL     1      28.468  77.071  13.011  1.00  0.00    -0.001 C 
HETATM    4  C8  UNL     1      28.685  75.797  13.228  1.00  0.00     0.006 C 
HETATM    5  C9  UNL     1      27.793  74.755  12.739  1.00  0.00     0.160 C 
HETATM    6  C10 UNL     1      26.674  75.189  11.851  1.00  0.00     0.155 C 
ENDROOT
BRANCH   1   7
HETATM    7  C4  UNL     1      25.302  77.196  11.015  1.00  0.00     0.157 C 
HETATM    8  O3  UNL     1      24.139  76.760  11.233  1.00  0.00    -0.293 OA
BRANCH   7   9
HETATM    9  C3  UNL     1      25.415  78.268  10.005  1.00  0.00     0.094 C 
BRANCH   9  10
HETATM   10  C2  UNL     1      24.547  77.970   8.786  1.00  0.00     0.121 C 
BRANCH  10  11
HETATM   11  C1  UNL     1      23.722  79.159   8.469  1.00  0.00     0.172 C 
HETATM   12  O1  UNL     1      23.293  79.335   7.302  1.00  0.00    -0.648 OA
HETATM   13  O2  UNL     1      23.420  80.078   9.445  1.00  0.00    -0.648 OA
ENDBRANCH  10  11
ENDBRANCH   9  10
ENDBRANCH   7   9
ENDBRANCH   1   7
BRANCH   6  14
HETATM   14  C11 UNL     1      26.996  74.587  10.504  1.00  0.00     0.184 C 
HETATM   15  O5  UNL     1      28.113  74.595   9.981  1.00  0.00    -0.647 OA
HETATM   16  O6  UNL     1      25.920  73.991   9.856  1.00  0.00    -0.647 OA
ENDBRANCH   6  14
BRANCH   5  17
HETATM   17  O4  UNL     1      27.245  74.099  13.872  1.00  0.00    -0.391 OA
ATOM     18  H4  UNL     1      27.899  73.488  14.192  1.00  0.00     0.210 HD
ENDBRANCH   5  17
TORSDOF 6
ENDMDL
