MODEL 5
REMARK VINA RESULT: -6.352362400      6.178      7.697
REMARK  1 active torsions:
REMARK  status: ('A' for Active; 'I' for Inactive)
REMARK    1  A    between atoms: N2_7  and  C2_8 
ROOT
HETATM    1  O1  UNL     1      -3.735   2.182  44.215  1.00  0.00    -0.200 OA
HETATM    2  S1  UNL     1      -3.499   1.499  42.873  1.00  0.00     0.262 S 
HETATM    3  O2  UNL     1      -4.320   0.245  42.820  1.00  0.00    -0.200 OA
HETATM    4  N1  UNL     1      -3.899   2.579  41.593  1.00  0.00    -0.298 N 
ATOM      5  H1  UNL     1      -4.677   2.501  40.938  1.00  0.00     0.174 HD
HETATM    6  C1  UNL     1      -2.879   3.642  41.644  1.00  0.00     0.258 C 
HETATM    7  N2  UNL     1      -1.597   3.118  41.272  1.00  0.00    -0.358 N 
HETATM    8  C5  UNL     1      -1.021   2.006  41.985  1.00  0.00     0.055 A 
HETATM    9  C6  UNL     1       0.329   1.756  41.901  1.00  0.00     0.034 A 
HETATM   10  C7  UNL     1       0.941   0.690  42.573  1.00  0.00     0.044 A 
HETATM   11  C8  UNL     1       0.133  -0.120  43.338  1.00  0.00     0.118 A 
HETATM   12  F1  UNL     1       0.684  -1.164  44.006  1.00  0.00    -0.206 F 
HETATM   13  C9  UNL     1      -1.218   0.121  43.430  1.00  0.00     0.069 A 
HETATM   14  C10 UNL     1      -1.794   1.174  42.761  1.00  0.00     0.108 A 
ENDROOT
BRANCH   7  15
HETATM   15  C2  UNL     1      -0.853   3.686  40.183  1.00  0.00     0.086 A 
HETATM   16  C3  UNL     1      -1.465   4.721  39.307  1.00  0.00     0.027 A 
HETATM   17  C4  UNL     1      -1.143   3.312  38.801  1.00  0.00     0.027 A 
ENDBRANCH   7  15
TORSDOF 1
ENDMDL
