MODEL 1
REMARK VINA RESULT: -6.800281258      0.000      0.000
REMARK  1 active torsions:
REMARK  status: ('A' for Active; 'I' for Inactive)
REMARK    1  A    between atoms: N2_7  and  C2_8 
ROOT
HETATM    1  O1  UNL     1       2.120  -3.403  38.733  1.00  0.00    -0.200 OA
HETATM    2  S1  UNL     1       1.925  -4.207  40.013  1.00  0.00     0.262 S 
HETATM    3  O2  UNL     1       0.845  -5.223  39.784  1.00  0.00    -0.200 OA
HETATM    4  N1  UNL     1       3.412  -4.946  40.468  1.00  0.00    -0.298 N 
ATOM      5  H1  UNL     1       3.635  -5.941  40.462  1.00  0.00     0.174 HD
HETATM    6  C1  UNL     1       4.295  -3.835  40.867  1.00  0.00     0.258 C 
HETATM    7  N2  UNL     1       3.819  -3.233  42.079  1.00  0.00    -0.358 N 
HETATM    8  C5  UNL     1       2.482  -2.701  42.160  1.00  0.00     0.055 A 
HETATM    9  C6  UNL     1       2.156  -1.800  43.147  1.00  0.00     0.034 A 
HETATM   10  C7  UNL     1       0.873  -1.252  43.273  1.00  0.00     0.044 A 
HETATM   11  C8  UNL     1      -0.076  -1.651  42.358  1.00  0.00     0.118 A 
HETATM   12  F1  UNL     1      -1.331  -1.146  42.443  1.00  0.00    -0.206 F 
HETATM   13  C9  UNL     1       0.240  -2.552  41.367  1.00  0.00     0.069 A 
HETATM   14  C10 UNL     1       1.507  -3.074  41.265  1.00  0.00     0.108 A 
ENDROOT
BRANCH   7  15
HETATM   15  C2  UNL     1       4.659  -3.142  43.240  1.00  0.00     0.086 A 
HETATM   16  C3  UNL     1       5.627  -2.022  43.386  1.00  0.00     0.027 A 
HETATM   17  C4  UNL     1       6.081  -3.467  43.162  1.00  0.00     0.027 A 
ENDBRANCH   7  15
TORSDOF 1
ENDMDL
