MODEL 15
REMARK VINA RESULT: -4.916260548      1.586      1.824
REMARK  1 active torsions:
REMARK  status: ('A' for Active; 'I' for Inactive)
REMARK    1  A    between atoms: N2_7  and  C2_8 
ROOT
HETATM    1  O1  UNL     1       4.129  -3.730  39.577  1.00  0.00    -0.200 OA
HETATM    2  S1  UNL     1       3.845  -4.181  41.005  1.00  0.00     0.262 S 
HETATM    3  O2  UNL     1       3.269  -5.565  40.968  1.00  0.00    -0.200 OA
HETATM    4  N1  UNL     1       5.293  -4.115  41.935  1.00  0.00    -0.298 N 
ATOM      5  H1  UNL     1       5.819  -4.901  42.316  1.00  0.00     0.174 HD
HETATM    6  C1  UNL     1       5.611  -2.681  42.063  1.00  0.00     0.258 C 
HETATM    7  N2  UNL     1       4.636  -2.027  42.887  1.00  0.00    -0.358 N 
HETATM    8  C5  UNL     1       3.235  -2.075  42.549  1.00  0.00     0.055 A 
HETATM    9  C6  UNL     1       2.364  -1.157  43.086  1.00  0.00     0.034 A 
HETATM   10  C7  UNL     1       0.994  -1.158  42.793  1.00  0.00     0.044 A 
HETATM   11  C8  UNL     1       0.535  -2.127  41.930  1.00  0.00     0.118 A 
HETATM   12  F1  UNL     1      -0.784  -2.164  41.618  1.00  0.00    -0.206 F 
HETATM   13  C9  UNL     1       1.398  -3.050  41.387  1.00  0.00     0.069 A 
HETATM   14  C10 UNL     1       2.738  -3.027  41.691  1.00  0.00     0.108 A 
ENDROOT
BRANCH   7  15
HETATM   15  C2  UNL     1       5.027  -1.307  44.066  1.00  0.00     0.086 A 
HETATM   16  C3  UNL     1       6.365  -1.528  44.677  1.00  0.00     0.027 A 
HETATM   17  C4  UNL     1       5.071  -1.969  45.368  1.00  0.00     0.027 A 
ENDBRANCH   7  15
TORSDOF 1
ENDMDL
