MODEL 3
REMARK VINA RESULT: -6.696937694      3.481      4.937
REMARK  1 active torsions:
REMARK  status: ('A' for Active; 'I' for Inactive)
REMARK    1  A    between atoms: N2_7  and  C2_8 
ROOT
HETATM    1  O1  UNL     1       1.406  -0.155  43.187  1.00  0.00    -0.200 OA
HETATM    2  S1  UNL     1       1.413  -1.646  43.498  1.00  0.00     0.262 S 
HETATM    3  O2  UNL     1       1.124  -1.835  44.958  1.00  0.00    -0.200 OA
HETATM    4  N1  UNL     1       0.257  -2.453  42.508  1.00  0.00    -0.298 N 
ATOM      5  H1  UNL     1      -0.611  -2.897  42.807  1.00  0.00     0.174 HD
HETATM    6  C1  UNL     1       0.789  -2.366  41.136  1.00  0.00     0.258 C 
HETATM    7  N2  UNL     1       1.975  -3.163  41.010  1.00  0.00    -0.358 N 
HETATM    8  C5  UNL     1       3.109  -2.936  41.870  1.00  0.00     0.055 A 
HETATM    9  C6  UNL     1       4.350  -3.408  41.514  1.00  0.00     0.034 A 
HETATM   10  C7  UNL     1       5.486  -3.216  42.312  1.00  0.00     0.044 A 
HETATM   11  C8  UNL     1       5.319  -2.525  43.490  1.00  0.00     0.118 A 
HETATM   12  F1  UNL     1       6.392  -2.317  44.293  1.00  0.00    -0.206 F 
HETATM   13  C9  UNL     1       4.082  -2.049  43.856  1.00  0.00     0.069 A 
HETATM   14  C10 UNL     1       2.983  -2.250  43.055  1.00  0.00     0.108 A 
ENDROOT
BRANCH   7  15
HETATM   15  C2  UNL     1       2.064  -4.205  40.026  1.00  0.00     0.086 A 
HETATM   16  C3  UNL     1       1.563  -3.985  38.643  1.00  0.00     0.027 A 
HETATM   17  C4  UNL     1       0.877  -4.951  39.614  1.00  0.00     0.027 A 
ENDBRANCH   7  15
TORSDOF 1
ENDMDL
