MODEL 4
REMARK VINA RESULT: -6.620470607      6.781      8.306
REMARK  1 active torsions:
REMARK  status: ('A' for Active; 'I' for Inactive)
REMARK    1  A    between atoms: N2_7  and  C2_8 
ROOT
HETATM    1  O1  UNL     1      -1.320   0.112  43.228  1.00  0.00    -0.200 OA
HETATM    2  S1  UNL     1      -1.312   1.601  43.548  1.00  0.00     0.262 S 
HETATM    3  O2  UNL     1      -1.036   1.778  45.011  1.00  0.00    -0.200 OA
HETATM    4  N1  UNL     1      -0.136   2.398  42.574  1.00  0.00    -0.298 N 
ATOM      5  H1  UNL     1       0.734   2.829  42.885  1.00  0.00     0.174 HD
HETATM    6  C1  UNL     1      -0.654   2.326  41.196  1.00  0.00     0.258 C 
HETATM    7  N2  UNL     1      -1.828   3.139  41.063  1.00  0.00    -0.358 N 
HETATM    8  C5  UNL     1      -2.974   2.922  41.910  1.00  0.00     0.055 A 
HETATM    9  C6  UNL     1      -4.206   3.411  41.543  1.00  0.00     0.034 A 
HETATM   10  C7  UNL     1      -5.352   3.230  42.328  1.00  0.00     0.044 A 
HETATM   11  C8  UNL     1      -5.207   2.530  43.504  1.00  0.00     0.118 A 
HETATM   12  F1  UNL     1      -6.290   2.331  44.295  1.00  0.00    -0.206 F 
HETATM   13  C9  UNL     1      -3.979   2.036  43.880  1.00  0.00     0.069 A 
HETATM   14  C10 UNL     1      -2.870   2.227  43.092  1.00  0.00     0.108 A 
ENDROOT
BRANCH   7  15
HETATM   15  C2  UNL     1      -1.895   4.188  40.084  1.00  0.00     0.086 A 
HETATM   16  C3  UNL     1      -1.655   3.895  38.645  1.00  0.00     0.027 A 
HETATM   17  C4  UNL     1      -0.678   4.727  39.481  1.00  0.00     0.027 A 
ENDBRANCH   7  15
TORSDOF 1
ENDMDL
