MODEL 5
REMARK VINA RESULT: -6.271159775      3.528      5.702
REMARK  9 active torsions:
REMARK  status: ('A' for Active; 'I' for Inactive)
REMARK    1  A    between atoms: C4_6  and  N2_7 
REMARK    2  A    between atoms: N3_10  and  C5_11 
REMARK    3  A    between atoms: C5_11  and  C6_12 
REMARK    4  A    between atoms: C6_12  and  O3_13 
REMARK    5  A    between atoms: O3_13  and  C7_14 
REMARK       I    between atoms: C7_14  and  N4_16 
REMARK    6  A    between atoms: N4_16  and  C8_18 
REMARK    7  A    between atoms: C8_18  and  N5_19 
REMARK    8  A    between atoms: C8_18  and  C13_29 
REMARK    9  A    between atoms: N5_19  and  C9_21 
ROOT
HETATM    1  C7  UNL     1     -26.343  -9.520  75.401  1.00  0.00     0.362 C 
HETATM    2  O4  UNL     1     -27.264 -10.325  75.680  1.00  0.00    -0.238 OA
HETATM    3  N4  UNL     1     -26.546  -8.757  74.194  1.00  0.00    -0.311 N 
ATOM      4  H4  UNL     1     -25.829  -8.086  73.917  1.00  0.00     0.167 HD
ENDROOT
BRANCH   3   5
HETATM    5  C8  UNL     1     -27.708  -8.896  73.363  1.00  0.00     0.258 C 
BRANCH   5   6
HETATM    6  N5  UNL     1     -28.292  -7.644  72.950  1.00  0.00    -0.200 N 
ATOM      7  H5  UNL     1     -27.836  -7.116  72.205  1.00  0.00     0.180 HD
BRANCH   6   8
HETATM    8  C9  UNL     1     -29.469  -7.115  73.530  1.00  0.00     0.679 A 
HETATM    9  N6  UNL     1     -29.588  -5.855  73.927  1.00  0.00    -0.202 N 
HETATM   10  C10 UNL     1     -30.668  -5.296  74.480  1.00  0.00     0.107 A 
ATOM     11  H6  UNL     1     -28.775  -5.253  73.796  1.00  0.00     0.183 HD
HETATM   12  C11 UNL     1     -31.763  -6.127  74.650  1.00  0.00     0.035 A 
HETATM   13  C12 UNL     1     -31.686  -7.443  74.254  1.00  0.00     0.107 A 
HETATM   14  N7  UNL     1     -30.556  -7.906  73.708  1.00  0.00    -0.202 N 
ATOM     15  H7  UNL     1     -30.510  -8.882  73.417  1.00  0.00     0.183 HD
ENDBRANCH   6   8
ENDBRANCH   5   6
BRANCH   5  16
HETATM   16  C13 UNL     1     -27.535  -9.835  72.198  1.00  0.00     0.226 C 
HETATM   17 CL1  UNL     1     -29.097 -10.010  71.323  1.00  0.00    -0.080 Cl
HETATM   18 CL2  UNL     1     -26.358  -9.195  71.030  1.00  0.00    -0.080 Cl
HETATM   19 CL3  UNL     1     -27.044 -11.464  72.663  1.00  0.00    -0.080 Cl
ENDBRANCH   5  16
ENDBRANCH   3   5
BRANCH   1  20
HETATM   20  O3  UNL     1     -25.213  -9.357  76.173  1.00  0.00    -0.302 OA
BRANCH  20  21
HETATM   21  C6  UNL     1     -24.813  -8.091  76.623  1.00  0.00     0.200 C 
BRANCH  21  22
HETATM   22  C5  UNL     1     -25.407  -7.704  77.950  1.00  0.00     0.159 C 
BRANCH  22  23
HETATM   23  N3  UNL     1     -26.839  -7.645  77.921  1.00  0.00    -0.315 N 
HETATM   24  C2  UNL     1     -27.635  -8.513  78.557  1.00  0.00     0.081 A 
HETATM   25  C1  UNL     1     -27.190  -9.656  79.375  1.00  0.00     0.089 C 
HETATM   26  N1  UNL     1     -28.900  -8.162  78.321  1.00  0.00    -0.352 N 
HETATM   27  C3  UNL     1     -28.941  -7.065  77.532  1.00  0.00     0.144 A 
ATOM     28  H1  UNL     1     -29.719  -8.650  78.684  1.00  0.00     0.166 HD
HETATM   29  C4  UNL     1     -27.597  -6.741  77.281  1.00  0.00     0.193 A 
BRANCH  29  30
HETATM   30  N2  UNL     1     -27.191  -5.642  76.482  1.00  0.00    -0.096 N 
HETATM   31  O1  UNL     1     -26.936  -5.822  75.283  1.00  0.00    -0.530 OA
HETATM   32  O2  UNL     1     -27.076  -4.388  77.000  1.00  0.00    -0.530 OA
ENDBRANCH  29  30
ENDBRANCH  22  23
ENDBRANCH  21  22
ENDBRANCH  20  21
ENDBRANCH   1  20
TORSDOF 9
ENDMDL
