MODEL 1
REMARK VINA RESULT: -6.556866416      0.000      0.000
REMARK  9 active torsions:
REMARK  status: ('A' for Active; 'I' for Inactive)
REMARK    1  A    between atoms: C4_6  and  N2_7 
REMARK    2  A    between atoms: N3_10  and  C5_11 
REMARK    3  A    between atoms: C5_11  and  C6_12 
REMARK    4  A    between atoms: C6_12  and  O3_13 
REMARK    5  A    between atoms: O3_13  and  C7_14 
REMARK       I    between atoms: C7_14  and  N4_16 
REMARK    6  A    between atoms: N4_16  and  C8_18 
REMARK    7  A    between atoms: C8_18  and  N5_19 
REMARK    8  A    between atoms: C8_18  and  C13_29 
REMARK    9  A    between atoms: N5_19  and  C9_21 
ROOT
HETATM    1  C7  UNL     1     -28.926  -6.998  74.235  1.00  0.00     0.362 C 
HETATM    2  O4  UNL     1     -29.715  -7.969  74.335  1.00  0.00    -0.238 OA
HETATM    3  N4  UNL     1     -27.568  -7.274  74.636  1.00  0.00    -0.311 N 
ATOM      4  H4  UNL     1     -26.882  -6.522  74.576  1.00  0.00     0.167 HD
ENDROOT
BRANCH   3   5
HETATM    5  C8  UNL     1     -27.136  -8.557  75.114  1.00  0.00     0.258 C 
BRANCH   5   6
HETATM    6  N5  UNL     1     -26.445  -9.352  74.129  1.00  0.00    -0.200 N 
ATOM      7  H5  UNL     1     -25.625  -9.885  74.421  1.00  0.00     0.180 HD
BRANCH   6   8
HETATM    8  C9  UNL     1     -26.853  -9.427  72.776  1.00  0.00     0.679 A 
HETATM    9  N6  UNL     1     -26.126  -8.969  71.765  1.00  0.00    -0.202 N 
HETATM   10  C10 UNL     1     -26.454  -9.010  70.471  1.00  0.00     0.107 A 
ATOM     11  H6  UNL     1     -25.229  -8.546  71.999  1.00  0.00     0.183 HD
HETATM   12  C11 UNL     1     -27.677  -9.589  70.171  1.00  0.00     0.035 A 
HETATM   13  C12 UNL     1     -28.465 -10.077  71.188  1.00  0.00     0.107 A 
HETATM   14  N7  UNL     1     -28.044  -9.988  72.454  1.00  0.00    -0.202 N 
ATOM     15  H7  UNL     1     -28.636 -10.354  73.199  1.00  0.00     0.183 HD
ENDBRANCH   6   8
ENDBRANCH   5   6
BRANCH   5  16
HETATM   16  C13 UNL     1     -26.382  -8.516  76.417  1.00  0.00     0.226 C 
HETATM   17 CL1  UNL     1     -26.116  -6.806  76.910  1.00  0.00    -0.080 Cl
HETATM   18 CL2  UNL     1     -27.312  -9.289  77.719  1.00  0.00    -0.080 Cl
HETATM   19 CL3  UNL     1     -24.785  -9.262  76.340  1.00  0.00    -0.080 Cl
ENDBRANCH   5  16
ENDBRANCH   3   5
BRANCH   1  20
HETATM   20  O3  UNL     1     -29.302  -5.752  73.780  1.00  0.00    -0.302 OA
BRANCH  20  21
HETATM   21  C6  UNL     1     -30.631  -5.473  73.434  1.00  0.00     0.200 C 
BRANCH  21  22
HETATM   22  C5  UNL     1     -31.389  -4.723  74.496  1.00  0.00     0.159 C 
BRANCH  22  23
HETATM   23  N3  UNL     1     -32.184  -5.582  75.323  1.00  0.00    -0.315 N 
HETATM   24  C2  UNL     1     -31.815  -5.998  76.541  1.00  0.00     0.081 A 
HETATM   25  C1  UNL     1     -30.555  -5.656  77.226  1.00  0.00     0.089 C 
HETATM   26  N1  UNL     1     -32.787  -6.773  77.023  1.00  0.00    -0.352 N 
HETATM   27  C3  UNL     1     -33.795  -6.871  76.128  1.00  0.00     0.144 A 
ATOM     28  H1  UNL     1     -32.772  -7.228  77.936  1.00  0.00     0.166 HD
HETATM   29  C4  UNL     1     -33.390  -6.093  75.030  1.00  0.00     0.193 A 
BRANCH  29  30
HETATM   30  N2  UNL     1     -34.169  -5.926  73.857  1.00  0.00    -0.096 N 
HETATM   31  O1  UNL     1     -34.523  -4.788  73.519  1.00  0.00    -0.530 OA
HETATM   32  O2  UNL     1     -34.537  -6.988  73.088  1.00  0.00    -0.530 OA
ENDBRANCH  29  30
ENDBRANCH  22  23
ENDBRANCH  21  22
ENDBRANCH  20  21
ENDBRANCH   1  20
TORSDOF 9
ENDMDL
