MODEL 2
REMARK VINA RESULT: -6.536998375      1.376      1.795
REMARK  9 active torsions:
REMARK  status: ('A' for Active; 'I' for Inactive)
REMARK    1  A    between atoms: C4_6  and  N2_7 
REMARK    2  A    between atoms: N3_10  and  C5_11 
REMARK    3  A    between atoms: C5_11  and  C6_12 
REMARK    4  A    between atoms: C6_12  and  O3_13 
REMARK    5  A    between atoms: O3_13  and  C7_14 
REMARK       I    between atoms: C7_14  and  N4_16 
REMARK    6  A    between atoms: N4_16  and  C8_18 
REMARK    7  A    between atoms: C8_18  and  N5_19 
REMARK    8  A    between atoms: C8_18  and  C13_29 
REMARK    9  A    between atoms: N5_19  and  C9_21 
ROOT
HETATM    1  C7  UNL     1     -29.053  -7.126  73.959  1.00  0.00     0.362 C 
HETATM    2  O4  UNL     1     -29.808  -8.128  74.000  1.00  0.00    -0.238 OA
HETATM    3  N4  UNL     1     -27.727  -7.342  74.482  1.00  0.00    -0.311 N 
ATOM      4  H4  UNL     1     -27.069  -6.563  74.474  1.00  0.00     0.167 HD
ENDROOT
BRANCH   3   5
HETATM    5  C8  UNL     1     -27.287  -8.601  75.012  1.00  0.00     0.258 C 
BRANCH   5   6
HETATM    6  N5  UNL     1     -26.602  -9.438  74.058  1.00  0.00    -0.200 N 
ATOM      7  H5  UNL     1     -25.838 -10.028  74.387  1.00  0.00     0.180 HD
BRANCH   6   8
HETATM    8  C9  UNL     1     -26.944  -9.478  72.685  1.00  0.00     0.679 A 
HETATM    9  N6  UNL     1     -26.191  -8.954  71.727  1.00  0.00    -0.202 N 
HETATM   10  C10 UNL     1     -26.457  -8.958  70.418  1.00  0.00     0.107 A 
ATOM     11  H6  UNL     1     -25.324  -8.503  72.018  1.00  0.00     0.183 HD
HETATM   12  C11 UNL     1     -27.639  -9.574  70.039  1.00  0.00     0.035 A 
HETATM   13  C12 UNL     1     -28.452 -10.132  70.999  1.00  0.00     0.107 A 
HETATM   14  N7  UNL     1     -28.094 -10.074  72.287  1.00  0.00    -0.202 N 
ATOM     15  H7  UNL     1     -28.704 -10.492  72.989  1.00  0.00     0.183 HD
ENDBRANCH   6   8
ENDBRANCH   5   6
BRANCH   5  16
HETATM   16  C13 UNL     1     -26.522  -8.502  76.306  1.00  0.00     0.226 C 
HETATM   17 CL1  UNL     1     -26.199  -6.773  76.687  1.00  0.00    -0.080 Cl
HETATM   18 CL2  UNL     1     -27.466  -9.160  77.660  1.00  0.00    -0.080 Cl
HETATM   19 CL3  UNL     1     -24.951  -9.302  76.269  1.00  0.00    -0.080 Cl
ENDBRANCH   5  16
ENDBRANCH   3   5
BRANCH   1  20
HETATM   20  O3  UNL     1     -29.437  -5.901  73.457  1.00  0.00    -0.302 OA
BRANCH  20  21
HETATM   21  C6  UNL     1     -30.423  -5.130  74.089  1.00  0.00     0.200 C 
BRANCH  21  22
HETATM   22  C5  UNL     1     -31.506  -4.652  73.162  1.00  0.00     0.159 C 
BRANCH  22  23
HETATM   23  N3  UNL     1     -32.732  -4.360  73.844  1.00  0.00    -0.315 N 
HETATM   24  C2  UNL     1     -33.058  -3.147  74.310  1.00  0.00     0.081 A 
HETATM   25  C1  UNL     1     -32.231  -1.931  74.208  1.00  0.00     0.089 C 
HETATM   26  N1  UNL     1     -34.261  -3.235  74.880  1.00  0.00    -0.352 N 
HETATM   27  C3  UNL     1     -34.729  -4.500  74.792  1.00  0.00     0.144 A 
ATOM     28  H1  UNL     1     -34.756  -2.458  75.319  1.00  0.00     0.166 HD
HETATM   29  C4  UNL     1     -33.727  -5.218  74.119  1.00  0.00     0.193 A 
BRANCH  29  30
HETATM   30  N2  UNL     1     -33.820  -6.601  73.818  1.00  0.00    -0.096 N 
HETATM   31  O1  UNL     1     -34.641  -6.986  72.974  1.00  0.00    -0.530 OA
HETATM   32  O2  UNL     1     -33.025  -7.519  74.433  1.00  0.00    -0.530 OA
ENDBRANCH  29  30
ENDBRANCH  22  23
ENDBRANCH  21  22
ENDBRANCH  20  21
ENDBRANCH   1  20
TORSDOF 9
ENDMDL
