MODEL 12
REMARK VINA RESULT: -6.149277005      3.330      5.848
REMARK  9 active torsions:
REMARK  status: ('A' for Active; 'I' for Inactive)
REMARK    1  A    between atoms: C4_6  and  N2_7 
REMARK    2  A    between atoms: N3_10  and  C5_11 
REMARK    3  A    between atoms: C5_11  and  C6_12 
REMARK    4  A    between atoms: C6_12  and  O3_13 
REMARK    5  A    between atoms: O3_13  and  C7_14 
REMARK       I    between atoms: C7_14  and  N4_16 
REMARK    6  A    between atoms: N4_16  and  C8_18 
REMARK    7  A    between atoms: C8_18  and  N5_19 
REMARK    8  A    between atoms: C8_18  and  C13_29 
REMARK    9  A    between atoms: N5_19  and  C9_21 
ROOT
HETATM    1  C7  UNL     1     -26.051  -9.295  75.797  1.00  0.00     0.362 C 
HETATM    2  O4  UNL     1     -26.952 -10.015  76.291  1.00  0.00    -0.238 OA
HETATM    3  N4  UNL     1     -26.363  -8.727  74.509  1.00  0.00    -0.311 N 
ATOM      4  H4  UNL     1     -25.667  -8.133  74.059  1.00  0.00     0.167 HD
ENDROOT
BRANCH   3   5
HETATM    5  C8  UNL     1     -27.606  -8.957  73.830  1.00  0.00     0.258 C 
BRANCH   5   6
HETATM    6  N5  UNL     1     -28.146  -7.791  73.174  1.00  0.00    -0.200 N 
ATOM      7  H5  UNL     1     -27.612  -7.370  72.412  1.00  0.00     0.180 HD
BRANCH   6   8
HETATM    8  C9  UNL     1     -29.381  -7.206  73.538  1.00  0.00     0.679 A 
HETATM    9  N6  UNL     1     -29.580  -5.896  73.606  1.00  0.00    -0.202 N 
HETATM   10  C10 UNL     1     -30.718  -5.282  73.942  1.00  0.00     0.107 A 
ATOM     11  H6  UNL     1     -28.786  -5.298  73.378  1.00  0.00     0.183 HD
HETATM   12  C11 UNL     1     -31.787  -6.109  74.248  1.00  0.00     0.035 A 
HETATM   13  C12 UNL     1     -31.627  -7.475  74.192  1.00  0.00     0.107 A 
HETATM   14  N7  UNL     1     -30.444  -7.991  73.842  1.00  0.00    -0.202 N 
ATOM     15  H7  UNL     1     -30.337  -9.004  73.803  1.00  0.00     0.183 HD
ENDBRANCH   6   8
ENDBRANCH   5   6
BRANCH   5  16
HETATM   16  C13 UNL     1     -27.607 -10.154  72.916  1.00  0.00     0.226 C 
HETATM   17 CL1  UNL     1     -25.915 -10.687  72.614  1.00  0.00    -0.080 Cl
HETATM   18 CL2  UNL     1     -28.455 -11.527  73.660  1.00  0.00    -0.080 Cl
HETATM   19 CL3  UNL     1     -28.316  -9.840  71.332  1.00  0.00    -0.080 Cl
ENDBRANCH   5  16
ENDBRANCH   3   5
BRANCH   1  20
HETATM   20  O3  UNL     1     -24.844  -9.050  76.418  1.00  0.00    -0.302 OA
BRANCH  20  21
HETATM   21  C6  UNL     1     -24.782  -8.411  77.664  1.00  0.00     0.200 C 
BRANCH  21  22
HETATM   22  C5  UNL     1     -24.710  -6.911  77.573  1.00  0.00     0.159 C 
BRANCH  22  23
HETATM   23  N3  UNL     1     -25.778  -6.261  78.273  1.00  0.00    -0.315 N 
HETATM   24  C2  UNL     1     -25.688  -5.824  79.535  1.00  0.00     0.081 A 
HETATM   25  C1  UNL     1     -24.503  -5.935  80.406  1.00  0.00     0.089 C 
HETATM   26  N1  UNL     1     -26.856  -5.270  79.864  1.00  0.00    -0.352 N 
HETATM   27  C3  UNL     1     -27.716  -5.340  78.824  1.00  0.00     0.144 A 
ATOM     28  H1  UNL     1     -27.069  -4.853  80.770  1.00  0.00     0.166 HD
HETATM   29  C4  UNL     1     -27.003  -5.986  77.799  1.00  0.00     0.193 A 
BRANCH  29  30
HETATM   30  N2  UNL     1     -27.548  -6.264  76.519  1.00  0.00    -0.096 N 
HETATM   31  O1  UNL     1     -28.532  -7.011  76.426  1.00  0.00    -0.530 OA
HETATM   32  O2  UNL     1     -27.017  -5.726  75.387  1.00  0.00    -0.530 OA
ENDBRANCH  29  30
ENDBRANCH  22  23
ENDBRANCH  21  22
ENDBRANCH  20  21
ENDBRANCH   1  20
TORSDOF 9
ENDMDL
