MODEL 4
REMARK VINA RESULT: -6.281227306      2.555      3.964
REMARK  9 active torsions:
REMARK  status: ('A' for Active; 'I' for Inactive)
REMARK    1  A    between atoms: C4_6  and  N2_7 
REMARK    2  A    between atoms: N3_10  and  C5_11 
REMARK    3  A    between atoms: C5_11  and  C6_12 
REMARK    4  A    between atoms: C6_12  and  O3_13 
REMARK    5  A    between atoms: O3_13  and  C7_14 
REMARK       I    between atoms: C7_14  and  N4_16 
REMARK    6  A    between atoms: N4_16  and  C8_18 
REMARK    7  A    between atoms: C8_18  and  N5_19 
REMARK    8  A    between atoms: C8_18  and  C13_29 
REMARK    9  A    between atoms: N5_19  and  C9_21 
ROOT
HETATM    1  C7  UNL     1     -29.551  -6.707  73.524  1.00  0.00     0.362 C 
HETATM    2  O4  UNL     1     -28.552  -6.068  73.937  1.00  0.00    -0.238 OA
HETATM    3  N4  UNL     1     -29.277  -8.059  73.103  1.00  0.00    -0.311 N 
ATOM      4  H4  UNL     1     -30.052  -8.626  72.757  1.00  0.00     0.167 HD
ENDROOT
BRANCH   3   5
HETATM    5  C8  UNL     1     -27.968  -8.645  73.147  1.00  0.00     0.258 C 
BRANCH   5   6
HETATM    6  N5  UNL     1     -27.616  -9.210  74.427  1.00  0.00    -0.200 N 
ATOM      7  H5  UNL     1     -28.130 -10.027  74.758  1.00  0.00     0.180 HD
BRANCH   6   8
HETATM    8  C9  UNL     1     -26.589  -8.681  75.244  1.00  0.00     0.679 A 
HETATM    9  N6  UNL     1     -25.711  -9.432  75.895  1.00  0.00    -0.202 N 
HETATM   10  C10 UNL     1     -24.721  -8.997  76.680  1.00  0.00     0.107 A 
ATOM     11  H6  UNL     1     -25.799 -10.442  75.786  1.00  0.00     0.183 HD
HETATM   12  C11 UNL     1     -24.615  -7.622  76.818  1.00  0.00     0.035 A 
HETATM   13  C12 UNL     1     -25.505  -6.803  76.161  1.00  0.00     0.107 A 
HETATM   14  N7  UNL     1     -26.462  -7.340  75.396  1.00  0.00    -0.202 N 
ATOM     15  H7  UNL     1     -27.115  -6.723  74.914  1.00  0.00     0.183 HD
ENDBRANCH   6   8
ENDBRANCH   5   6
BRANCH   5  16
HETATM   16  C13 UNL     1     -27.674  -9.604  72.023  1.00  0.00     0.226 C 
HETATM   17 CL1  UNL     1     -26.746 -11.010  72.653  1.00  0.00    -0.080 Cl
HETATM   18 CL2  UNL     1     -29.175 -10.248  71.322  1.00  0.00    -0.080 Cl
HETATM   19 CL3  UNL     1     -26.698  -8.907  70.729  1.00  0.00    -0.080 Cl
ENDBRANCH   5  16
ENDBRANCH   3   5
BRANCH   1  20
HETATM   20  O3  UNL     1     -30.824  -6.180  73.467  1.00  0.00    -0.302 OA
BRANCH  20  21
HETATM   21  C6  UNL     1     -31.045  -4.798  73.546  1.00  0.00     0.200 C 
BRANCH  21  22
HETATM   22  C5  UNL     1     -32.418  -4.377  73.097  1.00  0.00     0.159 C 
BRANCH  22  23
HETATM   23  N3  UNL     1     -33.374  -4.376  74.164  1.00  0.00    -0.315 N 
HETATM   24  C2  UNL     1     -33.658  -3.303  74.913  1.00  0.00     0.081 A 
HETATM   25  C1  UNL     1     -33.048  -1.968  74.776  1.00  0.00     0.089 C 
HETATM   26  N1  UNL     1     -34.589  -3.654  75.801  1.00  0.00    -0.352 N 
HETATM   27  C3  UNL     1     -34.920  -4.955  75.642  1.00  0.00     0.144 A 
ATOM     28  H1  UNL     1     -34.993  -3.030  76.501  1.00  0.00     0.166 HD
HETATM   29  C4  UNL     1     -34.125  -5.410  74.577  1.00  0.00     0.193 A 
BRANCH  29  30
HETATM   30  N2  UNL     1     -34.161  -6.739  74.082  1.00  0.00    -0.096 N 
HETATM   31  O1  UNL     1     -33.571  -7.635  74.702  1.00  0.00    -0.530 OA
HETATM   32  O2  UNL     1     -34.834  -7.056  72.942  1.00  0.00    -0.530 OA
ENDBRANCH  29  30
ENDBRANCH  22  23
ENDBRANCH  21  22
ENDBRANCH  20  21
ENDBRANCH   1  20
TORSDOF 9
ENDMDL
