MODEL 1
REMARK VINA RESULT: -5.558464489      0.000      0.000
REMARK  1 active torsions:
REMARK  status: ('A' for Active; 'I' for Inactive)
REMARK    1  A    between atoms: C8_14  and  N4_15 
ROOT
HETATM    1  C1  UNL     1     -29.239 -28.570   4.232  1.00  0.00     0.089 C 
HETATM    2  C2  UNL     1     -27.778 -28.343   4.258  1.00  0.00     0.078 A 
HETATM    3  N1  UNL     1     -27.103 -28.516   5.399  1.00  0.00    -0.355 N 
ATOM      4  H1  UNL     1     -27.635 -28.802   6.221  1.00  0.00     0.166 HD
HETATM    5  C3  UNL     1     -25.809 -28.347   5.548  1.00  0.00     0.100 A 
HETATM    6  C4  UNL     1     -25.040 -27.954   4.440  1.00  0.00     0.007 A 
HETATM    7  C5  UNL     1     -25.695 -27.773   3.281  1.00  0.00     0.119 A 
HETATM    8  N2  UNL     1     -27.045 -27.968   3.201  1.00  0.00    -0.332 N 
ATOM      9  H2  UNL     1     -27.512 -27.824   2.306  1.00  0.00     0.168 HD
HETATM   10  N3  UNL     1     -24.945 -27.374   2.137  1.00  0.00    -0.303 N 
HETATM   11  C6  UNL     1     -25.625 -27.174   0.880  1.00  0.00     0.161 C 
HETATM   12  C7  UNL     1     -23.550 -27.176   2.234  1.00  0.00     0.271 A 
HETATM   13  O1  UNL     1     -22.841 -26.820   1.242  1.00  0.00    -0.266 OA
HETATM   14  C8  UNL     1     -22.866 -27.375   3.491  1.00  0.00     0.076 A 
HETATM   15  C9  UNL     1     -23.601 -27.783   4.679  1.00  0.00     0.106 A 
ENDROOT
BRANCH  14  16
HETATM   16  N4  UNL     1     -21.546 -27.179   3.544  1.00  0.00    -0.398 N 
ATOM     17  H42 UNL     1     -21.152 -26.257   3.359  1.00  0.00     0.156 HD
ATOM     18  H41 UNL     1     -20.941 -27.968   3.774  1.00  0.00     0.156 HD
ENDBRANCH  14  16
TORSDOF 1
ENDMDL
