MODEL 7
REMARK VINA RESULT: -4.946749299      2.317      5.028
REMARK  1 active torsions:
REMARK  status: ('A' for Active; 'I' for Inactive)
REMARK    1  A    between atoms: C8_14  and  N4_15 
ROOT
HETATM    1  C1  UNL     1     -21.606 -27.469   4.186  1.00  0.00     0.089 C 
HETATM    2  C2  UNL     1     -22.954 -27.520   3.581  1.00  0.00     0.078 A 
HETATM    3  N1  UNL     1     -23.101 -27.273   2.275  1.00  0.00    -0.355 N 
ATOM      4  H1  UNL     1     -22.260 -27.055   1.741  1.00  0.00     0.166 HD
HETATM    5  C3  UNL     1     -24.241 -27.288   1.624  1.00  0.00     0.100 A 
HETATM    6  C4  UNL     1     -25.423 -27.584   2.324  1.00  0.00     0.007 A 
HETATM    7  C5  UNL     1     -25.303 -27.836   3.638  1.00  0.00     0.119 A 
HETATM    8  N2  UNL     1     -24.080 -27.802   4.249  1.00  0.00    -0.332 N 
ATOM      9  H2  UNL     1     -24.023 -28.000   5.247  1.00  0.00     0.168 HD
HETATM   10  N3  UNL     1     -26.481 -28.141   4.379  1.00  0.00    -0.303 N 
HETATM   11  C6  UNL     1     -26.378 -28.416   5.791  1.00  0.00     0.161 C 
HETATM   12  C7  UNL     1     -27.738 -28.173   3.734  1.00  0.00     0.271 A 
HETATM   13  O1  UNL     1     -28.815 -28.438   4.352  1.00  0.00    -0.266 OA
HETATM   14  C8  UNL     1     -27.844 -27.897   2.319  1.00  0.00     0.076 A 
HETATM   15  C9  UNL     1     -26.662 -27.583   1.533  1.00  0.00     0.106 A 
ENDROOT
BRANCH  14  16
HETATM   16  N4  UNL     1     -29.050 -27.937   1.744  1.00  0.00    -0.398 N 
ATOM     17  H42 UNL     1     -29.482 -27.084   1.390  1.00  0.00     0.156 HD
ATOM     18  H41 UNL     1     -29.528 -28.835   1.667  1.00  0.00     0.156 HD
ENDBRANCH  14  16
TORSDOF 1
ENDMDL
