MODEL 4
REMARK VINA RESULT: -5.004390561      1.720      3.153
REMARK  1 active torsions:
REMARK  status: ('A' for Active; 'I' for Inactive)
REMARK    1  A    between atoms: C8_14  and  N4_15 
ROOT
HETATM    1  C1  UNL     1     -30.912 -28.910   4.589  1.00  0.00     0.089 C 
HETATM    2  C2  UNL     1     -29.657 -28.562   3.888  1.00  0.00     0.078 A 
HETATM    3  N1  UNL     1     -29.683 -28.303   2.577  1.00  0.00    -0.355 N 
ATOM      4  H1  UNL     1     -30.586 -28.357   2.106  1.00  0.00     0.166 HD
HETATM    5  C3  UNL     1     -28.639 -27.983   1.847  1.00  0.00     0.100 A 
HETATM    6  C4  UNL     1     -27.378 -27.898   2.459  1.00  0.00     0.007 A 
HETATM    7  C5  UNL     1     -27.324 -28.154   3.777  1.00  0.00     0.119 A 
HETATM    8  N2  UNL     1     -28.454 -28.481   4.473  1.00  0.00    -0.332 N 
ATOM      9  H2  UNL     1     -28.380 -28.669   5.472  1.00  0.00     0.168 HD
HETATM   10  N3  UNL     1     -26.060 -28.076   4.430  1.00  0.00    -0.303 N 
HETATM   11  C6  UNL     1     -25.977 -28.347   5.844  1.00  0.00     0.161 C 
HETATM   12  C7  UNL     1     -24.901 -27.737   3.697  1.00  0.00     0.271 A 
HETATM   13  O1  UNL     1     -23.753 -27.656   4.235  1.00  0.00    -0.266 OA
HETATM   14  C8  UNL     1     -24.981 -27.466   2.280  1.00  0.00     0.076 A 
HETATM   15  C9  UNL     1     -26.255 -27.536   1.582  1.00  0.00     0.106 A 
ENDROOT
BRANCH  14  16
HETATM   16  N4  UNL     1     -23.863 -27.148   1.621  1.00  0.00    -0.398 N 
ATOM     17  H42 UNL     1     -22.990 -27.636   1.817  1.00  0.00     0.156 HD
ATOM     18  H41 UNL     1     -23.901 -26.409   0.918  1.00  0.00     0.156 HD
ENDBRANCH  14  16
TORSDOF 1
ENDMDL
