MODEL 3
REMARK VINA RESULT: -5.426212704      4.875      6.492
REMARK  1 active torsions:
REMARK  status: ('A' for Active; 'I' for Inactive)
REMARK    1  A    between atoms: C8_14  and  N4_15 
ROOT
HETATM    1  C1  UNL     1     -20.968 -27.934   0.932  1.00  0.00     0.089 C 
HETATM    2  C2  UNL     1     -21.068 -28.672   2.209  1.00  0.00     0.078 A 
HETATM    3  N1  UNL     1     -21.542 -28.052   3.294  1.00  0.00    -0.355 N 
ATOM      4  H1  UNL     1     -21.820 -27.076   3.194  1.00  0.00     0.166 HD
HETATM    5  C3  UNL     1     -21.679 -28.599   4.480  1.00  0.00     0.100 A 
HETATM    6  C4  UNL     1     -21.309 -29.942   4.660  1.00  0.00     0.007 A 
HETATM    7  C5  UNL     1     -20.829 -30.588   3.584  1.00  0.00     0.119 A 
HETATM    8  N2  UNL     1     -20.715 -29.953   2.379  1.00  0.00    -0.332 N 
ATOM      9  H2  UNL     1     -20.348 -30.472   1.582  1.00  0.00     0.168 HD
HETATM   10  N3  UNL     1     -20.444 -31.952   3.730  1.00  0.00    -0.303 N 
HETATM   11  C6  UNL     1     -19.926 -32.668   2.590  1.00  0.00     0.161 C 
HETATM   12  C7  UNL     1     -20.568 -32.596   4.982  1.00  0.00     0.271 A 
HETATM   13  O1  UNL     1     -20.236 -33.809   5.161  1.00  0.00    -0.266 OA
HETATM   14  C8  UNL     1     -21.085 -31.881   6.126  1.00  0.00     0.076 A 
HETATM   15  C9  UNL     1     -21.488 -30.489   6.012  1.00  0.00     0.106 A 
ENDROOT
BRANCH  14  16
HETATM   16  N4  UNL     1     -21.188 -32.524   7.294  1.00  0.00    -0.398 N 
ATOM     17  H42 UNL     1     -21.630 -33.442   7.342  1.00  0.00     0.156 HD
ATOM     18  H41 UNL     1     -20.816 -32.079   8.133  1.00  0.00     0.156 HD
ENDBRANCH  14  16
TORSDOF 1
ENDMDL
