MODEL 9
REMARK VINA RESULT: -6.945216369      2.953      4.341
REMARK  0 active torsions:
REMARK  status: ('A' for Active; 'I' for Inactive)
ROOT
HETATM    1  N1  UNL     1      27.830  21.904  -3.294  1.00  0.00    -0.389 N 
ATOM      2  H11 UNL     1      27.560  21.411  -2.442  1.00  0.00     0.157 HD
ATOM      3  H12 UNL     1      27.993  21.413  -4.173  1.00  0.00     0.157 HD
HETATM    4  C1  UNL     1      27.978  23.178  -3.301  1.00  0.00     0.081 A 
HETATM    5  C2  UNL     1      28.362  23.882  -4.516  1.00  0.00     0.115 A 
HETATM    6  C3  UNL     1      28.486  25.346  -4.348  1.00  0.00    -0.035 A 
HETATM    7  C4  UNL     1      28.848  26.080  -5.458  1.00  0.00     0.008 A 
HETATM    8  C5  UNL     1      28.994  27.455  -5.414  1.00  0.00     0.001 A 
HETATM    9  C6  UNL     1      28.767  28.084  -4.217  1.00  0.00     0.001 A 
HETATM   10  C7  UNL     1      28.405  27.392  -3.081  1.00  0.00     0.017 A 
HETATM   11  C8  UNL     1      28.271  26.015  -3.176  1.00  0.00     0.039 A 
HETATM   12  C9  UNL     1      27.887  25.283  -1.979  1.00  0.00     0.257 A 
HETATM   13  O1  UNL     1      27.694  25.903  -0.920  1.00  0.00    -0.267 OA
HETATM   14  N2  UNL     1      27.748  23.868  -2.067  1.00  0.00    -0.312 N 
ATOM     15  H2  UNL     1      27.480  23.338  -1.237  1.00  0.00     0.170 HD
ENDROOT
TORSDOF 0
ENDMDL
