MODEL 17
REMARK VINA RESULT: -5.765806968      5.654      6.570
REMARK  0 active torsions:
REMARK  status: ('A' for Active; 'I' for Inactive)
ROOT
HETATM    1  N1  UNL     1      26.063  30.554 -10.053  1.00  0.00    -0.389 N 
ATOM      2  H11 UNL     1      25.234  30.697 -10.631  1.00  0.00     0.157 HD
ATOM      3  H12 UNL     1      26.878  30.044 -10.394  1.00  0.00     0.157 HD
HETATM    4  C1  UNL     1      26.121  31.013  -8.856  1.00  0.00     0.081 A 
HETATM    5  C2  UNL     1      27.303  30.809  -8.031  1.00  0.00     0.115 A 
HETATM    6  C3  UNL     1      27.202  31.403  -6.680  1.00  0.00    -0.035 A 
HETATM    7  C4  UNL     1      28.285  31.250  -5.841  1.00  0.00     0.008 A 
HETATM    8  C5  UNL     1      28.299  31.765  -4.557  1.00  0.00     0.001 A 
HETATM    9  C6  UNL     1      27.188  32.444  -4.130  1.00  0.00     0.001 A 
HETATM   10  C7  UNL     1      26.081  32.622  -4.932  1.00  0.00     0.017 A 
HETATM   11  C8  UNL     1      26.116  32.088  -6.211  1.00  0.00     0.039 A 
HETATM   12  C9  UNL     1      24.951  32.275  -7.061  1.00  0.00     0.257 A 
HETATM   13  O1  UNL     1      23.969  32.899  -6.622  1.00  0.00    -0.267 OA
HETATM   14  N2  UNL     1      24.976  31.729  -8.376  1.00  0.00    -0.312 N 
ATOM     15  H2  UNL     1      24.168  31.849  -8.986  1.00  0.00     0.170 HD
ENDROOT
TORSDOF 0
ENDMDL
