MODEL 3
REMARK VINA RESULT: -7.208459239      1.623      2.848
REMARK  0 active torsions:
REMARK  status: ('A' for Active; 'I' for Inactive)
ROOT
HETATM    1  N1  UNL     1      28.221  29.053   0.001  1.00  0.00    -0.389 N 
ATOM      2  H11 UNL     1      28.335  30.027   0.282  1.00  0.00     0.157 HD
ATOM      3  H12 UNL     1      27.975  28.323   0.670  1.00  0.00     0.157 HD
HETATM    4  C1  UNL     1      28.382  28.695  -1.221  1.00  0.00     0.081 A 
HETATM    5  C2  UNL     1      28.219  27.305  -1.622  1.00  0.00     0.115 A 
HETATM    6  C3  UNL     1      28.440  27.068  -3.066  1.00  0.00    -0.035 A 
HETATM    7  C4  UNL     1      28.302  25.773  -3.520  1.00  0.00     0.008 A 
HETATM    8  C5  UNL     1      28.486  25.438  -4.850  1.00  0.00     0.001 A 
HETATM    9  C6  UNL     1      28.816  26.443  -5.722  1.00  0.00     0.001 A 
HETATM   10  C7  UNL     1      28.965  27.751  -5.314  1.00  0.00     0.017 A 
HETATM   11  C8  UNL     1      28.770  28.037  -3.972  1.00  0.00     0.039 A 
HETATM   12  C9  UNL     1      28.925  29.416  -3.538  1.00  0.00     0.257 A 
HETATM   13  O1  UNL     1      29.226  30.288  -4.372  1.00  0.00    -0.267 OA
HETATM   14  N2  UNL     1      28.727  29.720  -2.160  1.00  0.00    -0.312 N 
ATOM     15  H2  UNL     1      28.833  30.682  -1.838  1.00  0.00     0.170 HD
ENDROOT
TORSDOF 0
ENDMDL
