MODEL 16
REMARK VINA RESULT: -5.853410613      5.974      7.077
REMARK  0 active torsions:
REMARK  status: ('A' for Active; 'I' for Inactive)
ROOT
HETATM    1  N1  UNL     1      23.830  34.589  -4.714  1.00  0.00    -0.389 N 
ATOM      2  H11 UNL     1      22.937  35.010  -4.969  1.00  0.00     0.157 HD
ATOM      3  H12 UNL     1      24.294  34.801  -3.831  1.00  0.00     0.157 HD
HETATM    4  C1  UNL     1      24.420  33.763  -5.500  1.00  0.00     0.081 A 
HETATM    5  C2  UNL     1      25.695  33.162  -5.136  1.00  0.00     0.115 A 
HETATM    6  C3  UNL     1      26.233  32.234  -6.154  1.00  0.00    -0.035 A 
HETATM    7  C4  UNL     1      27.440  31.626  -5.879  1.00  0.00     0.008 A 
HETATM    8  C5  UNL     1      28.035  30.741  -6.760  1.00  0.00     0.001 A 
HETATM    9  C6  UNL     1      27.385  30.478  -7.938  1.00  0.00     0.001 A 
HETATM   10  C7  UNL     1      26.178  31.063  -8.257  1.00  0.00     0.017 A 
HETATM   11  C8  UNL     1      25.621  31.942  -7.341  1.00  0.00     0.039 A 
HETATM   12  C9  UNL     1      24.348  32.560  -7.675  1.00  0.00     0.257 A 
HETATM   13  O1  UNL     1      23.802  32.286  -8.758  1.00  0.00    -0.267 OA
HETATM   14  N2  UNL     1      23.768  33.465  -6.741  1.00  0.00    -0.312 N 
ATOM     15  H2  UNL     1      22.876  33.908  -6.958  1.00  0.00     0.170 HD
ENDROOT
TORSDOF 0
ENDMDL
