MODEL 18
REMARK VINA RESULT: -5.584833347      2.127      3.179
REMARK  0 active torsions:
REMARK  status: ('A' for Active; 'I' for Inactive)
ROOT
HETATM    1  N1  UNL     1      28.716  32.105  -1.297  1.00  0.00    -0.389 N 
ATOM      2  H11 UNL     1      28.853  33.079  -1.567  1.00  0.00     0.157 HD
ATOM      3  H12 UNL     1      28.549  31.832  -0.328  1.00  0.00     0.157 HD
HETATM    4  C1  UNL     1      28.745  31.166  -2.171  1.00  0.00     0.081 A 
HETATM    5  C2  UNL     1      28.549  29.776  -1.785  1.00  0.00     0.115 A 
HETATM    6  C3  UNL     1      28.613  28.824  -2.916  1.00  0.00    -0.035 A 
HETATM    7  C4  UNL     1      28.436  27.487  -2.626  1.00  0.00     0.008 A 
HETATM    8  C5  UNL     1      28.476  26.512  -3.607  1.00  0.00     0.001 A 
HETATM    9  C6  UNL     1      28.701  26.913  -4.898  1.00  0.00     0.001 A 
HETATM   10  C7  UNL     1      28.885  28.236  -5.235  1.00  0.00     0.017 A 
HETATM   11  C8  UNL     1      28.835  29.177  -4.217  1.00  0.00     0.039 A 
HETATM   12  C9  UNL     1      29.027  30.575  -4.570  1.00  0.00     0.257 A 
HETATM   13  O1  UNL     1      29.229  30.883  -5.757  1.00  0.00    -0.267 OA
HETATM   14  N2  UNL     1      28.979  31.549  -3.531  1.00  0.00    -0.312 N 
ATOM     15  H2  UNL     1      29.112  32.533  -3.760  1.00  0.00     0.170 HD
ENDROOT
TORSDOF 0
ENDMDL
