MODEL 11
REMARK VINA RESULT: -6.502608034      1.727      2.725
REMARK  0 active torsions:
REMARK  status: ('A' for Active; 'I' for Inactive)
ROOT
HETATM    1  N1  UNL     1      28.551  29.720  -1.221  1.00  0.00    -0.389 N 
ATOM      2  H11 UNL     1      28.778  30.646  -1.586  1.00  0.00     0.157 HD
ATOM      3  H12 UNL     1      28.343  29.565  -0.235  1.00  0.00     0.157 HD
HETATM    4  C1  UNL     1      28.515  28.696  -1.994  1.00  0.00     0.081 A 
HETATM    5  C2  UNL     1      28.191  27.376  -1.473  1.00  0.00     0.115 A 
HETATM    6  C3  UNL     1      28.193  26.309  -2.498  1.00  0.00    -0.035 A 
HETATM    7  C4  UNL     1      27.894  25.030  -2.078  1.00  0.00     0.008 A 
HETATM    8  C5  UNL     1      27.868  23.958  -2.952  1.00  0.00     0.001 A 
HETATM    9  C6  UNL     1      28.152  24.201  -4.271  1.00  0.00     0.001 A 
HETATM   10  C7  UNL     1      28.457  25.461  -4.736  1.00  0.00     0.017 A 
HETATM   11  C8  UNL     1      28.470  26.504  -3.822  1.00  0.00     0.039 A 
HETATM   12  C9  UNL     1      28.790  27.836  -4.311  1.00  0.00     0.257 A 
HETATM   13  O1  UNL     1      29.041  28.000  -5.517  1.00  0.00    -0.267 OA
HETATM   14  N2  UNL     1      28.807  28.913  -3.379  1.00  0.00    -0.312 N 
ATOM     15  H2  UNL     1      29.030  29.854  -3.704  1.00  0.00     0.170 HD
ENDROOT
TORSDOF 0
ENDMDL
