MODEL 2
REMARK VINA RESULT: -7.814863390      3.684      6.565
REMARK  4 active torsions:
REMARK  status: ('A' for Active; 'I' for Inactive)
REMARK    1  A    between atoms: C4_9  and  C5_10 
REMARK       I    between atoms: C5_10  and  N4_12 
REMARK    2  A    between atoms: N4_12  and  C6_14 
REMARK    3  A    between atoms: C10_20  and  N6_21 
REMARK    4  A    between atoms: C14_25  and  N7_26 
ROOT
HETATM    1  C6  UNL     1     -15.079  35.323  -5.321  1.00  0.00     0.077 A 
HETATM    2  C7  UNL     1     -13.879  34.785  -4.951  1.00  0.00     0.119 A 
HETATM    3  N5  UNL     1     -13.621  34.296  -3.699  1.00  0.00    -0.373 N 
ATOM      4  H5  UNL     1     -12.701  33.907  -3.492  1.00  0.00     0.164 HD
HETATM    5  C8  UNL     1     -14.557  34.320  -2.741  1.00  0.00     0.090 A 
HETATM    6  C9  UNL     1     -15.773  34.850  -3.068  1.00  0.00     0.048 A 
HETATM    7  C10 UNL     1     -16.067  35.354  -4.329  1.00  0.00     0.060 A 
ENDROOT
BRANCH   1   8
HETATM    8  N4  UNL     1     -15.422  35.869  -6.572  1.00  0.00    -0.319 N 
HETATM    9  C5  UNL     1     -15.798  35.160  -7.740  1.00  0.00     0.276 C 
HETATM   10  O1  UNL     1     -15.848  33.907  -7.714  1.00  0.00    -0.266 OA
ATOM     11  H4  UNL     1     -15.398  36.886  -6.647  1.00  0.00     0.169 HD
BRANCH   9  12
HETATM   12  C4  UNL     1     -16.135  35.844  -8.996  1.00  0.00     0.142 A 
HETATM   13  C1  UNL     1     -17.298  36.547  -9.173  1.00  0.00     0.148 A 
HETATM   14  N1  UNL     1     -18.228  36.629  -8.114  1.00  0.00    -0.080 NA
HETATM   15  N2  UNL     1     -17.521  37.148 -10.378  1.00  0.00    -0.351 N 
HETATM   16  C2  UNL     1     -16.617  37.058 -11.382  1.00  0.00     0.106 A 
ATOM     17  H2  UNL     1     -18.383  37.673 -10.524  1.00  0.00     0.166 HD
HETATM   18  C3  UNL     1     -15.450  36.351 -11.196  1.00  0.00     0.105 A 
HETATM   19  N3  UNL     1     -15.260  35.771 -10.000  1.00  0.00    -0.357 N 
ATOM     20  H3  UNL     1     -14.399  35.245  -9.851  1.00  0.00     0.165 HD
ENDBRANCH   9  12
ENDBRANCH   1   8
BRANCH   7  21
HETATM   21  N6  UNL     1     -17.355  35.871  -4.615  1.00  0.00    -0.377 N 
HETATM   22  C11 UNL     1     -18.412  34.958  -4.969  1.00  0.00     0.123 C 
HETATM   23  C12 UNL     1     -19.457  35.149  -3.844  1.00  0.00     0.022 C 
HETATM   24  C13 UNL     1     -19.979  36.547  -4.046  1.00  0.00     0.036 C 
HETATM   25  C14 UNL     1     -18.927  37.619  -3.901  1.00  0.00     0.201 C 
HETATM   26  C15 UNL     1     -17.613  37.262  -4.544  1.00  0.00     0.155 C 
BRANCH  25  27
HETATM   27  N7  UNL     1     -19.437  38.890  -4.367  1.00  0.00    -0.073 N 
ATOM     28  H73 UNL     1     -18.686  39.531  -4.622  1.00  0.00     0.274 HD
ATOM     29  H72 UNL     1     -19.884  38.809  -5.280  1.00  0.00     0.274 HD
ATOM     30  H71 UNL     1     -20.064  39.297  -3.672  1.00  0.00     0.274 HD
ENDBRANCH  25  27
ENDBRANCH   7  21
TORSDOF 4
ENDMDL
