MODEL 5
REMARK VINA RESULT: -7.481422612      1.841      4.932
REMARK  4 active torsions:
REMARK  status: ('A' for Active; 'I' for Inactive)
REMARK    1  A    between atoms: C4_9  and  C5_10 
REMARK       I    between atoms: C5_10  and  N4_12 
REMARK    2  A    between atoms: N4_12  and  C6_14 
REMARK    3  A    between atoms: C10_20  and  N6_21 
REMARK    4  A    between atoms: C14_25  and  N7_26 
ROOT
HETATM    1  C6  UNL     1     -20.180  38.681  -2.571  1.00  0.00     0.077 A 
HETATM    2  C7  UNL     1     -21.192  39.598  -2.549  1.00  0.00     0.119 A 
HETATM    3  N5  UNL     1     -21.893  39.982  -3.660  1.00  0.00    -0.373 N 
ATOM      4  H5  UNL     1     -22.639  40.672  -3.570  1.00  0.00     0.164 HD
HETATM    5  C8  UNL     1     -21.617  39.465  -4.864  1.00  0.00     0.090 A 
HETATM    6  C9  UNL     1     -20.611  38.543  -4.932  1.00  0.00     0.048 A 
HETATM    7  C10 UNL     1     -19.881  38.132  -3.824  1.00  0.00     0.060 A 
ENDROOT
BRANCH   1   8
HETATM    8  N4  UNL     1     -19.394  38.249  -1.486  1.00  0.00    -0.319 N 
HETATM    9  C5  UNL     1     -19.737  37.274  -0.517  1.00  0.00     0.276 C 
HETATM   10  O1  UNL     1     -20.850  36.700  -0.584  1.00  0.00    -0.266 OA
ATOM     11  H4  UNL     1     -18.477  38.685  -1.387  1.00  0.00     0.169 HD
BRANCH   9  12
HETATM   12  C4  UNL     1     -18.827  36.904   0.576  1.00  0.00     0.142 A 
HETATM   13  C1  UNL     1     -18.843  37.521   1.799  1.00  0.00     0.148 A 
HETATM   14  N1  UNL     1     -19.766  38.561   2.042  1.00  0.00    -0.080 NA
HETATM   15  N2  UNL     1     -17.956  37.106   2.751  1.00  0.00    -0.351 N 
HETATM   16  C2  UNL     1     -17.078  36.107   2.500  1.00  0.00     0.106 A 
ATOM     17  H2  UNL     1     -17.956  37.557   3.666  1.00  0.00     0.166 HD
HETATM   18  C3  UNL     1     -17.069  35.491   1.268  1.00  0.00     0.105 A 
HETATM   19  N3  UNL     1     -17.953  35.922   0.353  1.00  0.00    -0.357 N 
ATOM     20  H3  UNL     1     -17.956  35.473  -0.562  1.00  0.00     0.165 HD
ENDBRANCH   9  12
ENDBRANCH   1   8
BRANCH   7  21
HETATM   21  N6  UNL     1     -18.863  37.155  -3.954  1.00  0.00    -0.377 N 
HETATM   22  C11 UNL     1     -19.171  35.780  -3.652  1.00  0.00     0.123 C 
HETATM   23  C12 UNL     1     -18.943  35.047  -4.997  1.00  0.00     0.022 C 
HETATM   24  C13 UNL     1     -17.458  35.139  -5.228  1.00  0.00     0.036 C 
HETATM   25  C14 UNL     1     -16.946  36.551  -5.368  1.00  0.00     0.201 C 
HETATM   26  C15 UNL     1     -17.562  37.512  -4.386  1.00  0.00     0.155 C 
BRANCH  25  27
HETATM   27  N7  UNL     1     -15.501  36.569  -5.320  1.00  0.00    -0.073 N 
ATOM     28  H73 UNL     1     -15.153  36.619  -4.362  1.00  0.00     0.274 HD
ATOM     29  H72 UNL     1     -15.101  35.669  -5.581  1.00  0.00     0.274 HD
ATOM     30  H71 UNL     1     -15.136  37.328  -5.897  1.00  0.00     0.274 HD
ENDBRANCH  25  27
ENDBRANCH   7  21
TORSDOF 4
ENDMDL
