MODEL 4
REMARK VINA RESULT: -7.499646789      2.629      4.150
REMARK  4 active torsions:
REMARK  status: ('A' for Active; 'I' for Inactive)
REMARK    1  A    between atoms: C4_9  and  C5_10 
REMARK       I    between atoms: C5_10  and  N4_12 
REMARK    2  A    between atoms: N4_12  and  C6_14 
REMARK    3  A    between atoms: C10_20  and  N6_21 
REMARK    4  A    between atoms: C14_25  and  N7_26 
ROOT
HETATM    1  C6  UNL     1     -20.180  38.147  -2.490  1.00  0.00     0.077 A 
HETATM    2  C7  UNL     1     -20.880  38.779  -1.502  1.00  0.00     0.119 A 
HETATM    3  N5  UNL     1     -20.686  38.547  -0.167  1.00  0.00    -0.373 N 
ATOM      4  H5  UNL     1     -21.245  39.055   0.518  1.00  0.00     0.164 HD
HETATM    5  C8  UNL     1     -19.773  37.662   0.255  1.00  0.00     0.090 A 
HETATM    6  C9  UNL     1     -19.049  37.007  -0.701  1.00  0.00     0.048 A 
HETATM    7  C10 UNL     1     -19.222  37.220  -2.063  1.00  0.00     0.060 A 
ENDROOT
BRANCH   1   8
HETATM    8  N4  UNL     1     -20.331  38.306  -3.881  1.00  0.00    -0.319 N 
HETATM    9  C5  UNL     1     -21.351  39.024  -4.553  1.00  0.00     0.276 C 
HETATM   10  O1  UNL     1     -22.242  39.602  -3.887  1.00  0.00    -0.266 OA
ATOM     11  H4  UNL     1     -19.630  37.855  -4.469  1.00  0.00     0.169 HD
BRANCH   9  12
HETATM   12  C4  UNL     1     -21.404  39.119  -6.018  1.00  0.00     0.142 A 
HETATM   13  C1  UNL     1     -20.657  40.015  -6.735  1.00  0.00     0.148 A 
HETATM   14  N1  UNL     1     -19.789  40.897  -6.055  1.00  0.00    -0.080 NA
HETATM   15  N2  UNL     1     -20.777  40.027  -8.095  1.00  0.00    -0.351 N 
HETATM   16  C2  UNL     1     -21.614  39.172  -8.729  1.00  0.00     0.106 A 
ATOM     17  H2  UNL     1     -20.228  40.689  -8.641  1.00  0.00     0.166 HD
HETATM   18  C3  UNL     1     -22.362  38.273  -8.002  1.00  0.00     0.105 A 
HETATM   19  N3  UNL     1     -22.222  38.287  -6.667  1.00  0.00    -0.357 N 
ATOM     20  H3  UNL     1     -22.770  37.625  -6.118  1.00  0.00     0.165 HD
ENDBRANCH   9  12
ENDBRANCH   1   8
BRANCH   7  21
HETATM   21  N6  UNL     1     -18.425  36.526  -3.007  1.00  0.00    -0.377 N 
HETATM   22  C11 UNL     1     -18.586  35.100  -3.144  1.00  0.00     0.123 C 
HETATM   23  C12 UNL     1     -19.064  34.922  -4.606  1.00  0.00     0.022 C 
HETATM   24  C13 UNL     1     -17.880  35.327  -5.442  1.00  0.00     0.036 C 
HETATM   25  C14 UNL     1     -17.461  36.765  -5.255  1.00  0.00     0.201 C 
HETATM   26  C15 UNL     1     -17.492  37.215  -3.819  1.00  0.00     0.155 C 
BRANCH  25  27
HETATM   27  N7  UNL     1     -16.177  36.999  -5.877  1.00  0.00    -0.073 N 
ATOM     28  H73 UNL     1     -15.685  36.128  -6.075  1.00  0.00     0.274 HD
ATOM     29  H72 UNL     1     -16.274  37.339  -6.833  1.00  0.00     0.274 HD
ATOM     30  H71 UNL     1     -15.615  37.630  -5.304  1.00  0.00     0.274 HD
ENDBRANCH  25  27
ENDBRANCH   7  21
TORSDOF 4
ENDMDL
