MODEL 1
REMARK VINA RESULT: -7.892816806      0.000      0.000
REMARK  4 active torsions:
REMARK  status: ('A' for Active; 'I' for Inactive)
REMARK    1  A    between atoms: C4_9  and  C5_10 
REMARK       I    between atoms: C5_10  and  N4_12 
REMARK    2  A    between atoms: N4_12  and  C6_14 
REMARK    3  A    between atoms: C10_20  and  N6_21 
REMARK    4  A    between atoms: C14_25  and  N7_26 
ROOT
HETATM    1  C6  UNL     1     -18.128  35.583  -0.896  1.00  0.00     0.077 A 
HETATM    2  C7  UNL     1     -17.950  35.327   0.434  1.00  0.00     0.119 A 
HETATM    3  N5  UNL     1     -17.037  34.429   0.918  1.00  0.00    -0.373 N 
ATOM      4  H5  UNL     1     -16.957  34.288   1.925  1.00  0.00     0.164 HD
HETATM    5  C8  UNL     1     -16.247  33.733   0.090  1.00  0.00     0.090 A 
HETATM    6  C9  UNL     1     -16.392  33.958  -1.250  1.00  0.00     0.048 A 
HETATM    7  C10 UNL     1     -17.308  34.863  -1.772  1.00  0.00     0.060 A 
ENDROOT
BRANCH   1   8
HETATM    8  N4  UNL     1     -19.055  36.467  -1.479  1.00  0.00    -0.319 N 
HETATM    9  C5  UNL     1     -19.311  37.809  -1.103  1.00  0.00     0.276 C 
HETATM   10  O1  UNL     1     -18.670  38.318  -0.153  1.00  0.00    -0.266 OA
ATOM     11  H4  UNL     1     -19.603  36.102  -2.259  1.00  0.00     0.169 HD
BRANCH   9  12
HETATM   12  C4  UNL     1     -20.310  38.637  -1.792  1.00  0.00     0.142 A 
HETATM   13  C1  UNL     1     -21.339  39.263  -1.137  1.00  0.00     0.148 A 
HETATM   14  N1  UNL     1     -21.463  39.117   0.261  1.00  0.00    -0.080 NA
HETATM   15  N2  UNL     1     -22.218  40.011  -1.866  1.00  0.00    -0.351 N 
HETATM   16  C2  UNL     1     -22.082  40.139  -3.208  1.00  0.00     0.106 A 
ATOM     17  H2  UNL     1     -22.989  40.481  -1.393  1.00  0.00     0.166 HD
HETATM   18  C3  UNL     1     -21.045  39.508  -3.858  1.00  0.00     0.105 A 
HETATM   19  N3  UNL     1     -20.198  38.779  -3.113  1.00  0.00    -0.357 N 
ATOM     20  H3  UNL     1     -19.425  38.308  -3.584  1.00  0.00     0.165 HD
ENDBRANCH   9  12
ENDBRANCH   1   8
BRANCH   7  21
HETATM   21  N6  UNL     1     -17.397  35.070  -3.171  1.00  0.00    -0.377 N 
HETATM   22  C11 UNL     1     -18.471  34.447  -3.903  1.00  0.00     0.123 C 
HETATM   23  C12 UNL     1     -19.268  35.642  -4.478  1.00  0.00     0.022 C 
HETATM   24  C13 UNL     1     -18.338  36.268  -5.483  1.00  0.00     0.036 C 
HETATM   25  C14 UNL     1     -17.058  36.799  -4.884  1.00  0.00     0.201 C 
HETATM   26  C15 UNL     1     -16.458  35.887  -3.847  1.00  0.00     0.155 C 
BRANCH  25  27
HETATM   27  N7  UNL     1     -16.117  37.137  -5.929  1.00  0.00    -0.073 N 
ATOM     28  H73 UNL     1     -16.486  37.851  -6.557  1.00  0.00     0.274 HD
ATOM     29  H72 UNL     1     -15.316  37.653  -5.566  1.00  0.00     0.274 HD
ATOM     30  H71 UNL     1     -15.831  36.298  -6.434  1.00  0.00     0.274 HD
ENDBRANCH  25  27
ENDBRANCH   7  21
TORSDOF 4
ENDMDL
