MODEL 17
REMARK VINA RESULT: -5.268433602      2.466      3.353
REMARK  8 active torsions:
REMARK  status: ('A' for Active; 'I' for Inactive)
REMARK    1  A    between atoms: C2_2  and  C3_3 
REMARK    2  A    between atoms: C2_2  and  C4_6 
REMARK    3  A    between atoms: C3_3  and  O1_4 
REMARK    4  A    between atoms: C4_6  and  C5_7 
REMARK    5  A    between atoms: C5_7  and  C6_8 
REMARK    6  A    between atoms: C6_8  and  P1_9 
REMARK    7  A    between atoms: P1_9  and  O4_12 
REMARK    8  A    between atoms: O4_12  and  P2_13 
ROOT
HETATM    1  C6  UNL     1      21.840  -0.012 151.476  1.00  0.00     0.136 C 
ENDROOT
BRANCH   1   2
HETATM    2  C5  UNL     1      22.516   0.164 152.811  1.00  0.00     0.013 C 
BRANCH   2   3
HETATM    3  C4  UNL     1      21.815   0.954 153.823  1.00  0.00     0.007 C 
BRANCH   3   4
HETATM    4  C2  UNL     1      21.668   2.410 153.690  1.00  0.00     0.005 C 
HETATM    5  C1  UNL     1      22.902   3.168 153.262  1.00  0.00     0.012 C 
BRANCH   4   6
HETATM    6  C3  UNL     1      20.445   2.946 153.040  1.00  0.00     0.168 C 
BRANCH   6   7
HETATM    7  O1  UNL     1      19.271   2.349 153.543  1.00  0.00    -0.400 OA
ATOM      8  H1  UNL     1      19.407   1.958 154.399  1.00  0.00     0.209 HD
ENDBRANCH   6   7
ENDBRANCH   4   6
ENDBRANCH   3   4
ENDBRANCH   2   3
ENDBRANCH   1   2
BRANCH   1   9
HETATM    9  P1  UNL     1      20.297  -0.813 151.456  1.00  0.00     0.260 P 
HETATM   10  O2  UNL     1      20.241  -2.473 151.152  1.00  0.00    -0.646 OA
HETATM   11  O3  UNL     1      18.967   0.013 151.913  1.00  0.00    -0.646 OA
BRANCH   9  12
HETATM   12  O4  UNL     1      19.918  -0.621 149.990  1.00  0.00    -0.197 OA
BRANCH  12  13
HETATM   13  P2  UNL     1      20.393   0.806 149.301  1.00  0.00     0.430 P 
HETATM   14  O5  UNL     1      19.526   0.534 148.079  1.00  0.00    -0.616 OA
HETATM   15  O6  UNL     1      21.756   0.820 148.319  1.00  0.00    -0.616 OA
HETATM   16  O7  UNL     1      19.733   2.225 149.736  1.00  0.00    -0.616 OA
ENDBRANCH  12  13
ENDBRANCH   9  12
ENDBRANCH   1   9
TORSDOF 8
ENDMDL
