MODEL 20
REMARK VINA RESULT: -5.146838729      3.892      5.046
REMARK  8 active torsions:
REMARK  status: ('A' for Active; 'I' for Inactive)
REMARK    1  A    between atoms: C2_2  and  C3_3 
REMARK    2  A    between atoms: C2_2  and  C4_6 
REMARK    3  A    between atoms: C3_3  and  O1_4 
REMARK    4  A    between atoms: C4_6  and  C5_7 
REMARK    5  A    between atoms: C5_7  and  C6_8 
REMARK    6  A    between atoms: C6_8  and  P1_9 
REMARK    7  A    between atoms: P1_9  and  O4_12 
REMARK    8  A    between atoms: O4_12  and  P2_13 
ROOT
HETATM    1  C6  UNL     1      22.227  -0.820 145.503  1.00  0.00     0.136 C 
ENDROOT
BRANCH   1   2
HETATM    2  C5  UNL     1      21.398  -2.007 145.920  1.00  0.00     0.013 C 
BRANCH   2   3
HETATM    3  C4  UNL     1      19.944  -1.877 145.837  1.00  0.00     0.007 C 
BRANCH   3   4
HETATM    4  C2  UNL     1      19.118  -1.736 147.046  1.00  0.00     0.005 C 
HETATM    5  C1  UNL     1      19.861  -1.452 148.330  1.00  0.00     0.012 C 
BRANCH   4   6
HETATM    6  C3  UNL     1      17.857  -0.956 146.959  1.00  0.00     0.168 C 
BRANCH   6   7
HETATM    7  O1  UNL     1      17.990   0.177 146.130  1.00  0.00    -0.400 OA
ATOM      8  H1  UNL     1      18.179  -0.059 145.229  1.00  0.00     0.209 HD
ENDBRANCH   6   7
ENDBRANCH   4   6
ENDBRANCH   3   4
ENDBRANCH   2   3
ENDBRANCH   1   2
BRANCH   1   9
HETATM    9  P1  UNL     1      21.594   0.763 145.848  1.00  0.00     0.260 P 
HETATM   10  O2  UNL     1      20.478   1.448 144.782  1.00  0.00    -0.646 OA
HETATM   11  O3  UNL     1      21.947   1.465 147.278  1.00  0.00    -0.646 OA
BRANCH   9  12
HETATM   12  O4  UNL     1      22.649   1.625 145.159  1.00  0.00    -0.197 OA
BRANCH  12  13
HETATM   13  P2  UNL     1      23.888   2.156 146.120  1.00  0.00     0.430 P 
HETATM   14  O5  UNL     1      24.866   2.052 144.957  1.00  0.00    -0.616 OA
HETATM   15  O6  UNL     1      24.795   1.029 146.973  1.00  0.00    -0.616 OA
HETATM   16  O7  UNL     1      24.095   3.733 146.450  1.00  0.00    -0.616 OA
ENDBRANCH  12  13
ENDBRANCH   9  12
ENDBRANCH   1   9
TORSDOF 8
ENDMDL
