MODEL 9
REMARK VINA RESULT: -5.102111937      5.087      6.003
REMARK  1 active torsions:
REMARK  status: ('A' for Active; 'I' for Inactive)
REMARK    1  A    between atoms: C6_8  and  C7_9 
ROOT
HETATM    1  N1  UNL     1     -16.728 -36.961  15.387  1.00  0.00    -0.101 NA
HETATM    2  C1  UNL     1     -17.244 -35.644  15.425  1.00  0.00     0.066 A 
HETATM    3  C2  UNL     1     -16.873 -34.679  14.508  1.00  0.00     0.069 A 
HETATM    4  C3  UNL     1     -17.406 -33.396  14.583  1.00  0.00     0.118 A 
HETATM    5  F1  UNL     1     -17.063 -32.426  13.696  1.00  0.00    -0.206 F 
HETATM    6  C4  UNL     1     -18.309 -33.053  15.565  1.00  0.00     0.043 A 
HETATM    7  C5  UNL     1     -18.665 -34.033  16.470  1.00  0.00     0.023 A 
HETATM    8  C6  UNL     1     -18.143 -35.308  16.406  1.00  0.00     0.065 A 
ENDROOT
BRANCH   8   9
HETATM    9  C7  UNL     1     -18.514 -36.344  17.356  1.00  0.00     0.211 C 
HETATM   10  O1  UNL     1     -17.935 -36.522  18.430  1.00  0.00    -0.644 OA
HETATM   11  O2  UNL     1     -19.591 -37.192  17.033  1.00  0.00    -0.644 OA
ENDBRANCH   8   9
TORSDOF 1
ENDMDL
