MODEL 1
REMARK VINA RESULT: -5.508767272      0.000      0.000
REMARK  1 active torsions:
REMARK  status: ('A' for Active; 'I' for Inactive)
REMARK    1  A    between atoms: C6_8  and  C7_9 
ROOT
HETATM    1  N1  UNL     1     -18.953 -30.140  16.355  1.00  0.00    -0.101 NA
HETATM    2  C1  UNL     1     -18.198 -30.857  15.397  1.00  0.00     0.066 A 
HETATM    3  C2  UNL     1     -18.182 -32.238  15.353  1.00  0.00     0.069 A 
HETATM    4  C3  UNL     1     -17.426 -32.903  14.394  1.00  0.00     0.118 A 
HETATM    5  F1  UNL     1     -17.390 -34.259  14.324  1.00  0.00    -0.206 F 
HETATM    6  C4  UNL     1     -16.676 -32.210  13.469  1.00  0.00     0.043 A 
HETATM    7  C5  UNL     1     -16.706 -30.832  13.531  1.00  0.00     0.023 A 
HETATM    8  C6  UNL     1     -17.452 -30.162  14.478  1.00  0.00     0.065 A 
ENDROOT
BRANCH   8   9
HETATM    9  C7  UNL     1     -17.489 -28.710  14.549  1.00  0.00     0.211 C 
HETATM   10  O1  UNL     1     -16.667 -28.038  15.176  1.00  0.00    -0.644 OA
HETATM   11  O2  UNL     1     -18.518 -28.033  13.867  1.00  0.00    -0.644 OA
ENDBRANCH   8   9
TORSDOF 1
ENDMDL
