MODEL 3
REMARK VINA RESULT: -5.420278327      2.013      2.844
REMARK  1 active torsions:
REMARK  status: ('A' for Active; 'I' for Inactive)
REMARK    1  A    between atoms: C6_8  and  C7_9 
ROOT
HETATM    1  N1  UNL     1     -16.062 -28.072  12.569  1.00  0.00    -0.101 NA
HETATM    2  C1  UNL     1     -16.725 -28.976  13.432  1.00  0.00     0.066 A 
HETATM    3  C2  UNL     1     -16.597 -30.347  13.303  1.00  0.00     0.069 A 
HETATM    4  C3  UNL     1     -17.268 -31.200  14.174  1.00  0.00     0.118 A 
HETATM    5  F1  UNL     1     -17.162 -32.550  14.074  1.00  0.00    -0.206 F 
HETATM    6  C4  UNL     1     -18.072 -30.709  15.178  1.00  0.00     0.043 A 
HETATM    7  C5  UNL     1     -18.186 -29.337  15.287  1.00  0.00     0.023 A 
HETATM    8  C6  UNL     1     -17.526 -28.482  14.431  1.00  0.00     0.065 A 
ENDROOT
BRANCH   8   9
HETATM    9  C7  UNL     1     -17.641 -27.037  14.540  1.00  0.00     0.211 C 
HETATM   10  O1  UNL     1     -18.629 -26.401  14.164  1.00  0.00    -0.644 OA
HETATM   11  O2  UNL     1     -16.566 -26.322  15.104  1.00  0.00    -0.644 OA
ENDBRANCH   8   9
TORSDOF 1
ENDMDL
