MODEL 4
REMARK VINA RESULT: -5.312107636      1.989      2.717
REMARK  1 active torsions:
REMARK  status: ('A' for Active; 'I' for Inactive)
REMARK    1  A    between atoms: C6_8  and  C7_9 
ROOT
HETATM    1  N1  UNL     1     -19.009 -28.608  16.358  1.00  0.00    -0.101 NA
HETATM    2  C1  UNL     1     -18.189 -28.822  15.224  1.00  0.00     0.066 A 
HETATM    3  C2  UNL     1     -17.743 -30.079  14.862  1.00  0.00     0.069 A 
HETATM    4  C3  UNL     1     -16.939 -30.243  13.739  1.00  0.00     0.118 A 
HETATM    5  F1  UNL     1     -16.485 -31.464  13.357  1.00  0.00    -0.206 F 
HETATM    6  C4  UNL     1     -16.567 -29.167  12.963  1.00  0.00     0.043 A 
HETATM    7  C5  UNL     1     -17.024 -27.921  13.344  1.00  0.00     0.023 A 
HETATM    8  C6  UNL     1     -17.821 -27.747  14.455  1.00  0.00     0.065 A 
ENDROOT
BRANCH   8   9
HETATM    9  C7  UNL     1     -18.306 -26.438  14.861  1.00  0.00     0.211 C 
HETATM   10  O1  UNL     1     -19.338 -25.927  14.422  1.00  0.00    -0.644 OA
HETATM   11  O2  UNL     1     -17.556 -25.712  15.808  1.00  0.00    -0.644 OA
ENDBRANCH   8   9
TORSDOF 1
ENDMDL
