MODEL 2
REMARK VINA RESULT: -5.516768857      3.585      5.830
REMARK  1 active torsions:
REMARK  status: ('A' for Active; 'I' for Inactive)
REMARK    1  A    between atoms: C1_2  and  C2_4 
ROOT
HETATM    1  C2  UNL     1       8.982  -2.882 -10.258  1.00  0.00     0.137 C 
HETATM    2  C3  UNL     1       8.584  -2.993 -11.734  1.00  0.00     0.022 C 
HETATM    3  C4  UNL     1       7.776  -4.279 -11.835  1.00  0.00     0.006 C 
HETATM    4  C5  UNL     1       8.764  -5.411 -11.872  1.00  0.00     0.041 C 
HETATM    5  C6  UNL     1       9.632  -5.285 -10.664  1.00  0.00    -0.022 A 
HETATM    6  C7  UNL     1       9.724  -4.121  -9.931  1.00  0.00     0.031 A 
HETATM    7  N1  UNL     1      10.585  -4.360  -8.926  1.00  0.00    -0.358 N 
ATOM      8  H1  UNL     1      10.859  -3.686  -8.212  1.00  0.00     0.166 HD
HETATM    9  C8  UNL     1      11.034  -5.642  -9.008  1.00  0.00     0.043 A 
HETATM   10  C9  UNL     1      11.911  -6.341  -8.221  1.00  0.00     0.032 A 
HETATM   11  C10 UNL     1      12.213  -7.661  -8.517  1.00  0.00     0.026 A 
HETATM   12  C11 UNL     1      11.620  -8.252  -9.605  1.00  0.00     0.035 A 
HETATM   13 CL1  UNL     1      11.952  -9.922 -10.043  1.00  0.00    -0.084 Cl
HETATM   14  C12 UNL     1      10.731  -7.564 -10.413  1.00  0.00     0.038 A 
HETATM   15  C13 UNL     1      10.453  -6.255 -10.094  1.00  0.00     0.000 A 
ENDROOT
BRANCH   1  16
HETATM   16  C1  UNL     1       7.702  -2.798  -9.499  1.00  0.00     0.183 C 
HETATM   17  O1  UNL     1       6.672  -2.242  -9.937  1.00  0.00    -0.647 OA
HETATM   18  O2  UNL     1       7.703  -3.391  -8.232  1.00  0.00    -0.647 OA
ENDBRANCH   1  16
TORSDOF 1
ENDMDL
