MODEL 5
REMARK VINA RESULT: -5.050301632      3.232      5.373
REMARK  1 active torsions:
REMARK  status: ('A' for Active; 'I' for Inactive)
REMARK    1  A    between atoms: C1_2  and  C2_4 
ROOT
HETATM    1  C2  UNL     1       8.294  -4.419 -11.808  1.00  0.00     0.137 C 
HETATM    2  C3  UNL     1       7.934  -3.519 -10.621  1.00  0.00     0.022 C 
HETATM    3  C4  UNL     1       9.262  -2.973 -10.115  1.00  0.00     0.006 C 
HETATM    4  C5  UNL     1       9.889  -4.056  -9.283  1.00  0.00     0.041 C 
HETATM    5  C6  UNL     1       9.973  -5.279 -10.135  1.00  0.00    -0.022 A 
HETATM    6  C7  UNL     1       9.238  -5.435 -11.290  1.00  0.00     0.031 A 
HETATM    7  N1  UNL     1       9.558  -6.639 -11.796  1.00  0.00    -0.358 N 
ATOM      8  H1  UNL     1       9.173  -7.039 -12.653  1.00  0.00     0.166 HD
HETATM    9  C8  UNL     1      10.472  -7.242 -10.990  1.00  0.00     0.043 A 
HETATM   10  C9  UNL     1      11.093  -8.460 -11.086  1.00  0.00     0.032 A 
HETATM   11  C10 UNL     1      12.005  -8.856 -10.120  1.00  0.00     0.026 A 
HETATM   12  C11 UNL     1      12.274  -8.010  -9.073  1.00  0.00     0.035 A 
HETATM   13 CL1  UNL     1      13.419  -8.442  -7.810  1.00  0.00    -0.084 Cl
HETATM   14  C12 UNL     1      11.659  -6.776  -8.957  1.00  0.00     0.038 A 
HETATM   15  C13 UNL     1      10.758  -6.412  -9.931  1.00  0.00     0.000 A 
ENDROOT
BRANCH   1  16
HETATM   16  C1  UNL     1       8.949  -3.527 -12.807  1.00  0.00     0.183 C 
HETATM   17  O1  UNL     1       8.466  -2.437 -13.184  1.00  0.00    -0.647 OA
HETATM   18  O2  UNL     1      10.169  -3.979 -13.322  1.00  0.00    -0.647 OA
ENDBRANCH   1  16
TORSDOF 1
ENDMDL
