MODEL 4
REMARK VINA RESULT: -5.237953621      6.668      9.359
REMARK  1 active torsions:
REMARK  status: ('A' for Active; 'I' for Inactive)
REMARK    1  A    between atoms: C1_2  and  C2_4 
ROOT
HETATM    1  C2  UNL     1       7.516   0.712 -16.566  1.00  0.00     0.137 C 
HETATM    2  C3  UNL     1       8.415   0.944 -17.785  1.00  0.00     0.022 C 
HETATM    3  C4  UNL     1       8.365  -0.359 -18.572  1.00  0.00     0.006 C 
HETATM    4  C5  UNL     1       9.302  -1.315 -17.888  1.00  0.00     0.041 C 
HETATM    5  C6  UNL     1       8.881  -1.406 -16.459  1.00  0.00    -0.022 A 
HETATM    6  C7  UNL     1       8.062  -0.471 -15.863  1.00  0.00     0.031 A 
HETATM    7  N1  UNL     1       7.891  -0.860 -14.587  1.00  0.00    -0.358 N 
ATOM      8  H1  UNL     1       7.331  -0.367 -13.891  1.00  0.00     0.166 HD
HETATM    9  C8  UNL     1       8.580  -2.012 -14.367  1.00  0.00     0.043 A 
HETATM   10  C9  UNL     1       8.711  -2.783 -13.241  1.00  0.00     0.032 A 
HETATM   11  C10 UNL     1       9.482  -3.933 -13.270  1.00  0.00     0.026 A 
HETATM   12  C11 UNL     1      10.108  -4.286 -14.440  1.00  0.00     0.035 A 
HETATM   13 CL1  UNL     1      11.102  -5.732 -14.554  1.00  0.00    -0.084 Cl
HETATM   14  C12 UNL     1       9.989  -3.523 -15.588  1.00  0.00     0.038 A 
HETATM   15  C13 UNL     1       9.217  -2.386 -15.527  1.00  0.00     0.000 A 
ENDROOT
BRANCH   1  16
HETATM   16  C1  UNL     1       6.156   0.441 -17.112  1.00  0.00     0.183 C 
HETATM   17  O1  UNL     1       5.551   1.218 -17.881  1.00  0.00    -0.647 OA
HETATM   18  O2  UNL     1       5.566  -0.763 -16.712  1.00  0.00    -0.647 OA
ENDBRANCH   1  16
TORSDOF 1
ENDMDL
