MODEL 1
REMARK VINA RESULT: -6.054082825      0.000      0.000
REMARK  1 active torsions:
REMARK  status: ('A' for Active; 'I' for Inactive)
REMARK    1  A    between atoms: C1_2  and  C2_4 
ROOT
HETATM    1  C2  UNL     1      12.261  -7.816 -10.553  1.00  0.00     0.137 C 
HETATM    2  C3  UNL     1      13.041  -7.575  -9.256  1.00  0.00     0.022 C 
HETATM    3  C4  UNL     1      11.983  -7.489  -8.164  1.00  0.00     0.006 C 
HETATM    4  C5  UNL     1      11.398  -6.107  -8.233  1.00  0.00     0.041 C 
HETATM    5  C6  UNL     1      10.907  -5.900  -9.628  1.00  0.00    -0.022 A 
HETATM    6  C7  UNL     1      11.309  -6.690 -10.684  1.00  0.00     0.031 A 
HETATM    7  N1  UNL     1      10.678  -6.228 -11.778  1.00  0.00    -0.358 N 
ATOM      8  H1  UNL     1      10.774  -6.610 -12.719  1.00  0.00     0.166 HD
HETATM    9  C8  UNL     1       9.893  -5.171 -11.437  1.00  0.00     0.043 A 
HETATM   10  C9  UNL     1       9.069  -4.379 -12.194  1.00  0.00     0.032 A 
HETATM   11  C10 UNL     1       8.360  -3.345 -11.604  1.00  0.00     0.026 A 
HETATM   12  C11 UNL     1       8.496  -3.131 -10.254  1.00  0.00     0.035 A 
HETATM   13 CL1  UNL     1       7.628  -1.840  -9.434  1.00  0.00    -0.084 Cl
HETATM   14  C12 UNL     1       9.321  -3.919  -9.471  1.00  0.00     0.038 A 
HETATM   15  C13 UNL     1      10.012  -4.936 -10.087  1.00  0.00     0.000 A 
ENDROOT
BRANCH   1  16
HETATM   16  C1  UNL     1      11.549  -9.111 -10.363  1.00  0.00     0.183 C 
HETATM   17  O1  UNL     1      12.118 -10.172 -10.026  1.00  0.00    -0.647 OA
HETATM   18  O2  UNL     1      10.167  -9.087 -10.584  1.00  0.00    -0.647 OA
ENDBRANCH   1  16
TORSDOF 1
ENDMDL
