MODEL 1
REMARK VINA RESULT: -6.313700011      0.000      0.000
REMARK  1 active torsions:
REMARK  status: ('A' for Active; 'I' for Inactive)
REMARK    1  A    between atoms: N1_2  and  C1_4 
ROOT
HETATM    1  C1  UNL     1      10.457   7.773  39.715  1.00  0.00     0.105 A 
HETATM    2  C2  UNL     1       9.283   7.104  39.403  1.00  0.00     0.038 A 
HETATM    3  C3  UNL     1       8.908   5.988  40.120  1.00  0.00     0.034 A 
HETATM    4  C4  UNL     1       9.690   5.519  41.156  1.00  0.00     0.060 A 
HETATM    5  N2  UNL     1       9.548   4.460  42.004  1.00  0.00    -0.351 N 
ATOM      6  H2  UNL     1       8.775   3.796  42.000  1.00  0.00     0.166 HD
HETATM    7  C5  UNL     1      10.597   4.434  42.847  1.00  0.00     0.181 A 
HETATM    8  N3  UNL     1      11.391   5.472  42.527  1.00  0.00    -0.350 N 
ATOM      9  H3  UNL     1      12.266   5.708  42.995  1.00  0.00     0.166 HD
HETATM   10  C6  UNL     1      10.854   6.154  41.489  1.00  0.00     0.062 A 
HETATM   11  C7  UNL     1      11.209   7.269  40.757  1.00  0.00     0.068 A 
ENDROOT
BRANCH   1  12
HETATM   12  N1  UNL     1      10.834   8.916  38.973  1.00  0.00    -0.116 N 
HETATM   13  O1  UNL     1      11.683   9.710  39.404  1.00  0.00    -0.532 OA
HETATM   14  O2  UNL     1      10.265   9.170  37.759  1.00  0.00    -0.532 OA
ENDBRANCH   1  12
TORSDOF 1
ENDMDL
