MODEL 5
REMARK VINA RESULT: -5.994838420      3.254      4.854
REMARK  1 active torsions:
REMARK  status: ('A' for Active; 'I' for Inactive)
REMARK    1  A    between atoms: N1_2  and  C1_4 
ROOT
HETATM    1  C1  UNL     1      10.156   5.125  41.793  1.00  0.00     0.105 A 
HETATM    2  C2  UNL     1      11.197   6.007  42.042  1.00  0.00     0.038 A 
HETATM    3  C3  UNL     1      11.367   7.121  41.246  1.00  0.00     0.034 A 
HETATM    4  C4  UNL     1      10.510   7.375  40.195  1.00  0.00     0.060 A 
HETATM    5  N2  UNL     1      10.459   8.383  39.277  1.00  0.00    -0.351 N 
ATOM      6  H2  UNL     1      11.106   9.170  39.224  1.00  0.00     0.166 HD
HETATM    7  C5  UNL     1       9.418   8.169  38.452  1.00  0.00     0.181 A 
HETATM    8  N3  UNL     1       8.821   7.032  38.852  1.00  0.00    -0.350 N 
ATOM      9  H3  UNL     1       7.999   6.615  38.414  1.00  0.00     0.166 HD
HETATM   10  C6  UNL     1       9.474   6.525  39.923  1.00  0.00     0.062 A 
HETATM   11  C7  UNL     1       9.323   5.417  40.732  1.00  0.00     0.068 A 
ENDROOT
BRANCH   1  12
HETATM   12  N1  UNL     1       9.989   3.985  42.613  1.00  0.00    -0.116 N 
HETATM   13  O1  UNL     1       9.676   4.092  43.808  1.00  0.00    -0.532 OA
HETATM   14  O2  UNL     1      10.174   2.734  42.101  1.00  0.00    -0.532 OA
ENDBRANCH   1  12
TORSDOF 1
ENDMDL
