MODEL 2
REMARK VINA RESULT: -6.070151948      3.053      4.846
REMARK  1 active torsions:
REMARK  status: ('A' for Active; 'I' for Inactive)
REMARK    1  A    between atoms: N1_2  and  C1_4 
ROOT
HETATM    1  C1  UNL     1      10.187   5.491  41.520  1.00  0.00     0.105 A 
HETATM    2  C2  UNL     1      11.269   6.344  41.674  1.00  0.00     0.038 A 
HETATM    3  C3  UNL     1      11.427   7.423  40.829  1.00  0.00     0.034 A 
HETATM    4  C4  UNL     1      10.517   7.671  39.822  1.00  0.00     0.060 A 
HETATM    5  N2  UNL     1      10.444   8.647  38.873  1.00  0.00    -0.351 N 
ATOM      6  H2  UNL     1      11.111   9.409  38.753  1.00  0.00     0.166 HD
HETATM    7  C5  UNL     1       9.348   8.441  38.119  1.00  0.00     0.181 A 
HETATM    8  N3  UNL     1       8.739   7.341  38.595  1.00  0.00    -0.350 N 
ATOM      9  H3  UNL     1       7.880   6.938  38.221  1.00  0.00     0.166 HD
HETATM   10  C6  UNL     1       9.439   6.849  39.643  1.00  0.00     0.062 A 
HETATM   11  C7  UNL     1       9.301   5.775  40.500  1.00  0.00     0.068 A 
ENDROOT
BRANCH   1  12
HETATM   12  N1  UNL     1      10.032   4.386  42.390  1.00  0.00    -0.116 N 
HETATM   13  O1  UNL     1       9.823   3.247  41.950  1.00  0.00    -0.532 OA
HETATM   14  O2  UNL     1      10.110   4.556  43.741  1.00  0.00    -0.532 OA
ENDBRANCH   1  12
TORSDOF 1
ENDMDL
