MODEL 10
REMARK VINA RESULT: -5.578225992      3.019      4.399
REMARK  1 active torsions:
REMARK  status: ('A' for Active; 'I' for Inactive)
REMARK    1  A    between atoms: N1_2  and  C1_4 
ROOT
HETATM    1  C1  UNL     1      10.768   5.386  42.212  1.00  0.00     0.105 A 
HETATM    2  C2  UNL     1       9.570   4.735  41.959  1.00  0.00     0.038 A 
HETATM    3  C3  UNL     1       8.741   5.175  40.949  1.00  0.00     0.034 A 
HETATM    4  C4  UNL     1       9.086   6.265  40.176  1.00  0.00     0.060 A 
HETATM    5  N2  UNL     1       8.457   6.888  39.139  1.00  0.00    -0.351 N 
ATOM      6  H2  UNL     1       7.557   6.619  38.743  1.00  0.00     0.166 HD
HETATM    7  C5  UNL     1       9.219   7.917  38.723  1.00  0.00     0.181 A 
HETATM    8  N3  UNL     1      10.318   7.936  39.497  1.00  0.00    -0.350 N 
ATOM      9  H3  UNL     1      11.080   8.609  39.417  1.00  0.00     0.166 HD
HETATM   10  C6  UNL     1      10.260   6.929  40.399  1.00  0.00     0.062 A 
HETATM   11  C7  UNL     1      11.074   6.472  41.415  1.00  0.00     0.068 A 
ENDROOT
BRANCH   1  12
HETATM   12  N1  UNL     1      11.613   4.930  43.250  1.00  0.00    -0.116 N 
HETATM   13  O1  UNL     1      12.720   5.447  43.452  1.00  0.00    -0.532 OA
HETATM   14  O2  UNL     1      11.221   3.900  44.055  1.00  0.00    -0.532 OA
ENDBRANCH   1  12
TORSDOF 1
ENDMDL
