MODEL 5
REMARK VINA RESULT: -8.252386719      2.885      3.970
REMARK  2 active torsions:
REMARK  status: ('A' for Active; 'I' for Inactive)
REMARK    1  A    between atoms: N4_10  and  C5_11 
REMARK    2  A    between atoms: C9_21  and  O6_22 
ROOT
HETATM    1  N1  UNL     1      22.223  25.145  69.858  1.00  0.00    -0.063 NA
HETATM    2  C1  UNL     1      23.532  25.271  69.327  1.00  0.00     0.196 A 
HETATM    3  N2  UNL     1      23.741  25.450  68.010  1.00  0.00    -0.314 N 
ATOM      4  H2  UNL     1      22.928  25.493  67.396  1.00  0.00     0.170 HD
HETATM    5  C2  UNL     1      24.950  25.573  67.462  1.00  0.00     0.146 A 
HETATM    6  C3  UNL     1      26.037  25.510  68.334  1.00  0.00     0.146 A 
HETATM    7  N3  UNL     1      27.173  25.655  67.598  1.00  0.00    -0.345 N 
ATOM      8  H3  UNL     1      28.132  25.654  67.944  1.00  0.00     0.167 HD
HETATM    9  C4  UNL     1      26.775  25.799  66.330  1.00  0.00     0.188 A 
HETATM   10  N4  UNL     1      25.448  25.754  66.228  1.00  0.00    -0.297 N 
HETATM   11  C10 UNL     1      25.801  25.326  69.681  1.00  0.00     0.278 A 
HETATM   12  O7  UNL     1      26.815  25.273  70.448  1.00  0.00    -0.265 OA
HETATM   13  N5  UNL     1      24.568  25.204  70.205  1.00  0.00    -0.295 N 
ATOM     14  H5  UNL     1      24.418  25.069  71.205  1.00  0.00     0.171 HD
ENDROOT
BRANCH  10  15
HETATM   15  C5  UNL     1      24.680  25.874  65.023  1.00  0.00     0.262 C 
HETATM   16  O1  UNL     1      24.102  27.096  64.839  1.00  0.00    -0.353 OA
HETATM   17  C6  UNL     1      22.714  26.951  64.977  1.00  0.00     0.180 C 
HETATM   18  C7  UNL     1      21.945  28.078  64.425  1.00  0.00     0.216 C 
HETATM   19  C8  UNL     1      22.380  25.595  64.488  1.00  0.00     0.198 C 
HETATM   20  O2  UNL     1      21.765  28.102  63.073  1.00  0.00    -0.287 OA
HETATM   21  P1  UNL     1      21.058  26.599  62.653  1.00  0.00     0.408 P 
HETATM   22  O3  UNL     1      19.832  26.442  63.509  1.00  0.00    -0.624 OA
HETATM   23  O4  UNL     1      20.727  26.512  61.013  1.00  0.00    -0.624 OA
HETATM   24  O5  UNL     1      22.208  25.458  63.141  1.00  0.00    -0.279 OA
HETATM   25  C9  UNL     1      23.628  24.806  64.903  1.00  0.00     0.199 C 
BRANCH  25  26
HETATM   26  O6  UNL     1      23.933  23.812  64.012  1.00  0.00    -0.388 OA
ATOM     27  H6  UNL     1      24.007  22.948  64.400  1.00  0.00     0.210 HD
ENDBRANCH  25  26
ENDBRANCH  10  15
TORSDOF 2
ENDMDL
