MODEL 6
REMARK VINA RESULT: -8.180931079      2.562      3.725
REMARK  2 active torsions:
REMARK  status: ('A' for Active; 'I' for Inactive)
REMARK    1  A    between atoms: N4_10  and  C5_11 
REMARK    2  A    between atoms: C9_21  and  O6_22 
ROOT
HETATM    1  N1  UNL     1      23.296  25.113  70.473  1.00  0.00    -0.063 NA
HETATM    2  C1  UNL     1      24.540  24.989  69.804  1.00  0.00     0.196 A 
HETATM    3  N2  UNL     1      24.696  25.393  68.530  1.00  0.00    -0.314 N 
ATOM      4  H2  UNL     1      23.890  25.795  68.052  1.00  0.00     0.170 HD
HETATM    5  C2  UNL     1      25.843  25.298  67.858  1.00  0.00     0.146 A 
HETATM    6  C3  UNL     1      26.923  24.744  68.546  1.00  0.00     0.146 A 
HETATM    7  N3  UNL     1      27.994  24.731  67.705  1.00  0.00    -0.345 N 
ATOM      8  H3  UNL     1      28.931  24.388  67.911  1.00  0.00     0.167 HD
HETATM    9  C4  UNL     1      27.565  25.259  66.555  1.00  0.00     0.188 A 
HETATM   10  N4  UNL     1      26.281  25.605  66.626  1.00  0.00    -0.297 N 
HETATM   11  C10 UNL     1      26.742  24.336  69.852  1.00  0.00     0.278 A 
HETATM   12  O7  UNL     1      27.748  23.836  70.450  1.00  0.00    -0.265 OA
HETATM   13  N5  UNL     1      25.571  24.445  70.504  1.00  0.00    -0.295 N 
ATOM     14  H5  UNL     1      25.461  24.135  71.471  1.00  0.00     0.171 HD
ENDROOT
BRANCH  10  15
HETATM   15  C5  UNL     1      25.497  26.199  65.582  1.00  0.00     0.262 C 
HETATM   16  O1  UNL     1      24.467  26.980  66.020  1.00  0.00    -0.353 OA
HETATM   17  C6  UNL     1      23.263  26.332  65.711  1.00  0.00     0.180 C 
HETATM   18  C7  UNL     1      22.087  27.215  65.763  1.00  0.00     0.216 C 
HETATM   19  C8  UNL     1      23.496  25.583  64.456  1.00  0.00     0.198 C 
HETATM   20  O2  UNL     1      21.876  28.029  64.688  1.00  0.00    -0.287 OA
HETATM   21  P1  UNL     1      21.830  27.010  63.312  1.00  0.00     0.408 P 
HETATM   22  O3  UNL     1      20.798  25.953  63.589  1.00  0.00    -0.624 OA
HETATM   23  O4  UNL     1      21.518  27.879  61.914  1.00  0.00    -0.624 OA
HETATM   24  O5  UNL     1      23.358  26.284  63.293  1.00  0.00    -0.279 OA
HETATM   25  C9  UNL     1      24.968  25.180  64.611  1.00  0.00     0.199 C 
BRANCH  25  26
HETATM   26  O6  UNL     1      25.626  25.150  63.410  1.00  0.00    -0.388 OA
ATOM     27  H6  UNL     1      26.308  25.805  63.321  1.00  0.00     0.210 HD
ENDBRANCH  25  26
ENDBRANCH  10  15
TORSDOF 2
ENDMDL
