MODEL 11
REMARK VINA RESULT: -7.726417829      8.863      9.937
REMARK  2 active torsions:
REMARK  status: ('A' for Active; 'I' for Inactive)
REMARK    1  A    between atoms: N4_10  and  C5_11 
REMARK    2  A    between atoms: C9_21  and  O6_22 
ROOT
HETATM    1  N1  UNL     1      32.470  23.459  71.858  1.00  0.00    -0.063 NA
HETATM    2  C1  UNL     1      31.662  23.706  72.997  1.00  0.00     0.196 A 
HETATM    3  N2  UNL     1      30.342  23.444  72.991  1.00  0.00    -0.314 N 
ATOM      4  H2  UNL     1      29.933  23.059  72.140  1.00  0.00     0.170 HD
HETATM    5  C2  UNL     1      29.540  23.659  74.033  1.00  0.00     0.146 A 
HETATM    6  C3  UNL     1      30.137  24.184  75.180  1.00  0.00     0.146 A 
HETATM    7  N3  UNL     1      29.170  24.331  76.126  1.00  0.00    -0.345 N 
ATOM      8  H3  UNL     1      29.288  24.691  77.073  1.00  0.00     0.167 HD
HETATM    9  C4  UNL     1      28.035  23.907  75.561  1.00  0.00     0.188 A 
HETATM   10  N4  UNL     1      28.235  23.501  74.309  1.00  0.00    -0.297 N 
HETATM   11  C10 UNL     1      31.492  24.445  75.165  1.00  0.00     0.278 A 
HETATM   12  O7  UNL     1      32.004  24.924  76.227  1.00  0.00    -0.265 OA
HETATM   13  N5  UNL     1      32.277  24.219  74.095  1.00  0.00    -0.295 N 
ATOM     14  H5  UNL     1      33.277  24.421  74.109  1.00  0.00     0.171 HD
ENDROOT
BRANCH  10  15
HETATM   15  C5  UNL     1      27.244  22.985  73.410  1.00  0.00     0.262 C 
HETATM   16  O1  UNL     1      26.186  23.819  73.195  1.00  0.00    -0.353 OA
HETATM   17  C6  UNL     1      25.051  23.251  73.790  1.00  0.00     0.180 C 
HETATM   18  C7  UNL     1      23.783  23.825  73.312  1.00  0.00     0.216 C 
HETATM   19  C8  UNL     1      25.213  21.783  73.693  1.00  0.00     0.198 C 
HETATM   20  O2  UNL     1      23.319  23.384  72.107  1.00  0.00    -0.287 OA
HETATM   21  P1  UNL     1      23.228  21.677  72.220  1.00  0.00     0.408 P 
HETATM   22  O3  UNL     1      22.397  21.366  73.433  1.00  0.00    -0.624 OA
HETATM   23  O4  UNL     1      22.615  21.000  70.816  1.00  0.00    -0.624 OA
HETATM   24  O5  UNL     1      24.824  21.203  72.520  1.00  0.00    -0.279 OA
HETATM   25  C9  UNL     1      26.733  21.635  73.830  1.00  0.00     0.199 C 
BRANCH  25  26
HETATM   26  O6  UNL     1      27.221  20.592  73.090  1.00  0.00    -0.388 OA
ATOM     27  H6  UNL     1      27.361  19.793  73.584  1.00  0.00     0.210 HD
ENDBRANCH  25  26
ENDBRANCH  10  15
TORSDOF 2
ENDMDL
