MODEL 8
REMARK VINA RESULT: -7.944234912      5.868      8.718
REMARK  2 active torsions:
REMARK  status: ('A' for Active; 'I' for Inactive)
REMARK    1  A    between atoms: N4_10  and  C5_11 
REMARK    2  A    between atoms: C9_21  and  O6_22 
ROOT
HETATM    1  N1  UNL     1      21.119  26.555  68.628  1.00  0.00    -0.063 NA
HETATM    2  C1  UNL     1      22.426  26.245  68.174  1.00  0.00     0.196 A 
HETATM    3  N2  UNL     1      23.385  25.836  69.024  1.00  0.00    -0.314 N 
ATOM      4  H2  UNL     1      23.148  25.752  70.013  1.00  0.00     0.170 HD
HETATM    5  C2  UNL     1      24.628  25.534  68.649  1.00  0.00     0.146 A 
HETATM    6  C3  UNL     1      24.914  25.660  67.289  1.00  0.00     0.146 A 
HETATM    7  N3  UNL     1      26.216  25.310  67.101  1.00  0.00    -0.345 N 
ATOM      8  H3  UNL     1      26.727  25.297  66.218  1.00  0.00     0.167 HD
HETATM    9  C4  UNL     1      26.689  24.988  68.309  1.00  0.00     0.188 A 
HETATM   10  N4  UNL     1      25.754  25.115  69.249  1.00  0.00    -0.297 N 
HETATM   11  C10 UNL     1      23.916  26.080  66.434  1.00  0.00     0.278 A 
HETATM   12  O7  UNL     1      24.211  26.184  65.201  1.00  0.00    -0.265 OA
HETATM   13  N5  UNL     1      22.670  26.379  66.844  1.00  0.00    -0.295 N 
ATOM     14  H5  UNL     1      21.948  26.689  66.192  1.00  0.00     0.171 HD
ENDROOT
BRANCH  10  15
HETATM   15  C5  UNL     1      25.911  24.855  70.650  1.00  0.00     0.262 C 
HETATM   16  O1  UNL     1      27.163  24.452  71.015  1.00  0.00    -0.353 OA
HETATM   17  C6  UNL     1      27.095  23.106  71.402  1.00  0.00     0.180 C 
HETATM   18  C7  UNL     1      28.260  22.656  72.180  1.00  0.00     0.216 C 
HETATM   19  C8  UNL     1      25.757  22.905  72.002  1.00  0.00     0.198 C 
HETATM   20  O2  UNL     1      28.287  22.991  73.504  1.00  0.00    -0.287 OA
HETATM   21  P1  UNL     1      26.823  22.411  74.178  1.00  0.00     0.408 P 
HETATM   22  O3  UNL     1      26.738  20.948  73.839  1.00  0.00    -0.624 OA
HETATM   23  O4  UNL     1      26.747  22.706  75.826  1.00  0.00    -0.624 OA
HETATM   24  O5  UNL     1      25.623  23.237  73.319  1.00  0.00    -0.279 OA
HETATM   25  C9  UNL     1      24.902  23.867  71.167  1.00  0.00     0.199 C 
BRANCH  25  26
HETATM   26  O6  UNL     1      23.888  24.427  71.898  1.00  0.00    -0.388 OA
ATOM     27  H6  UNL     1      23.070  24.520  71.425  1.00  0.00     0.210 HD
ENDBRANCH  25  26
ENDBRANCH  10  15
TORSDOF 2
ENDMDL
