MODEL 10
REMARK VINA RESULT: -7.766483595      8.308     10.049
REMARK  2 active torsions:
REMARK  status: ('A' for Active; 'I' for Inactive)
REMARK    1  A    between atoms: N4_10  and  C5_11 
REMARK    2  A    between atoms: C9_21  and  O6_22 
ROOT
HETATM    1  N1  UNL     1      31.134  22.942  71.005  1.00  0.00    -0.063 NA
HETATM    2  C1  UNL     1      30.893  22.643  72.370  1.00  0.00     0.196 A 
HETATM    3  N2  UNL     1      29.702  22.176  72.788  1.00  0.00    -0.314 N 
ATOM      4  H2  UNL     1      28.969  22.040  72.092  1.00  0.00     0.170 HD
HETATM    5  C2  UNL     1      29.426  21.881  74.058  1.00  0.00     0.146 A 
HETATM    6  C3  UNL     1      30.454  22.079  74.980  1.00  0.00     0.146 A 
HETATM    7  N3  UNL     1      29.988  21.726  76.209  1.00  0.00    -0.345 N 
ATOM      8  H3  UNL     1      30.499  21.757  77.091  1.00  0.00     0.167 HD
HETATM    9  C4  UNL     1      28.724  21.331  76.025  1.00  0.00     0.188 A 
HETATM   10  N4  UNL     1      28.369  21.416  74.744  1.00  0.00    -0.297 N 
HETATM   11  C10 UNL     1      31.668  22.559  74.531  1.00  0.00     0.278 A 
HETATM   12  O7  UNL     1      32.583  22.728  75.399  1.00  0.00    -0.265 OA
HETATM   13  N5  UNL     1      31.917  22.849  73.241  1.00  0.00    -0.295 N 
ATOM     14  H5  UNL     1      32.823  23.203  72.934  1.00  0.00     0.171 HD
ENDROOT
BRANCH  10  15
HETATM   15  C5  UNL     1      27.092  21.076  74.188  1.00  0.00     0.262 C 
HETATM   16  O1  UNL     1      26.910  21.480  72.897  1.00  0.00    -0.353 OA
HETATM   17  C6  UNL     1      25.951  22.503  72.889  1.00  0.00     0.180 C 
HETATM   18  C7  UNL     1      25.372  22.758  71.560  1.00  0.00     0.216 C 
HETATM   19  C8  UNL     1      25.012  22.210  73.995  1.00  0.00     0.198 C 
HETATM   20  O2  UNL     1      24.400  21.901  71.133  1.00  0.00    -0.287 OA
HETATM   21  P1  UNL     1      23.193  21.894  72.348  1.00  0.00     0.408 P 
HETATM   22  O3  UNL     1      22.797  23.327  72.575  1.00  0.00    -0.624 OA
HETATM   23  O4  UNL     1      21.900  20.917  71.925  1.00  0.00    -0.624 OA
HETATM   24  O5  UNL     1      24.003  21.332  73.723  1.00  0.00    -0.279 OA
HETATM   25  C9  UNL     1      25.949  21.572  75.028  1.00  0.00     0.199 C 
BRANCH  25  26
HETATM   26  O6  UNL     1      25.324  20.599  75.763  1.00  0.00    -0.388 OA
ATOM     27  H6  UNL     1      25.388  20.718  76.703  1.00  0.00     0.210 HD
ENDBRANCH  25  26
ENDBRANCH  10  15
TORSDOF 2
ENDMDL
