MODEL 1
REMARK VINA RESULT: -8.945776441      0.000      0.000
REMARK  5 active torsions:
REMARK  status: ('A' for Active; 'I' for Inactive)
REMARK    1  A    between atoms: C1_2  and  C2_6 
REMARK    2  A    between atoms: C8_12  and  C9_13 
REMARK    3  A    between atoms: C16_20  and  C17_21 
REMARK    4  A    between atoms: C21_26  and  C22_27 
REMARK    5  A    between atoms: C27_32  and  C28_33 
ROOT
HETATM    1  C2  UNL     1       4.039  37.194  23.387  1.00  0.00     0.005 A 
HETATM    2  C3  UNL     1       3.913  38.075  22.342  1.00  0.00     0.017 A 
HETATM    3  C4  UNL     1       4.732  39.205  22.268  1.00  0.00     0.031 A 
HETATM    4  C5  UNL     1       5.665  39.452  23.226  1.00  0.00     0.035 A 
HETATM    5  C6  UNL     1       5.806  38.572  24.290  1.00  0.00    -0.022 A 
HETATM    6  C7  UNL     1       4.995  37.462  24.354  1.00  0.00     0.025 A 
HETATM    7  C8  UNL     1       6.833  38.905  25.284  1.00  0.00     0.056 C 
HETATM    8  C15 UNL     1       8.037  39.420  24.483  1.00  0.00     0.044 C 
HETATM    9  C16 UNL     1       7.724  40.744  23.844  1.00  0.00     0.116 C 
HETATM   10  N4  UNL     1       6.491  40.622  23.121  1.00  0.00    -0.381 N 
ATOM     11  H4  UNL     1       6.192  41.388  22.516  1.00  0.00     0.160 HD
ENDROOT
BRANCH   9  12
HETATM   12  C17 UNL     1       8.867  41.092  22.940  1.00  0.00    -0.033 A 
HETATM   13  C18 UNL     1      10.185  40.879  23.281  1.00  0.00     0.036 A 
HETATM   14  C19 UNL     1      11.236  41.204  22.438  1.00  0.00     0.047 A 
HETATM   15  N3  UNL     1      12.597  40.973  22.817  1.00  0.00    -0.102 NA
HETATM   16  C20 UNL     1      10.969  41.766  21.203  1.00  0.00     0.038 A 
HETATM   17  C21 UNL     1       9.665  41.993  20.829  1.00  0.00    -0.022 A 
HETATM   18  C29 UNL     1       8.636  41.655  21.696  1.00  0.00     0.021 A 
BRANCH  17  19
HETATM   19  C22 UNL     1       9.372  42.574  19.528  1.00  0.00    -0.009 A 
HETATM   20  C23 UNL     1       9.655  43.909  19.280  1.00  0.00     0.013 A 
HETATM   21  C24 UNL     1       9.456  44.519  18.076  1.00  0.00     0.001 A 
HETATM   22  C25 UNL     1       8.946  43.800  17.021  1.00  0.00     0.001 A 
HETATM   23  C26 UNL     1       8.655  42.473  17.242  1.00  0.00     0.019 A 
HETATM   24  C27 UNL     1       8.861  41.850  18.484  1.00  0.00     0.051 A 
BRANCH  24  25
HETATM   25  C28 UNL     1       8.456  40.466  18.582  1.00  0.00     0.210 C 
HETATM   26  O1  UNL     1       9.279  39.547  18.431  1.00  0.00    -0.644 OA
HETATM   27  O2  UNL     1       7.146  40.099  18.845  1.00  0.00    -0.644 OA
ENDBRANCH  24  25
ENDBRANCH  17  19
ENDBRANCH   9  12
BRANCH   7  28
HETATM   28  C9  UNL     1       7.310  37.768  26.080  1.00  0.00    -0.050 A 
HETATM   29  C10 UNL     1       8.433  37.092  25.671  1.00  0.00     0.008 A 
HETATM   30  C11 UNL     1       8.916  35.999  26.409  1.00  0.00     0.001 A 
HETATM   31  C12 UNL     1       8.261  35.606  27.545  1.00  0.00     0.000 A 
HETATM   32  C13 UNL     1       7.144  36.268  27.966  1.00  0.00     0.001 A 
HETATM   33  C14 UNL     1       6.672  37.358  27.220  1.00  0.00     0.008 A 
ENDBRANCH   7  28
BRANCH   1  34
HETATM   34  C1  UNL     1       3.182  36.028  23.447  1.00  0.00     0.120 C 
HETATM   35  N1  UNL     1       3.814  34.766  23.582  1.00  0.00    -0.082 NA
HETATM   36  N2  UNL     1       1.916  36.047  23.388  1.00  0.00    -0.387 N 
ATOM     37  H22 UNL     1       1.313  35.226  23.430  1.00  0.00     0.157 HD
ATOM     38  H21 UNL     1       1.462  36.955  23.290  1.00  0.00     0.157 HD
ENDBRANCH   1  34
TORSDOF 5
ENDMDL
