MODEL 4
REMARK VINA RESULT: -8.401911855      5.205      7.950
REMARK  5 active torsions:
REMARK  status: ('A' for Active; 'I' for Inactive)
REMARK    1  A    between atoms: C1_2  and  C2_6 
REMARK    2  A    between atoms: C8_12  and  C9_13 
REMARK    3  A    between atoms: C16_20  and  C17_21 
REMARK    4  A    between atoms: C21_26  and  C22_27 
REMARK    5  A    between atoms: C27_32  and  C28_33 
ROOT
HETATM    1  C2  UNL     1       3.259  37.570  23.639  1.00  0.00     0.005 A 
HETATM    2  C3  UNL     1       4.494  38.085  23.332  1.00  0.00     0.017 A 
HETATM    3  C4  UNL     1       5.277  38.681  24.324  1.00  0.00     0.031 A 
HETATM    4  C5  UNL     1       4.832  38.762  25.607  1.00  0.00     0.035 A 
HETATM    5  C6  UNL     1       3.587  38.246  25.935  1.00  0.00    -0.022 A 
HETATM    6  C7  UNL     1       2.823  37.661  24.952  1.00  0.00     0.025 A 
HETATM    7  C8  UNL     1       3.176  38.369  27.339  1.00  0.00     0.056 C 
HETATM    8  C15 UNL     1       4.431  38.067  28.169  1.00  0.00     0.044 C 
HETATM    9  C16 UNL     1       5.452  39.157  28.005  1.00  0.00     0.116 C 
HETATM   10  N4  UNL     1       5.662  39.380  26.603  1.00  0.00    -0.381 N 
ATOM     11  H4  UNL     1       6.420  39.995  26.306  1.00  0.00     0.160 HD
ENDROOT
BRANCH   9  12
HETATM   12  C17 UNL     1       6.707  38.709  28.690  1.00  0.00    -0.033 A 
HETATM   13  C18 UNL     1       7.331  39.448  29.673  1.00  0.00     0.036 A 
HETATM   14  C19 UNL     1       8.491  39.025  30.301  1.00  0.00     0.047 A 
HETATM   15  N3  UNL     1       9.119  39.812  31.319  1.00  0.00    -0.102 NA
HETATM   16  C20 UNL     1       9.060  37.817  29.940  1.00  0.00     0.038 A 
HETATM   17  C21 UNL     1       8.465  37.053  28.963  1.00  0.00    -0.022 A 
HETATM   18  C29 UNL     1       7.303  37.505  28.354  1.00  0.00     0.021 A 
BRANCH  17  19
HETATM   19  C22 UNL     1       9.048  35.777  28.581  1.00  0.00    -0.009 A 
HETATM   20  C23 UNL     1       9.551  34.921  29.551  1.00  0.00     0.013 A 
HETATM   21  C24 UNL     1      10.070  33.688  29.284  1.00  0.00     0.001 A 
HETATM   22  C25 UNL     1      10.115  33.231  27.988  1.00  0.00     0.001 A 
HETATM   23  C26 UNL     1       9.624  34.062  27.007  1.00  0.00     0.019 A 
HETATM   24  C27 UNL     1       9.091  35.331  27.287  1.00  0.00     0.051 A 
BRANCH  24  25
HETATM   25  C28 UNL     1       8.666  36.113  26.149  1.00  0.00     0.210 C 
HETATM   26  O1  UNL     1       9.446  36.903  25.589  1.00  0.00    -0.644 OA
HETATM   27  O2  UNL     1       7.384  36.025  25.632  1.00  0.00    -0.644 OA
ENDBRANCH  24  25
ENDBRANCH  17  19
ENDBRANCH   9  12
BRANCH   7  28
HETATM   28  C9  UNL     1       2.148  37.413  27.765  1.00  0.00    -0.050 A 
HETATM   29  C10 UNL     1       0.824  37.750  27.625  1.00  0.00     0.008 A 
HETATM   30  C11 UNL     1      -0.185  36.858  28.022  1.00  0.00     0.001 A 
HETATM   31  C12 UNL     1       0.154  35.643  28.555  1.00  0.00     0.000 A 
HETATM   32  C13 UNL     1       1.466  35.292  28.701  1.00  0.00     0.001 A 
HETATM   33  C14 UNL     1       2.464  36.193  28.299  1.00  0.00     0.008 A 
ENDBRANCH   7  28
BRANCH   1  34
HETATM   34  C1  UNL     1       2.461  36.956  22.598  1.00  0.00     0.120 C 
HETATM   35  N1  UNL     1       1.809  37.823  21.685  1.00  0.00    -0.082 NA
HETATM   36  N2  UNL     1       2.301  35.709  22.439  1.00  0.00    -0.387 N 
ATOM     37  H22 UNL     1       1.739  35.277  21.705  1.00  0.00     0.157 HD
ATOM     38  H21 UNL     1       2.771  35.085  23.096  1.00  0.00     0.157 HD
ENDBRANCH   1  34
TORSDOF 5
ENDMDL
