MODEL 2
REMARK VINA RESULT: -8.828817746      3.638      8.889
REMARK  5 active torsions:
REMARK  status: ('A' for Active; 'I' for Inactive)
REMARK    1  A    between atoms: C1_2  and  C2_6 
REMARK    2  A    between atoms: C8_12  and  C9_13 
REMARK    3  A    between atoms: C16_20  and  C17_21 
REMARK    4  A    between atoms: C21_26  and  C22_27 
REMARK    5  A    between atoms: C27_32  and  C28_33 
ROOT
HETATM    1  C2  UNL     1       8.742  40.916  19.166  1.00  0.00     0.005 A 
HETATM    2  C3  UNL     1       8.748  39.552  19.009  1.00  0.00     0.017 A 
HETATM    3  C4  UNL     1       9.007  38.716  20.098  1.00  0.00     0.031 A 
HETATM    4  C5  UNL     1       9.257  39.235  21.329  1.00  0.00     0.035 A 
HETATM    5  C6  UNL     1       9.256  40.611  21.508  1.00  0.00    -0.022 A 
HETATM    6  C7  UNL     1       8.999  41.426  20.429  1.00  0.00     0.025 A 
HETATM    7  C8  UNL     1       9.533  41.097  22.865  1.00  0.00     0.056 C 
HETATM    8  C15 UNL     1       8.781  40.148  23.809  1.00  0.00     0.044 C 
HETATM    9  C16 UNL     1       9.400  38.779  23.792  1.00  0.00     0.116 C 
HETATM   10  N4  UNL     1       9.519  38.348  22.429  1.00  0.00    -0.381 N 
ATOM     11  H4  UNL     1       9.798  37.386  22.235  1.00  0.00     0.160 HD
ENDROOT
BRANCH   9  12
HETATM   12  C17 UNL     1       8.512  37.871  24.587  1.00  0.00    -0.033 A 
HETATM   13  C18 UNL     1       7.145  37.819  24.416  1.00  0.00     0.036 A 
HETATM   14  C19 UNL     1       6.332  36.976  25.156  1.00  0.00     0.047 A 
HETATM   15  N3  UNL     1       4.915  36.941  24.958  1.00  0.00    -0.102 NA
HETATM   16  C20 UNL     1       6.898  36.149  26.109  1.00  0.00     0.038 A 
HETATM   17  C21 UNL     1       8.259  36.174  26.308  1.00  0.00    -0.022 A 
HETATM   18  C29 UNL     1       9.044  37.030  25.549  1.00  0.00     0.021 A 
BRANCH  17  19
HETATM   19  C22 UNL     1       8.865  35.301  27.300  1.00  0.00    -0.009 A 
HETATM   20  C23 UNL     1       9.424  34.091  26.918  1.00  0.00     0.013 A 
HETATM   21  C24 UNL     1      10.054  33.237  27.776  1.00  0.00     0.001 A 
HETATM   22  C25 UNL     1      10.161  33.561  29.107  1.00  0.00     0.001 A 
HETATM   23  C26 UNL     1       9.614  34.757  29.512  1.00  0.00     0.019 A 
HETATM   24  C27 UNL     1       8.966  35.632  28.625  1.00  0.00     0.051 A 
BRANCH  24  25
HETATM   25  C28 UNL     1       8.391  36.824  29.206  1.00  0.00     0.210 C 
HETATM   26  O1  UNL     1       9.099  37.809  29.475  1.00  0.00    -0.644 OA
HETATM   27  O2  UNL     1       7.038  36.927  29.488  1.00  0.00    -0.644 OA
ENDBRANCH  24  25
ENDBRANCH  17  19
ENDBRANCH   9  12
BRANCH   7  28
HETATM   28  C9  UNL     1       9.042  42.450  23.146  1.00  0.00    -0.050 A 
HETATM   29  C10 UNL     1       9.871  43.521  22.922  1.00  0.00     0.008 A 
HETATM   30  C11 UNL     1       9.433  44.830  23.181  1.00  0.00     0.001 A 
HETATM   31  C12 UNL     1       8.167  45.039  23.661  1.00  0.00     0.000 A 
HETATM   32  C13 UNL     1       7.329  43.985  23.889  1.00  0.00     0.001 A 
HETATM   33  C14 UNL     1       7.780  42.683  23.626  1.00  0.00     0.008 A 
ENDBRANCH   7  28
BRANCH   1  34
HETATM   34  C1  UNL     1       8.472  41.766  18.026  1.00  0.00     0.120 C 
HETATM   35  N1  UNL     1       8.916  43.111  18.102  1.00  0.00    -0.082 NA
HETATM   36  N2  UNL     1       7.872  41.405  16.970  1.00  0.00    -0.387 N 
ATOM     37  H22 UNL     1       7.682  42.005  16.167  1.00  0.00     0.157 HD
ATOM     38  H21 UNL     1       7.552  40.438  16.916  1.00  0.00     0.157 HD
ENDBRANCH   1  34
TORSDOF 5
ENDMDL
