MODEL 3
REMARK VINA RESULT: -8.821286286      3.223      5.651
REMARK  5 active torsions:
REMARK  status: ('A' for Active; 'I' for Inactive)
REMARK    1  A    between atoms: C1_2  and  C2_6 
REMARK    2  A    between atoms: C8_12  and  C9_13 
REMARK    3  A    between atoms: C16_20  and  C17_21 
REMARK    4  A    between atoms: C21_26  and  C22_27 
REMARK    5  A    between atoms: C27_32  and  C28_33 
ROOT
HETATM    1  C2  UNL     1       9.258  34.853  28.193  1.00  0.00     0.005 A 
HETATM    2  C3  UNL     1       9.365  34.432  26.890  1.00  0.00     0.017 A 
HETATM    3  C4  UNL     1       8.596  35.031  25.889  1.00  0.00     0.031 A 
HETATM    4  C5  UNL     1       7.731  36.038  26.185  1.00  0.00     0.035 A 
HETATM    5  C6  UNL     1       7.609  36.476  27.495  1.00  0.00    -0.022 A 
HETATM    6  C7  UNL     1       8.371  35.880  28.474  1.00  0.00     0.025 A 
HETATM    7  C8  UNL     1       6.656  37.566  27.737  1.00  0.00     0.056 C 
HETATM    8  C15 UNL     1       6.829  38.538  26.562  1.00  0.00     0.044 C 
HETATM    9  C16 UNL     1       6.339  37.920  25.283  1.00  0.00     0.116 C 
HETATM   10  N4  UNL     1       6.956  36.633  25.132  1.00  0.00    -0.381 N 
ATOM     11  H4  UNL     1       6.840  36.127  24.254  1.00  0.00     0.160 HD
ENDROOT
BRANCH   9  12
HETATM   12  C17 UNL     1       6.705  38.846  24.163  1.00  0.00    -0.033 A 
HETATM   13  C18 UNL     1       5.871  39.097  23.095  1.00  0.00     0.036 A 
HETATM   14  C19 UNL     1       6.218  39.956  22.063  1.00  0.00     0.047 A 
HETATM   15  N3  UNL     1       5.333  40.200  20.964  1.00  0.00    -0.102 NA
HETATM   16  C20 UNL     1       7.445  40.593  22.091  1.00  0.00     0.038 A 
HETATM   17  C21 UNL     1       8.303  40.366  23.143  1.00  0.00    -0.022 A 
HETATM   18  C29 UNL     1       7.925  39.501  24.159  1.00  0.00     0.021 A 
BRANCH  17  19
HETATM   19  C22 UNL     1       9.592  41.038  23.188  1.00  0.00    -0.009 A 
HETATM   20  C23 UNL     1       9.686  42.337  23.666  1.00  0.00     0.013 A 
HETATM   21  C24 UNL     1      10.860  43.021  23.786  1.00  0.00     0.001 A 
HETATM   22  C25 UNL     1      12.042  42.421  23.422  1.00  0.00     0.001 A 
HETATM   23  C26 UNL     1      11.975  41.133  22.943  1.00  0.00     0.019 A 
HETATM   24  C27 UNL     1      10.764  40.433  22.820  1.00  0.00     0.051 A 
BRANCH  24  25
HETATM   25  C28 UNL     1      10.844  39.108  22.248  1.00  0.00     0.210 C 
HETATM   26  O1  UNL     1      10.881  38.945  21.017  1.00  0.00    -0.644 OA
HETATM   27  O2  UNL     1      10.882  37.968  23.034  1.00  0.00    -0.644 OA
ENDBRANCH  24  25
ENDBRANCH  17  19
ENDBRANCH   9  12
BRANCH   7  28
HETATM   28  C9  UNL     1       6.900  38.336  28.962  1.00  0.00    -0.050 A 
HETATM   29  C10 UNL     1       5.830  38.730  29.726  1.00  0.00     0.008 A 
HETATM   30  C11 UNL     1       6.028  39.468  30.904  1.00  0.00     0.001 A 
HETATM   31  C12 UNL     1       7.299  39.798  31.293  1.00  0.00     0.000 A 
HETATM   32  C13 UNL     1       8.374  39.413  30.544  1.00  0.00     0.001 A 
HETATM   33  C14 UNL     1       8.162  38.676  29.370  1.00  0.00     0.008 A 
ENDBRANCH   7  28
BRANCH   1  34
HETATM   34  C1  UNL     1      10.062  34.220  29.217  1.00  0.00     0.120 C 
HETATM   35  N1  UNL     1      10.833  33.093  28.832  1.00  0.00    -0.082 NA
HETATM   36  N2  UNL     1      10.132  34.593  30.426  1.00  0.00    -0.387 N 
ATOM     37  H22 UNL     1      10.699  34.147  31.147  1.00  0.00     0.157 HD
ATOM     38  H21 UNL     1       9.578  35.403  30.703  1.00  0.00     0.157 HD
ENDBRANCH   1  34
TORSDOF 5
ENDMDL
