MODEL 2
REMARK VINA RESULT: -8.087353637      1.451      5.554
REMARK  4 active torsions:
REMARK  status: ('A' for Active; 'I' for Inactive)
REMARK    1  A    between atoms: C6_8  and  N2_9 
REMARK    2  A    between atoms: N2_9  and  C7_11 
REMARK    3  A    between atoms: C7_11  and  C8_12 
REMARK    4  A    between atoms: C13_17  and  O1_18 
ROOT
HETATM    1  N2  UNL     1      22.294  29.749   6.241  1.00  0.00    -0.371 N 
ATOM      2  H2  UNL     1      22.071  28.871   5.772  1.00  0.00     0.161 HD
ENDROOT
BRANCH   1   3
HETATM    3  C6  UNL     1      21.711  30.972   5.811  1.00  0.00     0.107 A 
HETATM    4  C2  UNL     1      21.236  31.127   4.522  1.00  0.00    -0.018 A 
HETATM    5  C1  UNL     1      21.354  29.975   3.594  1.00  0.00     0.052 C 
HETATM    6  C3  UNL     1      20.667  32.312   4.094  1.00  0.00     0.012 A 
HETATM    7  C4  UNL     1      20.564  33.379   4.971  1.00  0.00     0.018 A 
HETATM    8  C5  UNL     1      21.043  33.194   6.243  1.00  0.00     0.089 A 
HETATM    9  N1  UNL     1      21.585  32.040   6.622  1.00  0.00    -0.352 N 
ATOM     10  H1  UNL     1      21.924  31.959   7.581  1.00  0.00     0.166 HD
ENDBRANCH   1   3
BRANCH   1  11
HETATM   11  C7  UNL     1      23.190  29.779   7.336  1.00  0.00     0.162 C 
BRANCH  11  12
HETATM   12  C8  UNL     1      24.586  29.434   7.074  1.00  0.00    -0.007 A 
HETATM   13  C9  UNL     1      25.127  29.034   5.892  1.00  0.00     0.011 A 
HETATM   14  C10 UNL     1      26.491  28.734   5.794  1.00  0.00     0.001 A 
HETATM   15  C11 UNL     1      27.341  28.828   6.875  1.00  0.00     0.003 A 
HETATM   16  C12 UNL     1      26.796  29.231   8.075  1.00  0.00     0.037 A 
HETATM   17  C13 UNL     1      25.454  29.526   8.170  1.00  0.00     0.073 A 
BRANCH  17  18
HETATM   18  O1  UNL     1      24.950  29.932   9.408  1.00  0.00    -0.360 OA
ATOM     19  H1  UNL     1      25.164  29.428  10.185  1.00  0.00     0.217 HD
ENDBRANCH  17  18
ENDBRANCH  11  12
ENDBRANCH   1  11
TORSDOF 4
ENDMDL
