MODEL 8
REMARK VINA RESULT: -7.688074445      0.928      1.246
REMARK  4 active torsions:
REMARK  status: ('A' for Active; 'I' for Inactive)
REMARK    1  A    between atoms: C6_8  and  N2_9 
REMARK    2  A    between atoms: N2_9  and  C7_11 
REMARK    3  A    between atoms: C7_11  and  C8_12 
REMARK    4  A    between atoms: C13_17  and  O1_18 
ROOT
HETATM    1  N2  UNL     1      23.203  29.126   6.596  1.00  0.00    -0.371 N 
ATOM      2  H2  UNL     1      22.652  28.310   6.329  1.00  0.00     0.161 HD
ENDROOT
BRANCH   1   3
HETATM    3  C6  UNL     1      24.624  29.072   6.607  1.00  0.00     0.107 A 
HETATM    4  C2  UNL     1      25.336  28.652   5.499  1.00  0.00    -0.018 A 
HETATM    5  C1  UNL     1      24.571  28.256   4.290  1.00  0.00     0.052 C 
HETATM    6  C3  UNL     1      26.716  28.596   5.500  1.00  0.00     0.012 A 
HETATM    7  C4  UNL     1      27.417  28.968   6.636  1.00  0.00     0.018 A 
HETATM    8  C5  UNL     1      26.683  29.381   7.718  1.00  0.00     0.089 A 
HETATM    9  N1  UNL     1      25.354  29.423   7.684  1.00  0.00    -0.352 N 
ATOM     10  H1  UNL     1      24.859  29.739   8.518  1.00  0.00     0.166 HD
ENDBRANCH   1   3
BRANCH   1  11
HETATM   11  C7  UNL     1      22.573  30.339   6.963  1.00  0.00     0.162 C 
BRANCH  11  12
HETATM   12  C8  UNL     1      21.859  31.071   5.919  1.00  0.00    -0.007 A 
HETATM   13  C9  UNL     1      21.471  30.601   4.702  1.00  0.00     0.011 A 
HETATM   14  C10 UNL     1      20.791  31.426   3.800  1.00  0.00     0.001 A 
HETATM   15  C11 UNL     1      20.483  32.737   4.093  1.00  0.00     0.003 A 
HETATM   16  C12 UNL     1      20.876  33.217   5.325  1.00  0.00     0.037 A 
HETATM   17  C13 UNL     1      21.545  32.405   6.213  1.00  0.00     0.073 A 
BRANCH  17  18
HETATM   18  O1  UNL     1      21.919  32.938   7.448  1.00  0.00    -0.360 OA
ATOM     19  H1  UNL     1      22.660  33.531   7.493  1.00  0.00     0.217 HD
ENDBRANCH  17  18
ENDBRANCH  11  12
ENDBRANCH   1  11
TORSDOF 4
ENDMDL
