MODEL 11
REMARK VINA RESULT: -7.628823114      0.676      1.924
REMARK  4 active torsions:
REMARK  status: ('A' for Active; 'I' for Inactive)
REMARK    1  A    between atoms: C6_8  and  N2_9 
REMARK    2  A    between atoms: N2_9  and  C7_11 
REMARK    3  A    between atoms: C7_11  and  C8_12 
REMARK    4  A    between atoms: C13_17  and  O1_18 
ROOT
HETATM    1  N2  UNL     1      23.643  29.636   7.422  1.00  0.00    -0.371 N 
ATOM      2  H2  UNL     1      23.766  29.974   8.377  1.00  0.00     0.161 HD
ENDROOT
BRANCH   1   3
HETATM    3  C6  UNL     1      24.765  29.265   6.632  1.00  0.00     0.107 A 
HETATM    4  C2  UNL     1      26.052  29.342   7.131  1.00  0.00    -0.018 A 
HETATM    5  C1  UNL     1      26.231  29.827   8.522  1.00  0.00     0.052 C 
HETATM    6  C3  UNL     1      27.150  28.984   6.372  1.00  0.00     0.012 A 
HETATM    7  C4  UNL     1      26.968  28.534   5.074  1.00  0.00     0.018 A 
HETATM    8  C5  UNL     1      25.680  28.467   4.608  1.00  0.00     0.089 A 
HETATM    9  N1  UNL     1      24.645  28.820   5.367  1.00  0.00    -0.352 N 
ATOM     10  H1  UNL     1      23.709  28.750   4.968  1.00  0.00     0.166 HD
ENDBRANCH   1   3
BRANCH   1  11
HETATM   11  C7  UNL     1      22.352  29.524   6.853  1.00  0.00     0.162 C 
BRANCH  11  12
HETATM   12  C8  UNL     1      21.826  30.686   6.140  1.00  0.00    -0.007 A 
HETATM   13  C9  UNL     1      21.446  30.747   4.835  1.00  0.00     0.011 A 
HETATM   14  C10 UNL     1      20.959  31.940   4.288  1.00  0.00     0.001 A 
HETATM   15  C11 UNL     1      20.842  33.094   5.031  1.00  0.00     0.003 A 
HETATM   16  C12 UNL     1      21.228  33.036   6.354  1.00  0.00     0.037 A 
HETATM   17  C13 UNL     1      21.707  31.863   6.892  1.00  0.00     0.073 A 
BRANCH  17  18
HETATM   18  O1  UNL     1      22.083  31.854   8.237  1.00  0.00    -0.360 OA
ATOM     19  H1  UNL     1      21.630  32.421   8.850  1.00  0.00     0.217 HD
ENDBRANCH  17  18
ENDBRANCH  11  12
ENDBRANCH   1  11
TORSDOF 4
ENDMDL
