MODEL 4
REMARK VINA RESULT: -7.964077777      1.254      1.731
REMARK  4 active torsions:
REMARK  status: ('A' for Active; 'I' for Inactive)
REMARK    1  A    between atoms: C6_8  and  N2_9 
REMARK    2  A    between atoms: N2_9  and  C7_11 
REMARK    3  A    between atoms: C7_11  and  C8_12 
REMARK    4  A    between atoms: C13_17  and  O1_18 
ROOT
HETATM    1  N2  UNL     1      23.467  29.294   5.942  1.00  0.00    -0.371 N 
ATOM      2  H2  UNL     1      23.442  28.895   5.003  1.00  0.00     0.161 HD
ENDROOT
BRANCH   1   3
HETATM    3  C6  UNL     1      24.659  29.258   6.716  1.00  0.00     0.107 A 
HETATM    4  C2  UNL     1      25.866  28.877   6.160  1.00  0.00    -0.018 A 
HETATM    5  C1  UNL     1      25.882  28.503   4.724  1.00  0.00     0.052 C 
HETATM    6  C3  UNL     1      27.030  28.838   6.903  1.00  0.00     0.012 A 
HETATM    7  C4  UNL     1      26.999  29.189   8.244  1.00  0.00     0.018 A 
HETATM    8  C5  UNL     1      25.787  29.564   8.766  1.00  0.00     0.089 A 
HETATM    9  N1  UNL     1      24.685  29.590   8.021  1.00  0.00    -0.352 N 
ATOM     10  H1  UNL     1      23.812  29.877   8.463  1.00  0.00     0.166 HD
ENDBRANCH   1   3
BRANCH   1  11
HETATM   11  C7  UNL     1      22.317  29.898   6.504  1.00  0.00     0.162 C 
BRANCH  11  12
HETATM   12  C8  UNL     1      21.720  31.018   5.779  1.00  0.00    -0.007 A 
HETATM   13  C9  UNL     1      21.546  32.290   6.229  1.00  0.00     0.011 A 
HETATM   14  C10 UNL     1      20.953  33.261   5.415  1.00  0.00     0.001 A 
HETATM   15  C11 UNL     1      20.523  32.984   4.135  1.00  0.00     0.003 A 
HETATM   16  C12 UNL     1      20.697  31.695   3.677  1.00  0.00     0.037 A 
HETATM   17  C13 UNL     1      21.280  30.739   4.478  1.00  0.00     0.073 A 
BRANCH  17  18
HETATM   18  O1  UNL     1      21.436  29.449   3.966  1.00  0.00    -0.360 OA
ATOM     19  H1  UNL     1      20.829  28.768   4.232  1.00  0.00     0.217 HD
ENDBRANCH  17  18
ENDBRANCH  11  12
ENDBRANCH   1  11
TORSDOF 4
ENDMDL
