MODEL 1
REMARK VINA RESULT: -8.288977264      0.000      0.000
REMARK  4 active torsions:
REMARK  status: ('A' for Active; 'I' for Inactive)
REMARK    1  A    between atoms: C6_8  and  N2_9 
REMARK    2  A    between atoms: N2_9  and  C7_11 
REMARK    3  A    between atoms: C7_11  and  C8_12 
REMARK    4  A    between atoms: C13_17  and  O1_18 
ROOT
HETATM    1  N2  UNL     1      23.689  29.219   5.728  1.00  0.00    -0.371 N 
ATOM      2  H2  UNL     1      23.830  29.017   4.738  1.00  0.00     0.161 HD
ENDROOT
BRANCH   1   3
HETATM    3  C6  UNL     1      24.783  29.213   6.635  1.00  0.00     0.107 A 
HETATM    4  C2  UNL     1      26.060  28.889   6.217  1.00  0.00    -0.018 A 
HETATM    5  C1  UNL     1      26.258  28.544   4.787  1.00  0.00     0.052 C 
HETATM    6  C3  UNL     1      27.131  28.880   7.090  1.00  0.00     0.012 A 
HETATM    7  C4  UNL     1      26.932  29.204   8.423  1.00  0.00     0.018 A 
HETATM    8  C5  UNL     1      25.655  29.522   8.806  1.00  0.00     0.089 A 
HETATM    9  N1  UNL     1      24.645  29.520   7.939  1.00  0.00    -0.352 N 
ATOM     10  H1  UNL     1      23.716  29.766   8.280  1.00  0.00     0.166 HD
ENDBRANCH   1   3
BRANCH   1  11
HETATM   11  C7  UNL     1      22.399  29.513   6.231  1.00  0.00     0.162 C 
BRANCH  11  12
HETATM   12  C8  UNL     1      21.799  30.789   5.846  1.00  0.00    -0.007 A 
HETATM   13  C9  UNL     1      21.260  31.114   4.640  1.00  0.00     0.011 A 
HETATM   14  C10 UNL     1      20.720  32.385   4.417  1.00  0.00     0.001 A 
HETATM   15  C11 UNL     1      20.705  33.358   5.394  1.00  0.00     0.003 A 
HETATM   16  C12 UNL     1      21.252  33.032   6.617  1.00  0.00     0.037 A 
HETATM   17  C13 UNL     1      21.783  31.781   6.836  1.00  0.00     0.073 A 
BRANCH  17  18
HETATM   18  O1  UNL     1      22.324  31.499   8.092  1.00  0.00    -0.360 OA
ATOM     19  H1  UNL     1      22.629  32.215   8.638  1.00  0.00     0.217 HD
ENDBRANCH  17  18
ENDBRANCH  11  12
ENDBRANCH   1  11
TORSDOF 4
ENDMDL
