MODEL 3
REMARK VINA RESULT: -7.983688407      4.656      8.581
REMARK  4 active torsions:
REMARK  status: ('A' for Active; 'I' for Inactive)
REMARK    1  A    between atoms: C6_8  and  N2_9 
REMARK    2  A    between atoms: N2_9  and  C7_11 
REMARK    3  A    between atoms: C7_11  and  C8_12 
REMARK    4  A    between atoms: C13_17  and  O1_18 
ROOT
HETATM    1  N2  UNL     1      29.328  28.790   8.074  1.00  0.00    -0.371 N 
ATOM      2  H2  UNL     1      29.951  29.515   7.718  1.00  0.00     0.161 HD
ENDROOT
BRANCH   1   3
HETATM    3  C6  UNL     1      27.943  28.800   7.753  1.00  0.00     0.107 A 
HETATM    4  C2  UNL     1      27.510  28.904   6.445  1.00  0.00    -0.018 A 
HETATM    5  C1  UNL     1      28.537  29.008   5.379  1.00  0.00     0.052 C 
HETATM    6  C3  UNL     1      26.167  28.914   6.122  1.00  0.00     0.012 A 
HETATM    7  C4  UNL     1      25.219  28.816   7.128  1.00  0.00     0.018 A 
HETATM    8  C5  UNL     1      25.680  28.713   8.415  1.00  0.00     0.089 A 
HETATM    9  N1  UNL     1      26.981  28.707   8.692  1.00  0.00    -0.352 N 
ATOM     10  H1  UNL     1      27.267  28.627   9.667  1.00  0.00     0.166 HD
ENDBRANCH   1   3
BRANCH   1  11
HETATM   11  C7  UNL     1      29.821  27.751   8.899  1.00  0.00     0.162 C 
BRANCH  11  12
HETATM   12  C8  UNL     1      30.720  26.774   8.288  1.00  0.00    -0.007 A 
HETATM   13  C9  UNL     1      31.300  26.845   7.060  1.00  0.00     0.011 A 
HETATM   14  C10 UNL     1      32.144  25.824   6.607  1.00  0.00     0.001 A 
HETATM   15  C11 UNL     1      32.425  24.712   7.371  1.00  0.00     0.003 A 
HETATM   16  C12 UNL     1      31.838  24.637   8.617  1.00  0.00     0.037 A 
HETATM   17  C13 UNL     1      31.008  25.641   9.062  1.00  0.00     0.073 A 
BRANCH  17  18
HETATM   18  O1  UNL     1      30.439  25.519  10.331  1.00  0.00    -0.360 OA
ATOM     19  H1  UNL     1      30.808  24.898  10.948  1.00  0.00     0.217 HD
ENDBRANCH  17  18
ENDBRANCH  11  12
ENDBRANCH   1  11
TORSDOF 4
ENDMDL
