MODEL 5
REMARK VINA RESULT: -7.838453807      2.192      5.901
REMARK  4 active torsions:
REMARK  status: ('A' for Active; 'I' for Inactive)
REMARK    1  A    between atoms: C6_8  and  N2_9 
REMARK    2  A    between atoms: N2_9  and  C7_11 
REMARK    3  A    between atoms: C7_11  and  C8_12 
REMARK    4  A    between atoms: C13_17  and  O1_18 
ROOT
HETATM    1  N2  UNL     1      22.137  29.045   5.504  1.00  0.00    -0.371 N 
ATOM      2  H2  UNL     1      21.711  28.545   6.284  1.00  0.00     0.161 HD
ENDROOT
BRANCH   1   3
HETATM    3  C6  UNL     1      21.689  30.344   5.141  1.00  0.00     0.107 A 
HETATM    4  C2  UNL     1      21.702  31.388   6.048  1.00  0.00    -0.018 A 
HETATM    5  C1  UNL     1      22.199  31.112   7.419  1.00  0.00     0.052 C 
HETATM    6  C3  UNL     1      21.269  32.655   5.706  1.00  0.00     0.012 A 
HETATM    7  C4  UNL     1      20.807  32.897   4.422  1.00  0.00     0.018 A 
HETATM    8  C5  UNL     1      20.807  31.843   3.545  1.00  0.00     0.089 A 
HETATM    9  N1  UNL     1      21.231  30.635   3.908  1.00  0.00    -0.352 N 
ATOM     10  H1  UNL     1      21.209  29.888   3.214  1.00  0.00     0.166 HD
ENDBRANCH   1   3
BRANCH   1  11
HETATM   11  C7  UNL     1      23.188  28.462   4.757  1.00  0.00     0.162 C 
BRANCH  11  12
HETATM   12  C8  UNL     1      24.550  28.636   5.259  1.00  0.00    -0.007 A 
HETATM   13  C9  UNL     1      24.923  28.981   6.521  1.00  0.00     0.011 A 
HETATM   14  C10 UNL     1      26.276  29.111   6.856  1.00  0.00     0.001 A 
HETATM   15  C11 UNL     1      27.282  28.898   5.939  1.00  0.00     0.003 A 
HETATM   16  C12 UNL     1      26.907  28.549   4.659  1.00  0.00     0.037 A 
HETATM   17  C13 UNL     1      25.576  28.421   4.329  1.00  0.00     0.073 A 
BRANCH  17  18
HETATM   18  O1  UNL     1      25.247  28.064   3.020  1.00  0.00    -0.360 OA
ATOM     19  H1  UNL     1      25.934  28.017   2.365  1.00  0.00     0.217 HD
ENDBRANCH  17  18
ENDBRANCH  11  12
ENDBRANCH   1  11
TORSDOF 4
ENDMDL
