MODEL 14
REMARK VINA RESULT: -8.187793118      4.046      6.065
REMARK  4 active torsions:
REMARK  status: ('A' for Active; 'I' for Inactive)
REMARK    1  A    between atoms: O1_1  and  C1_3 
REMARK    2  A    between atoms: C6_9  and  C7_10 
REMARK    3  A    between atoms: N1_11  and  C8_13 
REMARK    4  A    between atoms: C12_19  and  C13_20 
ROOT
HETATM    1  C8  UNL     1      29.178  24.352  -6.811  1.00  0.00     0.119 A 
HETATM    2  N2  UNL     1      29.812  24.628  -7.963  1.00  0.00    -0.352 N 
ATOM      3  H2  UNL     1      30.186  23.870  -8.534  1.00  0.00     0.166 HD
HETATM    4  C9  UNL     1      29.954  25.896  -8.361  1.00  0.00     0.090 A 
HETATM    5  C10 UNL     1      29.418  26.880  -7.579  1.00  0.00     0.018 A 
HETATM    6  C11 UNL     1      28.789  26.639  -6.385  1.00  0.00     0.020 A 
HETATM    7  C12 UNL     1      28.677  25.311  -5.975  1.00  0.00     0.052 A 
ENDROOT
BRANCH   1   8
HETATM    8  N1  UNL     1      28.895  23.058  -6.409  1.00  0.00    -0.351 N 
HETATM    9  C7  UNL     1      29.895  22.128  -6.433  1.00  0.00     0.104 C 
ATOM     10  H1  UNL     1      27.958  22.803  -6.100  1.00  0.00     0.166 HD
BRANCH   9  11
HETATM   11  C6  UNL     1      31.111  21.694  -5.917  1.00  0.00     0.013 A 
HETATM   12  C1  UNL     1      30.769  21.033  -4.646  1.00  0.00     0.080 A 
HETATM   13  C2  UNL     1      31.639  20.307  -3.969  1.00  0.00     0.079 A 
HETATM   14  C3  UNL     1      32.922  20.146  -4.463  1.00  0.00     0.119 A 
HETATM   15  F1  UNL     1      33.738  19.320  -3.769  1.00  0.00    -0.206 F 
HETATM   16  C4  UNL     1      33.277  20.734  -5.645  1.00  0.00     0.043 A 
HETATM   17  C5  UNL     1      32.340  21.512  -6.352  1.00  0.00     0.018 A 
BRANCH  12  18
HETATM   18  O1  UNL     1      29.420  21.340  -4.365  1.00  0.00    -0.360 OA
ATOM     19  H1  UNL     1      28.698  20.772  -4.123  1.00  0.00     0.217 HD
ENDBRANCH  12  18
ENDBRANCH   9  11
ENDBRANCH   1   8
BRANCH   7  20
HETATM   20  C13 UNL     1      28.336  25.001  -4.589  1.00  0.00     0.119 A 
HETATM   21  N3  UNL     1      28.428  26.182  -3.792  1.00  0.00    -0.351 N 
HETATM   22  C14 UNL     1      28.206  26.175  -2.499  1.00  0.00     0.091 A 
ATOM     23  H3  UNL     1      28.676  27.061  -4.244  1.00  0.00     0.166 HD
HETATM   24  C15 UNL     1      27.873  25.037  -1.853  1.00  0.00     0.034 A 
HETATM   25  C16 UNL     1      27.788  23.855  -2.628  1.00  0.00     0.091 A 
HETATM   26  N4  UNL     1      28.043  23.919  -3.988  1.00  0.00    -0.351 N 
ATOM     27  H4  UNL     1      27.994  23.058  -4.533  1.00  0.00     0.166 HD
ENDBRANCH   7  20
TORSDOF 4
ENDMDL
