MODEL 10
REMARK VINA RESULT: -8.349299001      3.996      6.273
REMARK  4 active torsions:
REMARK  status: ('A' for Active; 'I' for Inactive)
REMARK    1  A    between atoms: O1_1  and  C1_3 
REMARK    2  A    between atoms: C6_9  and  C7_10 
REMARK    3  A    between atoms: N1_11  and  C8_13 
REMARK    4  A    between atoms: C12_19  and  C13_20 
ROOT
HETATM    1  C8  UNL     1      28.524  24.466  -5.165  1.00  0.00     0.119 A 
HETATM    2  N2  UNL     1      29.025  24.799  -6.367  1.00  0.00    -0.352 N 
ATOM      3  H2  UNL     1      29.210  24.074  -7.060  1.00  0.00     0.166 HD
HETATM    4  C9  UNL     1      29.279  26.078  -6.655  1.00  0.00     0.090 A 
HETATM    5  C10 UNL     1      28.993  27.020  -5.706  1.00  0.00     0.018 A 
HETATM    6  C11 UNL     1      28.509  26.717  -4.461  1.00  0.00     0.020 A 
HETATM    7  C12 UNL     1      28.276  25.373  -4.172  1.00  0.00     0.052 A 
ENDROOT
BRANCH   1   8
HETATM    8  N1  UNL     1      28.128  23.177  -4.854  1.00  0.00    -0.351 N 
HETATM    9  C7  UNL     1      28.937  22.136  -5.211  1.00  0.00     0.104 C 
ATOM     10  H1  UNL     1      27.249  23.007  -4.367  1.00  0.00     0.166 HD
BRANCH   9  11
HETATM   11  C6  UNL     1      30.148  21.475  -5.040  1.00  0.00     0.013 A 
HETATM   12  C1  UNL     1      30.885  21.700  -6.295  1.00  0.00     0.080 A 
HETATM   13  C2  UNL     1      32.164  21.403  -6.429  1.00  0.00     0.079 A 
HETATM   14  C3  UNL     1      32.854  20.866  -5.356  1.00  0.00     0.119 A 
HETATM   15  F1  UNL     1      34.181  20.667  -5.529  1.00  0.00    -0.206 F 
HETATM   16  C4  UNL     1      32.211  20.652  -4.169  1.00  0.00     0.043 A 
HETATM   17  C5  UNL     1      30.843  20.967  -4.044  1.00  0.00     0.018 A 
BRANCH  12  18
HETATM   18  O1  UNL     1      29.974  22.254  -7.221  1.00  0.00    -0.360 OA
ATOM     19  H1  UNL     1      30.127  22.668  -8.062  1.00  0.00     0.217 HD
ENDBRANCH  12  18
ENDBRANCH   9  11
ENDBRANCH   1   8
BRANCH   7  20
HETATM   20  C13 UNL     1      28.092  24.946  -2.788  1.00  0.00     0.119 A 
HETATM   21  N3  UNL     1      27.938  26.087  -1.944  1.00  0.00    -0.351 N 
HETATM   22  C14 UNL     1      27.791  25.985  -0.644  1.00  0.00     0.091 A 
ATOM     23  H3  UNL     1      27.943  27.015  -2.367  1.00  0.00     0.166 HD
HETATM   24  C15 UNL     1      27.775  24.780  -0.036  1.00  0.00     0.034 A 
HETATM   25  C16 UNL     1      27.938  23.639  -0.857  1.00  0.00     0.091 A 
HETATM   26  N4  UNL     1      28.100  23.806  -2.222  1.00  0.00    -0.351 N 
ATOM     27  H4  UNL     1      28.232  22.977  -2.802  1.00  0.00     0.166 HD
ENDBRANCH   7  20
TORSDOF 4
ENDMDL
