MODEL 2
REMARK VINA RESULT: -9.347293013      3.688      7.771
REMARK  4 active torsions:
REMARK  status: ('A' for Active; 'I' for Inactive)
REMARK    1  A    between atoms: O1_1  and  C1_3 
REMARK    2  A    between atoms: C6_9  and  C7_10 
REMARK    3  A    between atoms: N1_11  and  C8_13 
REMARK    4  A    between atoms: C12_19  and  C13_20 
ROOT
HETATM    1  C8  UNL     1      29.096  23.609  -5.716  1.00  0.00     0.119 A 
HETATM    2  N2  UNL     1      28.203  24.237  -4.932  1.00  0.00    -0.352 N 
ATOM      3  H2  UNL     1      27.921  25.193  -5.146  1.00  0.00     0.166 HD
HETATM    4  C9  UNL     1      27.685  23.609  -3.873  1.00  0.00     0.090 A 
HETATM    5  C10 UNL     1      28.072  22.319  -3.636  1.00  0.00     0.018 A 
HETATM    6  C11 UNL     1      29.000  21.657  -4.396  1.00  0.00     0.020 A 
HETATM    7  C12 UNL     1      29.549  22.341  -5.481  1.00  0.00     0.052 A 
ENDROOT
BRANCH   1   8
HETATM    8  N1  UNL     1      29.574  24.163  -6.891  1.00  0.00    -0.351 N 
HETATM    9  C7  UNL     1      29.144  25.407  -7.254  1.00  0.00     0.104 C 
ATOM     10  H1  UNL     1      30.236  23.652  -7.474  1.00  0.00     0.166 HD
BRANCH   9  11
HETATM   11  C6  UNL     1      29.122  26.771  -6.983  1.00  0.00     0.013 A 
HETATM   12  C1  UNL     1      28.841  27.412  -8.279  1.00  0.00     0.080 A 
HETATM   13  C2  UNL     1      28.534  28.691  -8.384  1.00  0.00     0.079 A 
HETATM   14  C3  UNL     1      28.465  29.471  -7.243  1.00  0.00     0.119 A 
HETATM   15  F1  UNL     1      28.060  30.751  -7.408  1.00  0.00    -0.206 F 
HETATM   16  C4  UNL     1      28.708  28.913  -6.019  1.00  0.00     0.043 A 
HETATM   17  C5  UNL     1      29.041  27.547  -5.923  1.00  0.00     0.018 A 
BRANCH  12  18
HETATM   18  O1  UNL     1      28.968  26.417  -9.273  1.00  0.00    -0.360 OA
ATOM     19  H1  UNL     1      29.743  26.067  -9.697  1.00  0.00     0.217 HD
ENDBRANCH  12  18
ENDBRANCH   9  11
ENDBRANCH   1   8
BRANCH   7  20
HETATM   20  C13 UNL     1      30.764  21.842  -6.118  1.00  0.00     0.119 A 
HETATM   21  N3  UNL     1      31.640  21.296  -5.133  1.00  0.00    -0.351 N 
HETATM   22  C14 UNL     1      32.820  20.809  -5.435  1.00  0.00     0.091 A 
ATOM     23  H3  UNL     1      31.337  21.284  -4.159  1.00  0.00     0.166 HD
HETATM   24  C15 UNL     1      33.267  20.799  -6.708  1.00  0.00     0.034 A 
HETATM   25  C16 UNL     1      32.415  21.348  -7.697  1.00  0.00     0.091 A 
HETATM   26  N4  UNL     1      31.184  21.858  -7.320  1.00  0.00    -0.351 N 
ATOM     27  H4  UNL     1      30.585  22.265  -8.039  1.00  0.00     0.166 HD
ENDBRANCH   7  20
TORSDOF 4
ENDMDL
