MODEL 3
REMARK VINA RESULT: -9.154444564      4.125      8.219
REMARK  4 active torsions:
REMARK  status: ('A' for Active; 'I' for Inactive)
REMARK    1  A    between atoms: O1_1  and  C1_3 
REMARK    2  A    between atoms: C6_9  and  C7_10 
REMARK    3  A    between atoms: N1_11  and  C8_13 
REMARK    4  A    between atoms: C12_19  and  C13_20 
ROOT
HETATM    1  C8  UNL     1      29.263  22.732  -5.197  1.00  0.00     0.119 A 
HETATM    2  N2  UNL     1      28.242  23.386  -4.615  1.00  0.00    -0.352 N 
ATOM      3  H2  UNL     1      27.834  24.202  -5.070  1.00  0.00     0.166 HD
HETATM    4  C9  UNL     1      27.761  22.965  -3.442  1.00  0.00     0.090 A 
HETATM    5  C10 UNL     1      28.320  21.852  -2.879  1.00  0.00     0.018 A 
HETATM    6  C11 UNL     1      29.379  21.177  -3.429  1.00  0.00     0.020 A 
HETATM    7  C12 UNL     1      29.883  21.650  -4.640  1.00  0.00     0.052 A 
ENDROOT
BRANCH   1   8
HETATM    8  N1  UNL     1      29.721  23.048  -6.465  1.00  0.00    -0.351 N 
HETATM    9  C7  UNL     1      29.284  24.198  -7.056  1.00  0.00     0.104 C 
ATOM     10  H1  UNL     1      30.374  22.432  -6.948  1.00  0.00     0.166 HD
BRANCH   9  11
HETATM   11  C6  UNL     1      29.264  25.588  -7.054  1.00  0.00     0.013 A 
HETATM   12  C1  UNL     1      29.379  25.972  -8.472  1.00  0.00     0.080 A 
HETATM   13  C2  UNL     1      29.183  27.209  -8.889  1.00  0.00     0.079 A 
HETATM   14  C3  UNL     1      28.850  28.191  -7.973  1.00  0.00     0.119 A 
HETATM   15  F1  UNL     1      28.577  29.418  -8.474  1.00  0.00    -0.206 F 
HETATM   16  C4  UNL     1      28.723  27.876  -6.649  1.00  0.00     0.043 A 
HETATM   17  C5  UNL     1      28.942  26.552  -6.217  1.00  0.00     0.018 A 
BRANCH  12  18
HETATM   18  O1  UNL     1      29.716  24.806  -9.194  1.00  0.00    -0.360 OA
ATOM     19  H1  UNL     1      29.612  23.890  -8.966  1.00  0.00     0.217 HD
ENDBRANCH  12  18
ENDBRANCH   9  11
ENDBRANCH   1   8
BRANCH   7  20
HETATM   20  C13 UNL     1      31.194  21.207  -5.107  1.00  0.00     0.119 A 
HETATM   21  N3  UNL     1      31.855  20.476  -4.075  1.00  0.00    -0.351 N 
HETATM   22  C14 UNL     1      33.067  19.993  -4.221  1.00  0.00     0.091 A 
ATOM     23  H3  UNL     1      31.368  20.322  -3.192  1.00  0.00     0.166 HD
HETATM   24  C15 UNL     1      33.753  20.166  -5.370  1.00  0.00     0.034 A 
HETATM   25  C16 UNL     1      33.116  20.900  -6.400  1.00  0.00     0.091 A 
HETATM   26  N4  UNL     1      31.840  21.395  -6.187  1.00  0.00    -0.351 N 
ATOM     27  H4  UNL     1      31.398  21.936  -6.930  1.00  0.00     0.166 HD
ENDBRANCH   7  20
TORSDOF 4
ENDMDL
