MODEL 1
REMARK VINA RESULT: -9.414485265      0.000      0.000
REMARK  4 active torsions:
REMARK  status: ('A' for Active; 'I' for Inactive)
REMARK    1  A    between atoms: O1_1  and  C1_3 
REMARK    2  A    between atoms: C6_9  and  C7_10 
REMARK    3  A    between atoms: N1_11  and  C8_13 
REMARK    4  A    between atoms: C12_19  and  C13_20 
ROOT
HETATM    1  C8  UNL     1      28.717  28.856  -6.414  1.00  0.00     0.119 A 
HETATM    2  N2  UNL     1      29.250  28.461  -5.245  1.00  0.00    -0.352 N 
ATOM      3  H2  UNL     1      29.524  27.487  -5.113  1.00  0.00     0.166 HD
HETATM    4  C9  UNL     1      29.421  29.343  -4.256  1.00  0.00     0.090 A 
HETATM    5  C10 UNL     1      29.063  30.642  -4.484  1.00  0.00     0.018 A 
HETATM    6  C11 UNL     1      28.492  31.076  -5.652  1.00  0.00     0.020 A 
HETATM    7  C12 UNL     1      28.297  30.133  -6.660  1.00  0.00     0.052 A 
ENDROOT
BRANCH   1   8
HETATM    8  N1  UNL     1      28.627  28.018  -7.512  1.00  0.00    -0.351 N 
HETATM    9  C7  UNL     1      29.084  26.736  -7.401  1.00  0.00     0.104 C 
ATOM     10  H1  UNL     1      28.227  28.352  -8.389  1.00  0.00     0.166 HD
BRANCH   9  11
HETATM   11  C6  UNL     1      28.938  25.482  -6.820  1.00  0.00     0.013 A 
HETATM   12  C1  UNL     1      29.609  24.553  -7.746  1.00  0.00     0.080 A 
HETATM   13  C2  UNL     1      29.863  23.297  -7.429  1.00  0.00     0.079 A 
HETATM   14  C3  UNL     1      29.498  22.822  -6.182  1.00  0.00     0.119 A 
HETATM   15  F1  UNL     1      29.864  21.554  -5.886  1.00  0.00    -0.206 F 
HETATM   16  C4  UNL     1      28.883  23.654  -5.287  1.00  0.00     0.043 A 
HETATM   17  C5  UNL     1      28.611  24.990  -5.643  1.00  0.00     0.018 A 
BRANCH  12  18
HETATM   18  O1  UNL     1      29.881  25.270  -8.931  1.00  0.00    -0.360 OA
ATOM     19  H1  UNL     1      29.295  25.735  -9.517  1.00  0.00     0.217 HD
ENDBRANCH  12  18
ENDBRANCH   9  11
ENDBRANCH   1   8
BRANCH   7  20
HETATM   20  C13 UNL     1      27.403  30.433  -7.776  1.00  0.00     0.119 A 
HETATM   21  N3  UNL     1      26.250  31.127  -7.301  1.00  0.00    -0.351 N 
HETATM   22  C14 UNL     1      25.270  31.486  -8.096  1.00  0.00     0.091 A 
ATOM     23  H3  UNL     1      26.187  31.353  -6.309  1.00  0.00     0.166 HD
HETATM   24  C15 UNL     1      25.306  31.214  -9.417  1.00  0.00     0.034 A 
HETATM   25  C16 UNL     1      26.438  30.515  -9.902  1.00  0.00     0.091 A 
HETATM   26  N4  UNL     1      27.439  30.152  -9.017  1.00  0.00    -0.351 N 
ATOM     27  H4  UNL     1      28.242  29.636  -9.375  1.00  0.00     0.166 HD
ENDBRANCH   7  20
TORSDOF 4
ENDMDL
