MODEL 2
REMARK VINA RESULT: -9.392858160      0.709      9.097
REMARK  8 active torsions:
REMARK  status: ('A' for Active; 'I' for Inactive)
REMARK    1  A    between atoms: O1_1  and  C1_3 
REMARK    2  A    between atoms: C6_8  and  C7_9 
REMARK    3  A    between atoms: C7_9  and  N1_10 
REMARK    4  A    between atoms: N1_10  and  C8_12 
REMARK    5  A    between atoms: C10_14  and  N2_15 
REMARK    6  A    between atoms: N2_15  and  C11_17 
REMARK    7  A    between atoms: C11_17  and  C12_18 
REMARK    8  A    between atoms: C17_23  and  O2_24 
ROOT
HETATM    1  C8  UNL     1      25.326  29.196   7.014  1.00  0.00     0.105 A 
HETATM    2  C9  UNL     1      26.518  28.871   6.355  1.00  0.00     0.096 A 
HETATM    3  C10 UNL     1      27.715  28.827   7.021  1.00  0.00     0.105 A 
HETATM    4  N3  UNL     1      27.676  29.123   8.371  1.00  0.00    -0.339 N 
ATOM      5  H3  UNL     1      28.538  29.105   8.916  1.00  0.00     0.168 HD
HETATM    6  C18 UNL     1      26.536  29.428   8.965  1.00  0.00     0.183 A 
HETATM    7  N4  UNL     1      25.359  29.475   8.344  1.00  0.00    -0.339 N 
ATOM      8  H4  UNL     1      24.507  29.713   8.851  1.00  0.00     0.168 HD
ENDROOT
BRANCH   1   9
HETATM    9  N1  UNL     1      24.058  29.204   6.358  1.00  0.00    -0.372 N 
ATOM     10  H1  UNL     1      23.976  28.755   5.446  1.00  0.00     0.161 HD
BRANCH   9  11
HETATM   11  C7  UNL     1      22.897  29.815   6.929  1.00  0.00     0.162 C 
BRANCH  11  12
HETATM   12  C6  UNL     1      22.093  30.680   6.044  1.00  0.00    -0.007 A 
HETATM   13  C1  UNL     1      21.741  31.918   6.521  1.00  0.00     0.073 A 
HETATM   14  C2  UNL     1      21.010  32.806   5.773  1.00  0.00     0.037 A 
HETATM   15  C3  UNL     1      20.608  32.458   4.504  1.00  0.00     0.003 A 
HETATM   16  C4  UNL     1      20.939  31.227   3.986  1.00  0.00     0.001 A 
HETATM   17  C5  UNL     1      21.694  30.335   4.788  1.00  0.00     0.011 A 
BRANCH  13  18
HETATM   18  O1  UNL     1      22.124  32.306   7.783  1.00  0.00    -0.360 OA
ATOM     19  H1  UNL     1      22.272  31.626   8.430  1.00  0.00     0.217 HD
ENDBRANCH  13  18
ENDBRANCH  11  12
ENDBRANCH   9  11
ENDBRANCH   1   9
BRANCH   3  20
HETATM   20  N2  UNL     1      29.005  28.557   6.466  1.00  0.00    -0.372 N 
ATOM     21  H2  UNL     1      29.057  28.268   5.489  1.00  0.00     0.161 HD
BRANCH  20  22
HETATM   22  C11 UNL     1      30.221  28.669   7.199  1.00  0.00     0.162 C 
BRANCH  22  23
HETATM   23  C12 UNL     1      30.828  27.303   7.381  1.00  0.00    -0.007 A 
HETATM   24  C13 UNL     1      31.689  26.743   6.507  1.00  0.00     0.011 A 
HETATM   25  C14 UNL     1      32.330  25.511   6.792  1.00  0.00     0.001 A 
HETATM   26  C15 UNL     1      32.057  24.863   8.014  1.00  0.00     0.003 A 
HETATM   27  C16 UNL     1      31.179  25.436   8.894  1.00  0.00     0.037 A 
HETATM   28  C17 UNL     1      30.579  26.639   8.575  1.00  0.00     0.073 A 
BRANCH  28  29
HETATM   29  O2  UNL     1      29.677  27.243   9.441  1.00  0.00    -0.360 OA
ATOM     30  H2  UNL     1      30.015  27.953   9.974  1.00  0.00     0.217 HD
ENDBRANCH  28  29
ENDBRANCH  22  23
ENDBRANCH  20  22
ENDBRANCH   3  20
TORSDOF 8
ENDMDL
