MODEL 3
REMARK VINA RESULT: -9.349144948      1.028      9.078
REMARK  8 active torsions:
REMARK  status: ('A' for Active; 'I' for Inactive)
REMARK    1  A    between atoms: O1_1  and  C1_3 
REMARK    2  A    between atoms: C6_8  and  C7_9 
REMARK    3  A    between atoms: C7_9  and  N1_10 
REMARK    4  A    between atoms: N1_10  and  C8_12 
REMARK    5  A    between atoms: C10_14  and  N2_15 
REMARK    6  A    between atoms: N2_15  and  C11_17 
REMARK    7  A    between atoms: C11_17  and  C12_18 
REMARK    8  A    between atoms: C17_23  and  O2_24 
ROOT
HETATM    1  C8  UNL     1      25.081  29.079   6.681  1.00  0.00     0.105 A 
HETATM    2  C9  UNL     1      26.399  28.806   6.296  1.00  0.00     0.096 A 
HETATM    3  C10 UNL     1      27.425  28.805   7.205  1.00  0.00     0.105 A 
HETATM    4  N3  UNL     1      27.084  29.091   8.514  1.00  0.00    -0.339 N 
ATOM      5  H3  UNL     1      27.808  29.104   9.232  1.00  0.00     0.168 HD
HETATM    6  C18 UNL     1      25.831  29.346   8.847  1.00  0.00     0.183 A 
HETATM    7  N4  UNL     1      24.815  29.350   7.986  1.00  0.00    -0.339 N 
ATOM      8  H4  UNL     1      23.865  29.551   8.297  1.00  0.00     0.168 HD
ENDROOT
BRANCH   1   9
HETATM    9  N1  UNL     1      23.985  29.040   5.768  1.00  0.00    -0.372 N 
ATOM     10  H1  UNL     1      24.179  28.900   4.776  1.00  0.00     0.161 HD
BRANCH   9  11
HETATM   11  C7  UNL     1      22.625  29.189   6.187  1.00  0.00     0.162 C 
BRANCH  11  12
HETATM   12  C6  UNL     1      21.965  30.471   5.870  1.00  0.00    -0.007 A 
HETATM   13  C1  UNL     1      21.963  31.438   6.845  1.00  0.00     0.073 A 
HETATM   14  C2  UNL     1      21.393  32.671   6.647  1.00  0.00     0.037 A 
HETATM   15  C3  UNL     1      20.798  32.959   5.440  1.00  0.00     0.003 A 
HETATM   16  C4  UNL     1      20.777  32.020   4.436  1.00  0.00     0.001 A 
HETATM   17  C5  UNL     1      21.375  30.758   4.676  1.00  0.00     0.011 A 
BRANCH  13  18
HETATM   18  O1  UNL     1      22.549  31.191   8.063  1.00  0.00    -0.360 OA
ATOM     19  H1  UNL     1      22.868  30.312   8.231  1.00  0.00     0.217 HD
ENDBRANCH  13  18
ENDBRANCH  11  12
ENDBRANCH   9  11
ENDBRANCH   1   9
BRANCH   3  20
HETATM   20  N2  UNL     1      28.814  28.590   6.941  1.00  0.00    -0.372 N 
ATOM     21  H2  UNL     1      29.107  28.473   5.971  1.00  0.00     0.161 HD
BRANCH  20  22
HETATM   22  C11 UNL     1      29.812  28.529   7.956  1.00  0.00     0.162 C 
BRANCH  22  23
HETATM   23  C12 UNL     1      30.662  27.303   7.756  1.00  0.00    -0.007 A 
HETATM   24  C13 UNL     1      30.664  26.247   8.597  1.00  0.00     0.011 A 
HETATM   25  C14 UNL     1      31.384  25.065   8.292  1.00  0.00     0.001 A 
HETATM   26  C15 UNL     1      32.113  24.999   7.087  1.00  0.00     0.003 A 
HETATM   27  C16 UNL     1      32.110  26.076   6.242  1.00  0.00     0.037 A 
HETATM   28  C17 UNL     1      31.391  27.206   6.579  1.00  0.00     0.073 A 
BRANCH  28  29
HETATM   29  O2  UNL     1      31.373  28.319   5.748  1.00  0.00    -0.360 OA
ATOM     30  H2  UNL     1      30.944  28.212   4.907  1.00  0.00     0.217 HD
ENDBRANCH  28  29
ENDBRANCH  22  23
ENDBRANCH  20  22
ENDBRANCH   3  20
TORSDOF 8
ENDMDL
