MODEL 1
REMARK VINA RESULT: -9.526395988      0.000      0.000
REMARK  8 active torsions:
REMARK  status: ('A' for Active; 'I' for Inactive)
REMARK    1  A    between atoms: O1_1  and  C1_3 
REMARK    2  A    between atoms: C6_8  and  C7_9 
REMARK    3  A    between atoms: C7_9  and  N1_10 
REMARK    4  A    between atoms: N1_10  and  C8_12 
REMARK    5  A    between atoms: C10_14  and  N2_15 
REMARK    6  A    between atoms: N2_15  and  C11_17 
REMARK    7  A    between atoms: C11_17  and  C12_18 
REMARK    8  A    between atoms: C17_23  and  O2_24 
ROOT
HETATM    1  C8  UNL     1      27.304  28.880   6.801  1.00  0.00     0.105 A 
HETATM    2  C9  UNL     1      26.219  28.809   5.919  1.00  0.00     0.096 A 
HETATM    3  C10 UNL     1      24.929  28.948   6.359  1.00  0.00     0.105 A 
HETATM    4  N3  UNL     1      24.764  29.159   7.716  1.00  0.00    -0.339 N 
ATOM      5  H3  UNL     1      23.824  29.270   8.098  1.00  0.00     0.168 HD
HETATM    6  C18 UNL     1      25.807  29.219   8.524  1.00  0.00     0.183 A 
HETATM    7  N4  UNL     1      27.070  29.091   8.123  1.00  0.00    -0.339 N 
ATOM      8  H4  UNL     1      27.841  29.149   8.789  1.00  0.00     0.168 HD
ENDROOT
BRANCH   1   9
HETATM    9  N1  UNL     1      28.660  28.786   6.366  1.00  0.00    -0.372 N 
ATOM     10  H1  UNL     1      28.848  28.652   5.373  1.00  0.00     0.161 HD
BRANCH   9  11
HETATM   11  C7  UNL     1      29.768  28.873   7.268  1.00  0.00     0.162 C 
BRANCH  11  12
HETATM   12  C6  UNL     1      30.462  27.612   7.598  1.00  0.00    -0.007 A 
HETATM   13  C1  UNL     1      30.186  27.038   8.815  1.00  0.00     0.073 A 
HETATM   14  C2  UNL     1      30.763  25.858   9.211  1.00  0.00     0.037 A 
HETATM   15  C3  UNL     1      31.650  25.220   8.375  1.00  0.00     0.003 A 
HETATM   16  C4  UNL     1      31.955  25.759   7.147  1.00  0.00     0.001 A 
HETATM   17  C5  UNL     1      31.341  26.980   6.771  1.00  0.00     0.011 A 
BRANCH  13  18
HETATM   18  O1  UNL     1      29.304  27.643   9.678  1.00  0.00    -0.360 OA
ATOM     19  H1  UNL     1      28.381  27.439   9.584  1.00  0.00     0.217 HD
ENDBRANCH  13  18
ENDBRANCH  11  12
ENDBRANCH   9  11
ENDBRANCH   1   9
BRANCH   3  20
HETATM   20  N2  UNL     1      23.734  28.852   5.580  1.00  0.00    -0.372 N 
ATOM     21  H2  UNL     1      23.822  28.613   4.592  1.00  0.00     0.161 HD
BRANCH  20  22
HETATM   22  C11 UNL     1      22.427  29.070   6.104  1.00  0.00     0.162 C 
BRANCH  22  23
HETATM   23  C12 UNL     1      21.917  30.411   5.648  1.00  0.00    -0.007 A 
HETATM   24  C13 UNL     1      21.349  30.627   4.443  1.00  0.00     0.011 A 
HETATM   25  C14 UNL     1      20.769  31.878   4.117  1.00  0.00     0.001 A 
HETATM   26  C15 UNL     1      20.792  32.914   5.073  1.00  0.00     0.003 A 
HETATM   27  C16 UNL     1      21.374  32.689   6.291  1.00  0.00     0.037 A 
HETATM   28  C17 UNL     1      21.924  31.452   6.567  1.00  0.00     0.073 A 
BRANCH  28  29
HETATM   29  O2  UNL     1      22.530  31.192   7.789  1.00  0.00    -0.360 OA
ATOM     30  H2  UNL     1      22.584  31.920   8.398  1.00  0.00     0.217 HD
ENDBRANCH  28  29
ENDBRANCH  22  23
ENDBRANCH  20  22
ENDBRANCH   3  20
TORSDOF 8
ENDMDL
