MODEL 7
REMARK VINA RESULT: -9.262560003      3.502      7.891
REMARK  8 active torsions:
REMARK  status: ('A' for Active; 'I' for Inactive)
REMARK    1  A    between atoms: O1_1  and  C1_3 
REMARK    2  A    between atoms: C6_8  and  C7_9 
REMARK    3  A    between atoms: C7_9  and  N1_10 
REMARK    4  A    between atoms: N1_10  and  C8_12 
REMARK    5  A    between atoms: C10_14  and  N2_15 
REMARK    6  A    between atoms: N2_15  and  C11_17 
REMARK    7  A    between atoms: C11_17  and  C12_18 
REMARK    8  A    between atoms: C17_23  and  O2_24 
ROOT
HETATM    1  C8  UNL     1      30.453  26.939   8.319  1.00  0.00     0.105 A 
HETATM    2  C9  UNL     1      31.118  27.221   7.120  1.00  0.00     0.096 A 
HETATM    3  C10 UNL     1      32.002  26.332   6.566  1.00  0.00     0.105 A 
HETATM    4  N3  UNL     1      32.198  25.151   7.258  1.00  0.00    -0.339 N 
ATOM      5  H3  UNL     1      32.845  24.454   6.890  1.00  0.00     0.168 HD
HETATM    6  C18 UNL     1      31.558  24.914   8.389  1.00  0.00     0.183 A 
HETATM    7  N4  UNL     1      30.692  25.758   8.948  1.00  0.00    -0.339 N 
ATOM      8  H4  UNL     1      30.221  25.524   9.822  1.00  0.00     0.168 HD
ENDROOT
BRANCH   1   9
HETATM    9  N1  UNL     1      29.492  27.823   8.896  1.00  0.00    -0.372 N 
ATOM     10  H1  UNL     1      29.117  27.604   9.819  1.00  0.00     0.161 HD
BRANCH   9  11
HETATM   11  C7  UNL     1      29.034  29.005   8.233  1.00  0.00     0.162 C 
BRANCH  11  12
HETATM   12  C6  UNL     1      27.757  28.907   7.498  1.00  0.00    -0.007 A 
HETATM   13  C1  UNL     1      26.599  28.970   8.233  1.00  0.00     0.073 A 
HETATM   14  C2  UNL     1      25.360  28.907   7.646  1.00  0.00     0.037 A 
HETATM   15  C3  UNL     1      25.260  28.775   6.281  1.00  0.00     0.003 A 
HETATM   16  C4  UNL     1      26.394  28.708   5.505  1.00  0.00     0.001 A 
HETATM   17  C5  UNL     1      27.657  28.776   6.145  1.00  0.00     0.011 A 
BRANCH  13  18
HETATM   18  O1  UNL     1      26.656  29.104   9.600  1.00  0.00    -0.360 OA
ATOM     19  H1  UNL     1      27.514  29.159  10.004  1.00  0.00     0.217 HD
ENDBRANCH  13  18
ENDBRANCH  11  12
ENDBRANCH   9  11
ENDBRANCH   1   9
BRANCH   3  20
HETATM   20  N2  UNL     1      32.778  26.511   5.378  1.00  0.00    -0.372 N 
ATOM     21  H2  UNL     1      33.783  26.656   5.478  1.00  0.00     0.161 HD
BRANCH  20  22
HETATM   22  C11 UNL     1      32.230  26.497   4.064  1.00  0.00     0.162 C 
BRANCH  22  23
HETATM   23  C12 UNL     1      31.815  27.891   3.675  1.00  0.00    -0.007 A 
HETATM   24  C13 UNL     1      30.533  28.310   3.640  1.00  0.00     0.011 A 
HETATM   25  C14 UNL     1      30.209  29.667   3.394  1.00  0.00     0.001 A 
HETATM   26  C15 UNL     1      31.250  30.592   3.178  1.00  0.00     0.003 A 
HETATM   27  C16 UNL     1      32.548  30.159   3.211  1.00  0.00     0.037 A 
HETATM   28  C17 UNL     1      32.817  28.827   3.457  1.00  0.00     0.073 A 
BRANCH  28  29
HETATM   29  O2  UNL     1      34.122  28.352   3.488  1.00  0.00    -0.360 OA
ATOM     30  H2  UNL     1      34.727  28.814   4.058  1.00  0.00     0.217 HD
ENDBRANCH  28  29
ENDBRANCH  22  23
ENDBRANCH  20  22
ENDBRANCH   3  20
TORSDOF 8
ENDMDL
