MODEL 8
REMARK VINA RESULT: -9.202563730      3.597      6.265
REMARK  8 active torsions:
REMARK  status: ('A' for Active; 'I' for Inactive)
REMARK    1  A    between atoms: O1_1  and  C1_3 
REMARK    2  A    between atoms: C6_8  and  C7_9 
REMARK    3  A    between atoms: C7_9  and  N1_10 
REMARK    4  A    between atoms: N1_10  and  C8_12 
REMARK    5  A    between atoms: C10_14  and  N2_15 
REMARK    6  A    between atoms: N2_15  and  C11_17 
REMARK    7  A    between atoms: C11_17  and  C12_18 
REMARK    8  A    between atoms: C17_23  and  O2_24 
ROOT
HETATM    1  C8  UNL     1      32.121  26.224   6.582  1.00  0.00     0.105 A 
HETATM    2  C9  UNL     1      31.174  27.118   7.096  1.00  0.00     0.096 A 
HETATM    3  C10 UNL     1      30.490  26.849   8.252  1.00  0.00     0.105 A 
HETATM    4  N3  UNL     1      30.786  25.650   8.875  1.00  0.00    -0.339 N 
ATOM      5  H3  UNL     1      30.305  25.399   9.739  1.00  0.00     0.168 HD
HETATM    6  C18 UNL     1      31.683  24.826   8.365  1.00  0.00     0.183 A 
HETATM    7  N4  UNL     1      32.365  25.063   7.246  1.00  0.00    -0.339 N 
ATOM      8  H4  UNL     1      33.051  24.393   6.897  1.00  0.00     0.168 HD
ENDROOT
BRANCH   1   9
HETATM    9  N1  UNL     1      32.884  26.498   5.407  1.00  0.00    -0.372 N 
ATOM     10  H1  UNL     1      33.896  26.593   5.492  1.00  0.00     0.161 HD
BRANCH   9  11
HETATM   11  C7  UNL     1      32.287  26.644   4.115  1.00  0.00     0.162 C 
BRANCH  11  12
HETATM   12  C6  UNL     1      31.852  28.000   3.729  1.00  0.00    -0.007 A 
HETATM   13  C1  UNL     1      32.831  28.921   3.445  1.00  0.00     0.073 A 
HETATM   14  C2  UNL     1      32.534  30.204   3.059  1.00  0.00     0.037 A 
HETATM   15  C3  UNL     1      31.220  30.594   2.950  1.00  0.00     0.003 A 
HETATM   16  C4  UNL     1      30.207  29.705   3.224  1.00  0.00     0.001 A 
HETATM   17  C5  UNL     1      30.550  28.389   3.621  1.00  0.00     0.011 A 
BRANCH  13  18
HETATM   18  O1  UNL     1      34.156  28.569   3.539  1.00  0.00    -0.360 OA
ATOM     19  H1  UNL     1      34.387  27.868   4.137  1.00  0.00     0.217 HD
ENDBRANCH  13  18
ENDBRANCH  11  12
ENDBRANCH   9  11
ENDBRANCH   1   9
BRANCH   3  20
HETATM   20  N2  UNL     1      29.470  27.647   8.859  1.00  0.00    -0.372 N 
ATOM     21  H2  UNL     1      28.931  27.238   9.623  1.00  0.00     0.161 HD
BRANCH  20  22
HETATM   22  C11 UNL     1      29.163  28.979   8.458  1.00  0.00     0.162 C 
BRANCH  22  23
HETATM   23  C12 UNL     1      27.926  28.976   7.601  1.00  0.00    -0.007 A 
HETATM   24  C13 UNL     1      27.945  28.848   6.258  1.00  0.00     0.011 A 
HETATM   25  C14 UNL     1      26.745  28.721   5.514  1.00  0.00     0.001 A 
HETATM   26  C15 UNL     1      25.511  28.733   6.196  1.00  0.00     0.003 A 
HETATM   27  C16 UNL     1      25.500  28.868   7.558  1.00  0.00     0.037 A 
HETATM   28  C17 UNL     1      26.694  28.986   8.242  1.00  0.00     0.073 A 
BRANCH  28  29
HETATM   29  O2  UNL     1      26.719  29.134   9.623  1.00  0.00    -0.360 OA
ATOM     30  H2  UNL     1      26.980  29.986   9.952  1.00  0.00     0.217 HD
ENDBRANCH  28  29
ENDBRANCH  22  23
ENDBRANCH  20  22
ENDBRANCH   3  20
TORSDOF 8
ENDMDL
