MODEL 9
REMARK VINA RESULT: -9.105760792      3.315      5.926
REMARK  8 active torsions:
REMARK  status: ('A' for Active; 'I' for Inactive)
REMARK    1  A    between atoms: O1_1  and  C1_3 
REMARK    2  A    between atoms: C6_8  and  C7_9 
REMARK    3  A    between atoms: C7_9  and  N1_10 
REMARK    4  A    between atoms: N1_10  and  C8_12 
REMARK    5  A    between atoms: C10_14  and  N2_15 
REMARK    6  A    between atoms: N2_15  and  C11_17 
REMARK    7  A    between atoms: C11_17  and  C12_18 
REMARK    8  A    between atoms: C17_23  and  O2_24 
ROOT
HETATM    1  C8  UNL     1      21.971  31.229   6.324  1.00  0.00     0.105 A 
HETATM    2  C9  UNL     1      21.642  30.491   5.181  1.00  0.00     0.096 A 
HETATM    3  C10 UNL     1      20.971  31.061   4.130  1.00  0.00     0.105 A 
HETATM    4  N3  UNL     1      20.640  32.396   4.266  1.00  0.00    -0.339 N 
ATOM      5  H3  UNL     1      20.140  32.870   3.513  1.00  0.00     0.168 HD
HETATM    6  C18 UNL     1      20.962  33.066   5.357  1.00  0.00     0.183 A 
HETATM    7  N4  UNL     1      21.616  32.540   6.391  1.00  0.00    -0.339 N 
ATOM      8  H4  UNL     1      21.844  33.103   7.210  1.00  0.00     0.168 HD
ENDROOT
BRANCH   1   9
HETATM    9  N1  UNL     1      22.710  30.678   7.413  1.00  0.00    -0.372 N 
ATOM     10  H1  UNL     1      22.879  31.259   8.234  1.00  0.00     0.161 HD
BRANCH   9  11
HETATM   11  C7  UNL     1      23.223  29.342   7.401  1.00  0.00     0.162 C 
BRANCH  11  12
HETATM   12  C6  UNL     1      24.645  29.175   7.044  1.00  0.00    -0.007 A 
HETATM   13  C1  UNL     1      25.574  29.393   8.031  1.00  0.00     0.073 A 
HETATM   14  C2  UNL     1      26.921  29.248   7.809  1.00  0.00     0.037 A 
HETATM   15  C3  UNL     1      27.368  28.873   6.563  1.00  0.00     0.003 A 
HETATM   16  C4  UNL     1      26.472  28.644   5.545  1.00  0.00     0.001 A 
HETATM   17  C5  UNL     1      25.089  28.805   5.810  1.00  0.00     0.011 A 
BRANCH  13  18
HETATM   18  O1  UNL     1      25.168  29.766   9.290  1.00  0.00    -0.360 OA
ATOM     19  H1  UNL     1      25.757  29.591  10.015  1.00  0.00     0.217 HD
ENDBRANCH  13  18
ENDBRANCH  11  12
ENDBRANCH   9  11
ENDBRANCH   1   9
BRANCH   3  20
HETATM   20  N2  UNL     1      20.534  30.415   2.931  1.00  0.00    -0.372 N 
ATOM     21  H2  UNL     1      19.539  30.222   2.824  1.00  0.00     0.161 HD
BRANCH  20  22
HETATM   22  C11 UNL     1      21.410  30.028   1.876  1.00  0.00     0.162 C 
BRANCH  22  23
HETATM   23  C12 UNL     1      21.886  28.618   2.107  1.00  0.00    -0.007 A 
HETATM   24  C13 UNL     1      23.114  28.308   2.571  1.00  0.00     0.011 A 
HETATM   25  C14 UNL     1      23.463  26.973   2.893  1.00  0.00     0.001 A 
HETATM   26  C15 UNL     1      22.506  25.953   2.719  1.00  0.00     0.003 A 
HETATM   27  C16 UNL     1      21.263  26.275   2.243  1.00  0.00     0.037 A 
HETATM   28  C17 UNL     1      20.966  27.590   1.945  1.00  0.00     0.073 A 
BRANCH  28  29
HETATM   29  O2  UNL     1      19.719  27.951   1.452  1.00  0.00    -0.360 OA
ATOM     30  H2  UNL     1      19.097  28.293   2.084  1.00  0.00     0.217 HD
ENDBRANCH  28  29
ENDBRANCH  22  23
ENDBRANCH  20  22
ENDBRANCH   3  20
TORSDOF 8
ENDMDL
