MODEL 4
REMARK VINA RESULT: -9.345934089      1.014      9.121
REMARK  8 active torsions:
REMARK  status: ('A' for Active; 'I' for Inactive)
REMARK    1  A    between atoms: O1_1  and  C1_3 
REMARK    2  A    between atoms: C6_8  and  C7_9 
REMARK    3  A    between atoms: C7_9  and  N1_10 
REMARK    4  A    between atoms: N1_10  and  C8_12 
REMARK    5  A    between atoms: C10_14  and  N2_15 
REMARK    6  A    between atoms: N2_15  and  C11_17 
REMARK    7  A    between atoms: C11_17  and  C12_18 
REMARK    8  A    between atoms: C17_23  and  O2_24 
ROOT
HETATM    1  C8  UNL     1      25.249  29.162   6.979  1.00  0.00     0.105 A 
HETATM    2  C9  UNL     1      26.471  28.867   6.362  1.00  0.00     0.096 A 
HETATM    3  C10 UNL     1      27.637  28.804   7.079  1.00  0.00     0.105 A 
HETATM    4  N3  UNL     1      27.536  29.050   8.436  1.00  0.00    -0.339 N 
ATOM      5  H3  UNL     1      28.373  29.017   9.018  1.00  0.00     0.168 HD
HETATM    6  C18 UNL     1      26.369  29.328   8.989  1.00  0.00     0.183 A 
HETATM    7  N4  UNL     1      25.221  29.392   8.318  1.00  0.00    -0.339 N 
ATOM      8  H4  UNL     1      24.345  29.607   8.795  1.00  0.00     0.168 HD
ENDROOT
BRANCH   1   9
HETATM    9  N1  UNL     1      24.011  29.187   6.268  1.00  0.00    -0.372 N 
ATOM     10  H1  UNL     1      23.988  28.831   5.312  1.00  0.00     0.161 HD
BRANCH   9  11
HETATM   11  C7  UNL     1      22.802  29.693   6.841  1.00  0.00     0.162 C 
BRANCH  11  12
HETATM   12  C6  UNL     1      22.069  30.714   6.067  1.00  0.00    -0.007 A 
HETATM   13  C1  UNL     1      21.647  30.368   4.807  1.00  0.00     0.073 A 
HETATM   14  C2  UNL     1      20.943  31.237   4.011  1.00  0.00     0.037 A 
HETATM   15  C3  UNL     1      20.646  32.496   4.476  1.00  0.00     0.003 A 
HETATM   16  C4  UNL     1      21.049  32.885   5.732  1.00  0.00     0.001 A 
HETATM   17  C5  UNL     1      21.775  31.962   6.526  1.00  0.00     0.011 A 
BRANCH  13  18
HETATM   18  O1  UNL     1      21.922  29.118   4.306  1.00  0.00    -0.360 OA
ATOM     19  H1  UNL     1      22.065  28.414   4.927  1.00  0.00     0.217 HD
ENDBRANCH  13  18
ENDBRANCH  11  12
ENDBRANCH   9  11
ENDBRANCH   1   9
BRANCH   3  20
HETATM   20  N2  UNL     1      28.952  28.561   6.572  1.00  0.00    -0.372 N 
ATOM     21  H2  UNL     1      29.047  28.284   5.596  1.00  0.00     0.161 HD
BRANCH  20  22
HETATM   22  C11 UNL     1      30.137  28.684   7.354  1.00  0.00     0.162 C 
BRANCH  22  23
HETATM   23  C12 UNL     1      30.703  27.317   7.632  1.00  0.00    -0.007 A 
HETATM   24  C13 UNL     1      31.546  26.672   6.801  1.00  0.00     0.011 A 
HETATM   25  C14 UNL     1      32.150  25.445   7.173  1.00  0.00     0.001 A 
HETATM   26  C15 UNL     1      31.857  24.892   8.436  1.00  0.00     0.003 A 
HETATM   27  C16 UNL     1      30.997  25.551   9.273  1.00  0.00     0.037 A 
HETATM   28  C17 UNL     1      30.434  26.746   8.869  1.00  0.00     0.073 A 
BRANCH  28  29
HETATM   29  O2  UNL     1      29.550  27.436   9.689  1.00  0.00    -0.360 OA
ATOM     30  H2  UNL     1      28.625  27.282   9.537  1.00  0.00     0.217 HD
ENDBRANCH  28  29
ENDBRANCH  22  23
ENDBRANCH  20  22
ENDBRANCH   3  20
TORSDOF 8
ENDMDL
