MODEL 1
REMARK VINA RESULT: -11.129908934      0.000      0.000
REMARK  10 active torsions:
REMARK  status: ('A' for Active; 'I' for Inactive)
REMARK    1  A    between atoms: N4_10  and  C5_11 
REMARK    2  A    between atoms: C6_13  and  C7_14 
REMARK    3  A    between atoms: C7_14  and  O2_15 
REMARK    4  A    between atoms: O2_15  and  P1_16 
REMARK    5  A    between atoms: P1_16  and  O5_19 
REMARK    6  A    between atoms: O5_19  and  P2_20 
REMARK    7  A    between atoms: P2_20  and  O8_23 
REMARK    8  A    between atoms: O8_23  and  P3_24 
REMARK    9  A    between atoms: C8_28  and  O12_29 
REMARK   10  A    between atoms: C9_31  and  O13_32 
ROOT
HETATM    1  C5  UNL     1     -12.597  20.812   9.634  1.00  0.00     0.262 C 
HETATM    2  O1  UNL     1     -12.684  19.595  10.304  1.00  0.00    -0.353 OA
HETATM    3  C6  UNL     1     -13.356  18.815   9.338  1.00  0.00     0.180 C 
HETATM    4  C8  UNL     1     -12.490  19.024   8.123  1.00  0.00     0.182 C 
HETATM    5  C9  UNL     1     -11.925  20.432   8.357  1.00  0.00     0.198 C 
ENDROOT
BRANCH   1   6
HETATM    6  N4  UNL     1     -11.881  21.817  10.377  1.00  0.00    -0.297 N 
HETATM    7  C2  UNL     1     -12.258  23.087  10.550  1.00  0.00     0.146 A 
HETATM    8  N2  UNL     1     -13.343  23.747  10.108  1.00  0.00    -0.314 N 
HETATM    9  C3  UNL     1     -11.334  23.775  11.318  1.00  0.00     0.146 A 
HETATM   10  C1  UNL     1     -13.503  25.042  10.419  1.00  0.00     0.196 A 
ATOM     11  H2  UNL     1     -14.040  23.266   9.540  1.00  0.00     0.170 HD
HETATM   12  N1  UNL     1     -14.686  25.694   9.916  1.00  0.00    -0.063 NA
HETATM   13  N5  UNL     1     -12.599  25.724  11.173  1.00  0.00    -0.295 N 
HETATM   14  C10 UNL     1     -11.507  25.102  11.630  1.00  0.00     0.278 A 
ATOM     15  H5  UNL     1     -12.754  26.708  11.389  1.00  0.00     0.171 HD
HETATM   16  O14 UNL     1     -10.682  25.737  12.322  1.00  0.00    -0.265 OA
HETATM   17  N3  UNL     1     -10.372  22.858  11.605  1.00  0.00    -0.345 N 
HETATM   18  C4  UNL     1     -10.714  21.671  11.029  1.00  0.00     0.188 A 
ATOM     19  H3  UNL     1      -9.533  23.029  12.161  1.00  0.00     0.167 HD
ENDBRANCH   1   6
BRANCH   5  20
HETATM   20  O13 UNL     1     -12.351  21.262   7.344  1.00  0.00    -0.388 OA
ATOM     21  H13 UNL     1     -11.936  21.010   6.527  1.00  0.00     0.210 HD
ENDBRANCH   5  20
BRANCH   3  22
HETATM   22  C7  UNL     1     -13.366  17.402   9.817  1.00  0.00     0.216 C 
BRANCH  22  23
HETATM   23  O2  UNL     1     -12.249  16.745   9.414  1.00  0.00    -0.287 OA
BRANCH  23  24
HETATM   24  P1  UNL     1     -10.960  16.757  10.448  1.00  0.00     0.417 P 
HETATM   25  O3  UNL     1     -10.330  15.545   9.793  1.00  0.00    -0.624 OA
HETATM   26  O4  UNL     1      -9.617  17.707   9.976  1.00  0.00    -0.624 OA
BRANCH  24  27
HETATM   27  O5  UNL     1     -11.049  16.167  11.927  1.00  0.00    -0.180 OA
BRANCH  27  28
HETATM   28  P2  UNL     1     -10.544  14.874  12.525  1.00  0.00     0.428 P 
HETATM   29  O6  UNL     1     -11.292  15.387  13.928  1.00  0.00    -0.624 OA
HETATM   30  O7  UNL     1      -8.952  15.253  12.375  1.00  0.00    -0.624 OA
BRANCH  28  31
HETATM   31  O8  UNL     1     -10.294  13.538  13.295  1.00  0.00    -0.173 OA
BRANCH  31  32
HETATM   32  P3  UNL     1     -11.264  12.294  12.598  1.00  0.00     0.431 P 
HETATM   33  O9  UNL     1     -10.447  12.471  11.312  1.00  0.00    -0.616 OA
HETATM   34  O10 UNL     1     -10.754  10.746  12.738  1.00  0.00    -0.616 OA
HETATM   35  O11 UNL     1     -12.679  12.689  11.984  1.00  0.00    -0.616 OA
ENDBRANCH  31  32
ENDBRANCH  28  31
ENDBRANCH  27  28
ENDBRANCH  24  27
ENDBRANCH  23  24
ENDBRANCH  22  23
ENDBRANCH   3  22
BRANCH   4  36
HETATM   36  O12 UNL     1     -13.306  18.992   6.994  1.00  0.00    -0.390 OA
ATOM     37  H12 UNL     1     -13.079  19.732   6.442  1.00  0.00     0.210 HD
ENDBRANCH   4  36
TORSDOF 10
ENDMDL
