MODEL 5
REMARK VINA RESULT: -9.876289507      4.140      6.557
REMARK  10 active torsions:
REMARK  status: ('A' for Active; 'I' for Inactive)
REMARK    1  A    between atoms: N4_10  and  C5_11 
REMARK    2  A    between atoms: C6_13  and  C7_14 
REMARK    3  A    between atoms: C7_14  and  O2_15 
REMARK    4  A    between atoms: O2_15  and  P1_16 
REMARK    5  A    between atoms: P1_16  and  O5_19 
REMARK    6  A    between atoms: O5_19  and  P2_20 
REMARK    7  A    between atoms: P2_20  and  O8_23 
REMARK    8  A    between atoms: O8_23  and  P3_24 
REMARK    9  A    between atoms: C8_28  and  O12_29 
REMARK   10  A    between atoms: C9_31  and  O13_32 
ROOT
HETATM    1  C5  UNL     1     -13.464  18.958   6.444  1.00  0.00     0.262 C 
HETATM    2  O1  UNL     1     -13.262  18.242   7.620  1.00  0.00    -0.353 OA
HETATM    3  C6  UNL     1     -13.103  19.298   8.542  1.00  0.00     0.180 C 
HETATM    4  C8  UNL     1     -14.338  20.120   8.282  1.00  0.00     0.182 C 
HETATM    5  C9  UNL     1     -14.611  19.846   6.797  1.00  0.00     0.198 C 
ENDROOT
BRANCH   1   6
HETATM    6  N4  UNL     1     -13.725  18.116   5.306  1.00  0.00    -0.297 N 
HETATM    7  C2  UNL     1     -14.400  16.962   5.317  1.00  0.00     0.146 A 
HETATM    8  N2  UNL     1     -14.990  16.302   6.330  1.00  0.00    -0.314 N 
HETATM    9  C3  UNL     1     -14.460  16.415   4.047  1.00  0.00     0.146 A 
HETATM   10  C1  UNL     1     -15.618  15.142   6.087  1.00  0.00     0.196 A 
ATOM     11  H2  UNL     1     -14.960  16.682   7.276  1.00  0.00     0.170 HD
HETATM   12  N1  UNL     1     -16.231  14.483   7.212  1.00  0.00    -0.063 NA
HETATM   13  N5  UNL     1     -15.682  14.598   4.842  1.00  0.00    -0.295 N 
HETATM   14  C10 UNL     1     -15.107  15.225   3.810  1.00  0.00     0.278 A 
ATOM     15  H5  UNL     1     -16.168  13.714   4.695  1.00  0.00     0.171 HD
HETATM   16  O14 UNL     1     -15.170  14.717   2.669  1.00  0.00    -0.265 OA
HETATM   17  N3  UNL     1     -13.787  17.294   3.258  1.00  0.00    -0.345 N 
HETATM   18  C4  UNL     1     -13.344  18.324   4.033  1.00  0.00     0.188 A 
ATOM     19  H3  UNL     1     -13.638  17.199   2.254  1.00  0.00     0.167 HD
ENDBRANCH   1   6
BRANCH   5  20
HETATM   20  O13 UNL     1     -14.516  21.028   6.097  1.00  0.00    -0.388 OA
ATOM     21  H13 UNL     1     -13.631  21.368   6.161  1.00  0.00     0.210 HD
ENDBRANCH   5  20
BRANCH   3  22
HETATM   22  C7  UNL     1     -13.066  18.708   9.913  1.00  0.00     0.216 C 
BRANCH  22  23
HETATM   23  O2  UNL     1     -12.672  17.410   9.872  1.00  0.00    -0.287 OA
BRANCH  23  24
HETATM   24  P1  UNL     1     -11.225  17.045  10.580  1.00  0.00     0.417 P 
HETATM   25  O3  UNL     1     -11.064  15.777   9.767  1.00  0.00    -0.624 OA
HETATM   26  O4  UNL     1      -9.829  17.697   9.834  1.00  0.00    -0.624 OA
BRANCH  24  27
HETATM   27  O5  UNL     1     -11.128  16.375  12.024  1.00  0.00    -0.180 OA
BRANCH  27  28
HETATM   28  P2  UNL     1     -10.505  15.080  12.492  1.00  0.00     0.428 P 
HETATM   29  O6  UNL     1     -11.060  15.516  14.006  1.00  0.00    -0.624 OA
HETATM   30  O7  UNL     1      -8.963  15.520  12.133  1.00  0.00    -0.624 OA
BRANCH  28  31
HETATM   31  O8  UNL     1     -10.109  13.727  13.163  1.00  0.00    -0.173 OA
BRANCH  31  32
HETATM   32  P3  UNL     1     -11.161  12.484  12.597  1.00  0.00     0.431 P 
HETATM   33  O9  UNL     1     -10.460  12.604  11.237  1.00  0.00    -0.616 OA
HETATM   34  O10 UNL     1     -10.672  10.930  12.741  1.00  0.00    -0.616 OA
HETATM   35  O11 UNL     1     -12.618  12.892  12.098  1.00  0.00    -0.616 OA
ENDBRANCH  31  32
ENDBRANCH  28  31
ENDBRANCH  27  28
ENDBRANCH  24  27
ENDBRANCH  23  24
ENDBRANCH  22  23
ENDBRANCH   3  22
BRANCH   4  36
HETATM   36  O12 UNL     1     -14.026  21.460   8.496  1.00  0.00    -0.390 OA
ATOM     37  H12 UNL     1     -14.292  21.692   9.377  1.00  0.00     0.210 HD
ENDBRANCH   4  36
TORSDOF 10
ENDMDL
