MODEL 7
REMARK VINA RESULT: -9.762678824      4.365      6.327
REMARK  10 active torsions:
REMARK  status: ('A' for Active; 'I' for Inactive)
REMARK    1  A    between atoms: N4_10  and  C5_11 
REMARK    2  A    between atoms: C6_13  and  C7_14 
REMARK    3  A    between atoms: C7_14  and  O2_15 
REMARK    4  A    between atoms: O2_15  and  P1_16 
REMARK    5  A    between atoms: P1_16  and  O5_19 
REMARK    6  A    between atoms: O5_19  and  P2_20 
REMARK    7  A    between atoms: P2_20  and  O8_23 
REMARK    8  A    between atoms: O8_23  and  P3_24 
REMARK    9  A    between atoms: C8_28  and  O12_29 
REMARK   10  A    between atoms: C9_31  and  O13_32 
ROOT
HETATM    1  C5  UNL     1     -14.478  18.085   6.404  1.00  0.00     0.262 C 
HETATM    2  O1  UNL     1     -13.371  18.161   7.244  1.00  0.00    -0.353 OA
HETATM    3  C6  UNL     1     -13.968  18.674   8.414  1.00  0.00     0.180 C 
HETATM    4  C8  UNL     1     -15.098  17.702   8.632  1.00  0.00     0.182 C 
HETATM    5  C9  UNL     1     -15.433  17.260   7.201  1.00  0.00     0.198 C 
ENDROOT
BRANCH   1   6
HETATM    6  N4  UNL     1     -14.174  17.520   5.115  1.00  0.00    -0.297 N 
HETATM    7  C2  UNL     1     -13.347  18.038   4.202  1.00  0.00     0.146 A 
HETATM    8  N2  UNL     1     -12.611  19.164   4.225  1.00  0.00    -0.314 N 
HETATM    9  C3  UNL     1     -13.290  17.234   3.077  1.00  0.00     0.146 A 
HETATM   10  C1  UNL     1     -11.846  19.476   3.169  1.00  0.00     0.196 A 
ATOM     11  H2  UNL     1     -12.635  19.776   5.041  1.00  0.00     0.170 HD
HETATM   12  N1  UNL     1     -11.080  20.694   3.253  1.00  0.00    -0.063 NA
HETATM   13  N5  UNL     1     -11.784  18.690   2.060  1.00  0.00    -0.295 N 
HETATM   14  C10 UNL     1     -12.502  17.563   2.000  1.00  0.00     0.278 A 
ATOM     15  H5  UNL     1     -11.190  18.960   1.276  1.00  0.00     0.171 HD
HETATM   16  O14 UNL     1     -12.438  16.848   0.976  1.00  0.00    -0.265 OA
HETATM   17  N3  UNL     1     -14.124  16.196   3.350  1.00  0.00    -0.345 N 
HETATM   18  C4  UNL     1     -14.657  16.379   4.591  1.00  0.00     0.188 A 
ATOM     19  H3  UNL     1     -14.319  15.410   2.730  1.00  0.00     0.167 HD
ENDBRANCH   1   6
BRANCH   5  20
HETATM   20  O13 UNL     1     -16.726  17.632   6.906  1.00  0.00    -0.388 OA
ATOM     21  H13 UNL     1     -16.734  18.169   6.122  1.00  0.00     0.210 HD
ENDBRANCH   5  20
BRANCH   3  22
HETATM   22  C7  UNL     1     -12.946  18.640   9.502  1.00  0.00     0.216 C 
BRANCH  22  23
HETATM   23  O2  UNL     1     -12.734  17.369   9.928  1.00  0.00    -0.287 OA
BRANCH  23  24
HETATM   24  P1  UNL     1     -11.261  17.043  10.603  1.00  0.00     0.417 P 
HETATM   25  O3  UNL     1     -11.091  15.773   9.795  1.00  0.00    -0.624 OA
HETATM   26  O4  UNL     1      -9.899  17.722   9.817  1.00  0.00    -0.624 OA
BRANCH  24  27
HETATM   27  O5  UNL     1     -11.112  16.387  12.049  1.00  0.00    -0.180 OA
BRANCH  27  28
HETATM   28  P2  UNL     1     -10.498  15.082  12.503  1.00  0.00     0.428 P 
HETATM   29  O6  UNL     1     -10.999  15.533  14.031  1.00  0.00    -0.624 OA
HETATM   30  O7  UNL     1      -8.960  15.493  12.095  1.00  0.00    -0.624 OA
BRANCH  28  31
HETATM   31  O8  UNL     1     -10.106  13.725  13.167  1.00  0.00    -0.173 OA
BRANCH  31  32
HETATM   32  P3  UNL     1     -11.168  12.490  12.602  1.00  0.00     0.431 P 
HETATM   33  O9  UNL     1     -10.454  12.589  11.247  1.00  0.00    -0.616 OA
HETATM   34  O10 UNL     1     -10.699  10.932  12.763  1.00  0.00    -0.616 OA
HETATM   35  O11 UNL     1     -12.616  12.911  12.087  1.00  0.00    -0.616 OA
ENDBRANCH  31  32
ENDBRANCH  28  31
ENDBRANCH  27  28
ENDBRANCH  24  27
ENDBRANCH  23  24
ENDBRANCH  22  23
ENDBRANCH   3  22
BRANCH   4  36
HETATM   36  O12 UNL     1     -16.164  18.391   9.206  1.00  0.00    -0.390 OA
ATOM     37  H12 UNL     1     -16.817  18.543   8.533  1.00  0.00     0.210 HD
ENDBRANCH   4  36
TORSDOF 10
ENDMDL
