MODEL 6
REMARK VINA RESULT: -9.832921356      0.936      1.082
REMARK  10 active torsions:
REMARK  status: ('A' for Active; 'I' for Inactive)
REMARK    1  A    between atoms: N4_10  and  C5_11 
REMARK    2  A    between atoms: C6_13  and  C7_14 
REMARK    3  A    between atoms: C7_14  and  O2_15 
REMARK    4  A    between atoms: O2_15  and  P1_16 
REMARK    5  A    between atoms: P1_16  and  O5_19 
REMARK    6  A    between atoms: O5_19  and  P2_20 
REMARK    7  A    between atoms: P2_20  and  O8_23 
REMARK    8  A    between atoms: O8_23  and  P3_24 
REMARK    9  A    between atoms: C8_28  and  O12_29 
REMARK   10  A    between atoms: C9_31  and  O13_32 
ROOT
HETATM    1  C5  UNL     1     -13.161  20.455   9.267  1.00  0.00     0.262 C 
HETATM    2  O1  UNL     1     -12.974  19.343  10.083  1.00  0.00    -0.353 OA
HETATM    3  C6  UNL     1     -13.400  18.312   9.218  1.00  0.00     0.180 C 
HETATM    4  C8  UNL     1     -12.567  18.580   7.992  1.00  0.00     0.182 C 
HETATM    5  C9  UNL     1     -12.370  20.101   8.051  1.00  0.00     0.198 C 
ENDROOT
BRANCH   1   6
HETATM    6  N4  UNL     1     -12.739  21.686   9.883  1.00  0.00    -0.297 N 
HETATM    7  C2  UNL     1     -13.442  22.822   9.938  1.00  0.00     0.146 A 
HETATM    8  N2  UNL     1     -14.665  23.118   9.464  1.00  0.00    -0.314 N 
HETATM    9  C3  UNL     1     -12.734  23.807  10.603  1.00  0.00     0.146 A 
HETATM   10  C1  UNL     1     -15.165  24.349   9.648  1.00  0.00     0.196 A 
ATOM     11  H2  UNL     1     -15.209  22.412   8.969  1.00  0.00     0.170 HD
HETATM   12  N1  UNL     1     -16.481  24.606   9.118  1.00  0.00    -0.063 NA
HETATM   13  N5  UNL     1     -14.476  25.323  10.301  1.00  0.00    -0.295 N 
HETATM   14  C10 UNL     1     -13.256  25.065  10.786  1.00  0.00     0.278 A 
ATOM     15  H5  UNL     1     -14.888  26.247  10.422  1.00  0.00     0.171 HD
HETATM   16  O14 UNL     1     -12.630  25.967  11.384  1.00  0.00    -0.265 OA
HETATM   17  N3  UNL     1     -11.561  23.215  10.953  1.00  0.00    -0.345 N 
HETATM   18  C4  UNL     1     -11.573  21.926  10.509  1.00  0.00     0.188 A 
ATOM     19  H3  UNL     1     -10.797  23.661  11.462  1.00  0.00     0.167 HD
ENDBRANCH   1   6
BRANCH   5  20
HETATM   20  O13 UNL     1     -12.948  20.673   6.940  1.00  0.00    -0.388 OA
ATOM     21  H13 UNL     1     -12.803  20.118   6.182  1.00  0.00     0.210 HD
ENDBRANCH   5  20
BRANCH   3  22
HETATM   22  C7  UNL     1     -13.084  17.008   9.870  1.00  0.00     0.216 C 
BRANCH  22  23
HETATM   23  O2  UNL     1     -11.914  16.502   9.402  1.00  0.00    -0.287 OA
BRANCH  23  24
HETATM   24  P1  UNL     1     -10.630  16.504  10.443  1.00  0.00     0.417 P 
HETATM   25  O3  UNL     1     -10.084  15.205   9.885  1.00  0.00    -0.624 OA
HETATM   26  O4  UNL     1      -9.223  17.320   9.910  1.00  0.00    -0.624 OA
BRANCH  24  27
HETATM   27  O5  UNL     1     -10.762  16.034  11.961  1.00  0.00    -0.180 OA
BRANCH  27  28
HETATM   28  P2  UNL     1     -10.450  14.720  12.638  1.00  0.00     0.428 P 
HETATM   29  O6  UNL     1     -11.386  15.298  13.895  1.00  0.00    -0.624 OA
HETATM   30  O7  UNL     1      -8.834  14.994  12.755  1.00  0.00    -0.624 OA
BRANCH  28  31
HETATM   31  O8  UNL     1     -10.420  13.381  13.441  1.00  0.00    -0.173 OA
BRANCH  31  32
HETATM   32  P3  UNL     1     -11.358  12.199  12.607  1.00  0.00     0.431 P 
HETATM   33  O9  UNL     1     -10.476  12.464  11.380  1.00  0.00    -0.616 OA
HETATM   34  O10 UNL     1     -10.863  10.641  12.658  1.00  0.00    -0.616 OA
HETATM   35  O11 UNL     1     -12.739  12.649  11.953  1.00  0.00    -0.616 OA
ENDBRANCH  31  32
ENDBRANCH  28  31
ENDBRANCH  27  28
ENDBRANCH  24  27
ENDBRANCH  23  24
ENDBRANCH  22  23
ENDBRANCH   3  22
BRANCH   4  36
HETATM   36  O12 UNL     1     -13.308  18.214   6.871  1.00  0.00    -0.390 OA
ATOM     37  H12 UNL     1     -12.991  18.713   6.128  1.00  0.00     0.210 HD
ENDBRANCH   4  36
TORSDOF 10
ENDMDL
