MODEL 4
REMARK VINA RESULT: -9.902774584      4.875      7.271
REMARK  10 active torsions:
REMARK  status: ('A' for Active; 'I' for Inactive)
REMARK    1  A    between atoms: N4_10  and  C5_11 
REMARK    2  A    between atoms: C6_13  and  C7_14 
REMARK    3  A    between atoms: C7_14  and  O2_15 
REMARK    4  A    between atoms: O2_15  and  P1_16 
REMARK    5  A    between atoms: P1_16  and  O5_19 
REMARK    6  A    between atoms: O5_19  and  P2_20 
REMARK    7  A    between atoms: P2_20  and  O8_23 
REMARK    8  A    between atoms: O8_23  and  P3_24 
REMARK    9  A    between atoms: C8_28  and  O12_29 
REMARK   10  A    between atoms: C9_31  and  O13_32 
ROOT
HETATM    1  C5  UNL     1     -15.124  17.345   6.801  1.00  0.00     0.262 C 
HETATM    2  O1  UNL     1     -13.867  17.330   7.399  1.00  0.00    -0.353 OA
HETATM    3  C6  UNL     1     -13.961  18.468   8.228  1.00  0.00     0.180 C 
HETATM    4  C8  UNL     1     -15.234  18.190   8.985  1.00  0.00     0.182 C 
HETATM    5  C9  UNL     1     -16.042  17.361   7.977  1.00  0.00     0.198 C 
ENDROOT
BRANCH   1   6
HETATM    6  N4  UNL     1     -15.345  16.228   5.920  1.00  0.00    -0.297 N 
HETATM    7  C2  UNL     1     -14.673  15.968   4.793  1.00  0.00     0.146 A 
HETATM    8  N2  UNL     1     -13.666  16.633   4.200  1.00  0.00    -0.314 N 
HETATM    9  C3  UNL     1     -15.147  14.814   4.194  1.00  0.00     0.146 A 
HETATM   10  C1  UNL     1     -13.149  16.165   3.054  1.00  0.00     0.196 A 
ATOM     11  H2  UNL     1     -13.298  17.487   4.619  1.00  0.00     0.170 HD
HETATM   12  N1  UNL     1     -12.071  16.921   2.467  1.00  0.00    -0.063 NA
HETATM   13  N5  UNL     1     -13.608  15.032   2.460  1.00  0.00    -0.295 N 
HETATM   14  C10 UNL     1     -14.609  14.344   3.019  1.00  0.00     0.278 A 
ATOM     15  H5  UNL     1     -13.190  14.707   1.589  1.00  0.00     0.171 HD
HETATM   16  O14 UNL     1     -15.025  13.303   2.465  1.00  0.00    -0.265 OA
HETATM   17  N3  UNL     1     -16.143  14.381   5.013  1.00  0.00    -0.345 N 
HETATM   18  C4  UNL     1     -16.255  15.248   6.058  1.00  0.00     0.188 A 
ATOM     19  H3  UNL     1     -16.711  13.547   4.869  1.00  0.00     0.167 HD
ENDBRANCH   1   6
BRANCH   5  20
HETATM   20  O13 UNL     1     -17.195  18.042   7.656  1.00  0.00    -0.388 OA
ATOM     21  H13 UNL     1     -17.739  17.504   7.092  1.00  0.00     0.210 HD
ENDBRANCH   5  20
BRANCH   3  22
HETATM   22  C7  UNL     1     -12.753  18.499   9.103  1.00  0.00     0.216 C 
BRANCH  22  23
HETATM   23  O2  UNL     1     -12.700  17.399   9.897  1.00  0.00    -0.287 OA
BRANCH  23  24
HETATM   24  P1  UNL     1     -11.242  17.045  10.589  1.00  0.00     0.417 P 
HETATM   25  O3  UNL     1     -11.082  15.777   9.775  1.00  0.00    -0.624 OA
HETATM   26  O4  UNL     1      -9.859  17.705   9.825  1.00  0.00    -0.624 OA
BRANCH  24  27
HETATM   27  O5  UNL     1     -11.123  16.377  12.032  1.00  0.00    -0.180 OA
BRANCH  27  28
HETATM   28  P2  UNL     1     -10.498  15.080  12.492  1.00  0.00     0.428 P 
HETATM   29  O6  UNL     1     -11.036  15.515  14.012  1.00  0.00    -0.624 OA
HETATM   30  O7  UNL     1      -8.959  15.517  12.117  1.00  0.00    -0.624 OA
BRANCH  28  31
HETATM   31  O8  UNL     1     -10.098  13.725  13.157  1.00  0.00    -0.173 OA
BRANCH  31  32
HETATM   32  P3  UNL     1     -11.158  12.485  12.600  1.00  0.00     0.431 P 
HETATM   33  O9  UNL     1     -10.453  12.587  11.241  1.00  0.00    -0.616 OA
HETATM   34  O10 UNL     1     -10.681  10.929  12.759  1.00  0.00    -0.616 OA
HETATM   35  O11 UNL     1     -12.611  12.899  12.094  1.00  0.00    -0.616 OA
ENDBRANCH  31  32
ENDBRANCH  28  31
ENDBRANCH  27  28
ENDBRANCH  24  27
ENDBRANCH  23  24
ENDBRANCH  22  23
ENDBRANCH   3  22
BRANCH   4  36
HETATM   36  O12 UNL     1     -15.860  19.405   9.250  1.00  0.00    -0.390 OA
ATOM     37  H12 UNL     1     -16.753  19.227   9.520  1.00  0.00     0.210 HD
ENDBRANCH   4  36
TORSDOF 10
ENDMDL
