MODEL 9
REMARK VINA RESULT: -10.053234839      2.259      3.374
REMARK  14 active torsions:
REMARK  status: ('A' for Active; 'I' for Inactive)
REMARK       I    between atoms: C2_2  and  N1_4 
REMARK    1  A    between atoms: N1_4  and  C3_5 
REMARK    2  A    between atoms: N1_4  and  C15_28 
REMARK    3  A    between atoms: C3_5  and  C4_6 
REMARK    4  A    between atoms: C4_6  and  C5_7 
REMARK    5  A    between atoms: C5_7  and  C6_8 
REMARK    6  A    between atoms: C6_8  and  C7_9 
REMARK    7  A    between atoms: C7_9  and  N2_10 
REMARK    8  A    between atoms: C7_9  and  C14_25 
REMARK       I    between atoms: N2_10  and  C8_12 
REMARK       I    between atoms: C8_12  and  N3_14 
REMARK    9  A    between atoms: N3_14  and  C9_16 
REMARK   10  A    between atoms: C9_16  and  C10_17 
REMARK   11  A    between atoms: C9_16  and  C13_22 
REMARK   12  A    between atoms: C10_17  and  C11_18 
REMARK   13  A    between atoms: C11_18  and  C12_19 
REMARK   14  A    between atoms: C15_28  and  C16_29 
ROOT
HETATM    1  C7  UNL     1      20.256  19.455  35.581  1.00  0.00     0.187 C 
ENDROOT
BRANCH   1   2
HETATM    2  C6  UNL     1      21.468  19.196  36.386  1.00  0.00     0.036 C 
BRANCH   2   3
HETATM    3  C5  UNL     1      22.137  17.910  36.167  1.00  0.00     0.004 C 
BRANCH   3   4
HETATM    4  C4  UNL     1      23.142  17.534  37.183  1.00  0.00     0.020 C 
BRANCH   4   5
HETATM    5  C3  UNL     1      24.264  18.521  37.329  1.00  0.00     0.126 C 
BRANCH   5   6
HETATM    6  N1  UNL     1      25.062  18.190  38.490  1.00  0.00    -0.348 N 
HETATM    7  C2  UNL     1      24.566  18.655  39.753  1.00  0.00     0.216 C 
HETATM    8  C1  UNL     1      25.215  18.407  41.044  1.00  0.00     0.117 C 
HETATM    9  O1  UNL     1      23.491  19.332  39.792  1.00  0.00    -0.274 OA
BRANCH   6  10
HETATM   10  C15 UNL     1      26.298  17.501  38.408  1.00  0.00     0.164 C 
BRANCH  10  11
HETATM   11  C16 UNL     1      26.008  16.030  38.221  1.00  0.00    -0.040 A 
HETATM   12  C17 UNL     1      26.259  15.389  37.048  1.00  0.00     0.010 A 
HETATM   13  C18 UNL     1      26.006  14.031  36.838  1.00  0.00     0.019 A 
HETATM   14  C19 UNL     1      25.472  13.319  37.889  1.00  0.00     0.011 A 
HETATM   15 BR1  UNL     1      25.118  11.463  37.620  1.00  0.00    -0.051 Br
HETATM   16  C20 UNL     1      25.207  13.945  39.090  1.00  0.00     0.019 A 
HETATM   17  C21 UNL     1      25.473  15.301  39.262  1.00  0.00     0.010 A 
ENDBRANCH  10  11
ENDBRANCH   6  10
ENDBRANCH   5   6
ENDBRANCH   4   5
ENDBRANCH   3   4
ENDBRANCH   2   3
ENDBRANCH   1   2
BRANCH   1  18
HETATM   18  N2  UNL     1      19.077  18.928  36.369  1.00  0.00    -0.329 N 
HETATM   19  C8  UNL     1      18.180  19.840  36.972  1.00  0.00     0.317 C 
HETATM   20  O2  UNL     1      18.384  21.084  36.841  1.00  0.00    -0.247 OA
HETATM   21  N3  UNL     1      17.054  19.460  37.722  1.00  0.00    -0.329 N 
ATOM     22  H3  UNL     1      16.861  18.466  37.848  1.00  0.00     0.165 HD
ATOM     23  H2  UNL     1      18.930  17.923  36.464  1.00  0.00     0.165 HD
BRANCH  21  24
HETATM   24  C9  UNL     1      16.131  20.456  38.341  1.00  0.00     0.187 C 
BRANCH  24  25
HETATM   25  C10 UNL     1      14.762  19.933  38.124  1.00  0.00     0.046 C 
BRANCH  25  26
HETATM   26  C11 UNL     1      14.584  18.463  38.068  1.00  0.00     0.116 C 
BRANCH  26  27
HETATM   27  C12 UNL     1      14.150  17.787  39.286  1.00  0.00     0.172 C 
HETATM   28  O3  UNL     1      14.723  16.715  39.642  1.00  0.00    -0.648 OA
HETATM   29  O4  UNL     1      13.123  18.237  40.131  1.00  0.00    -0.648 OA
ENDBRANCH  26  27
ENDBRANCH  25  26
ENDBRANCH  24  25
BRANCH  24  30
HETATM   30  C13 UNL     1      16.570  20.854  39.646  1.00  0.00     0.196 C 
HETATM   31  O5  UNL     1      17.759  20.626  40.047  1.00  0.00    -0.646 OA
HETATM   32  O6  UNL     1      15.752  21.507  40.540  1.00  0.00    -0.646 OA
ENDBRANCH  24  30
ENDBRANCH  21  24
ENDBRANCH   1  18
BRANCH   1  33
HETATM   33  C14 UNL     1      20.094  18.767  34.294  1.00  0.00     0.196 C 
HETATM   34  O7  UNL     1      19.376  17.742  34.147  1.00  0.00    -0.646 OA
HETATM   35  O8  UNL     1      20.766  19.293  33.180  1.00  0.00    -0.646 OA
ENDBRANCH   1  33
TORSDOF 14
ENDMDL
