MODEL 15
REMARK VINA RESULT: -9.421072535      2.588      4.733
REMARK  14 active torsions:
REMARK  status: ('A' for Active; 'I' for Inactive)
REMARK       I    between atoms: C2_2  and  N1_4 
REMARK    1  A    between atoms: N1_4  and  C3_5 
REMARK    2  A    between atoms: N1_4  and  C15_28 
REMARK    3  A    between atoms: C3_5  and  C4_6 
REMARK    4  A    between atoms: C4_6  and  C5_7 
REMARK    5  A    between atoms: C5_7  and  C6_8 
REMARK    6  A    between atoms: C6_8  and  C7_9 
REMARK    7  A    between atoms: C7_9  and  N2_10 
REMARK    8  A    between atoms: C7_9  and  C14_25 
REMARK       I    between atoms: N2_10  and  C8_12 
REMARK       I    between atoms: C8_12  and  N3_14 
REMARK    9  A    between atoms: N3_14  and  C9_16 
REMARK   10  A    between atoms: C9_16  and  C10_17 
REMARK   11  A    between atoms: C9_16  and  C13_22 
REMARK   12  A    between atoms: C10_17  and  C11_18 
REMARK   13  A    between atoms: C11_18  and  C12_19 
REMARK   14  A    between atoms: C15_28  and  C16_29 
ROOT
HETATM    1  C7  UNL     1      21.893  16.289  35.232  1.00  0.00     0.187 C 
ENDROOT
BRANCH   1   2
HETATM    2  C6  UNL     1      21.685  14.832  35.366  1.00  0.00     0.036 C 
BRANCH   2   3
HETATM    3  C5  UNL     1      22.772  13.968  34.895  1.00  0.00     0.004 C 
BRANCH   3   4
HETATM    4  C4  UNL     1      23.963  13.909  35.770  1.00  0.00     0.020 C 
BRANCH   4   5
HETATM    5  C3  UNL     1      25.251  14.240  35.072  1.00  0.00     0.126 C 
BRANCH   5   6
HETATM    6  N1  UNL     1      26.116  14.981  35.964  1.00  0.00    -0.348 N 
HETATM    7  C2  UNL     1      27.018  15.910  35.345  1.00  0.00     0.216 C 
HETATM    8  C1  UNL     1      27.958  16.768  36.072  1.00  0.00     0.117 C 
HETATM    9  O1  UNL     1      27.028  16.022  34.078  1.00  0.00    -0.274 OA
BRANCH   6  10
HETATM   10  C15 UNL     1      26.139  14.778  37.366  1.00  0.00     0.164 C 
BRANCH  10  11
HETATM   11  C16 UNL     1      25.582  16.016  38.032  1.00  0.00    -0.040 A 
HETATM   12  C17 UNL     1      24.620  16.778  37.446  1.00  0.00     0.010 A 
HETATM   13  C18 UNL     1      24.080  17.927  38.030  1.00  0.00     0.019 A 
HETATM   14  C19 UNL     1      24.563  18.291  39.269  1.00  0.00     0.011 A 
HETATM   15 BR1  UNL     1      23.838  19.858  40.082  1.00  0.00    -0.051 Br
HETATM   16  C20 UNL     1      25.539  17.536  39.884  1.00  0.00     0.019 A 
HETATM   17  C21 UNL     1      26.053  16.395  39.270  1.00  0.00     0.010 A 
ENDBRANCH  10  11
ENDBRANCH   6  10
ENDBRANCH   5   6
ENDBRANCH   4   5
ENDBRANCH   3   4
ENDBRANCH   2   3
ENDBRANCH   1   2
BRANCH   1  18
HETATM   18  N2  UNL     1      20.529  16.923  35.084  1.00  0.00    -0.329 N 
HETATM   19  C8  UNL     1      20.292  18.202  35.638  1.00  0.00     0.317 C 
HETATM   20  O2  UNL     1      21.232  18.792  36.251  1.00  0.00    -0.247 OA
HETATM   21  N3  UNL     1      19.065  18.882  35.558  1.00  0.00    -0.329 N 
ATOM     22  H3  UNL     1      18.287  18.435  35.072  1.00  0.00     0.165 HD
ATOM     23  H2  UNL     1      19.784  16.431  34.589  1.00  0.00     0.165 HD
BRANCH  21  24
HETATM   24  C9  UNL     1      18.859  20.234  36.156  1.00  0.00     0.187 C 
BRANCH  24  25
HETATM   25  C10 UNL     1      18.791  21.178  35.015  1.00  0.00     0.046 C 
BRANCH  25  26
HETATM   26  C11 UNL     1      20.069  21.663  34.442  1.00  0.00     0.116 C 
BRANCH  26  27
HETATM   27  C12 UNL     1      20.528  21.050  33.200  1.00  0.00     0.172 C 
HETATM   28  O3  UNL     1      21.389  21.650  32.490  1.00  0.00    -0.648 OA
HETATM   29  O4  UNL     1      20.091  19.811  32.706  1.00  0.00    -0.648 OA
ENDBRANCH  26  27
ENDBRANCH  25  26
ENDBRANCH  24  25
BRANCH  24  30
HETATM   30  C13 UNL     1      17.841  20.223  37.165  1.00  0.00     0.196 C 
HETATM   31  O5  UNL     1      18.075  19.789  38.341  1.00  0.00    -0.646 OA
HETATM   32  O6  UNL     1      16.564  20.683  36.939  1.00  0.00    -0.646 OA
ENDBRANCH  24  30
ENDBRANCH  21  24
ENDBRANCH   1  18
BRANCH   1  33
HETATM   33  C14 UNL     1      22.598  16.802  34.051  1.00  0.00     0.196 C 
HETATM   34  O7  UNL     1      22.106  16.777  32.891  1.00  0.00    -0.646 OA
HETATM   35  O8  UNL     1      23.875  17.355  34.236  1.00  0.00    -0.646 OA
ENDBRANCH   1  33
TORSDOF 14
ENDMDL
