MODEL 18
REMARK VINA RESULT: -9.239232941      3.078      5.266
REMARK  14 active torsions:
REMARK  status: ('A' for Active; 'I' for Inactive)
REMARK       I    between atoms: C2_2  and  N1_4 
REMARK    1  A    between atoms: N1_4  and  C3_5 
REMARK    2  A    between atoms: N1_4  and  C15_28 
REMARK    3  A    between atoms: C3_5  and  C4_6 
REMARK    4  A    between atoms: C4_6  and  C5_7 
REMARK    5  A    between atoms: C5_7  and  C6_8 
REMARK    6  A    between atoms: C6_8  and  C7_9 
REMARK    7  A    between atoms: C7_9  and  N2_10 
REMARK    8  A    between atoms: C7_9  and  C14_25 
REMARK       I    between atoms: N2_10  and  C8_12 
REMARK       I    between atoms: C8_12  and  N3_14 
REMARK    9  A    between atoms: N3_14  and  C9_16 
REMARK   10  A    between atoms: C9_16  and  C10_17 
REMARK   11  A    between atoms: C9_16  and  C13_22 
REMARK   12  A    between atoms: C10_17  and  C11_18 
REMARK   13  A    between atoms: C11_18  and  C12_19 
REMARK   14  A    between atoms: C15_28  and  C16_29 
ROOT
HETATM    1  C7  UNL     1      21.750  16.171  35.214  1.00  0.00     0.187 C 
ENDROOT
BRANCH   1   2
HETATM    2  C6  UNL     1      21.463  14.722  35.217  1.00  0.00     0.036 C 
BRANCH   2   3
HETATM    3  C5  UNL     1      22.545  13.839  34.772  1.00  0.00     0.004 C 
BRANCH   3   4
HETATM    4  C4  UNL     1      23.740  13.806  35.643  1.00  0.00     0.020 C 
BRANCH   4   5
HETATM    5  C3  UNL     1      24.389  12.455  35.740  1.00  0.00     0.126 C 
BRANCH   5   6
HETATM    6  N1  UNL     1      25.821  12.587  35.582  1.00  0.00    -0.348 N 
HETATM    7  C2  UNL     1      26.310  12.615  34.233  1.00  0.00     0.216 C 
HETATM    8  C1  UNL     1      27.720  12.762  33.861  1.00  0.00     0.117 C 
HETATM    9  O1  UNL     1      25.488  12.507  33.268  1.00  0.00    -0.274 OA
BRANCH   6  10
HETATM   10  C15 UNL     1      26.720  12.626  36.676  1.00  0.00     0.164 C 
BRANCH  10  11
HETATM   11  C16 UNL     1      26.409  13.853  37.501  1.00  0.00    -0.040 A 
HETATM   12  C17 UNL     1      25.796  13.770  38.713  1.00  0.00     0.010 A 
HETATM   13  C18 UNL     1      25.493  14.881  39.504  1.00  0.00     0.019 A 
HETATM   14  C19 UNL     1      25.842  16.120  39.012  1.00  0.00     0.011 A 
HETATM   15 BR1  UNL     1      25.435  17.648  40.080  1.00  0.00    -0.051 Br
HETATM   16  C20 UNL     1      26.464  16.232  37.787  1.00  0.00     0.019 A 
HETATM   17  C21 UNL     1      26.750  15.100  37.026  1.00  0.00     0.010 A 
ENDBRANCH  10  11
ENDBRANCH   6  10
ENDBRANCH   5   6
ENDBRANCH   4   5
ENDBRANCH   3   4
ENDBRANCH   2   3
ENDBRANCH   1   2
BRANCH   1  18
HETATM   18  N2  UNL     1      20.431  16.887  35.030  1.00  0.00    -0.329 N 
HETATM   19  C8  UNL     1      20.236  18.153  35.628  1.00  0.00     0.317 C 
HETATM   20  O2  UNL     1      21.174  18.663  36.311  1.00  0.00    -0.247 OA
HETATM   21  N3  UNL     1      19.054  18.904  35.520  1.00  0.00    -0.329 N 
ATOM     22  H3  UNL     1      18.277  18.522  34.978  1.00  0.00     0.165 HD
ATOM     23  H2  UNL     1      19.687  16.460  34.477  1.00  0.00     0.165 HD
BRANCH  21  24
HETATM   24  C9  UNL     1      18.891  20.239  36.167  1.00  0.00     0.187 C 
BRANCH  24  25
HETATM   25  C10 UNL     1      18.881  21.228  35.064  1.00  0.00     0.046 C 
BRANCH  25  26
HETATM   26  C11 UNL     1      20.184  21.637  34.490  1.00  0.00     0.116 C 
BRANCH  26  27
HETATM   27  C12 UNL     1      20.575  21.049  33.214  1.00  0.00     0.172 C 
HETATM   28  O3  UNL     1      21.409  21.654  32.477  1.00  0.00    -0.648 OA
HETATM   29  O4  UNL     1      20.098  19.827  32.713  1.00  0.00    -0.648 OA
ENDBRANCH  26  27
ENDBRANCH  25  26
ENDBRANCH  24  25
BRANCH  24  30
HETATM   30  C13 UNL     1      17.856  20.230  37.159  1.00  0.00     0.196 C 
HETATM   31  O5  UNL     1      18.048  19.731  38.317  1.00  0.00    -0.646 OA
HETATM   32  O6  UNL     1      16.606  20.761  36.936  1.00  0.00    -0.646 OA
ENDBRANCH  24  30
ENDBRANCH  21  24
ENDBRANCH   1  18
BRANCH   1  33
HETATM   33  C14 UNL     1      22.558  16.736  34.126  1.00  0.00     0.196 C 
HETATM   34  O7  UNL     1      22.142  16.835  32.940  1.00  0.00    -0.646 OA
HETATM   35  O8  UNL     1      23.848  17.193  34.434  1.00  0.00    -0.646 OA
ENDBRANCH   1  33
TORSDOF 14
ENDMDL
