MODEL 16
REMARK VINA RESULT: -9.368668657      2.489      4.617
REMARK  14 active torsions:
REMARK  status: ('A' for Active; 'I' for Inactive)
REMARK       I    between atoms: C2_2  and  N1_4 
REMARK    1  A    between atoms: N1_4  and  C3_5 
REMARK    2  A    between atoms: N1_4  and  C15_28 
REMARK    3  A    between atoms: C3_5  and  C4_6 
REMARK    4  A    between atoms: C4_6  and  C5_7 
REMARK    5  A    between atoms: C5_7  and  C6_8 
REMARK    6  A    between atoms: C6_8  and  C7_9 
REMARK    7  A    between atoms: C7_9  and  N2_10 
REMARK    8  A    between atoms: C7_9  and  C14_25 
REMARK       I    between atoms: N2_10  and  C8_12 
REMARK       I    between atoms: C8_12  and  N3_14 
REMARK    9  A    between atoms: N3_14  and  C9_16 
REMARK   10  A    between atoms: C9_16  and  C10_17 
REMARK   11  A    between atoms: C9_16  and  C13_22 
REMARK   12  A    between atoms: C10_17  and  C11_18 
REMARK   13  A    between atoms: C11_18  and  C12_19 
REMARK   14  A    between atoms: C15_28  and  C16_29 
ROOT
HETATM    1  C7  UNL     1      22.646  16.996  35.586  1.00  0.00     0.187 C 
ENDROOT
BRANCH   1   2
HETATM    2  C6  UNL     1      22.845  15.622  36.091  1.00  0.00     0.036 C 
BRANCH   2   3
HETATM    3  C5  UNL     1      23.504  14.679  35.182  1.00  0.00     0.004 C 
BRANCH   3   4
HETATM    4  C4  UNL     1      24.450  13.737  35.818  1.00  0.00     0.020 C 
BRANCH   4   5
HETATM    5  C3  UNL     1      24.335  13.670  37.314  1.00  0.00     0.126 C 
BRANCH   5   6
HETATM    6  N1  UNL     1      25.654  13.641  37.907  1.00  0.00    -0.348 N 
HETATM    7  C2  UNL     1      25.990  12.457  38.646  1.00  0.00     0.216 C 
HETATM    8  C1  UNL     1      27.279  12.224  39.303  1.00  0.00     0.117 C 
HETATM    9  O1  UNL     1      25.132  11.526  38.757  1.00  0.00    -0.274 OA
BRANCH   6  10
HETATM   10  C15 UNL     1      26.560  14.727  37.833  1.00  0.00     0.164 C 
BRANCH  10  11
HETATM   11  C16 UNL     1      26.009  15.861  38.667  1.00  0.00    -0.040 A 
HETATM   12  C17 UNL     1      25.786  15.732  40.002  1.00  0.00     0.010 A 
HETATM   13  C18 UNL     1      25.280  16.756  40.805  1.00  0.00     0.019 A 
HETATM   14  C19 UNL     1      24.996  17.956  40.191  1.00  0.00     0.011 A 
HETATM   15 BR1  UNL     1      24.302  19.367  41.273  1.00  0.00    -0.051 Br
HETATM   16  C20 UNL     1      25.212  18.114  38.839  1.00  0.00     0.019 A 
HETATM   17  C21 UNL     1      25.719  17.069  38.070  1.00  0.00     0.010 A 
ENDBRANCH  10  11
ENDBRANCH   6  10
ENDBRANCH   5   6
ENDBRANCH   4   5
ENDBRANCH   3   4
ENDBRANCH   2   3
ENDBRANCH   1   2
BRANCH   1  18
HETATM   18  N2  UNL     1      21.155  17.247  35.552  1.00  0.00    -0.329 N 
HETATM   19  C8  UNL     1      20.657  18.527  35.889  1.00  0.00     0.317 C 
HETATM   20  O2  UNL     1      21.473  19.440  36.215  1.00  0.00    -0.247 OA
HETATM   21  N3  UNL     1      19.294  18.869  35.888  1.00  0.00    -0.329 N 
ATOM     22  H3  UNL     1      18.609  18.157  35.632  1.00  0.00     0.165 HD
ATOM     23  H2  UNL     1      20.513  16.499  35.288  1.00  0.00     0.165 HD
BRANCH  21  24
HETATM   24  C9  UNL     1      18.811  20.234  36.250  1.00  0.00     0.187 C 
BRANCH  24  25
HETATM   25  C10 UNL     1      18.561  20.931  34.965  1.00  0.00     0.046 C 
BRANCH  25  26
HETATM   26  C11 UNL     1      19.703  21.621  34.319  1.00  0.00     0.116 C 
BRANCH  26  27
HETATM   27  C12 UNL     1      20.344  20.955  33.191  1.00  0.00     0.172 C 
HETATM   28  O3  UNL     1      21.172  21.594  32.477  1.00  0.00    -0.648 OA
HETATM   29  O4  UNL     1      20.122  19.620  32.813  1.00  0.00    -0.648 OA
ENDBRANCH  26  27
ENDBRANCH  25  26
ENDBRANCH  24  25
BRANCH  24  30
HETATM   30  C13 UNL     1      17.810  20.195  37.273  1.00  0.00     0.196 C 
HETATM   31  O5  UNL     1      18.054  19.703  38.425  1.00  0.00    -0.646 OA
HETATM   32  O6  UNL     1      16.537  20.686  37.090  1.00  0.00    -0.646 OA
ENDBRANCH  24  30
ENDBRANCH  21  24
ENDBRANCH   1  18
BRANCH   1  33
HETATM   33  C14 UNL     1      23.040  17.313  34.208  1.00  0.00     0.196 C 
HETATM   34  O7  UNL     1      24.077  17.970  33.923  1.00  0.00    -0.646 OA
HETATM   35  O8  UNL     1      22.222  16.848  33.166  1.00  0.00    -0.646 OA
ENDBRANCH   1  33
TORSDOF 14
ENDMDL
