MODEL 6
REMARK VINA RESULT: -10.259204033      2.206      3.132
REMARK  14 active torsions:
REMARK  status: ('A' for Active; 'I' for Inactive)
REMARK       I    between atoms: C2_2  and  N1_4 
REMARK    1  A    between atoms: N1_4  and  C3_5 
REMARK    2  A    between atoms: N1_4  and  C15_28 
REMARK    3  A    between atoms: C3_5  and  C4_6 
REMARK    4  A    between atoms: C4_6  and  C5_7 
REMARK    5  A    between atoms: C5_7  and  C6_8 
REMARK    6  A    between atoms: C6_8  and  C7_9 
REMARK    7  A    between atoms: C7_9  and  N2_10 
REMARK    8  A    between atoms: C7_9  and  C14_25 
REMARK       I    between atoms: N2_10  and  C8_12 
REMARK       I    between atoms: C8_12  and  N3_14 
REMARK    9  A    between atoms: N3_14  and  C9_16 
REMARK   10  A    between atoms: C9_16  and  C10_17 
REMARK   11  A    between atoms: C9_16  and  C13_22 
REMARK   12  A    between atoms: C10_17  and  C11_18 
REMARK   13  A    between atoms: C11_18  and  C12_19 
REMARK   14  A    between atoms: C15_28  and  C16_29 
ROOT
HETATM    1  C7  UNL     1      20.247  19.552  35.383  1.00  0.00     0.187 C 
ENDROOT
BRANCH   1   2
HETATM    2  C6  UNL     1      21.500  19.222  36.093  1.00  0.00     0.036 C 
BRANCH   2   3
HETATM    3  C5  UNL     1      22.568  20.226  36.036  1.00  0.00     0.004 C 
BRANCH   3   4
HETATM    4  C4  UNL     1      23.515  20.214  37.172  1.00  0.00     0.020 C 
BRANCH   4   5
HETATM    5  C3  UNL     1      23.008  19.485  38.383  1.00  0.00     0.126 C 
BRANCH   5   6
HETATM    6  N1  UNL     1      24.119  19.107  39.229  1.00  0.00    -0.348 N 
HETATM    7  C2  UNL     1      23.945  19.322  40.637  1.00  0.00     0.216 C 
HETATM    8  C1  UNL     1      24.940  18.988  41.659  1.00  0.00     0.117 C 
HETATM    9  O1  UNL     1      22.862  19.835  41.061  1.00  0.00    -0.274 OA
BRANCH   6  10
HETATM   10  C15 UNL     1      25.345  18.610  38.721  1.00  0.00     0.164 C 
BRANCH  10  11
HETATM   11  C16 UNL     1      25.209  17.116  38.536  1.00  0.00    -0.040 A 
HETATM   12  C17 UNL     1      25.690  16.231  39.450  1.00  0.00     0.010 A 
HETATM   13  C18 UNL     1      25.582  14.844  39.314  1.00  0.00     0.019 A 
HETATM   14  C19 UNL     1      24.951  14.368  38.186  1.00  0.00     0.011 A 
HETATM   15 BR1  UNL     1      24.796  12.476  37.984  1.00  0.00    -0.051 Br
HETATM   16  C20 UNL     1      24.456  15.244  37.244  1.00  0.00     0.019 A 
HETATM   17  C21 UNL     1      24.581  16.621  37.414  1.00  0.00     0.010 A 
ENDBRANCH  10  11
ENDBRANCH   6  10
ENDBRANCH   5   6
ENDBRANCH   4   5
ENDBRANCH   3   4
ENDBRANCH   2   3
ENDBRANCH   1   2
BRANCH   1  18
HETATM   18  N2  UNL     1      19.105  19.046  36.236  1.00  0.00    -0.329 N 
HETATM   19  C8  UNL     1      18.227  19.973  36.844  1.00  0.00     0.317 C 
HETATM   20  O2  UNL     1      18.417  21.213  36.662  1.00  0.00    -0.247 OA
HETATM   21  N3  UNL     1      17.136  19.613  37.653  1.00  0.00    -0.329 N 
ATOM     22  H3  UNL     1      16.955  18.622  37.821  1.00  0.00     0.165 HD
ATOM     23  H2  UNL     1      18.970  18.044  36.372  1.00  0.00     0.165 HD
BRANCH  21  24
HETATM   24  C9  UNL     1      16.232  20.625  38.274  1.00  0.00     0.187 C 
BRANCH  24  25
HETATM   25  C10 UNL     1      14.852  20.145  38.026  1.00  0.00     0.046 C 
BRANCH  25  26
HETATM   26  C11 UNL     1      14.622  18.681  37.999  1.00  0.00     0.116 C 
BRANCH  26  27
HETATM   27  C12 UNL     1      13.862  18.097  39.098  1.00  0.00     0.172 C 
HETATM   28  O3  UNL     1      12.784  18.647  39.473  1.00  0.00    -0.648 OA
HETATM   29  O4  UNL     1      14.227  16.937  39.800  1.00  0.00    -0.648 OA
ENDBRANCH  26  27
ENDBRANCH  25  26
ENDBRANCH  24  25
BRANCH  24  30
HETATM   30  C13 UNL     1      16.660  20.986  39.593  1.00  0.00     0.196 C 
HETATM   31  O5  UNL     1      17.845  20.745  39.998  1.00  0.00    -0.646 OA
HETATM   32  O6  UNL     1      15.836  21.618  40.497  1.00  0.00    -0.646 OA
ENDBRANCH  24  30
ENDBRANCH  21  24
ENDBRANCH   1  18
BRANCH   1  33
HETATM   33  C14 UNL     1      19.969  18.911  34.091  1.00  0.00     0.196 C 
HETATM   34  O7  UNL     1      19.475  17.756  33.988  1.00  0.00    -0.646 OA
HETATM   35  O8  UNL     1      20.261  19.632  32.924  1.00  0.00    -0.646 OA
ENDBRANCH   1  33
TORSDOF 14
ENDMDL
