MODEL 10
REMARK VINA RESULT: -10.005455818      2.378      3.488
REMARK  14 active torsions:
REMARK  status: ('A' for Active; 'I' for Inactive)
REMARK       I    between atoms: C2_2  and  N1_4 
REMARK    1  A    between atoms: N1_4  and  C3_5 
REMARK    2  A    between atoms: N1_4  and  C15_28 
REMARK    3  A    between atoms: C3_5  and  C4_6 
REMARK    4  A    between atoms: C4_6  and  C5_7 
REMARK    5  A    between atoms: C5_7  and  C6_8 
REMARK    6  A    between atoms: C6_8  and  C7_9 
REMARK    7  A    between atoms: C7_9  and  N2_10 
REMARK    8  A    between atoms: C7_9  and  C14_25 
REMARK       I    between atoms: N2_10  and  C8_12 
REMARK       I    between atoms: C8_12  and  N3_14 
REMARK    9  A    between atoms: N3_14  and  C9_16 
REMARK   10  A    between atoms: C9_16  and  C10_17 
REMARK   11  A    between atoms: C9_16  and  C13_22 
REMARK   12  A    between atoms: C10_17  and  C11_18 
REMARK   13  A    between atoms: C11_18  and  C12_19 
REMARK   14  A    between atoms: C15_28  and  C16_29 
ROOT
HETATM    1  C7  UNL     1      19.779  20.232  34.981  1.00  0.00     0.187 C 
ENDROOT
BRANCH   1   2
HETATM    2  C6  UNL     1      21.040  20.352  35.742  1.00  0.00     0.036 C 
BRANCH   2   3
HETATM    3  C5  UNL     1      22.252  20.627  34.963  1.00  0.00     0.004 C 
BRANCH   3   4
HETATM    4  C4  UNL     1      23.171  19.482  34.791  1.00  0.00     0.020 C 
BRANCH   4   5
HETATM    5  C3  UNL     1      24.247  19.399  35.835  1.00  0.00     0.126 C 
BRANCH   5   6
HETATM    6  N1  UNL     1      23.666  19.045  37.112  1.00  0.00    -0.348 N 
HETATM    7  C2  UNL     1      23.985  19.907  38.214  1.00  0.00     0.216 C 
HETATM    8  C1  UNL     1      23.481  19.733  39.579  1.00  0.00     0.117 C 
HETATM    9  O1  UNL     1      24.755  20.901  38.027  1.00  0.00    -0.274 OA
BRANCH   6  10
HETATM   10  C15 UNL     1      22.874  17.886  37.307  1.00  0.00     0.164 C 
BRANCH  10  11
HETATM   11  C16 UNL     1      23.760  16.674  37.132  1.00  0.00    -0.040 A 
HETATM   12  C17 UNL     1      24.832  16.442  37.936  1.00  0.00     0.010 A 
HETATM   13  C18 UNL     1      25.672  15.334  37.806  1.00  0.00     0.019 A 
HETATM   14  C19 UNL     1      25.382  14.437  36.801  1.00  0.00     0.011 A 
HETATM   15 BR1  UNL     1      26.520  12.917  36.609  1.00  0.00    -0.051 Br
HETATM   16  C20 UNL     1      24.301  14.648  35.972  1.00  0.00     0.019 A 
HETATM   17  C21 UNL     1      23.485  15.766  36.132  1.00  0.00     0.010 A 
ENDBRANCH  10  11
ENDBRANCH   6  10
ENDBRANCH   5   6
ENDBRANCH   4   5
ENDBRANCH   3   4
ENDBRANCH   2   3
ENDBRANCH   1   2
BRANCH   1  18
HETATM   18  N2  UNL     1      18.779  19.543  35.881  1.00  0.00    -0.329 N 
HETATM   19  C8  UNL     1      17.904  20.322  36.673  1.00  0.00     0.317 C 
HETATM   20  O2  UNL     1      17.978  21.586  36.613  1.00  0.00    -0.247 OA
HETATM   21  N3  UNL     1      16.937  19.786  37.541  1.00  0.00    -0.329 N 
ATOM     22  H3  UNL     1      16.851  18.772  37.614  1.00  0.00     0.165 HD
ATOM     23  H2  UNL     1      18.735  18.524  35.917  1.00  0.00     0.165 HD
BRANCH  21  24
HETATM   24  C9  UNL     1      16.031  20.646  38.359  1.00  0.00     0.187 C 
BRANCH  24  25
HETATM   25  C10 UNL     1      14.664  20.115  38.146  1.00  0.00     0.046 C 
BRANCH  25  26
HETATM   26  C11 UNL     1      14.493  18.644  38.100  1.00  0.00     0.116 C 
BRANCH  26  27
HETATM   27  C12 UNL     1      13.830  18.006  39.232  1.00  0.00     0.172 C 
HETATM   28  O3  UNL     1      14.097  18.390  40.409  1.00  0.00    -0.648 OA
HETATM   29  O4  UNL     1      12.885  16.971  39.131  1.00  0.00    -0.648 OA
ENDBRANCH  26  27
ENDBRANCH  25  26
ENDBRANCH  24  25
BRANCH  24  30
HETATM   30  C13 UNL     1      16.542  20.857  39.680  1.00  0.00     0.196 C 
HETATM   31  O5  UNL     1      17.783  20.718  39.945  1.00  0.00    -0.646 OA
HETATM   32  O6  UNL     1      15.743  21.226  40.738  1.00  0.00    -0.646 OA
ENDBRANCH  24  30
ENDBRANCH  21  24
ENDBRANCH   1  18
BRANCH   1  33
HETATM   33  C14 UNL     1      19.748  19.382  33.783  1.00  0.00     0.196 C 
HETATM   34  O7  UNL     1      19.812  19.842  32.611  1.00  0.00    -0.646 OA
HETATM   35  O8  UNL     1      19.653  17.994  33.965  1.00  0.00    -0.646 OA
ENDBRANCH   1  33
TORSDOF 14
ENDMDL
