MODEL 12
REMARK VINA RESULT: -9.940602049      2.638      3.647
REMARK  14 active torsions:
REMARK  status: ('A' for Active; 'I' for Inactive)
REMARK       I    between atoms: C2_2  and  N1_4 
REMARK    1  A    between atoms: N1_4  and  C3_5 
REMARK    2  A    between atoms: N1_4  and  C15_28 
REMARK    3  A    between atoms: C3_5  and  C4_6 
REMARK    4  A    between atoms: C4_6  and  C5_7 
REMARK    5  A    between atoms: C5_7  and  C6_8 
REMARK    6  A    between atoms: C6_8  and  C7_9 
REMARK    7  A    between atoms: C7_9  and  N2_10 
REMARK    8  A    between atoms: C7_9  and  C14_25 
REMARK       I    between atoms: N2_10  and  C8_12 
REMARK       I    between atoms: C8_12  and  N3_14 
REMARK    9  A    between atoms: N3_14  and  C9_16 
REMARK   10  A    between atoms: C9_16  and  C10_17 
REMARK   11  A    between atoms: C9_16  and  C13_22 
REMARK   12  A    between atoms: C10_17  and  C11_18 
REMARK   13  A    between atoms: C11_18  and  C12_19 
REMARK   14  A    between atoms: C15_28  and  C16_29 
ROOT
HETATM    1  C7  UNL     1      20.078  19.988  35.192  1.00  0.00     0.187 C 
ENDROOT
BRANCH   1   2
HETATM    2  C6  UNL     1      21.345  19.882  35.946  1.00  0.00     0.036 C 
BRANCH   2   3
HETATM    3  C5  UNL     1      21.572  18.628  36.671  1.00  0.00     0.004 C 
BRANCH   3   4
HETATM    4  C4  UNL     1      22.893  18.500  37.323  1.00  0.00     0.020 C 
BRANCH   4   5
HETATM    5  C3  UNL     1      24.053  18.551  36.370  1.00  0.00     0.126 C 
BRANCH   5   6
HETATM    6  N1  UNL     1      25.144  17.750  36.882  1.00  0.00    -0.348 N 
HETATM    7  C2  UNL     1      26.382  17.834  36.162  1.00  0.00     0.216 C 
HETATM    8  C1  UNL     1      27.608  17.119  36.529  1.00  0.00     0.117 C 
HETATM    9  O1  UNL     1      26.456  18.571  35.129  1.00  0.00    -0.274 OA
BRANCH   6  10
HETATM   10  C15 UNL     1      25.010  16.877  37.989  1.00  0.00     0.164 C 
BRANCH  10  11
HETATM   11  C16 UNL     1      24.926  15.461  37.467  1.00  0.00    -0.040 A 
HETATM   12  C17 UNL     1      24.122  15.124  36.423  1.00  0.00     0.010 A 
HETATM   13  C18 UNL     1      24.019  13.827  35.913  1.00  0.00     0.019 A 
HETATM   14  C19 UNL     1      24.782  12.851  36.514  1.00  0.00     0.011 A 
HETATM   15 BR1  UNL     1      24.654  11.073  35.830  1.00  0.00    -0.051 Br
HETATM   16  C20 UNL     1      25.606  13.165  37.574  1.00  0.00     0.019 A 
HETATM   17  C21 UNL     1      25.682  14.470  38.056  1.00  0.00     0.010 A 
ENDBRANCH  10  11
ENDBRANCH   6  10
ENDBRANCH   5   6
ENDBRANCH   4   5
ENDBRANCH   3   4
ENDBRANCH   2   3
ENDBRANCH   1   2
BRANCH   1  18
HETATM   18  N2  UNL     1      18.998  19.363  36.045  1.00  0.00    -0.329 N 
HETATM   19  C8  UNL     1      18.099  20.196  36.751  1.00  0.00     0.317 C 
HETATM   20  O2  UNL     1      18.220  21.454  36.655  1.00  0.00    -0.247 OA
HETATM   21  N3  UNL     1      17.060  19.721  37.568  1.00  0.00    -0.329 N 
ATOM     22  H3  UNL     1      16.935  18.713  37.669  1.00  0.00     0.165 HD
ATOM     23  H2  UNL     1      18.917  18.348  36.110  1.00  0.00     0.165 HD
BRANCH  21  24
HETATM   24  C9  UNL     1      16.132  20.636  38.296  1.00  0.00     0.187 C 
BRANCH  24  25
HETATM   25  C10 UNL     1      14.787  20.023  38.187  1.00  0.00     0.046 C 
BRANCH  25  26
HETATM   26  C11 UNL     1      14.704  18.545  38.118  1.00  0.00     0.116 C 
BRANCH  26  27
HETATM   27  C12 UNL     1      14.158  17.844  39.275  1.00  0.00     0.172 C 
HETATM   28  O3  UNL     1      14.681  16.753  39.648  1.00  0.00    -0.648 OA
HETATM   29  O4  UNL     1      13.069  18.288  40.043  1.00  0.00    -0.648 OA
ENDBRANCH  26  27
ENDBRANCH  25  26
ENDBRANCH  24  25
BRANCH  24  30
HETATM   30  C13 UNL     1      16.659  21.035  39.567  1.00  0.00     0.196 C 
HETATM   31  O5  UNL     1      17.779  20.594  39.990  1.00  0.00    -0.646 OA
HETATM   32  O6  UNL     1      16.008  21.915  40.401  1.00  0.00    -0.646 OA
ENDBRANCH  24  30
ENDBRANCH  21  24
ENDBRANCH   1  18
BRANCH   1  33
HETATM   33  C14 UNL     1      19.936  19.251  33.930  1.00  0.00     0.196 C 
HETATM   34  O7  UNL     1      20.187  19.760  32.804  1.00  0.00    -0.646 OA
HETATM   35  O8  UNL     1      19.510  17.916  33.993  1.00  0.00    -0.646 OA
ENDBRANCH   1  33
TORSDOF 14
ENDMDL
