MODEL 5
REMARK VINA RESULT: -8.786420905      1.951      2.369
REMARK  13 active torsions:
REMARK  status: ('A' for Active; 'I' for Inactive)
REMARK    1  A    between atoms: C1_2  and  N1_3 
REMARK    2  A    between atoms: N1_3  and  C2_5 
REMARK    3  A    between atoms: C2_5  and  C3_6 
REMARK    4  A    between atoms: C3_6  and  C4_7 
REMARK    5  A    between atoms: C4_7  and  C5_8 
REMARK    6  A    between atoms: C5_8  and  C6_9 
REMARK    7  A    between atoms: C6_9  and  N2_10 
REMARK    8  A    between atoms: C6_9  and  C13_25 
REMARK       I    between atoms: N2_10  and  C7_12 
REMARK       I    between atoms: C7_12  and  N3_14 
REMARK    9  A    between atoms: N3_14  and  C8_16 
REMARK   10  A    between atoms: C8_16  and  C9_17 
REMARK   11  A    between atoms: C8_16  and  C12_22 
REMARK   12  A    between atoms: C9_17  and  C10_18 
REMARK   13  A    between atoms: C10_18  and  C11_19 
ROOT
HETATM    1  N2  UNL     1     -18.835 -19.402 -43.322  1.00  0.00    -0.329 N 
ATOM      2  H2  UNL     1     -18.667 -18.400 -43.230  1.00  0.00     0.165 HD
HETATM    3  C7  UNL     1     -17.974 -20.301 -42.633  1.00  0.00     0.317 C 
HETATM    4  O2  UNL     1     -18.167 -21.532 -42.733  1.00  0.00    -0.247 OA
HETATM    5  N3  UNL     1     -16.908 -19.796 -41.839  1.00  0.00    -0.329 N 
ATOM      6  H3  UNL     1     -16.769 -18.787 -41.772  1.00  0.00     0.165 HD
ENDROOT
BRANCH   1   7
HETATM    7  C6  UNL     1     -19.940 -19.846 -44.149  1.00  0.00     0.187 C 
BRANCH   7   8
HETATM    8  C5  UNL     1     -21.210 -19.816 -43.333  1.00  0.00     0.036 C 
BRANCH   8   9
HETATM    9  C4  UNL     1     -21.704 -18.451 -43.021  1.00  0.00     0.004 C 
BRANCH   9  10
HETATM   10  C3  UNL     1     -22.949 -18.416 -42.184  1.00  0.00     0.020 C 
BRANCH  10  11
HETATM   11  C2  UNL     1     -23.070 -19.597 -41.262  1.00  0.00     0.122 C 
BRANCH  11  12
HETATM   12  N1  UNL     1     -24.274 -20.366 -41.424  1.00  0.00    -0.368 N 
ATOM     13  H1  UNL     1     -24.958 -20.402 -40.668  1.00  0.00     0.161 HD
BRANCH  12  14
HETATM   14  C1  UNL     1     -24.513 -21.069 -42.620  1.00  0.00     0.348 C 
HETATM   15  O1  UNL     1     -25.155 -22.136 -42.600  1.00  0.00    -0.284 OA
ENDBRANCH  12  14
ENDBRANCH  11  12
ENDBRANCH  10  11
ENDBRANCH   9  10
ENDBRANCH   8   9
ENDBRANCH   7   8
BRANCH   7  16
HETATM   16  C13 UNL     1     -20.012 -18.987 -45.341  1.00  0.00     0.196 C 
HETATM   17  O7  UNL     1     -20.656 -19.366 -46.351  1.00  0.00    -0.646 OA
HETATM   18  O8  UNL     1     -19.397 -17.745 -45.435  1.00  0.00    -0.646 OA
ENDBRANCH   7  16
ENDBRANCH   1   7
BRANCH   5  19
HETATM   19  C8  UNL     1     -15.994 -20.702 -41.106  1.00  0.00     0.187 C 
BRANCH  19  20
HETATM   20  C9  UNL     1     -14.618 -20.158 -41.267  1.00  0.00     0.046 C 
BRANCH  20  21
HETATM   21  C10 UNL     1     -14.623 -18.671 -41.378  1.00  0.00     0.116 C 
BRANCH  21  22
HETATM   22  C11 UNL     1     -13.846 -18.097 -40.242  1.00  0.00     0.172 C 
HETATM   23  O3  UNL     1     -12.785 -18.629 -39.889  1.00  0.00    -0.648 OA
HETATM   24  O4  UNL     1     -14.331 -16.976 -39.601  1.00  0.00    -0.648 OA
ENDBRANCH  21  22
ENDBRANCH  20  21
ENDBRANCH  19  20
BRANCH  19  25
HETATM   25  C12 UNL     1     -16.474 -20.751 -39.707  1.00  0.00     0.196 C 
HETATM   26  O5  UNL     1     -15.690 -21.032 -38.754  1.00  0.00    -0.646 OA
HETATM   27  O6  UNL     1     -17.788 -20.495 -39.354  1.00  0.00    -0.646 OA
ENDBRANCH  19  25
ENDBRANCH   5  19
TORSDOF 13
ENDMDL
