MODEL 10
REMARK VINA RESULT: -7.336599713      3.968      6.900
REMARK  13 active torsions:
REMARK  status: ('A' for Active; 'I' for Inactive)
REMARK    1  A    between atoms: C1_2  and  N1_3 
REMARK    2  A    between atoms: N1_3  and  C2_5 
REMARK    3  A    between atoms: C2_5  and  C3_6 
REMARK    4  A    between atoms: C3_6  and  C4_7 
REMARK    5  A    between atoms: C4_7  and  C5_8 
REMARK    6  A    between atoms: C5_8  and  C6_9 
REMARK    7  A    between atoms: C6_9  and  N2_10 
REMARK    8  A    between atoms: C6_9  and  C13_25 
REMARK       I    between atoms: N2_10  and  C7_12 
REMARK       I    between atoms: C7_12  and  N3_14 
REMARK    9  A    between atoms: N3_14  and  C8_16 
REMARK   10  A    between atoms: C8_16  and  C9_17 
REMARK   11  A    between atoms: C8_16  and  C12_22 
REMARK   12  A    between atoms: C9_17  and  C10_18 
REMARK   13  A    between atoms: C10_18  and  C11_19 
ROOT
HETATM    1  N2  UNL     1     -23.224 -19.107 -41.496  1.00  0.00    -0.329 N 
ATOM      2  H2  UNL     1     -22.793 -18.474 -40.823  1.00  0.00     0.165 HD
HETATM    3  C7  UNL     1     -22.405 -19.688 -42.504  1.00  0.00     0.317 C 
HETATM    4  O2  UNL     1     -22.918 -20.468 -43.336  1.00  0.00    -0.247 OA
HETATM    5  N3  UNL     1     -21.018 -19.380 -42.558  1.00  0.00    -0.329 N 
ATOM      6  H3  UNL     1     -20.622 -18.741 -41.868  1.00  0.00     0.165 HD
ENDROOT
BRANCH   1   7
HETATM    7  C6  UNL     1     -24.644 -19.376 -41.383  1.00  0.00     0.187 C 
BRANCH   7   8
HETATM    8  C5  UNL     1     -24.868 -20.406 -40.302  1.00  0.00     0.036 C 
BRANCH   8   9
HETATM    9  C4  UNL     1     -25.116 -19.833 -38.955  1.00  0.00     0.004 C 
BRANCH   9  10
HETATM   10  C3  UNL     1     -23.915 -19.821 -38.052  1.00  0.00     0.020 C 
BRANCH  10  11
HETATM   11  C2  UNL     1     -24.124 -19.000 -36.811  1.00  0.00     0.122 C 
BRANCH  11  12
HETATM   12  N1  UNL     1     -23.021 -19.012 -35.890  1.00  0.00    -0.368 N 
ATOM     13  H1  UNL     1     -23.025 -18.386 -35.084  1.00  0.00     0.161 HD
BRANCH  12  14
HETATM   14  C1  UNL     1     -21.934 -19.884 -36.094  1.00  0.00     0.348 C 
HETATM   15  O1  UNL     1     -20.804 -19.425 -36.348  1.00  0.00    -0.284 OA
ENDBRANCH  12  14
ENDBRANCH  11  12
ENDBRANCH  10  11
ENDBRANCH   9  10
ENDBRANCH   8   9
ENDBRANCH   7   8
BRANCH   7  16
HETATM   16  C13 UNL     1     -25.343 -18.110 -41.112  1.00  0.00     0.196 C 
HETATM   17  O7  UNL     1     -24.686 -17.075 -40.837  1.00  0.00    -0.646 OA
HETATM   18  O8  UNL     1     -26.725 -17.971 -41.140  1.00  0.00    -0.646 OA
ENDBRANCH   7  16
ENDBRANCH   1   7
BRANCH   5  19
HETATM   19  C8  UNL     1     -20.135 -19.966 -43.591  1.00  0.00     0.187 C 
BRANCH  19  20
HETATM   20  C9  UNL     1     -19.909 -18.916 -44.620  1.00  0.00     0.046 C 
BRANCH  20  21
HETATM   21  C10 UNL     1     -20.413 -17.587 -44.171  1.00  0.00     0.116 C 
BRANCH  21  22
HETATM   22  C11 UNL     1     -21.329 -17.039 -45.212  1.00  0.00     0.172 C 
HETATM   23  O3  UNL     1     -21.734 -17.772 -46.125  1.00  0.00    -0.648 OA
HETATM   24  O4  UNL     1     -21.710 -15.715 -45.137  1.00  0.00    -0.648 OA
ENDBRANCH  21  22
ENDBRANCH  20  21
ENDBRANCH  19  20
BRANCH  19  25
HETATM   25  C12 UNL     1     -18.908 -20.418 -42.897  1.00  0.00     0.196 C 
HETATM   26  O5  UNL     1     -18.304 -19.666 -42.078  1.00  0.00    -0.646 OA
HETATM   27  O6  UNL     1     -18.353 -21.671 -43.091  1.00  0.00    -0.646 OA
ENDBRANCH  19  25
ENDBRANCH   5  19
TORSDOF 13
ENDMDL
