MODEL 9
REMARK VINA RESULT: -7.935138804      2.191      8.221
REMARK  13 active torsions:
REMARK  status: ('A' for Active; 'I' for Inactive)
REMARK    1  A    between atoms: C1_2  and  N1_3 
REMARK    2  A    between atoms: N1_3  and  C2_5 
REMARK    3  A    between atoms: C2_5  and  C3_6 
REMARK    4  A    between atoms: C3_6  and  C4_7 
REMARK    5  A    between atoms: C4_7  and  C5_8 
REMARK    6  A    between atoms: C5_8  and  C6_9 
REMARK    7  A    between atoms: C6_9  and  N2_10 
REMARK    8  A    between atoms: C6_9  and  C13_25 
REMARK       I    between atoms: N2_10  and  C7_12 
REMARK       I    between atoms: C7_12  and  N3_14 
REMARK    9  A    between atoms: N3_14  and  C8_16 
REMARK   10  A    between atoms: C8_16  and  C9_17 
REMARK   11  A    between atoms: C8_16  and  C12_22 
REMARK   12  A    between atoms: C9_17  and  C10_18 
REMARK   13  A    between atoms: C10_18  and  C11_19 
ROOT
HETATM    1  N2  UNL     1     -16.903 -19.841 -41.839  1.00  0.00    -0.329 N 
ATOM      2  H2  UNL     1     -16.830 -18.830 -41.723  1.00  0.00     0.165 HD
HETATM    3  C7  UNL     1     -17.900 -20.352 -42.717  1.00  0.00     0.317 C 
HETATM    4  O2  UNL     1     -18.003 -21.589 -42.873  1.00  0.00    -0.247 OA
HETATM    5  N3  UNL     1     -18.765 -19.460 -43.408  1.00  0.00    -0.329 N 
ATOM      6  H3  UNL     1     -18.662 -18.455 -43.265  1.00  0.00     0.165 HD
ENDROOT
BRANCH   1   7
HETATM    7  C6  UNL     1     -15.990 -20.691 -41.103  1.00  0.00     0.187 C 
BRANCH   7   8
HETATM    8  C5  UNL     1     -14.616 -20.065 -41.113  1.00  0.00     0.036 C 
BRANCH   8   9
HETATM    9  C4  UNL     1     -14.620 -18.585 -41.219  1.00  0.00     0.004 C 
BRANCH   9  10
HETATM   10  C3  UNL     1     -14.475 -17.866 -39.908  1.00  0.00     0.020 C 
BRANCH  10  11
HETATM   11  C2  UNL     1     -13.040 -17.652 -39.512  1.00  0.00     0.122 C 
BRANCH  11  12
HETATM   12  N1  UNL     1     -12.814 -17.559 -38.096  1.00  0.00    -0.368 N 
ATOM     13  H1  UNL     1     -13.558 -17.812 -37.446  1.00  0.00     0.161 HD
BRANCH  12  14
HETATM   14  C1  UNL     1     -11.571 -17.119 -37.603  1.00  0.00     0.348 C 
HETATM   15  O1  UNL     1     -11.490 -16.042 -36.984  1.00  0.00    -0.284 OA
ENDBRANCH  12  14
ENDBRANCH  11  12
ENDBRANCH  10  11
ENDBRANCH   9  10
ENDBRANCH   8   9
ENDBRANCH   7   8
BRANCH   7  16
HETATM   16  C13 UNL     1     -16.515 -20.882 -39.742  1.00  0.00     0.196 C 
HETATM   17  O7  UNL     1     -17.693 -20.539 -39.469  1.00  0.00    -0.646 OA
HETATM   18  O8  UNL     1     -15.778 -21.433 -38.702  1.00  0.00    -0.646 OA
ENDBRANCH   7  16
ENDBRANCH   1   7
BRANCH   5  19
HETATM   19  C8  UNL     1     -19.811 -19.956 -44.330  1.00  0.00     0.187 C 
BRANCH  19  20
HETATM   20  C9  UNL     1     -21.000 -20.291 -43.502  1.00  0.00     0.046 C 
BRANCH  20  21
HETATM   21  C10 UNL     1     -21.500 -19.105 -42.751  1.00  0.00     0.116 C 
BRANCH  21  22
HETATM   22  C11 UNL     1     -22.887 -19.380 -42.276  1.00  0.00     0.172 C 
HETATM   23  O3  UNL     1     -23.825 -19.387 -43.084  1.00  0.00    -0.648 OA
HETATM   24  O4  UNL     1     -23.098 -19.622 -40.934  1.00  0.00    -0.648 OA
ENDBRANCH  21  22
ENDBRANCH  20  21
ENDBRANCH  19  20
BRANCH  19  25
HETATM   25  C12 UNL     1     -20.040 -18.887 -45.329  1.00  0.00     0.196 C 
HETATM   26  O5  UNL     1     -20.853 -19.048 -46.285  1.00  0.00    -0.646 OA
HETATM   27  O6  UNL     1     -19.395 -17.664 -45.281  1.00  0.00    -0.646 OA
ENDBRANCH  19  25
ENDBRANCH   5  19
TORSDOF 13
ENDMDL
