MODEL 8
REMARK VINA RESULT: -8.117374764      1.881      8.466
REMARK  13 active torsions:
REMARK  status: ('A' for Active; 'I' for Inactive)
REMARK    1  A    between atoms: C1_2  and  N1_3 
REMARK    2  A    between atoms: N1_3  and  C2_5 
REMARK    3  A    between atoms: C2_5  and  C3_6 
REMARK    4  A    between atoms: C3_6  and  C4_7 
REMARK    5  A    between atoms: C4_7  and  C5_8 
REMARK    6  A    between atoms: C5_8  and  C6_9 
REMARK    7  A    between atoms: C6_9  and  N2_10 
REMARK    8  A    between atoms: C6_9  and  C13_25 
REMARK       I    between atoms: N2_10  and  C7_12 
REMARK       I    between atoms: C7_12  and  N3_14 
REMARK    9  A    between atoms: N3_14  and  C8_16 
REMARK   10  A    between atoms: C8_16  and  C9_17 
REMARK   11  A    between atoms: C8_16  and  C12_22 
REMARK   12  A    between atoms: C9_17  and  C10_18 
REMARK   13  A    between atoms: C10_18  and  C11_19 
ROOT
HETATM    1  N2  UNL     1     -16.942 -19.750 -41.812  1.00  0.00    -0.329 N 
ATOM      2  H2  UNL     1     -16.805 -18.747 -41.694  1.00  0.00     0.165 HD
HETATM    3  C7  UNL     1     -18.022 -20.196 -42.624  1.00  0.00     0.317 C 
HETATM    4  O2  UNL     1     -18.204 -21.423 -42.782  1.00  0.00    -0.247 OA
HETATM    5  N3  UNL     1     -18.880 -19.250 -43.249  1.00  0.00    -0.329 N 
ATOM      6  H3  UNL     1     -18.712 -18.254 -43.106  1.00  0.00     0.165 HD
ENDROOT
BRANCH   1   7
HETATM    7  C6  UNL     1     -16.030 -20.658 -41.146  1.00  0.00     0.187 C 
BRANCH   7   8
HETATM    8  C5  UNL     1     -14.637 -20.076 -41.186  1.00  0.00     0.036 C 
BRANCH   8   9
HETATM    9  C4  UNL     1     -14.596 -18.601 -41.352  1.00  0.00     0.004 C 
BRANCH   9  10
HETATM   10  C3  UNL     1     -14.449 -17.835 -40.069  1.00  0.00     0.020 C 
BRANCH  10  11
HETATM   11  C2  UNL     1     -13.027 -17.770 -39.584  1.00  0.00     0.122 C 
BRANCH  11  12
HETATM   12  N1  UNL     1     -12.883 -17.504 -38.179  1.00  0.00    -0.368 N 
ATOM     13  H1  UNL     1     -13.690 -17.587 -37.562  1.00  0.00     0.161 HD
BRANCH  12  14
HETATM   14  C1  UNL     1     -11.632 -17.129 -37.652  1.00  0.00     0.348 C 
HETATM   15  O1  UNL     1     -11.538 -16.129 -36.916  1.00  0.00    -0.284 OA
ENDBRANCH  12  14
ENDBRANCH  11  12
ENDBRANCH  10  11
ENDBRANCH   9  10
ENDBRANCH   8   9
ENDBRANCH   7   8
BRANCH   7  16
HETATM   16  C13 UNL     1     -16.509 -20.886 -39.774  1.00  0.00     0.196 C 
HETATM   17  O7  UNL     1     -17.688 -20.584 -39.461  1.00  0.00    -0.646 OA
HETATM   18  O8  UNL     1     -15.725 -21.429 -38.764  1.00  0.00    -0.646 OA
ENDBRANCH   7  16
ENDBRANCH   1   7
BRANCH   5  19
HETATM   19  C8  UNL     1     -20.012 -19.677 -44.102  1.00  0.00     0.187 C 
BRANCH  19  20
HETATM   20  C9  UNL     1     -21.261 -19.391 -43.346  1.00  0.00     0.046 C 
BRANCH  20  21
HETATM   21  C10 UNL     1     -22.277 -20.466 -43.534  1.00  0.00     0.116 C 
BRANCH  21  22
HETATM   22  C11 UNL     1     -23.023 -20.212 -44.800  1.00  0.00     0.172 C 
HETATM   23  O3  UNL     1     -23.193 -21.133 -45.611  1.00  0.00    -0.648 OA
HETATM   24  O4  UNL     1     -23.512 -18.945 -45.045  1.00  0.00    -0.648 OA
ENDBRANCH  21  22
ENDBRANCH  20  21
ENDBRANCH  19  20
BRANCH  19  25
HETATM   25  C12 UNL     1     -19.885 -18.939 -45.378  1.00  0.00     0.196 C 
HETATM   26  O5  UNL     1     -20.180 -19.484 -46.482  1.00  0.00    -0.646 OA
HETATM   27  O6  UNL     1     -19.448 -17.628 -45.448  1.00  0.00    -0.646 OA
ENDBRANCH  19  25
ENDBRANCH   5  19
TORSDOF 13
ENDMDL
