MODEL 2
REMARK VINA RESULT: -8.934113825      0.816      1.093
REMARK  13 active torsions:
REMARK  status: ('A' for Active; 'I' for Inactive)
REMARK    1  A    between atoms: C1_2  and  N1_3 
REMARK    2  A    between atoms: N1_3  and  C2_5 
REMARK    3  A    between atoms: C2_5  and  C3_6 
REMARK    4  A    between atoms: C3_6  and  C4_7 
REMARK    5  A    between atoms: C4_7  and  C5_8 
REMARK    6  A    between atoms: C5_8  and  C6_9 
REMARK    7  A    between atoms: C6_9  and  N2_10 
REMARK    8  A    between atoms: C6_9  and  C13_25 
REMARK       I    between atoms: N2_10  and  C7_12 
REMARK       I    between atoms: C7_12  and  N3_14 
REMARK    9  A    between atoms: N3_14  and  C8_16 
REMARK   10  A    between atoms: C8_16  and  C9_17 
REMARK   11  A    between atoms: C8_16  and  C12_22 
REMARK   12  A    between atoms: C9_17  and  C10_18 
REMARK   13  A    between atoms: C10_18  and  C11_19 
ROOT
HETATM    1  N2  UNL     1     -19.534 -19.759 -43.228  1.00  0.00    -0.329 N 
ATOM      2  H2  UNL     1     -19.653 -18.774 -42.989  1.00  0.00     0.165 HD
HETATM    3  C7  UNL     1     -18.405 -20.451 -42.707  1.00  0.00     0.317 C 
HETATM    4  O2  UNL     1     -18.245 -21.659 -42.988  1.00  0.00    -0.247 OA
HETATM    5  N3  UNL     1     -17.474 -19.770 -41.875  1.00  0.00    -0.329 N 
ATOM      6  H3  UNL     1     -17.626 -18.784 -41.660  1.00  0.00     0.165 HD
ENDROOT
BRANCH   1   7
HETATM    7  C6  UNL     1     -20.521 -20.389 -44.081  1.00  0.00     0.187 C 
BRANCH   7   8
HETATM    8  C5  UNL     1     -21.901 -19.990 -43.618  1.00  0.00     0.036 C 
BRANCH   8   9
HETATM    9  C4  UNL     1     -21.918 -19.189 -42.368  1.00  0.00     0.004 C 
BRANCH   9  10
HETATM   10  C3  UNL     1     -22.757 -17.945 -42.437  1.00  0.00     0.020 C 
BRANCH  10  11
HETATM   11  C2  UNL     1     -23.588 -17.867 -43.688  1.00  0.00     0.122 C 
BRANCH  11  12
HETATM   12  N1  UNL     1     -23.310 -16.732 -44.524  1.00  0.00    -0.368 N 
ATOM     13  H1  UNL     1     -23.942 -15.931 -44.519  1.00  0.00     0.161 HD
BRANCH  12  14
HETATM   14  C1  UNL     1     -22.170 -16.720 -45.351  1.00  0.00     0.348 C 
HETATM   15  O1  UNL     1     -22.287 -16.890 -46.579  1.00  0.00    -0.284 OA
ENDBRANCH  12  14
ENDBRANCH  11  12
ENDBRANCH  10  11
ENDBRANCH   9  10
ENDBRANCH   8   9
ENDBRANCH   7   8
BRANCH   7  16
HETATM   16  C13 UNL     1     -20.256 -20.001 -45.475  1.00  0.00     0.196 C 
HETATM   17  O7  UNL     1     -19.609 -18.953 -45.724  1.00  0.00    -0.646 OA
HETATM   18  O8  UNL     1     -20.685 -20.734 -46.574  1.00  0.00    -0.646 OA
ENDBRANCH   7  16
ENDBRANCH   1   7
BRANCH   5  19
HETATM   19  C8  UNL     1     -16.290 -20.459 -41.314  1.00  0.00     0.187 C 
BRANCH  19  20
HETATM   20  C9  UNL     1     -15.127 -19.551 -41.501  1.00  0.00     0.046 C 
BRANCH  20  21
HETATM   21  C10 UNL     1     -15.180 -18.389 -40.569  1.00  0.00     0.116 C 
BRANCH  21  22
HETATM   22  C11 UNL     1     -13.824 -18.171 -39.988  1.00  0.00     0.172 C 
HETATM   23  O3  UNL     1     -12.895 -18.934 -40.287  1.00  0.00    -0.648 OA
HETATM   24  O4  UNL     1     -13.631 -17.115 -39.121  1.00  0.00    -0.648 OA
ENDBRANCH  21  22
ENDBRANCH  20  21
ENDBRANCH  19  20
BRANCH  19  25
HETATM   25  C12 UNL     1     -16.607 -20.768 -39.902  1.00  0.00     0.196 C 
HETATM   26  O5  UNL     1     -17.736 -20.483 -39.406  1.00  0.00    -0.646 OA
HETATM   27  O6  UNL     1     -15.707 -21.380 -39.046  1.00  0.00    -0.646 OA
ENDBRANCH  19  25
ENDBRANCH   5  19
TORSDOF 13
ENDMDL
