MODEL 1
REMARK VINA RESULT: -9.047673284      0.000      0.000
REMARK  13 active torsions:
REMARK  status: ('A' for Active; 'I' for Inactive)
REMARK    1  A    between atoms: C1_2  and  N1_3 
REMARK    2  A    between atoms: N1_3  and  C2_5 
REMARK    3  A    between atoms: C2_5  and  C3_6 
REMARK    4  A    between atoms: C3_6  and  C4_7 
REMARK    5  A    between atoms: C4_7  and  C5_8 
REMARK    6  A    between atoms: C5_8  and  C6_9 
REMARK    7  A    between atoms: C6_9  and  N2_10 
REMARK    8  A    between atoms: C6_9  and  C13_25 
REMARK       I    between atoms: N2_10  and  C7_12 
REMARK       I    between atoms: C7_12  and  N3_14 
REMARK    9  A    between atoms: N3_14  and  C8_16 
REMARK   10  A    between atoms: C8_16  and  C9_17 
REMARK   11  A    between atoms: C8_16  and  C12_22 
REMARK   12  A    between atoms: C9_17  and  C10_18 
REMARK   13  A    between atoms: C10_18  and  C11_19 
ROOT
HETATM    1  N2  UNL     1     -19.002 -19.521 -43.295  1.00  0.00    -0.329 N 
ATOM      2  H2  UNL     1     -19.153 -18.565 -42.972  1.00  0.00     0.165 HD
HETATM    3  C7  UNL     1     -17.925 -20.264 -42.737  1.00  0.00     0.317 C 
HETATM    4  O2  UNL     1     -17.728 -21.438 -43.120  1.00  0.00    -0.247 OA
HETATM    5  N3  UNL     1     -17.088 -19.672 -41.752  1.00  0.00    -0.329 N 
ATOM      6  H3  UNL     1     -17.268 -18.713 -41.455  1.00  0.00     0.165 HD
ENDROOT
BRANCH   1   7
HETATM    7  C6  UNL     1     -19.894 -20.061 -44.302  1.00  0.00     0.187 C 
BRANCH   7   8
HETATM    8  C5  UNL     1     -21.284 -20.172 -43.722  1.00  0.00     0.036 C 
BRANCH   8   9
HETATM    9  C4  UNL     1     -21.525 -19.303 -42.543  1.00  0.00     0.004 C 
BRANCH   9  10
HETATM   10  C3  UNL     1     -22.859 -18.612 -42.541  1.00  0.00     0.020 C 
BRANCH  10  11
HETATM   11  C2  UNL     1     -22.758 -17.142 -42.841  1.00  0.00     0.122 C 
BRANCH  11  12
HETATM   12  N1  UNL     1     -22.136 -16.825 -44.097  1.00  0.00    -0.368 N 
ATOM     13  H1  UNL     1     -21.204 -16.413 -44.111  1.00  0.00     0.161 HD
BRANCH  12  14
HETATM   14  C1  UNL     1     -22.809 -17.082 -45.307  1.00  0.00     0.348 C 
HETATM   15  O1  UNL     1     -22.293 -16.749 -46.391  1.00  0.00    -0.284 OA
ENDBRANCH  12  14
ENDBRANCH  11  12
ENDBRANCH  10  11
ENDBRANCH   9  10
ENDBRANCH   8   9
ENDBRANCH   7   8
BRANCH   7  16
HETATM   16  C13 UNL     1     -19.844 -19.194 -45.490  1.00  0.00     0.196 C 
HETATM   17  O7  UNL     1     -20.209 -19.638 -46.608  1.00  0.00    -0.646 OA
HETATM   18  O8  UNL     1     -19.406 -17.877 -45.465  1.00  0.00    -0.646 OA
ENDBRANCH   7  16
ENDBRANCH   1   7
BRANCH   5  19
HETATM   19  C8  UNL     1     -15.960 -20.416 -41.148  1.00  0.00     0.187 C 
BRANCH  19  20
HETATM   20  C9  UNL     1     -14.821 -19.466 -41.032  1.00  0.00     0.046 C 
BRANCH  20  21
HETATM   21  C10 UNL     1     -15.161 -18.301 -40.166  1.00  0.00     0.116 C 
BRANCH  21  22
HETATM   22  C11 UNL     1     -13.932 -17.487 -39.943  1.00  0.00     0.172 C 
HETATM   23  O3  UNL     1     -13.634 -16.588 -40.740  1.00  0.00    -0.648 OA
HETATM   24  O4  UNL     1     -13.144 -17.756 -38.843  1.00  0.00    -0.648 OA
ENDBRANCH  21  22
ENDBRANCH  20  21
ENDBRANCH  19  20
BRANCH  19  25
HETATM   25  C12 UNL     1     -16.446 -20.951 -39.856  1.00  0.00     0.196 C 
HETATM   26  O5  UNL     1     -17.641 -20.771 -39.480  1.00  0.00    -0.646 OA
HETATM   27  O6  UNL     1     -15.641 -21.672 -38.991  1.00  0.00    -0.646 OA
ENDBRANCH  19  25
ENDBRANCH   5  19
TORSDOF 13
ENDMDL
