MODEL 6
REMARK VINA RESULT: -8.760818940      2.336      2.861
REMARK  13 active torsions:
REMARK  status: ('A' for Active; 'I' for Inactive)
REMARK    1  A    between atoms: C1_2  and  N1_3 
REMARK    2  A    between atoms: N1_3  and  C2_5 
REMARK    3  A    between atoms: C2_5  and  C3_6 
REMARK    4  A    between atoms: C3_6  and  C4_7 
REMARK    5  A    between atoms: C4_7  and  C5_8 
REMARK    6  A    between atoms: C5_8  and  C6_9 
REMARK    7  A    between atoms: C6_9  and  N2_10 
REMARK    8  A    between atoms: C6_9  and  C13_25 
REMARK       I    between atoms: N2_10  and  C7_12 
REMARK       I    between atoms: C7_12  and  N3_14 
REMARK    9  A    between atoms: N3_14  and  C8_16 
REMARK   10  A    between atoms: C8_16  and  C9_17 
REMARK   11  A    between atoms: C8_16  and  C12_22 
REMARK   12  A    between atoms: C9_17  and  C10_18 
REMARK   13  A    between atoms: C10_18  and  C11_19 
ROOT
HETATM    1  N2  UNL     1     -19.494 -19.514 -43.318  1.00  0.00    -0.329 N 
ATOM      2  H2  UNL     1     -19.593 -18.546 -43.012  1.00  0.00     0.165 HD
HETATM    3  C7  UNL     1     -18.409 -20.280 -42.806  1.00  0.00     0.317 C 
HETATM    4  O2  UNL     1     -18.275 -21.469 -43.169  1.00  0.00    -0.247 OA
HETATM    5  N3  UNL     1     -17.493 -19.693 -41.891  1.00  0.00    -0.329 N 
ATOM      6  H3  UNL     1     -17.624 -18.721 -41.609  1.00  0.00     0.165 HD
ENDROOT
BRANCH   1   7
HETATM    7  C6  UNL     1     -20.464 -20.047 -44.253  1.00  0.00     0.187 C 
BRANCH   7   8
HETATM    8  C5  UNL     1     -21.820 -20.083 -43.592  1.00  0.00     0.036 C 
BRANCH   8   9
HETATM    9  C4  UNL     1     -21.951 -19.185 -42.417  1.00  0.00     0.004 C 
BRANCH   9  10
HETATM   10  C3  UNL     1     -23.046 -19.564 -41.462  1.00  0.00     0.020 C 
BRANCH  10  11
HETATM   11  C2  UNL     1     -24.078 -20.465 -42.081  1.00  0.00     0.122 C 
BRANCH  11  12
HETATM   12  N1  UNL     1     -24.954 -21.110 -41.143  1.00  0.00    -0.368 N 
ATOM     13  H1  UNL     1     -25.362 -22.016 -41.370  1.00  0.00     0.161 HD
BRANCH  12  14
HETATM   14  C1  UNL     1     -25.252 -20.497 -39.910  1.00  0.00     0.348 C 
HETATM   15  O1  UNL     1     -25.485 -21.194 -38.905  1.00  0.00    -0.284 OA
ENDBRANCH  12  14
ENDBRANCH  11  12
ENDBRANCH  10  11
ENDBRANCH   9  10
ENDBRANCH   8   9
ENDBRANCH   7   8
BRANCH   7  16
HETATM   16  C13 UNL     1     -20.448 -19.222 -45.471  1.00  0.00     0.196 C 
HETATM   17  O7  UNL     1     -20.106 -19.727 -46.569  1.00  0.00    -0.646 OA
HETATM   18  O8  UNL     1     -20.796 -17.877 -45.495  1.00  0.00    -0.646 OA
ENDBRANCH   7  16
ENDBRANCH   1   7
BRANCH   5  19
HETATM   19  C8  UNL     1     -16.355 -20.460 -41.337  1.00  0.00     0.187 C 
BRANCH  19  20
HETATM   20  C9  UNL     1     -15.136 -19.627 -41.521  1.00  0.00     0.046 C 
BRANCH  20  21
HETATM   21  C10 UNL     1     -15.162 -18.413 -40.657  1.00  0.00     0.116 C 
BRANCH  21  22
HETATM   22  C11 UNL     1     -13.808 -18.210 -40.066  1.00  0.00     0.172 C 
HETATM   23  O3  UNL     1     -12.895 -19.005 -40.327  1.00  0.00    -0.648 OA
HETATM   24  O4  UNL     1     -13.599 -17.130 -39.233  1.00  0.00    -0.648 OA
ENDBRANCH  21  22
ENDBRANCH  20  21
ENDBRANCH  19  20
BRANCH  19  25
HETATM   25  C12 UNL     1     -16.687 -20.756 -39.925  1.00  0.00     0.196 C 
HETATM   26  O5  UNL     1     -17.806 -20.428 -39.433  1.00  0.00    -0.646 OA
HETATM   27  O6  UNL     1     -15.815 -21.402 -39.067  1.00  0.00    -0.646 OA
ENDBRANCH  19  25
ENDBRANCH   5  19
TORSDOF 13
ENDMDL
