MODEL 7
REMARK VINA RESULT: -10.087604625      3.160      7.956
REMARK  6 active torsions:
REMARK  status: ('A' for Active; 'I' for Inactive)
REMARK    1  A    between atoms: C7_8  and  C8_9 
REMARK    2  A    between atoms: N2_15  and  C9_16 
REMARK    3  A    between atoms: C12_19  and  C13_20 
REMARK    4  A    between atoms: C14_23  and  N4_24 
REMARK    5  A    between atoms: N4_24  and  C15_26 
REMARK    6  A    between atoms: C18_29  and  O3_30 
ROOT
HETATM    1  C9  UNL     1      17.538  10.510  18.188  1.00  0.00     0.058 A 
HETATM    2  C10 UNL     1      18.255   9.728  19.062  1.00  0.00     0.032 A 
HETATM    3  C11 UNL     1      17.765   9.377  20.296  1.00  0.00     0.021 A 
HETATM    4  C12 UNL     1      16.496   9.795  20.746  1.00  0.00     0.055 A 
HETATM    5  C14 UNL     1      15.779  10.575  19.876  1.00  0.00     0.046 A 
HETATM    6  C21 UNL     1      16.298  10.924  18.619  1.00  0.00     0.061 A 
ENDROOT
BRANCH   1   7
HETATM    7  N2  UNL     1      18.098  10.838  16.923  1.00  0.00    -0.259 N 
HETATM    8  N1  UNL     1      19.085  11.735  16.773  1.00  0.00    -0.288 N 
HETATM    9  C7  UNL     1      19.419  11.840  15.473  1.00  0.00     0.148 A 
ATOM     10  H1  UNL     1      19.519  12.261  17.532  1.00  0.00     0.187 HD
HETATM   11  C6  UNL     1      18.587  10.959  14.818  1.00  0.00     0.067 A 
HETATM   12  C5  UNL     1      18.454  10.613  13.416  1.00  0.00     0.164 C 
HETATM   13  C22 UNL     1      17.759  10.330  15.722  1.00  0.00     0.051 A 
HETATM   14  C4  UNL     1      17.255   9.847  12.933  1.00  0.00     0.093 C 
HETATM   15  O1  UNL     1      19.355  10.964  12.622  1.00  0.00    -0.292 OA
HETATM   16  C2  UNL     1      17.008   8.760  13.953  1.00  0.00    -0.036 C 
HETATM   17  C1  UNL     1      15.780   8.001  13.499  1.00  0.00     0.015 C 
HETATM   18  C3  UNL     1      18.198   7.838  13.986  1.00  0.00     0.015 C 
HETATM   19  C23 UNL     1      16.741   9.317  15.325  1.00  0.00     0.069 C 
BRANCH   9  20
HETATM   20  C8  UNL     1      20.464  12.715  14.864  1.00  0.00     0.434 C 
HETATM   21  F1  UNL     1      19.877  13.651  14.060  1.00  0.00    -0.165 F 
HETATM   22  F2  UNL     1      21.425  11.963  14.231  1.00  0.00    -0.165 F 
HETATM   23  F3  UNL     1      21.106  13.384  15.906  1.00  0.00    -0.165 F 
ENDBRANCH   9  20
ENDBRANCH   1   7
BRANCH   5  24
HETATM   24  N4  UNL     1      14.487  11.023  20.189  1.00  0.00    -0.384 N 
ATOM     25  H4  UNL     1      13.695  10.404  20.015  1.00  0.00     0.160 HD
BRANCH  24  26
HETATM   26  C15 UNL     1      14.233  12.356  20.761  1.00  0.00     0.082 C 
HETATM   27  C16 UNL     1      15.509  13.125  20.668  1.00  0.00     0.027 C 
HETATM   28  C17 UNL     1      15.399  14.538  20.207  1.00  0.00     0.034 C 
HETATM   29  C18 UNL     1      14.698  14.433  18.836  1.00  0.00     0.118 C 
HETATM   30  C19 UNL     1      13.276  14.095  19.158  1.00  0.00     0.034 C 
HETATM   31  C20 UNL     1      13.066  12.990  20.092  1.00  0.00     0.027 C 
BRANCH  29  32
HETATM   32  O3  UNL     1      14.795  15.664  18.195  1.00  0.00    -0.396 OA
ATOM     33  H3  UNL     1      13.917  15.977  18.008  1.00  0.00     0.210 HD
ENDBRANCH  29  32
ENDBRANCH  24  26
ENDBRANCH   5  24
BRANCH   4  34
HETATM   34  C13 UNL     1      16.064   9.391  22.069  1.00  0.00     0.267 C 
HETATM   35  N3  UNL     1      17.026   9.006  23.045  1.00  0.00    -0.057 NA
HETATM   36  O2  UNL     1      14.883   9.359  22.404  1.00  0.00    -0.271 OA
ENDBRANCH   4  34
TORSDOF 6
ENDMDL
