MODEL 11
REMARK VINA RESULT: -9.525785332      2.542      3.674
REMARK  6 active torsions:
REMARK  status: ('A' for Active; 'I' for Inactive)
REMARK    1  A    between atoms: C7_8  and  C8_9 
REMARK    2  A    between atoms: N2_15  and  C9_16 
REMARK    3  A    between atoms: C12_19  and  C13_20 
REMARK    4  A    between atoms: C14_23  and  N4_24 
REMARK    5  A    between atoms: N4_24  and  C15_26 
REMARK    6  A    between atoms: C18_29  and  O3_30 
ROOT
HETATM    1  C9  UNL     1      17.292  10.565  17.299  1.00  0.00     0.058 A 
HETATM    2  C10 UNL     1      18.309  11.476  17.136  1.00  0.00     0.032 A 
HETATM    3  C11 UNL     1      18.902  11.697  15.917  1.00  0.00     0.021 A 
HETATM    4  C12 UNL     1      18.508  11.004  14.755  1.00  0.00     0.055 A 
HETATM    5  C14 UNL     1      17.494  10.095  14.915  1.00  0.00     0.046 A 
HETATM    6  C21 UNL     1      16.901   9.883  16.169  1.00  0.00     0.061 A 
ENDROOT
BRANCH   1   7
HETATM    7  N2  UNL     1      16.717  10.384  18.586  1.00  0.00    -0.259 N 
HETATM    8  N1  UNL     1      17.079   9.392  19.414  1.00  0.00    -0.288 N 
HETATM    9  C7  UNL     1      16.376   9.466  20.559  1.00  0.00     0.148 A 
ATOM     10  H1  UNL     1      17.784   8.684  19.206  1.00  0.00     0.187 HD
HETATM   11  C6  UNL     1      15.553  10.561  20.403  1.00  0.00     0.067 A 
HETATM   12  C5  UNL     1      14.563  11.161  21.276  1.00  0.00     0.164 C 
HETATM   13  C22 UNL     1      15.763  11.137  19.169  1.00  0.00     0.051 A 
HETATM   14  C4  UNL     1      13.585  12.166  20.738  1.00  0.00     0.093 C 
HETATM   15  O1  UNL     1      14.541  10.824  22.481  1.00  0.00    -0.292 OA
HETATM   16  C2  UNL     1      14.375  13.083  19.834  1.00  0.00    -0.036 C 
HETATM   17  C1  UNL     1      13.396  14.082  19.255  1.00  0.00     0.015 C 
HETATM   18  C3  UNL     1      15.416  13.802  20.652  1.00  0.00     0.015 C 
HETATM   19  C23 UNL     1      15.024  12.342  18.697  1.00  0.00     0.069 C 
BRANCH   9  20
HETATM   20  C8  UNL     1      16.462   8.568  21.748  1.00  0.00     0.434 C 
HETATM   21  F1  UNL     1      15.210   8.170  22.124  1.00  0.00    -0.165 F 
HETATM   22  F2  UNL     1      17.185   9.158  22.758  1.00  0.00    -0.165 F 
HETATM   23  F3  UNL     1      17.175   7.433  21.361  1.00  0.00    -0.165 F 
ENDBRANCH   9  20
ENDBRANCH   1   7
BRANCH   5  24
HETATM   24  N4  UNL     1      16.984   9.368  13.828  1.00  0.00    -0.384 N 
ATOM     25  H4  UNL     1      16.310   9.818  13.208  1.00  0.00     0.160 HD
BRANCH  24  26
HETATM   26  C15 UNL     1      17.388   7.980  13.549  1.00  0.00     0.082 C 
HETATM   27  C16 UNL     1      18.575   7.687  14.405  1.00  0.00     0.027 C 
HETATM   28  C17 UNL     1      18.586   6.365  15.094  1.00  0.00     0.034 C 
HETATM   29  C18 UNL     1      17.279   6.358  15.914  1.00  0.00     0.118 C 
HETATM   30  C19 UNL     1      16.192   6.176  14.901  1.00  0.00     0.034 C 
HETATM   31  C20 UNL     1      16.235   7.061  13.737  1.00  0.00     0.027 C 
BRANCH  29  32
HETATM   32  O3  UNL     1      17.324   5.291  16.807  1.00  0.00    -0.396 OA
ATOM     33  H3  UNL     1      16.553   4.753  16.673  1.00  0.00     0.210 HD
ENDBRANCH  29  32
ENDBRANCH  24  26
ENDBRANCH   5  24
BRANCH   4  34
HETATM   34  C13 UNL     1      19.198  11.287  13.513  1.00  0.00     0.267 C 
HETATM   35  N3  UNL     1      20.595  11.563  13.522  1.00  0.00    -0.057 NA
HETATM   36  O2  UNL     1      18.631  11.306  12.423  1.00  0.00    -0.271 OA
ENDBRANCH   4  34
TORSDOF 6
ENDMDL
