MODEL 3
REMARK VINA RESULT: -10.632761786      2.376      3.541
REMARK  6 active torsions:
REMARK  status: ('A' for Active; 'I' for Inactive)
REMARK    1  A    between atoms: C7_8  and  C8_9 
REMARK    2  A    between atoms: N2_15  and  C9_16 
REMARK    3  A    between atoms: C12_19  and  C13_20 
REMARK    4  A    between atoms: C14_23  and  N4_24 
REMARK    5  A    between atoms: N4_24  and  C15_26 
REMARK    6  A    between atoms: C18_29  and  O3_30 
ROOT
HETATM    1  C9  UNL     1      17.601  10.982  17.623  1.00  0.00     0.058 A 
HETATM    2  C10 UNL     1      17.901  12.271  17.252  1.00  0.00     0.032 A 
HETATM    3  C11 UNL     1      18.563  12.559  16.083  1.00  0.00     0.021 A 
HETATM    4  C12 UNL     1      18.978  11.550  15.189  1.00  0.00     0.055 A 
HETATM    5  C14 UNL     1      18.680  10.264  15.558  1.00  0.00     0.046 A 
HETATM    6  C21 UNL     1      18.003   9.991  16.756  1.00  0.00     0.061 A 
ENDROOT
BRANCH   1   7
HETATM    7  N2  UNL     1      16.911  10.750  18.844  1.00  0.00    -0.259 N 
HETATM    8  N1  UNL     1      17.255   9.777  19.703  1.00  0.00    -0.288 N 
HETATM    9  C7  UNL     1      16.435   9.793  20.770  1.00  0.00     0.148 A 
ATOM     10  H1  UNL     1      18.025   9.121  19.566  1.00  0.00     0.187 HD
HETATM   11  C6  UNL     1      15.559  10.830  20.533  1.00  0.00     0.067 A 
HETATM   12  C5  UNL     1      14.446  11.352  21.302  1.00  0.00     0.164 C 
HETATM   13  C22 UNL     1      15.853  11.430  19.328  1.00  0.00     0.051 A 
HETATM   14  C4  UNL     1      13.461  12.293  20.668  1.00  0.00     0.093 C 
HETATM   15  O1  UNL     1      14.325  11.004  22.497  1.00  0.00    -0.292 OA
HETATM   16  C2  UNL     1      14.274  13.271  19.852  1.00  0.00    -0.036 C 
HETATM   17  C1  UNL     1      13.292  14.206  19.178  1.00  0.00     0.015 C 
HETATM   18  C3  UNL     1      15.174  14.051  20.773  1.00  0.00     0.015 C 
HETATM   19  C23 UNL     1      15.085  12.586  18.785  1.00  0.00     0.069 C 
BRANCH   9  20
HETATM   20  C8  UNL     1      16.462   8.891  21.959  1.00  0.00     0.434 C 
HETATM   21  F1  UNL     1      15.260   8.254  22.088  1.00  0.00    -0.165 F 
HETATM   22  F2  UNL     1      16.852   9.576  23.085  1.00  0.00    -0.165 F 
HETATM   23  F3  UNL     1      17.439   7.923  21.726  1.00  0.00    -0.165 F 
ENDBRANCH   9  20
ENDBRANCH   1   7
BRANCH   5  24
HETATM   24  N4  UNL     1      19.005   9.174  14.736  1.00  0.00    -0.384 N 
ATOM     25  H4  UNL     1      19.916   8.728  14.847  1.00  0.00     0.160 HD
BRANCH  24  26
HETATM   26  C15 UNL     1      18.078   8.650  13.719  1.00  0.00     0.082 C 
HETATM   27  C16 UNL     1      18.290   7.175  13.647  1.00  0.00     0.027 C 
HETATM   28  C17 UNL     1      17.064   6.331  13.579  1.00  0.00     0.034 C 
HETATM   29  C18 UNL     1      16.264   6.729  14.837  1.00  0.00     0.118 C 
HETATM   30  C19 UNL     1      15.725   8.092  14.534  1.00  0.00     0.034 C 
HETATM   31  C20 UNL     1      16.686   9.071  14.026  1.00  0.00     0.027 C 
BRANCH  29  32
HETATM   32  O3  UNL     1      15.237   5.806  15.018  1.00  0.00    -0.396 OA
ATOM     33  H3  UNL     1      15.431   5.287  15.790  1.00  0.00     0.210 HD
ENDBRANCH  29  32
ENDBRANCH  24  26
ENDBRANCH   5  24
BRANCH   4  34
HETATM   34  C13 UNL     1      19.685  11.941  13.987  1.00  0.00     0.267 C 
HETATM   35  N3  UNL     1      20.919  12.645  14.083  1.00  0.00    -0.057 NA
HETATM   36  O2  UNL     1      19.268  11.695  12.858  1.00  0.00    -0.271 OA
ENDBRANCH   4  34
TORSDOF 6
ENDMDL
