MODEL 6
REMARK VINA RESULT: -10.167093336      3.225      8.041
REMARK  6 active torsions:
REMARK  status: ('A' for Active; 'I' for Inactive)
REMARK    1  A    between atoms: C7_8  and  C8_9 
REMARK    2  A    between atoms: N2_15  and  C9_16 
REMARK    3  A    between atoms: C12_19  and  C13_20 
REMARK    4  A    between atoms: C14_23  and  N4_24 
REMARK    5  A    between atoms: N4_24  and  C15_26 
REMARK    6  A    between atoms: C18_29  and  O3_30 
ROOT
HETATM    1  C9  UNL     1      17.730  10.779  18.029  1.00  0.00     0.058 A 
HETATM    2  C10 UNL     1      17.782   9.504  18.542  1.00  0.00     0.032 A 
HETATM    3  C11 UNL     1      17.259   9.192  19.773  1.00  0.00     0.021 A 
HETATM    4  C12 UNL     1      16.637  10.158  20.590  1.00  0.00     0.055 A 
HETATM    5  C14 UNL     1      16.584  11.429  20.081  1.00  0.00     0.046 A 
HETATM    6  C21 UNL     1      17.125  11.729  18.820  1.00  0.00     0.061 A 
ENDROOT
BRANCH   1   7
HETATM    7  N2  UNL     1      18.287  11.039  16.747  1.00  0.00    -0.259 N 
HETATM    8  N1  UNL     1      19.315  11.879  16.554  1.00  0.00    -0.288 N 
HETATM    9  C7  UNL     1      19.634  11.927  15.248  1.00  0.00     0.148 A 
ATOM     10  H1  UNL     1      19.787  12.405  17.291  1.00  0.00     0.187 HD
HETATM   11  C6  UNL     1      18.748  11.070  14.632  1.00  0.00     0.067 A 
HETATM   12  C5  UNL     1      18.575  10.688  13.243  1.00  0.00     0.164 C 
HETATM   13  C22 UNL     1      17.903  10.512  15.567  1.00  0.00     0.051 A 
HETATM   14  C4  UNL     1      17.332   9.971  12.802  1.00  0.00     0.093 C 
HETATM   15  O1  UNL     1      19.480  10.969  12.426  1.00  0.00    -0.292 OA
HETATM   16  C2  UNL     1      17.046   8.930  13.859  1.00  0.00    -0.036 C 
HETATM   17  C1  UNL     1      15.773   8.221  13.446  1.00  0.00     0.015 C 
HETATM   18  C3  UNL     1      18.187   7.949  13.904  1.00  0.00     0.015 C 
HETATM   19  C23 UNL     1      16.828   9.541  15.217  1.00  0.00     0.069 C 
BRANCH   9  20
HETATM   20  C8  UNL     1      20.712  12.727  14.596  1.00  0.00     0.434 C 
HETATM   21  F1  UNL     1      21.501  11.914  13.833  1.00  0.00    -0.165 F 
HETATM   22  F2  UNL     1      21.407  13.463  15.526  1.00  0.00    -0.165 F 
HETATM   23  F3  UNL     1      20.093  13.645  13.747  1.00  0.00    -0.165 F 
ENDBRANCH   9  20
ENDBRANCH   1   7
BRANCH   5  24
HETATM   24  N4  UNL     1      15.957  12.472  20.780  1.00  0.00    -0.384 N 
ATOM     25  H4  UNL     1      16.303  12.722  21.706  1.00  0.00     0.160 HD
BRANCH  24  26
HETATM   26  C15 UNL     1      14.816  13.218  20.223  1.00  0.00     0.082 C 
HETATM   27  C16 UNL     1      14.052  12.272  19.357  1.00  0.00     0.027 C 
HETATM   28  C17 UNL     1      12.567  12.307  19.486  1.00  0.00     0.034 C 
HETATM   29  C18 UNL     1      12.314  12.036  20.984  1.00  0.00     0.118 C 
HETATM   30  C19 UNL     1      12.719  13.299  21.676  1.00  0.00     0.034 C 
HETATM   31  C20 UNL     1      14.028  13.845  21.317  1.00  0.00     0.027 C 
BRANCH  29  32
HETATM   32  O3  UNL     1      10.959  11.772  21.162  1.00  0.00    -0.396 OA
ATOM     33  H3  UNL     1      10.839  10.831  21.212  1.00  0.00     0.210 HD
ENDBRANCH  29  32
ENDBRANCH  24  26
ENDBRANCH   5  24
BRANCH   4  34
HETATM   34  C13 UNL     1      16.127   9.745  21.882  1.00  0.00     0.267 C 
HETATM   35  N3  UNL     1      16.932   8.947  22.743  1.00  0.00    -0.057 NA
HETATM   36  O2  UNL     1      15.008  10.051  22.287  1.00  0.00    -0.271 OA
ENDBRANCH   4  34
TORSDOF 6
ENDMDL
