MODEL 5
REMARK VINA RESULT: -10.507815930      3.319      8.218
REMARK  6 active torsions:
REMARK  status: ('A' for Active; 'I' for Inactive)
REMARK    1  A    between atoms: C7_8  and  C8_9 
REMARK    2  A    between atoms: N2_15  and  C9_16 
REMARK    3  A    between atoms: C12_19  and  C13_20 
REMARK    4  A    between atoms: C14_23  and  N4_24 
REMARK    5  A    between atoms: N4_24  and  C15_26 
REMARK    6  A    between atoms: C18_29  and  O3_30 
ROOT
HETATM    1  C9  UNL     1      18.035  10.521  17.936  1.00  0.00     0.058 A 
HETATM    2  C10 UNL     1      18.522   9.377  18.521  1.00  0.00     0.032 A 
HETATM    3  C11 UNL     1      18.144   8.983  19.781  1.00  0.00     0.021 A 
HETATM    4  C12 UNL     1      17.231   9.727  20.557  1.00  0.00     0.055 A 
HETATM    5  C14 UNL     1      16.743  10.869  19.975  1.00  0.00     0.046 A 
HETATM    6  C21 UNL     1      17.143  11.254  18.686  1.00  0.00     0.061 A 
ENDROOT
BRANCH   1   7
HETATM    7  N2  UNL     1      18.463  10.874  16.628  1.00  0.00    -0.259 N 
HETATM    8  N1  UNL     1      19.459  11.743  16.395  1.00  0.00    -0.288 N 
HETATM    9  C7  UNL     1      19.650  11.882  15.070  1.00  0.00     0.148 A 
ATOM     10  H1  UNL     1      19.992  12.228  17.117  1.00  0.00     0.187 HD
HETATM   11  C6  UNL     1      18.720  11.051  14.485  1.00  0.00     0.067 A 
HETATM   12  C5  UNL     1      18.420  10.758  13.097  1.00  0.00     0.164 C 
HETATM   13  C22 UNL     1      17.975  10.419  15.457  1.00  0.00     0.051 A 
HETATM   14  C4  UNL     1      17.148  10.049  12.729  1.00  0.00     0.093 C 
HETATM   15  O1  UNL     1      19.239  11.107  12.219  1.00  0.00    -0.292 OA
HETATM   16  C2  UNL     1      16.976   8.936  13.736  1.00  0.00    -0.036 C 
HETATM   17  C1  UNL     1      15.679   8.233  13.399  1.00  0.00     0.015 C 
HETATM   18  C3  UNL     1      18.129   7.975  13.607  1.00  0.00     0.015 C 
HETATM   19  C23 UNL     1      16.883   9.454  15.146  1.00  0.00     0.069 C 
BRANCH   9  20
HETATM   20  C8  UNL     1      20.652  12.743  14.375  1.00  0.00     0.434 C 
HETATM   21  F1  UNL     1      20.015  13.736  13.686  1.00  0.00    -0.165 F 
HETATM   22  F2  UNL     1      21.498  11.984  13.601  1.00  0.00    -0.165 F 
HETATM   23  F3  UNL     1      21.442  13.340  15.357  1.00  0.00    -0.165 F 
ENDBRANCH   9  20
ENDBRANCH   1   7
BRANCH   5  24
HETATM   24  N4  UNL     1      15.798  11.676  20.628  1.00  0.00    -0.384 N 
ATOM     25  H4  UNL     1      16.120  12.332  21.340  1.00  0.00     0.160 HD
BRANCH  24  26
HETATM   26  C15 UNL     1      14.360  11.609  20.322  1.00  0.00     0.082 C 
HETATM   27  C16 UNL     1      13.638  11.491  21.623  1.00  0.00     0.027 C 
HETATM   28  C17 UNL     1      12.419  12.333  21.784  1.00  0.00     0.034 C 
HETATM   29  C18 UNL     1      12.922  13.772  21.543  1.00  0.00     0.118 C 
HETATM   30  C19 UNL     1      13.167  13.851  20.068  1.00  0.00     0.034 C 
HETATM   31  C20 UNL     1      13.958  12.769  19.482  1.00  0.00     0.027 C 
BRANCH  29  32
HETATM   32  O3  UNL     1      11.927  14.660  21.940  1.00  0.00    -0.396 OA
ATOM     33  H3  UNL     1      12.080  15.495  21.514  1.00  0.00     0.210 HD
ENDBRANCH  29  32
ENDBRANCH  24  26
ENDBRANCH   5  24
BRANCH   4  34
HETATM   34  C13 UNL     1      16.899   9.247  21.882  1.00  0.00     0.267 C 
HETATM   35  N3  UNL     1      15.620   8.673  22.132  1.00  0.00    -0.057 NA
HETATM   36  O2  UNL     1      17.678   9.310  22.830  1.00  0.00    -0.271 OA
ENDBRANCH   4  34
TORSDOF 6
ENDMDL
