MODEL 4
REMARK VINA RESULT: -9.419037551      3.100      7.159
REMARK  4 active torsions:
REMARK  status: ('A' for Active; 'I' for Inactive)
REMARK    1  A    between atoms: N1_4  and  C4_5 
REMARK    2  A    between atoms: C7_9  and  C8_10 
REMARK    3  A    between atoms: C9_13  and  N3_14 
REMARK    4  A    between atoms: N3_14  and  C10_16 
ROOT
HETATM    1  C4  UNL     1       3.191 -10.145 -24.120  1.00  0.00     0.044 A 
HETATM    2  C5  UNL     1       4.236 -11.016 -24.329  1.00  0.00     0.073 A 
HETATM    3  C6  UNL     1       5.516 -10.708 -23.949  1.00  0.00     0.136 A 
HETATM    4  F1  UNL     1       6.525 -11.583 -24.166  1.00  0.00    -0.205 F 
HETATM    5  C7  UNL     1       5.853  -9.489 -23.324  1.00  0.00     0.094 A 
HETATM    6  C9  UNL     1       4.819  -8.621 -23.114  1.00  0.00     0.049 A 
HETATM    7  C14 UNL     1       3.510  -8.957 -23.512  1.00  0.00     0.060 A 
ENDROOT
BRANCH   1   8
HETATM    8  N1  UNL     1       1.866 -10.476 -24.519  1.00  0.00    -0.324 N 
HETATM    9  C3  UNL     1       1.027 -11.353 -23.899  1.00  0.00     0.105 A 
HETATM   10  C2  UNL     1      -0.166 -11.419 -24.564  1.00  0.00    -0.030 A 
HETATM   11  C1  UNL     1      -1.352 -12.263 -24.205  1.00  0.00     0.050 C 
HETATM   12  C16 UNL     1      -0.049 -10.548 -25.631  1.00  0.00     0.040 A 
HETATM   13  C15 UNL     1       1.208  -9.981 -25.583  1.00  0.00     0.031 A 
HETATM   14  C17 UNL     1      -0.991 -10.194 -26.688  1.00  0.00     0.162 C 
HETATM   15  C22 UNL     1       1.615  -8.998 -26.614  1.00  0.00     0.067 C 
HETATM   16  C19 UNL     1       0.395  -8.166 -26.978  1.00  0.00    -0.036 C 
HETATM   17  C18 UNL     1      -0.663  -9.069 -27.577  1.00  0.00     0.093 C 
HETATM   18  C20 UNL     1      -0.139  -7.508 -25.718  1.00  0.00     0.015 C 
HETATM   19  C21 UNL     1       0.718  -7.112 -28.003  1.00  0.00     0.015 C 
HETATM   20  O3  UNL     1      -2.057 -10.841 -26.830  1.00  0.00    -0.292 OA
ENDBRANCH   1   8
BRANCH   6  21
HETATM   21  N3  UNL     1       5.037  -7.372 -22.473  1.00  0.00    -0.382 N 
ATOM     22  H3  UNL     1       5.755  -7.281 -21.754  1.00  0.00     0.160 HD
BRANCH  21  23
HETATM   23  C10 UNL     1       4.218  -6.209 -22.856  1.00  0.00     0.107 C 
HETATM   24  C11 UNL     1       4.678  -5.047 -21.965  1.00  0.00     0.053 C 
HETATM   25  C12 UNL     1       5.890  -4.562 -22.696  1.00  0.00     0.169 C 
HETATM   26  O2  UNL     1       5.995  -5.264 -23.869  1.00  0.00    -0.389 OA
HETATM   27  C13 UNL     1       4.681  -5.655 -24.201  1.00  0.00     0.192 C 
ENDBRANCH  21  23
ENDBRANCH   6  21
BRANCH   5  28
HETATM   28  C8  UNL     1       7.245  -9.271 -22.978  1.00  0.00     0.270 C 
HETATM   29  N2  UNL     1       7.891 -10.044 -21.969  1.00  0.00    -0.057 NA
HETATM   30  O1  UNL     1       7.944  -8.418 -23.529  1.00  0.00    -0.271 OA
ENDBRANCH   5  28
TORSDOF 4
ENDMDL
