MODEL 2
REMARK VINA RESULT: -10.126567432      2.058      7.301
REMARK  4 active torsions:
REMARK  status: ('A' for Active; 'I' for Inactive)
REMARK    1  A    between atoms: N1_4  and  C4_5 
REMARK    2  A    between atoms: C7_9  and  C8_10 
REMARK    3  A    between atoms: C9_13  and  N3_14 
REMARK    4  A    between atoms: N3_14  and  C10_16 
ROOT
HETATM    1  C4  UNL     1       3.053 -12.814 -24.264  1.00  0.00     0.044 A 
HETATM    2  C5  UNL     1       3.393 -14.056 -24.752  1.00  0.00     0.073 A 
HETATM    3  C6  UNL     1       4.700 -14.419 -24.947  1.00  0.00     0.136 A 
HETATM    4  F1  UNL     1       5.007 -15.646 -25.428  1.00  0.00    -0.205 F 
HETATM    5  C7  UNL     1       5.781 -13.557 -24.664  1.00  0.00     0.094 A 
HETATM    6  C9  UNL     1       5.449 -12.324 -24.179  1.00  0.00     0.049 A 
HETATM    7  C14 UNL     1       4.098 -11.970 -23.987  1.00  0.00     0.060 A 
ENDROOT
BRANCH   1   8
HETATM    8  N1  UNL     1       1.692 -12.449 -24.067  1.00  0.00    -0.324 N 
HETATM    9  C3  UNL     1       0.813 -13.031 -23.204  1.00  0.00     0.105 A 
HETATM   10  C2  UNL     1      -0.407 -12.418 -23.285  1.00  0.00    -0.030 A 
HETATM   11  C1  UNL     1      -1.640 -12.759 -22.502  1.00  0.00     0.050 C 
HETATM   12  C16 UNL     1      -0.265 -11.424 -24.234  1.00  0.00     0.040 A 
HETATM   13  C15 UNL     1       1.033 -11.462 -24.701  1.00  0.00     0.031 A 
HETATM   14  C17 UNL     1      -1.217 -10.445 -24.747  1.00  0.00     0.162 C 
HETATM   15  C22 UNL     1       1.475 -10.500 -25.737  1.00  0.00     0.067 C 
HETATM   16  C19 UNL     1       0.776  -9.174 -25.475  1.00  0.00    -0.036 C 
HETATM   17  C18 UNL     1      -0.720  -9.364 -25.612  1.00  0.00     0.093 C 
HETATM   18  C20 UNL     1       1.113  -8.717 -24.067  1.00  0.00     0.015 C 
HETATM   19  C21 UNL     1       1.188  -8.116 -26.464  1.00  0.00     0.015 C 
HETATM   20  O3  UNL     1      -2.434 -10.530 -24.453  1.00  0.00    -0.292 OA
ENDBRANCH   1   8
BRANCH   6  21
HETATM   21  N3  UNL     1       6.455 -11.380 -23.840  1.00  0.00    -0.382 N 
ATOM     22  H3  UNL     1       7.400 -11.481 -24.211  1.00  0.00     0.160 HD
BRANCH  21  23
HETATM   23  C10 UNL     1       6.123 -10.255 -22.949  1.00  0.00     0.107 C 
HETATM   24  C11 UNL     1       7.038 -10.392 -21.725  1.00  0.00     0.053 C 
HETATM   25  C12 UNL     1       8.303  -9.761 -22.217  1.00  0.00     0.169 C 
HETATM   26  O2  UNL     1       8.070  -9.244 -23.465  1.00  0.00    -0.389 OA
HETATM   27  C13 UNL     1       6.690  -8.953 -23.508  1.00  0.00     0.192 C 
ENDBRANCH  21  23
ENDBRANCH   6  21
BRANCH   5  28
HETATM   28  C8  UNL     1       7.121 -14.049 -24.923  1.00  0.00     0.270 C 
HETATM   29  N2  UNL     1       7.991 -13.391 -25.841  1.00  0.00    -0.057 NA
HETATM   30  O1  UNL     1       7.582 -15.051 -24.372  1.00  0.00    -0.271 OA
ENDBRANCH   5  28
TORSDOF 4
ENDMDL
