MODEL 3
REMARK VINA RESULT: -10.007555866      2.163      7.883
REMARK  4 active torsions:
REMARK  status: ('A' for Active; 'I' for Inactive)
REMARK    1  A    between atoms: N1_4  and  C4_5 
REMARK    2  A    between atoms: C7_9  and  C8_10 
REMARK    3  A    between atoms: C9_13  and  N3_14 
REMARK    4  A    between atoms: N3_14  and  C10_16 
ROOT
HETATM    1  C4  UNL     1       3.251 -11.137 -23.880  1.00  0.00     0.044 A 
HETATM    2  C5  UNL     1       3.749  -9.971 -23.343  1.00  0.00     0.073 A 
HETATM    3  C6  UNL     1       5.089  -9.799 -23.113  1.00  0.00     0.136 A 
HETATM    4  F1  UNL     1       5.552  -8.643 -22.585  1.00  0.00    -0.205 F 
HETATM    5  C7  UNL     1       6.046 -10.794 -23.406  1.00  0.00     0.094 A 
HETATM    6  C9  UNL     1       5.557 -11.953 -23.940  1.00  0.00     0.049 A 
HETATM    7  C14 UNL     1       4.175 -12.109 -24.168  1.00  0.00     0.060 A 
ENDROOT
BRANCH   1   8
HETATM    8  N1  UNL     1       1.857 -11.303 -24.113  1.00  0.00    -0.324 N 
HETATM    9  C3  UNL     1       1.003 -12.087 -23.398  1.00  0.00     0.105 A 
HETATM   10  C2  UNL     1      -0.262 -11.999 -23.910  1.00  0.00    -0.030 A 
HETATM   11  C1  UNL     1      -1.487 -12.705 -23.411  1.00  0.00     0.050 C 
HETATM   12  C16 UNL     1      -0.174 -11.128 -24.979  1.00  0.00     0.040 A 
HETATM   13  C15 UNL     1       1.137 -10.712 -25.085  1.00  0.00     0.031 A 
HETATM   14  C17 UNL     1      -1.190 -10.644 -25.909  1.00  0.00     0.162 C 
HETATM   15  C22 UNL     1       1.529  -9.764 -26.153  1.00  0.00     0.067 C 
HETATM   16  C19 UNL     1       0.381  -8.788 -26.359  1.00  0.00    -0.036 C 
HETATM   17  C18 UNL     1      -0.842  -9.549 -26.826  1.00  0.00     0.093 C 
HETATM   18  C20 UNL     1       0.088  -8.097 -25.039  1.00  0.00     0.015 C 
HETATM   19  C21 UNL     1       0.699  -7.759 -27.410  1.00  0.00     0.015 C 
HETATM   20  O3  UNL     1      -2.335 -11.159 -25.920  1.00  0.00    -0.292 OA
ENDBRANCH   1   8
BRANCH   6  21
HETATM   21  N3  UNL     1       6.430 -13.016 -24.293  1.00  0.00    -0.382 N 
ATOM     22  H3  UNL     1       7.256 -13.213 -23.727  1.00  0.00     0.160 HD
BRANCH  21  23
HETATM   23  C10 UNL     1       6.133 -13.833 -25.483  1.00  0.00     0.107 C 
HETATM   24  C11 UNL     1       7.127 -13.390 -26.566  1.00  0.00     0.053 C 
HETATM   25  C12 UNL     1       8.345 -14.180 -26.204  1.00  0.00     0.169 C 
HETATM   26  O2  UNL     1       8.024 -15.017 -25.168  1.00  0.00    -0.389 OA
HETATM   27  C13 UNL     1       6.639 -15.259 -25.286  1.00  0.00     0.192 C 
ENDBRANCH  21  23
ENDBRANCH   6  21
BRANCH   5  28
HETATM   28  C8  UNL     1       7.435 -10.501 -23.108  1.00  0.00     0.270 C 
HETATM   29  N2  UNL     1       7.852 -10.132 -21.795  1.00  0.00    -0.057 NA
HETATM   30  O1  UNL     1       8.326 -10.553 -23.958  1.00  0.00    -0.271 OA
ENDBRANCH   5  28
TORSDOF 4
ENDMDL
