MODEL 1
REMARK VINA RESULT: -10.816372185      0.000      0.000
REMARK  4 active torsions:
REMARK  status: ('A' for Active; 'I' for Inactive)
REMARK    1  A    between atoms: N1_4  and  C4_5 
REMARK    2  A    between atoms: C7_9  and  C8_10 
REMARK    3  A    between atoms: C9_13  and  N3_14 
REMARK    4  A    between atoms: N3_14  and  C10_16 
ROOT
HETATM    1  C4  UNL     1       3.376 -11.442 -24.133  1.00  0.00     0.044 A 
HETATM    2  C5  UNL     1       2.685 -12.629 -24.042  1.00  0.00     0.073 A 
HETATM    3  C6  UNL     1       1.324 -12.682 -24.197  1.00  0.00     0.136 A 
HETATM    4  F1  UNL     1       0.669 -13.862 -24.104  1.00  0.00    -0.205 F 
HETATM    5  C7  UNL     1       0.541 -11.537 -24.457  1.00  0.00     0.094 A 
HETATM    6  C9  UNL     1       1.223 -10.357 -24.548  1.00  0.00     0.049 A 
HETATM    7  C14 UNL     1       2.623 -10.324 -24.386  1.00  0.00     0.060 A 
ENDROOT
BRANCH   1   8
HETATM    8  N1  UNL     1       4.789 -11.400 -23.971  1.00  0.00    -0.324 N 
HETATM    9  C3  UNL     1       5.474 -10.735 -22.999  1.00  0.00     0.105 A 
HETATM   10  C2  UNL     1       6.820 -10.920 -23.156  1.00  0.00    -0.030 A 
HETATM   11  C1  UNL     1       7.913 -10.358 -22.298  1.00  0.00     0.050 C 
HETATM   12  C16 UNL     1       6.960 -11.730 -24.268  1.00  0.00     0.040 A 
HETATM   13  C15 UNL     1       5.699 -12.013 -24.751  1.00  0.00     0.031 A 
HETATM   14  C17 UNL     1       8.150 -12.266 -24.921  1.00  0.00     0.162 C 
HETATM   15  C22 UNL     1       5.541 -12.869 -25.948  1.00  0.00     0.067 C 
HETATM   16  C19 UNL     1       6.619 -13.941 -25.905  1.00  0.00    -0.036 C 
HETATM   17  C18 UNL     1       7.981 -13.281 -25.971  1.00  0.00     0.093 C 
HETATM   18  C20 UNL     1       6.483 -14.716 -24.606  1.00  0.00     0.015 C 
HETATM   19  C21 UNL     1       6.521 -14.887 -27.072  1.00  0.00     0.015 C 
HETATM   20  O3  UNL     1       9.291 -11.863 -24.588  1.00  0.00    -0.292 OA
ENDBRANCH   1   8
BRANCH   6  21
HETATM   21  N3  UNL     1       0.541  -9.142 -24.828  1.00  0.00    -0.382 N 
ATOM     22  H3  UNL     1      -0.473  -9.088 -24.731  1.00  0.00     0.160 HD
BRANCH  21  23
HETATM   23  C10 UNL     1       1.310  -7.962 -25.258  1.00  0.00     0.107 C 
HETATM   24  C11 UNL     1       1.068  -7.819 -26.767  1.00  0.00     0.053 C 
HETATM   25  C12 UNL     1      -0.245  -7.101 -26.799  1.00  0.00     0.169 C 
HETATM   26  O2  UNL     1      -0.596  -6.787 -25.512  1.00  0.00    -0.389 OA
HETATM   27  C13 UNL     1       0.617  -6.682 -24.798  1.00  0.00     0.192 C 
ENDBRANCH  21  23
ENDBRANCH   6  21
BRANCH   5  28
HETATM   28  C8  UNL     1      -0.892 -11.717 -24.589  1.00  0.00     0.270 C 
HETATM   29  N2  UNL     1      -1.714 -12.003 -23.459  1.00  0.00    -0.057 NA
HETATM   30  O1  UNL     1      -1.479 -11.634 -25.670  1.00  0.00    -0.271 OA
ENDBRANCH   5  28
TORSDOF 4
ENDMDL
