MODEL 2
REMARK VINA RESULT: -8.058582209      1.269      4.727
REMARK  4 active torsions:
REMARK  status: ('A' for Active; 'I' for Inactive)
REMARK    1  A    between atoms: O1_2  and  C2_3 
REMARK    2  A    between atoms: C4_5  and  S1_6 
REMARK    3  A    between atoms: C9_14  and  S2_15 
REMARK    4  A    between atoms: C11_20  and  S3_21 
ROOT
HETATM    1  C2  UNL     1       3.597  16.015  59.543  1.00  0.00     0.081 A 
HETATM    2  C3  UNL     1       4.641  16.334  60.379  1.00  0.00     0.064 A 
HETATM    3  C4  UNL     1       5.542  17.363  60.070  1.00  0.00     0.094 A 
HETATM    4  C5  UNL     1       5.357  18.060  58.889  1.00  0.00     0.000 A 
HETATM    5  C6  UNL     1       6.272  19.064  58.628  1.00  0.00     0.015 A 
HETATM    6  C7  UNL     1       6.108  19.776  57.452  1.00  0.00     0.015 A 
HETATM    7  C8  UNL     1       5.083  19.506  56.571  1.00  0.00     0.000 A 
HETATM    8  C9  UNL     1       4.966  20.243  55.418  1.00  0.00     0.093 A 
HETATM    9  C10 UNL     1       3.934  19.949  54.560  1.00  0.00     0.054 A 
HETATM   10  C11 UNL     1       3.027  18.933  54.845  1.00  0.00     0.093 A 
HETATM   11  C12 UNL     1       3.141  18.192  55.999  1.00  0.00     0.000 A 
HETATM   12  C13 UNL     1       2.268  17.179  56.322  1.00  0.00     0.015 A 
HETATM   13  C14 UNL     1       2.414  16.457  57.488  1.00  0.00     0.016 A 
HETATM   14  C15 UNL     1       3.454  16.745  58.367  1.00  0.00     0.009 A 
HETATM   15  C16 UNL     1       4.304  17.755  58.019  1.00  0.00     0.001 A 
HETATM   16  C17 UNL     1       4.191  18.502  56.856  1.00  0.00    -0.000 A 
ENDROOT
BRANCH   3  17
HETATM   17  S1  UNL     1       6.816  17.734  61.117  1.00  0.00     0.138 S 
HETATM   18  O2  UNL     1       7.756  15.950  60.942  1.00  0.00    -0.591 OA
HETATM   19  O3  UNL     1       6.321  17.402  62.685  1.00  0.00    -0.591 OA
HETATM   20  O4  UNL     1       7.875  18.570  60.946  1.00  0.00    -0.591 OA
ENDBRANCH   3  17
BRANCH   1  21
HETATM   21  O1  UNL     1       2.686  15.006  59.812  1.00  0.00    -0.355 OA
HETATM   22  C1  UNL     1       3.121  13.744  60.276  1.00  0.00     0.210 C 
ENDBRANCH   1  21
BRANCH   8  23
HETATM   23  S2  UNL     1       6.122  21.534  55.059  1.00  0.00     0.138 S 
HETATM   24  O5  UNL     1       5.612  22.075  53.518  1.00  0.00    -0.591 OA
HETATM   25  O6  UNL     1       6.139  22.654  56.020  1.00  0.00    -0.591 OA
HETATM   26  O7  UNL     1       7.546  20.757  54.842  1.00  0.00    -0.591 OA
ENDBRANCH   8  23
BRANCH  10  27
HETATM   27  S3  UNL     1       1.712  18.541  53.777  1.00  0.00     0.138 S 
HETATM   28  O8  UNL     1       0.380  18.548  54.622  1.00  0.00    -0.591 OA
HETATM   29  O9  UNL     1       1.619  19.998  52.799  1.00  0.00    -0.591 OA
HETATM   30  O10 UNL     1       2.061  17.399  52.868  1.00  0.00    -0.591 OA
ENDBRANCH  10  27
TORSDOF 4
ENDMDL
