MODEL 4
REMARK VINA RESULT: -7.244527339      1.508      6.312
REMARK  4 active torsions:
REMARK  status: ('A' for Active; 'I' for Inactive)
REMARK    1  A    between atoms: O1_2  and  C2_3 
REMARK    2  A    between atoms: C4_5  and  S1_6 
REMARK    3  A    between atoms: C9_14  and  S2_15 
REMARK    4  A    between atoms: C11_20  and  S3_21 
ROOT
HETATM    1  C2  UNL     1       5.891  20.144  56.289  1.00  0.00     0.081 A 
HETATM    2  C3  UNL     1       4.989  20.141  55.251  1.00  0.00     0.064 A 
HETATM    3  C4  UNL     1       3.940  19.213  55.192  1.00  0.00     0.094 A 
HETATM    4  C5  UNL     1       3.829  18.287  56.214  1.00  0.00     0.000 A 
HETATM    5  C6  UNL     1       2.778  17.393  56.111  1.00  0.00     0.015 A 
HETATM    6  C7  UNL     1       2.646  16.457  57.121  1.00  0.00     0.015 A 
HETATM    7  C8  UNL     1       3.515  16.406  58.190  1.00  0.00     0.000 A 
HETATM    8  C9  UNL     1       3.339  15.457  59.165  1.00  0.00     0.093 A 
HETATM    9  C10 UNL     1       4.222  15.432  60.217  1.00  0.00     0.054 A 
HETATM   10  C11 UNL     1       5.271  16.343  60.298  1.00  0.00     0.093 A 
HETATM   11  C12 UNL     1       5.453  17.295  59.322  1.00  0.00     0.000 A 
HETATM   12  C13 UNL     1       6.475  18.215  59.360  1.00  0.00     0.015 A 
HETATM   13  C14 UNL     1       6.625  19.156  58.364  1.00  0.00     0.016 A 
HETATM   14  C15 UNL     1       5.736  19.193  57.292  1.00  0.00     0.009 A 
HETATM   15  C16 UNL     1       4.732  18.267  57.282  1.00  0.00     0.001 A 
HETATM   16  C17 UNL     1       4.549  17.306  58.265  1.00  0.00    -0.000 A 
ENDROOT
BRANCH   3  17
HETATM   17  S1  UNL     1       2.846  19.232  53.903  1.00  0.00     0.138 S 
HETATM   18  O2  UNL     1       1.269  19.907  54.977  1.00  0.00    -0.591 OA
HETATM   19  O3  UNL     1       2.182  17.699  53.754  1.00  0.00    -0.591 OA
HETATM   20  O4  UNL     1       2.769  20.066  52.832  1.00  0.00    -0.591 OA
ENDBRANCH   3  17
BRANCH   1  21
HETATM   21  O1  UNL     1       6.941  21.044  56.384  1.00  0.00    -0.355 OA
HETATM   22  C1  UNL     1       6.824  22.350  55.858  1.00  0.00     0.210 C 
ENDBRANCH   1  21
BRANCH   8  23
HETATM   23  S2  UNL     1       2.003  14.301  59.059  1.00  0.00     0.138 S 
HETATM   24  O5  UNL     1       2.077  13.502  60.571  1.00  0.00    -0.591 OA
HETATM   25  O6  UNL     1       0.667  14.893  58.853  1.00  0.00    -0.591 OA
HETATM   26  O7  UNL     1       2.488  13.221  57.928  1.00  0.00    -0.591 OA
ENDBRANCH   8  23
BRANCH  10  27
HETATM   27  S3  UNL     1       6.404  16.334  61.618  1.00  0.00     0.138 S 
HETATM   28  O8  UNL     1       6.115  17.598  62.516  1.00  0.00    -0.591 OA
HETATM   29  O9  UNL     1       5.813  14.978  62.567  1.00  0.00    -0.591 OA
HETATM   30  O10 UNL     1       7.791  15.999  61.153  1.00  0.00    -0.591 OA
ENDBRANCH  10  27
TORSDOF 4
ENDMDL
