MODEL 1
REMARK VINA RESULT: -8.710810525      0.000      0.000
REMARK  4 active torsions:
REMARK  status: ('A' for Active; 'I' for Inactive)
REMARK    1  A    between atoms: O1_2  and  C2_3 
REMARK    2  A    between atoms: C4_5  and  S1_6 
REMARK    3  A    between atoms: C9_14  and  S2_15 
REMARK    4  A    between atoms: C11_20  and  S3_21 
ROOT
HETATM    1  C2  UNL     1       5.784  17.197  59.901  1.00  0.00     0.081 A 
HETATM    2  C3  UNL     1       4.922  16.147  60.116  1.00  0.00     0.064 A 
HETATM    3  C4  UNL     1       3.867  15.871  59.236  1.00  0.00     0.094 A 
HETATM    4  C5  UNL     1       3.707  16.687  58.131  1.00  0.00     0.000 A 
HETATM    5  C6  UNL     1       2.651  16.374  57.293  1.00  0.00     0.015 A 
HETATM    6  C7  UNL     1       2.471  17.177  56.180  1.00  0.00     0.015 A 
HETATM    7  C8  UNL     1       3.299  18.244  55.906  1.00  0.00     0.000 A 
HETATM    8  C9  UNL     1       3.075  19.008  54.787  1.00  0.00     0.093 A 
HETATM    9  C10 UNL     1       3.918  20.065  54.543  1.00  0.00     0.054 A 
HETATM   10  C11 UNL     1       4.972  20.360  55.401  1.00  0.00     0.093 A 
HETATM   11  C12 UNL     1       5.200  19.597  56.523  1.00  0.00     0.000 A 
HETATM   12  C13 UNL     1       6.229  19.850  57.400  1.00  0.00     0.015 A 
HETATM   13  C14 UNL     1       6.426  19.064  58.514  1.00  0.00     0.016 A 
HETATM   14  C15 UNL     1       5.581  17.989  58.775  1.00  0.00     0.009 A 
HETATM   15  C16 UNL     1       4.568  17.763  57.887  1.00  0.00     0.001 A 
HETATM   16  C17 UNL     1       4.338  18.531  56.756  1.00  0.00    -0.000 A 
ENDROOT
BRANCH   3  17
HETATM   17  S1  UNL     1       2.822  14.573  59.526  1.00  0.00     0.138 S 
HETATM   18  O2  UNL     1       1.443  15.641  60.552  1.00  0.00    -0.591 OA
HETATM   19  O3  UNL     1       3.343  13.779  60.910  1.00  0.00    -0.591 OA
HETATM   20  O4  UNL     1       2.005  13.899  58.674  1.00  0.00    -0.591 OA
ENDBRANCH   3  17
BRANCH   1  21
HETATM   21  O1  UNL     1       6.838  17.504  60.746  1.00  0.00    -0.355 OA
HETATM   22  C1  UNL     1       7.603  16.480  61.349  1.00  0.00     0.210 C 
ENDBRANCH   1  21
BRANCH   8  23
HETATM   23  S2  UNL     1       1.732  18.630  53.698  1.00  0.00     0.138 S 
HETATM   24  O5  UNL     1       1.613  20.047  52.745  1.00  0.00    -0.591 OA
HETATM   25  O6  UNL     1       1.927  17.445  52.840  1.00  0.00    -0.591 OA
HETATM   26  O7  UNL     1       0.416  18.600  54.670  1.00  0.00    -0.591 OA
ENDBRANCH   8  23
BRANCH  10  27
HETATM   27  S3  UNL     1       6.053  21.691  55.114  1.00  0.00     0.138 S 
HETATM   28  O8  UNL     1       7.517  21.114  54.999  1.00  0.00    -0.591 OA
HETATM   29  O9  UNL     1       5.625  22.133  53.469  1.00  0.00    -0.591 OA
HETATM   30  O10 UNL     1       5.737  22.860  56.001  1.00  0.00    -0.591 OA
ENDBRANCH  10  27
TORSDOF 4
ENDMDL
