MODEL 3
REMARK VINA RESULT: -7.297013863      1.424      7.651
REMARK  4 active torsions:
REMARK  status: ('A' for Active; 'I' for Inactive)
REMARK    1  A    between atoms: O1_2  and  C2_3 
REMARK    2  A    between atoms: C4_5  and  S1_6 
REMARK    3  A    between atoms: C9_14  and  S2_15 
REMARK    4  A    between atoms: C11_20  and  S3_21 
ROOT
HETATM    1  C2  UNL     1       3.180  19.347  54.327  1.00  0.00     0.081 A 
HETATM    2  C3  UNL     1       4.126  20.329  54.148  1.00  0.00     0.064 A 
HETATM    3  C4  UNL     1       5.150  20.543  55.083  1.00  0.00     0.094 A 
HETATM    4  C5  UNL     1       5.189  19.735  56.205  1.00  0.00     0.000 A 
HETATM    5  C6  UNL     1       6.216  19.984  57.097  1.00  0.00     0.015 A 
HETATM    6  C7  UNL     1       6.276  19.189  58.228  1.00  0.00     0.015 A 
HETATM    7  C8  UNL     1       5.359  18.188  58.467  1.00  0.00     0.000 A 
HETATM    8  C9  UNL     1       5.465  17.428  59.606  1.00  0.00     0.093 A 
HETATM    9  C10 UNL     1       4.535  16.438  59.816  1.00  0.00     0.054 A 
HETATM   10  C11 UNL     1       3.511  16.206  58.903  1.00  0.00     0.093 A 
HETATM   11  C12 UNL     1       3.401  16.966  57.762  1.00  0.00     0.000 A 
HETATM   12  C13 UNL     1       2.405  16.774  56.831  1.00  0.00     0.015 A 
HETATM   13  C14 UNL     1       2.327  17.555  55.699  1.00  0.00     0.016 A 
HETATM   14  C15 UNL     1       3.263  18.561  55.473  1.00  0.00     0.009 A 
HETATM   15  C16 UNL     1       4.238  18.728  56.413  1.00  0.00     0.001 A 
HETATM   16  C17 UNL     1       4.350  17.964  57.564  1.00  0.00    -0.000 A 
ENDROOT
BRANCH   3  17
HETATM   17  S1  UNL     1       6.299  21.758  54.836  1.00  0.00     0.138 S 
HETATM   18  O2  UNL     1       5.338  23.176  55.914  1.00  0.00    -0.591 OA
HETATM   19  O3  UNL     1       5.953  22.522  53.384  1.00  0.00    -0.591 OA
HETATM   20  O4  UNL     1       7.553  21.893  55.344  1.00  0.00    -0.591 OA
ENDBRANCH   3  17
BRANCH   1  21
HETATM   21  O1  UNL     1       2.154  19.104  53.429  1.00  0.00    -0.355 OA
HETATM   22  C1  UNL     1       2.264  18.073  52.468  1.00  0.00     0.210 C 
ENDBRANCH   1  21
BRANCH   8  23
HETATM   23  S2  UNL     1       6.769  17.725  60.764  1.00  0.00     0.138 S 
HETATM   24  O5  UNL     1       7.656  16.262  60.713  1.00  0.00    -0.591 OA
HETATM   25  O6  UNL     1       7.645  18.872  60.452  1.00  0.00    -0.591 OA
HETATM   26  O7  UNL     1       6.019  17.774  62.218  1.00  0.00    -0.591 OA
ENDBRANCH   8  23
BRANCH  10  27
HETATM   27  S3  UNL     1       2.322  14.961  59.144  1.00  0.00     0.138 S 
HETATM   28  O8  UNL     1       2.516  13.876  58.015  1.00  0.00    -0.591 OA
HETATM   29  O9  UNL     1       2.925  14.188  60.603  1.00  0.00    -0.591 OA
HETATM   30  O10 UNL     1       0.972  15.538  59.455  1.00  0.00    -0.591 OA
ENDBRANCH  10  27
TORSDOF 4
ENDMDL
