MODEL 1
REMARK VINA RESULT: -8.848696825      0.000      0.000
REMARK  4 active torsions:
REMARK  status: ('A' for Active; 'I' for Inactive)
REMARK    1  A    between atoms: O1_2  and  C2_3 
REMARK    2  A    between atoms: C4_5  and  S1_6 
REMARK    3  A    between atoms: C9_14  and  S2_15 
REMARK    4  A    between atoms: C11_20  and  S3_21 
ROOT
HETATM    1  C2  UNL     1     -37.207 -19.226  16.507  1.00  0.00     0.081 A 
HETATM    2  C3  UNL     1     -37.927 -18.543  17.459  1.00  0.00     0.064 A 
HETATM    3  C4  UNL     1     -37.447 -17.359  18.035  1.00  0.00     0.094 A 
HETATM    4  C5  UNL     1     -36.215 -16.884  17.620  1.00  0.00     0.000 A 
HETATM    5  C6  UNL     1     -35.784 -15.713  18.218  1.00  0.00     0.015 A 
HETATM    6  C7  UNL     1     -34.555 -15.218  17.820  1.00  0.00     0.015 A 
HETATM    7  C8  UNL     1     -33.783 -15.853  16.871  1.00  0.00     0.000 A 
HETATM    8  C9  UNL     1     -32.570 -15.318  16.512  1.00  0.00     0.093 A 
HETATM    9  C10 UNL     1     -31.825 -15.976  15.563  1.00  0.00     0.054 A 
HETATM   10  C11 UNL     1     -32.280 -17.152  14.977  1.00  0.00     0.093 A 
HETATM   11  C12 UNL     1     -33.494 -17.692  15.334  1.00  0.00     0.000 A 
HETATM   12  C13 UNL     1     -33.985 -18.852  14.782  1.00  0.00     0.015 A 
HETATM   13  C14 UNL     1     -35.207 -19.363  15.164  1.00  0.00     0.016 A 
HETATM   14  C15 UNL     1     -35.974 -18.707  16.124  1.00  0.00     0.009 A 
HETATM   15  C16 UNL     1     -35.460 -17.558  16.654  1.00  0.00     0.001 A 
HETATM   16  C17 UNL     1     -34.236 -17.014  16.296  1.00  0.00    -0.000 A 
ENDROOT
BRANCH   3  17
HETATM   17  S1  UNL     1     -38.354 -16.541  19.204  1.00  0.00     0.138 S 
HETATM   18  O2  UNL     1     -37.436 -17.376  20.802  1.00  0.00    -0.591 OA
HETATM   19  O3  UNL     1     -39.767 -17.405  19.471  1.00  0.00    -0.591 OA
HETATM   20  O4  UNL     1     -38.326 -15.234  19.578  1.00  0.00    -0.591 OA
ENDBRANCH   3  17
BRANCH   1  21
HETATM   21  O1  UNL     1     -37.646 -20.399  15.914  1.00  0.00    -0.355 OA
HETATM   22  C1  UNL     1     -39.026 -20.647  15.738  1.00  0.00     0.210 C 
ENDBRANCH   1  21
BRANCH   8  23
HETATM   23  S2  UNL     1     -31.994 -13.821  17.260  1.00  0.00     0.138 S 
HETATM   24  O5  UNL     1     -30.298 -13.936  17.069  1.00  0.00    -0.591 OA
HETATM   25  O6  UNL     1     -32.500 -12.574  16.653  1.00  0.00    -0.591 OA
HETATM   26  O7  UNL     1     -32.306 -14.018  18.855  1.00  0.00    -0.591 OA
ENDBRANCH   8  23
BRANCH  10  27
HETATM   27  S3  UNL     1     -31.357 -18.004  13.774  1.00  0.00     0.138 S 
HETATM   28  O8  UNL     1     -32.139 -17.915  12.407  1.00  0.00    -0.591 OA
HETATM   29  O9  UNL     1     -29.986 -16.924  13.566  1.00  0.00    -0.591 OA
HETATM   30  O10 UNL     1     -30.837 -19.309  14.300  1.00  0.00    -0.591 OA
ENDBRANCH  10  27
TORSDOF 4
ENDMDL
