MODEL 4
REMARK VINA RESULT: -8.009685596      1.717      6.094
REMARK  4 active torsions:
REMARK  status: ('A' for Active; 'I' for Inactive)
REMARK    1  A    between atoms: O1_2  and  C2_3 
REMARK    2  A    between atoms: C4_5  and  S1_6 
REMARK    3  A    between atoms: C9_14  and  S2_15 
REMARK    4  A    between atoms: C11_20  and  S3_21 
ROOT
HETATM    1  C2  UNL     1     -33.858 -20.013  14.286  1.00  0.00     0.081 A 
HETATM    2  C3  UNL     1     -32.706 -19.944  13.538  1.00  0.00     0.064 A 
HETATM    3  C4  UNL     1     -31.815 -18.869  13.658  1.00  0.00     0.094 A 
HETATM    4  C5  UNL     1     -32.122 -17.863  14.557  1.00  0.00     0.000 A 
HETATM    5  C6  UNL     1     -31.212 -16.824  14.639  1.00  0.00     0.015 A 
HETATM    6  C7  UNL     1     -31.497 -15.806  15.532  1.00  0.00     0.015 A 
HETATM    7  C8  UNL     1     -32.634 -15.814  16.312  1.00  0.00     0.000 A 
HETATM    8  C9  UNL     1     -32.869 -14.778  17.182  1.00  0.00     0.093 A 
HETATM    9  C10 UNL     1     -34.011 -14.816  17.945  1.00  0.00     0.054 A 
HETATM   10  C11 UNL     1     -34.911 -15.872  17.844  1.00  0.00     0.093 A 
HETATM   11  C12 UNL     1     -34.680 -16.912  16.973  1.00  0.00     0.000 A 
HETATM   12  C13 UNL     1     -35.540 -17.977  16.839  1.00  0.00     0.015 A 
HETATM   13  C14 UNL     1     -35.276 -19.001  15.955  1.00  0.00     0.016 A 
HETATM   14  C15 UNL     1     -34.122 -18.977  15.176  1.00  0.00     0.009 A 
HETATM   15  C16 UNL     1     -33.287 -17.907  15.331  1.00  0.00     0.001 A 
HETATM   16  C17 UNL     1     -33.519 -16.858  16.208  1.00  0.00    -0.000 A 
ENDROOT
BRANCH   3  17
HETATM   17  S1  UNL     1     -30.406 -18.811  12.725  1.00  0.00     0.138 S 
HETATM   18  O2  UNL     1     -29.192 -19.615  14.129  1.00  0.00    -0.591 OA
HETATM   19  O3  UNL     1     -29.722 -17.289  12.900  1.00  0.00    -0.591 OA
HETATM   20  O4  UNL     1     -30.038 -19.555  11.648  1.00  0.00    -0.591 OA
ENDBRANCH   3  17
BRANCH   1  21
HETATM   21  O1  UNL     1     -34.764 -21.058  14.197  1.00  0.00    -0.355 OA
HETATM   22  C1  UNL     1     -34.445 -22.232  13.479  1.00  0.00     0.210 C 
ENDBRANCH   1  21
BRANCH   8  23
HETATM   23  S2  UNL     1     -31.722 -13.436  17.308  1.00  0.00     0.138 S 
HETATM   24  O5  UNL     1     -32.085 -12.776  18.844  1.00  0.00    -0.591 OA
HETATM   25  O6  UNL     1     -30.296 -13.812  17.230  1.00  0.00    -0.591 OA
HETATM   26  O7  UNL     1     -32.238 -12.354  16.193  1.00  0.00    -0.591 OA
ENDBRANCH   8  23
BRANCH  10  27
HETATM   27  S3  UNL     1     -36.363 -15.944  18.797  1.00  0.00     0.138 S 
HETATM   28  O8  UNL     1     -36.596 -17.447  19.218  1.00  0.00    -0.591 OA
HETATM   29  O9  UNL     1     -35.842 -15.150  20.276  1.00  0.00    -0.591 OA
HETATM   30  O10 UNL     1     -37.461 -15.117  18.195  1.00  0.00    -0.591 OA
ENDBRANCH  10  27
TORSDOF 4
ENDMDL
