MODEL 3
REMARK VINA RESULT: -8.356633753      1.276      4.711
REMARK  4 active torsions:
REMARK  status: ('A' for Active; 'I' for Inactive)
REMARK    1  A    between atoms: O1_2  and  C2_3 
REMARK    2  A    between atoms: C4_5  and  S1_6 
REMARK    3  A    between atoms: C9_14  and  S2_15 
REMARK    4  A    between atoms: C11_20  and  S3_21 
ROOT
HETATM    1  C2  UNL     1     -37.444 -17.511  18.101  1.00  0.00     0.081 A 
HETATM    2  C3  UNL     1     -37.842 -18.674  17.485  1.00  0.00     0.064 A 
HETATM    3  C4  UNL     1     -37.060 -19.285  16.494  1.00  0.00     0.094 A 
HETATM    4  C5  UNL     1     -35.864 -18.685  16.143  1.00  0.00     0.000 A 
HETATM    5  C6  UNL     1     -35.129 -19.325  15.161  1.00  0.00     0.015 A 
HETATM    6  C7  UNL     1     -33.929 -18.743  14.793  1.00  0.00     0.015 A 
HETATM    7  C8  UNL     1     -33.473 -17.579  15.372  1.00  0.00     0.000 A 
HETATM    8  C9  UNL     1     -32.273 -17.044  14.969  1.00  0.00     0.093 A 
HETATM    9  C10 UNL     1     -31.847 -15.882  15.565  1.00  0.00     0.054 A 
HETATM   10  C11 UNL     1     -32.604 -15.257  16.551  1.00  0.00     0.093 A 
HETATM   11  C12 UNL     1     -33.806 -15.789  16.956  1.00  0.00     0.000 A 
HETATM   12  C13 UNL     1     -34.589 -15.207  17.927  1.00  0.00     0.015 A 
HETATM   13  C14 UNL     1     -35.788 -15.769  18.308  1.00  0.00     0.016 A 
HETATM   14  C15 UNL     1     -36.233 -16.947  17.713  1.00  0.00     0.009 A 
HETATM   15  C16 UNL     1     -35.435 -17.501  16.754  1.00  0.00     0.001 A 
HETATM   16  C17 UNL     1     -34.224 -16.966  16.343  1.00  0.00    -0.000 A 
ENDROOT
BRANCH   3  17
HETATM   17  S1  UNL     1     -37.575 -20.715  15.753  1.00  0.00     0.138 S 
HETATM   18  O2  UNL     1     -39.101 -21.076  17.032  1.00  0.00    -0.591 OA
HETATM   19  O3  UNL     1     -36.664 -21.983  16.367  1.00  0.00    -0.591 OA
HETATM   20  O4  UNL     1     -38.216 -20.906  14.569  1.00  0.00    -0.591 OA
ENDBRANCH   3  17
BRANCH   1  21
HETATM   21  O1  UNL     1     -38.187 -16.876  19.084  1.00  0.00    -0.355 OA
HETATM   22  C1  UNL     1     -39.488 -16.397  18.811  1.00  0.00     0.210 C 
ENDBRANCH   1  21
BRANCH   8  23
HETATM   23  S2  UNL     1     -31.313 -17.842  13.715  1.00  0.00     0.138 S 
HETATM   24  O5  UNL     1     -30.847 -19.303  14.473  1.00  0.00    -0.591 OA
HETATM   25  O6  UNL     1     -32.024 -18.119  12.452  1.00  0.00    -0.591 OA
HETATM   26  O7  UNL     1     -29.964 -16.922  13.589  1.00  0.00    -0.591 OA
ENDBRANCH   8  23
BRANCH  10  27
HETATM   27  S3  UNL     1     -32.087 -13.786  17.321  1.00  0.00     0.138 S 
HETATM   28  O8  UNL     1     -32.298 -13.950  18.876  1.00  0.00    -0.591 OA
HETATM   29  O9  UNL     1     -30.346 -13.878  17.102  1.00  0.00    -0.591 OA
HETATM   30  O10 UNL     1     -32.579 -12.575  16.584  1.00  0.00    -0.591 OA
ENDBRANCH  10  27
TORSDOF 4
ENDMDL
