MODEL 2
REMARK VINA RESULT: -8.765345878      2.073      6.050
REMARK  4 active torsions:
REMARK  status: ('A' for Active; 'I' for Inactive)
REMARK    1  A    between atoms: O1_2  and  C2_3 
REMARK    2  A    between atoms: C4_5  and  S1_6 
REMARK    3  A    between atoms: C9_14  and  S2_15 
REMARK    4  A    between atoms: C11_20  and  S3_21 
ROOT
HETATM    1  C2  UNL     1     -31.564 -18.551  13.337  1.00  0.00     0.081 A 
HETATM    2  C3  UNL     1     -32.335 -19.685  13.241  1.00  0.00     0.064 A 
HETATM    3  C4  UNL     1     -33.413 -19.917  14.108  1.00  0.00     0.094 A 
HETATM    4  C5  UNL     1     -33.689 -18.968  15.075  1.00  0.00     0.000 A 
HETATM    5  C6  UNL     1     -34.760 -19.242  15.906  1.00  0.00     0.015 A 
HETATM    6  C7  UNL     1     -35.056 -18.307  16.883  1.00  0.00     0.015 A 
HETATM    7  C8  UNL     1     -34.323 -17.149  17.032  1.00  0.00     0.000 A 
HETATM    8  C9  UNL     1     -34.659 -16.255  18.019  1.00  0.00     0.093 A 
HETATM    9  C10 UNL     1     -33.909 -15.110  18.142  1.00  0.00     0.054 A 
HETATM   10  C11 UNL     1     -32.836 -14.857  17.294  1.00  0.00     0.093 A 
HETATM   11  C12 UNL     1     -32.495 -15.751  16.306  1.00  0.00     0.000 A 
HETATM   12  C13 UNL     1     -31.442 -15.544  15.444  1.00  0.00     0.015 A 
HETATM   13  C14 UNL     1     -31.130 -16.462  14.465  1.00  0.00     0.016 A 
HETATM   14  C15 UNL     1     -31.882 -17.626  14.328  1.00  0.00     0.009 A 
HETATM   15  C16 UNL     1     -32.920 -17.804  15.196  1.00  0.00     0.001 A 
HETATM   16  C17 UNL     1     -33.264 -16.904  16.194  1.00  0.00    -0.000 A 
ENDROOT
BRANCH   3  17
HETATM   17  S1  UNL     1     -34.343 -21.321  13.966  1.00  0.00     0.138 S 
HETATM   18  O2  UNL     1     -33.396 -22.347  15.432  1.00  0.00    -0.591 OA
HETATM   19  O3  UNL     1     -33.671 -22.278  12.763  1.00  0.00    -0.591 OA
HETATM   20  O4  UNL     1     -35.635 -21.555  14.318  1.00  0.00    -0.591 OA
ENDBRANCH   3  17
BRANCH   1  21
HETATM   21  O1  UNL     1     -30.491 -18.284  12.501  1.00  0.00    -0.355 OA
HETATM   22  C1  UNL     1     -29.268 -18.976  12.652  1.00  0.00     0.210 C 
ENDBRANCH   1  21
BRANCH   8  23
HETATM   23  S2  UNL     1     -36.026 -16.580  19.095  1.00  0.00     0.138 S 
HETATM   24  O5  UNL     1     -36.005 -15.229  20.145  1.00  0.00    -0.591 OA
HETATM   25  O6  UNL     1     -37.340 -16.699  18.433  1.00  0.00    -0.591 OA
HETATM   26  O7  UNL     1     -35.550 -17.874  19.977  1.00  0.00    -0.591 OA
ENDBRANCH   8  23
BRANCH  10  27
HETATM   27  S3  UNL     1     -31.870 -13.418  17.429  1.00  0.00     0.138 S 
HETATM   28  O8  UNL     1     -32.555 -12.289  16.565  1.00  0.00    -0.591 OA
HETATM   29  O9  UNL     1     -32.185 -12.948  19.092  1.00  0.00    -0.591 OA
HETATM   30  O10 UNL     1     -30.406 -13.721  17.307  1.00  0.00    -0.591 OA
ENDBRANCH  10  27
TORSDOF 4
ENDMDL
