MODEL 3
REMARK VINA RESULT: -7.904844161      1.324      1.484
REMARK  10 active torsions:
REMARK  status: ('A' for Active; 'I' for Inactive)
REMARK    1  A    between atoms: N1_5  and  C4_6 
REMARK    2  A    between atoms: C5_8  and  C6_9 
REMARK    3  A    between atoms: C6_9  and  O3_10 
REMARK    4  A    between atoms: O3_10  and  P1_11 
REMARK    5  A    between atoms: P1_11  and  N2_14 
REMARK    6  A    between atoms: N2_14  and  P2_16 
REMARK    7  A    between atoms: P2_16  and  O8_19 
REMARK    8  A    between atoms: O8_19  and  P3_20 
REMARK    9  A    between atoms: C7_24  and  O12_25 
REMARK   10  A    between atoms: C8_27  and  O13_28 
ROOT
HETATM    1  C4  UNL     1      63.757  20.198  90.990  1.00  0.00     0.263 C 
HETATM    2  O2  UNL     1      63.959  19.075  91.812  1.00  0.00    -0.353 OA
HETATM    3  C5  UNL     1      63.657  19.485  93.054  1.00  0.00     0.180 C 
HETATM    4  C7  UNL     1      62.853  20.717  93.091  1.00  0.00     0.182 C 
HETATM    5  C8  UNL     1      62.487  20.791  91.579  1.00  0.00     0.198 C 
ENDROOT
BRANCH   3   6
HETATM    6  C6  UNL     1      63.193  18.411  94.039  1.00  0.00     0.215 C 
BRANCH   6   7
HETATM    7  O3  UNL     1      61.797  18.430  93.925  1.00  0.00    -0.293 OA
BRANCH   7   8
HETATM    8  P1  UNL     1      61.191  18.260  95.436  1.00  0.00     0.368 P 
HETATM    9  O4  UNL     1      61.833  19.317  96.640  1.00  0.00    -0.629 OA
HETATM   10  O5  UNL     1      62.199  17.247  95.846  1.00  0.00    -0.629 OA
BRANCH   8  11
HETATM   11  N2  UNL     1      59.801  17.489  95.782  1.00  0.00    -0.225 N 
ATOM     12  H2  UNL     1      59.492  17.212  96.713  1.00  0.00     0.178 HD
BRANCH  11  13
HETATM   13  P2  UNL     1      58.923  17.214  94.289  1.00  0.00     0.378 P 
HETATM   14  O6  UNL     1      58.646  18.561  93.382  1.00  0.00    -0.629 OA
HETATM   15  O7  UNL     1      57.603  17.309  95.049  1.00  0.00    -0.629 OA
BRANCH  13  16
HETATM   16  O8  UNL     1      58.672  15.722  93.790  1.00  0.00    -0.178 OA
BRANCH  16  17
HETATM   17  P3  UNL     1      59.469  14.473  94.097  1.00  0.00     0.431 P 
HETATM   18  O9  UNL     1      58.618  13.576  93.028  1.00  0.00    -0.616 OA
HETATM   19  O10 UNL     1      59.023  14.480  95.703  1.00  0.00    -0.616 OA
HETATM   20  O11 UNL     1      60.877  15.190  93.619  1.00  0.00    -0.616 OA
ENDBRANCH  16  17
ENDBRANCH  13  16
ENDBRANCH  11  13
ENDBRANCH   8  11
ENDBRANCH   7   8
ENDBRANCH   6   7
ENDBRANCH   3   6
BRANCH   4  21
HETATM   21  O12 UNL     1      63.684  21.829  93.315  1.00  0.00    -0.390 OA
ATOM     22  H12 UNL     1      63.280  22.613  92.964  1.00  0.00     0.210 HD
ENDBRANCH   4  21
BRANCH   1  23
HETATM   23  N1  UNL     1      63.585  19.846  89.633  1.00  0.00    -0.280 N 
HETATM   24  C3  UNL     1      63.070  18.658  89.187  1.00  0.00     0.104 A 
HETATM   25  C2  UNL     1      62.883  18.501  87.824  1.00  0.00     0.092 A 
HETATM   26  C1  UNL     1      63.170  19.461  86.902  1.00  0.00     0.250 A 
HETATM   27  O1  UNL     1      63.025  19.374  85.663  1.00  0.00    -0.268 OA
HETATM   28  N3  UNL     1      63.690  20.640  87.382  1.00  0.00    -0.275 N 
HETATM   29  C9  UNL     1      63.871  20.759  88.692  1.00  0.00     0.331 A 
ATOM     30  H3  UNL     1      63.931  21.403  86.748  1.00  0.00     0.173 HD
HETATM   31  O14 UNL     1      64.387  21.887  89.078  1.00  0.00    -0.246 OA
ENDBRANCH   1  23
BRANCH   5  32
HETATM   32  O13 UNL     1      62.229  22.083  91.223  1.00  0.00    -0.388 OA
ATOM     33  H13 UNL     1      61.337  22.255  90.945  1.00  0.00     0.210 HD
ENDBRANCH   5  32
TORSDOF 10
ENDMDL
