MODEL 2
REMARK VINA RESULT: -8.045648300      1.904      2.926
REMARK  10 active torsions:
REMARK  status: ('A' for Active; 'I' for Inactive)
REMARK    1  A    between atoms: N1_5  and  C4_6 
REMARK    2  A    between atoms: C5_8  and  C6_9 
REMARK    3  A    between atoms: C6_9  and  O3_10 
REMARK    4  A    between atoms: O3_10  and  P1_11 
REMARK    5  A    between atoms: P1_11  and  N2_14 
REMARK    6  A    between atoms: N2_14  and  P2_16 
REMARK    7  A    between atoms: P2_16  and  O8_19 
REMARK    8  A    between atoms: O8_19  and  P3_20 
REMARK    9  A    between atoms: C7_24  and  O12_25 
REMARK   10  A    between atoms: C8_27  and  O13_28 
ROOT
HETATM    1  C4  UNL     1      63.912  20.479  91.618  1.00  0.00     0.263 C 
HETATM    2  O2  UNL     1      63.913  19.266  92.330  1.00  0.00    -0.353 OA
HETATM    3  C5  UNL     1      63.470  19.575  93.558  1.00  0.00     0.180 C 
HETATM    4  C7  UNL     1      62.762  20.863  93.625  1.00  0.00     0.182 C 
HETATM    5  C8  UNL     1      62.619  21.119  92.095  1.00  0.00     0.198 C 
ENDROOT
BRANCH   3   6
HETATM    6  C6  UNL     1      62.794  18.454  94.348  1.00  0.00     0.215 C 
BRANCH   6   7
HETATM    7  O3  UNL     1      61.426  18.715  94.200  1.00  0.00    -0.293 OA
BRANCH   7   8
HETATM    8  P1  UNL     1      60.822  17.561  93.209  1.00  0.00     0.368 P 
HETATM    9  O4  UNL     1      61.951  16.794  92.151  1.00  0.00    -0.629 OA
HETATM   10  O5  UNL     1      60.502  18.511  92.112  1.00  0.00    -0.629 OA
BRANCH   8  11
HETATM   11  N2  UNL     1      59.388  16.827  93.429  1.00  0.00    -0.225 N 
ATOM     12  H2  UNL     1      58.480  17.202  93.153  1.00  0.00     0.178 HD
BRANCH  11  13
HETATM   13  P2  UNL     1      59.658  15.285  94.218  1.00  0.00     0.378 P 
HETATM   14  O6  UNL     1      61.198  14.708  94.116  1.00  0.00    -0.629 OA
HETATM   15  O7  UNL     1      59.176  14.559  92.966  1.00  0.00    -0.629 OA
BRANCH  13  16
HETATM   16  O8  UNL     1      58.526  14.675  95.159  1.00  0.00    -0.178 OA
BRANCH  16  17
HETATM   17  P3  UNL     1      57.985  15.216  96.464  1.00  0.00     0.431 P 
HETATM   18  O9  UNL     1      57.530  16.628  95.777  1.00  0.00    -0.616 OA
HETATM   19  O10 UNL     1      59.467  15.111  97.220  1.00  0.00    -0.616 OA
HETATM   20  O11 UNL     1      56.895  13.982  96.587  1.00  0.00    -0.616 OA
ENDBRANCH  16  17
ENDBRANCH  13  16
ENDBRANCH  11  13
ENDBRANCH   8  11
ENDBRANCH   7   8
ENDBRANCH   6   7
ENDBRANCH   3   6
BRANCH   4  21
HETATM   21  O12 UNL     1      63.632  21.870  94.079  1.00  0.00    -0.390 OA
ATOM     22  H12 UNL     1      63.138  22.649  94.307  1.00  0.00     0.210 HD
ENDBRANCH   4  21
BRANCH   1  23
HETATM   23  N1  UNL     1      63.908  20.280  90.219  1.00  0.00    -0.280 N 
HETATM   24  C3  UNL     1      63.405  19.178  89.582  1.00  0.00     0.104 A 
HETATM   25  C2  UNL     1      63.396  19.174  88.198  1.00  0.00     0.092 A 
HETATM   26  C1  UNL     1      63.848  20.205  87.432  1.00  0.00     0.250 A 
HETATM   27  O1  UNL     1      63.867  20.256  86.183  1.00  0.00    -0.268 OA
HETATM   28  N3  UNL     1      64.351  21.295  88.102  1.00  0.00    -0.275 N 
HETATM   29  C9  UNL     1      64.360  21.267  89.429  1.00  0.00     0.331 A 
ATOM     30  H3  UNL     1      64.710  22.103  87.593  1.00  0.00     0.173 HD
HETATM   31  O14 UNL     1      64.871  22.315  90.001  1.00  0.00    -0.246 OA
ENDBRANCH   1  23
BRANCH   5  32
HETATM   32  O13 UNL     1      62.509  22.458  91.852  1.00  0.00    -0.388 OA
ATOM     33  H13 UNL     1      61.808  22.897  92.319  1.00  0.00     0.210 HD
ENDBRANCH   5  32
TORSDOF 10
ENDMDL
