MODEL 1
REMARK VINA RESULT: -8.108658199      0.000      0.000
REMARK  10 active torsions:
REMARK  status: ('A' for Active; 'I' for Inactive)
REMARK    1  A    between atoms: N1_5  and  C4_6 
REMARK    2  A    between atoms: C5_8  and  C6_9 
REMARK    3  A    between atoms: C6_9  and  O3_10 
REMARK    4  A    between atoms: O3_10  and  P1_11 
REMARK    5  A    between atoms: P1_11  and  N2_14 
REMARK    6  A    between atoms: N2_14  and  P2_16 
REMARK    7  A    between atoms: P2_16  and  O8_19 
REMARK    8  A    between atoms: O8_19  and  P3_20 
REMARK    9  A    between atoms: C7_24  and  O12_25 
REMARK   10  A    between atoms: C8_27  and  O13_28 
ROOT
HETATM    1  C4  UNL     1      63.747  19.340  92.128  1.00  0.00     0.263 C 
HETATM    2  O2  UNL     1      64.063  18.467  93.184  1.00  0.00    -0.353 OA
HETATM    3  C5  UNL     1      63.818  19.162  94.305  1.00  0.00     0.180 C 
HETATM    4  C7  UNL     1      62.951  20.333  94.098  1.00  0.00     0.182 C 
HETATM    5  C8  UNL     1      62.485  20.012  92.647  1.00  0.00     0.198 C 
ENDROOT
BRANCH   3   6
HETATM    6  C6  UNL     1      63.479  18.351  95.556  1.00  0.00     0.215 C 
BRANCH   6   7
HETATM    7  O3  UNL     1      62.431  17.517  95.143  1.00  0.00    -0.293 OA
BRANCH   7   8
HETATM    8  P1  UNL     1      61.410  17.367  96.414  1.00  0.00     0.368 P 
HETATM    9  O4  UNL     1      61.909  18.114  97.888  1.00  0.00    -0.629 OA
HETATM   10  O5  UNL     1      62.019  16.101  96.898  1.00  0.00    -0.629 OA
BRANCH   8  11
HETATM   11  N2  UNL     1      59.845  16.943  96.284  1.00  0.00    -0.225 N 
ATOM     12  H2  UNL     1      59.265  16.577  97.038  1.00  0.00     0.178 HD
BRANCH  11  13
HETATM   13  P2  UNL     1      59.322  17.220  94.634  1.00  0.00     0.378 P 
HETATM   14  O6  UNL     1      59.564  18.750  94.071  1.00  0.00    -0.629 OA
HETATM   15  O7  UNL     1      57.906  17.499  95.130  1.00  0.00    -0.629 OA
BRANCH  13  16
HETATM   16  O8  UNL     1      58.894  15.981  93.728  1.00  0.00    -0.178 OA
BRANCH  16  17
HETATM   17  P3  UNL     1      59.286  14.526  93.866  1.00  0.00     0.431 P 
HETATM   18  O9  UNL     1      58.605  14.128  92.434  1.00  0.00    -0.616 OA
HETATM   19  O10 UNL     1      58.411  14.336  95.273  1.00  0.00    -0.616 OA
HETATM   20  O11 UNL     1      60.891  14.908  93.926  1.00  0.00    -0.616 OA
ENDBRANCH  16  17
ENDBRANCH  13  16
ENDBRANCH  11  13
ENDBRANCH   8  11
ENDBRANCH   7   8
ENDBRANCH   6   7
ENDBRANCH   3   6
BRANCH   4  21
HETATM   21  O12 UNL     1      63.731  21.496  93.978  1.00  0.00    -0.390 OA
ATOM     22  H12 UNL     1      63.267  22.148  93.467  1.00  0.00     0.210 HD
ENDBRANCH   4  21
BRANCH   1  23
HETATM   23  N1  UNL     1      63.508  18.654  90.916  1.00  0.00    -0.280 N 
HETATM   24  C3  UNL     1      63.077  17.359  90.817  1.00  0.00     0.104 A 
HETATM   25  C2  UNL     1      62.805  16.858  89.555  1.00  0.00     0.092 A 
HETATM   26  C1  UNL     1      62.931  17.581  88.408  1.00  0.00     0.250 A 
HETATM   27  O1  UNL     1      62.704  17.182  87.245  1.00  0.00    -0.268 OA
HETATM   28  N3  UNL     1      63.372  18.876  88.542  1.00  0.00    -0.275 N 
HETATM   29  C9  UNL     1      63.637  19.327  89.762  1.00  0.00     0.331 A 
ATOM     30  H3  UNL     1      63.492  19.476  87.724  1.00  0.00     0.173 HD
HETATM   31  O14 UNL     1      64.073  20.549  89.818  1.00  0.00    -0.246 OA
ENDBRANCH   1  23
BRANCH   5  32
HETATM   32  O13 UNL     1      62.133  21.163  92.004  1.00  0.00    -0.388 OA
ATOM     33  H13 UNL     1      61.366  21.602  92.351  1.00  0.00     0.210 HD
ENDBRANCH   5  32
TORSDOF 10
ENDMDL
