MODEL 2
REMARK VINA RESULT: -11.327702697      0.975      1.009
REMARK  2 active torsions:
REMARK  status: ('A' for Active; 'I' for Inactive)
REMARK    1  A    between atoms: C2_2  and  C3_4 
REMARK    2  A    between atoms: C12_13  and  O2_14 
ROOT
HETATM    1  C3  UNL     1      15.578  38.050  32.476  1.00  0.00     0.063 C 
HETATM    2  C4  UNL     1      15.110  38.670  31.174  1.00  0.00     0.013 C 
HETATM    3  C5  UNL     1      14.932  37.498  30.206  1.00  0.00     0.006 C 
HETATM    4  C6  UNL     1      15.281  36.305  31.019  1.00  0.00    -0.001 C 
HETATM    5  C7  UNL     1      15.885  35.154  30.289  1.00  0.00    -0.001 C 
HETATM    6  C8  UNL     1      15.118  34.702  29.106  1.00  0.00     0.033 C 
HETATM    7  C9  UNL     1      15.074  33.247  28.880  1.00  0.00    -0.023 C 
HETATM    8  C10 UNL     1      15.710  32.365  29.610  1.00  0.00    -0.072 C 
HETATM    9  C11 UNL     1      15.594  30.929  29.290  1.00  0.00     0.066 C 
HETATM   10  C12 UNL     1      14.870  30.264  30.438  1.00  0.00     0.122 C 
HETATM   11  C13 UNL     1      15.113  30.998  31.709  1.00  0.00     0.033 C 
HETATM   12  C14 UNL     1      16.447  31.686  31.784  1.00  0.00     0.016 C 
HETATM   13  C15 UNL     1      16.542  32.788  30.752  1.00  0.00    -0.017 C 
HETATM   14  C16 UNL     1      17.957  32.937  30.291  1.00  0.00     0.020 C 
HETATM   15  C17 UNL     1      15.968  34.047  31.350  1.00  0.00     0.003 C 
HETATM   16  C18 UNL     1      16.694  34.445  32.574  1.00  0.00     0.007 C 
HETATM   17  C19 UNL     1      16.737  35.873  32.937  1.00  0.00     0.011 C 
HETATM   18  C20 UNL     1      16.390  36.875  31.915  1.00  0.00    -0.030 C 
HETATM   19  C21 UNL     1      17.515  37.436  31.119  1.00  0.00     0.016 C 
ENDROOT
BRANCH   1  20
HETATM   20  C2  UNL     1      16.366  38.942  33.327  1.00  0.00     0.128 C 
HETATM   21  C1  UNL     1      17.743  39.291  32.885  1.00  0.00     0.091 C 
HETATM   22  O1  UNL     1      15.914  39.388  34.367  1.00  0.00    -0.298 OA
ENDBRANCH   1  20
BRANCH  10  23
HETATM   23  O2  UNL     1      15.155  28.906  30.516  1.00  0.00    -0.395 OA
ATOM     24  H2  UNL     1      14.636  28.471  31.184  1.00  0.00     0.210 HD
ENDBRANCH  10  23
TORSDOF 2
ENDMDL
