MODEL 1
REMARK VINA RESULT: -11.760298582      0.000      0.000
REMARK  2 active torsions:
REMARK  status: ('A' for Active; 'I' for Inactive)
REMARK    1  A    between atoms: C2_2  and  C3_4 
REMARK    2  A    between atoms: C12_13  and  O2_14 
ROOT
HETATM    1  C3  UNL     1      16.641  38.177  32.822  1.00  0.00     0.063 C 
HETATM    2  C4  UNL     1      15.927  38.896  31.695  1.00  0.00     0.013 C 
HETATM    3  C5  UNL     1      15.450  37.794  30.746  1.00  0.00     0.006 C 
HETATM    4  C6  UNL     1      15.895  36.539  31.402  1.00  0.00    -0.001 C 
HETATM    5  C7  UNL     1      16.233  35.400  30.502  1.00  0.00    -0.001 C 
HETATM    6  C8  UNL     1      15.183  35.060  29.515  1.00  0.00     0.033 C 
HETATM    7  C9  UNL     1      14.989  33.626  29.243  1.00  0.00    -0.023 C 
HETATM    8  C10 UNL     1      15.715  32.669  29.765  1.00  0.00    -0.072 C 
HETATM    9  C11 UNL     1      15.429  31.262  29.420  1.00  0.00     0.066 C 
HETATM   10  C12 UNL     1      14.948  30.574  30.676  1.00  0.00     0.122 C 
HETATM   11  C13 UNL     1      15.529  31.218  31.884  1.00  0.00     0.033 C 
HETATM   12  C14 UNL     1      16.888  31.825  31.672  1.00  0.00     0.016 C 
HETATM   13  C15 UNL     1      16.816  32.977  30.696  1.00  0.00    -0.017 C 
HETATM   14  C16 UNL     1      18.093  33.073  29.922  1.00  0.00     0.020 C 
HETATM   15  C17 UNL     1      16.484  34.230  31.465  1.00  0.00     0.003 C 
HETATM   16  C18 UNL     1      17.500  34.516  32.500  1.00  0.00     0.007 C 
HETATM   17  C19 UNL     1      17.724  35.915  32.904  1.00  0.00     0.011 C 
HETATM   18  C20 UNL     1      17.218  36.993  32.036  1.00  0.00    -0.030 C 
HETATM   19  C21 UNL     1      18.163  37.534  31.022  1.00  0.00     0.016 C 
ENDROOT
BRANCH   1  20
HETATM   20  C2  UNL     1      17.664  38.972  33.502  1.00  0.00     0.128 C 
HETATM   21  C1  UNL     1      17.798  38.822  34.976  1.00  0.00     0.091 C 
HETATM   22  O1  UNL     1      18.387  39.735  32.885  1.00  0.00    -0.298 OA
ENDBRANCH   1  20
BRANCH  10  23
HETATM   23  O2  UNL     1      15.149  29.200  30.627  1.00  0.00    -0.395 OA
ATOM     24  H2  UNL     1      14.331  28.718  30.668  1.00  0.00     0.210 HD
ENDBRANCH  10  23
TORSDOF 2
ENDMDL
