MODEL 10
REMARK VINA RESULT: -9.337237979      1.433      6.747
REMARK  2 active torsions:
REMARK  status: ('A' for Active; 'I' for Inactive)
REMARK    1  A    between atoms: C2_2  and  C3_4 
REMARK    2  A    between atoms: C12_13  and  O2_14 
ROOT
HETATM    1  C3  UNL     1      14.991  31.851  30.180  1.00  0.00     0.063 C 
HETATM    2  C4  UNL     1      16.203  30.955  30.346  1.00  0.00     0.013 C 
HETATM    3  C5  UNL     1      17.260  31.823  31.034  1.00  0.00     0.006 C 
HETATM    4  C6  UNL     1      16.579  33.127  31.234  1.00  0.00    -0.001 C 
HETATM    5  C7  UNL     1      17.442  34.341  31.208  1.00  0.00    -0.001 C 
HETATM    6  C8  UNL     1      18.614  34.286  32.112  1.00  0.00     0.033 C 
HETATM    7  C9  UNL     1      18.965  35.543  32.793  1.00  0.00    -0.023 C 
HETATM    8  C10 UNL     1      18.355  36.686  32.600  1.00  0.00    -0.072 C 
HETATM    9  C11 UNL     1      18.795  37.885  33.340  1.00  0.00     0.066 C 
HETATM   10  C12 UNL     1      17.670  38.285  34.267  1.00  0.00     0.122 C 
HETATM   11  C13 UNL     1      16.355  37.870  33.709  1.00  0.00     0.033 C 
HETATM   12  C14 UNL     1      16.298  37.844  32.207  1.00  0.00     0.016 C 
HETATM   13  C15 UNL     1      17.231  36.792  31.651  1.00  0.00    -0.017 C 
HETATM   14  C16 UNL     1      17.759  37.226  30.321  1.00  0.00     0.020 C 
HETATM   15  C17 UNL     1      16.491  35.480  31.606  1.00  0.00     0.003 C 
HETATM   16  C18 UNL     1      15.281  35.569  30.761  1.00  0.00     0.007 C 
HETATM   17  C19 UNL     1      14.795  34.351  30.090  1.00  0.00     0.011 C 
HETATM   18  C20 UNL     1      15.702  33.195  29.975  1.00  0.00    -0.030 C 
HETATM   19  C21 UNL     1      16.510  33.101  28.729  1.00  0.00     0.016 C 
ENDROOT
BRANCH   1  20
HETATM   20  C2  UNL     1      14.112  31.487  29.069  1.00  0.00     0.128 C 
HETATM   21  C1  UNL     1      14.065  30.059  28.656  1.00  0.00     0.091 C 
HETATM   22  O1  UNL     1      13.436  32.324  28.496  1.00  0.00    -0.298 OA
ENDBRANCH   1  20
BRANCH  10  23
HETATM   23  O2  UNL     1      17.730  39.632  34.607  1.00  0.00    -0.395 OA
ATOM     24  H2  UNL     1      17.104  39.856  35.286  1.00  0.00     0.210 HD
ENDBRANCH  10  23
TORSDOF 2
ENDMDL
