MODEL 7
REMARK VINA RESULT: -9.790514595      1.421      6.805
REMARK  2 active torsions:
REMARK  status: ('A' for Active; 'I' for Inactive)
REMARK    1  A    between atoms: C2_2  and  C3_4 
REMARK    2  A    between atoms: C12_13  and  O2_14 
ROOT
HETATM    1  C3  UNL     1      14.709  31.753  30.243  1.00  0.00     0.063 C 
HETATM    2  C4  UNL     1      15.250  30.783  31.274  1.00  0.00     0.013 C 
HETATM    3  C5  UNL     1      16.216  31.600  32.136  1.00  0.00     0.006 C 
HETATM    4  C6  UNL     1      16.141  32.966  31.561  1.00  0.00    -0.001 C 
HETATM    5  C7  UNL     1      17.375  33.797  31.650  1.00  0.00    -0.001 C 
HETATM    6  C8  UNL     1      17.956  33.896  33.009  1.00  0.00     0.033 C 
HETATM    7  C9  UNL     1      18.516  35.207  33.379  1.00  0.00    -0.023 C 
HETATM    8  C10 UNL     1      18.583  36.238  32.574  1.00  0.00    -0.072 C 
HETATM    9  C11 UNL     1      19.167  37.505  33.055  1.00  0.00     0.066 C 
HETATM   10  C12 UNL     1      18.060  38.534  33.083  1.00  0.00     0.122 C 
HETATM   11  C13 UNL     1      17.027  38.224  32.060  1.00  0.00     0.033 C 
HETATM   12  C14 UNL     1      17.553  37.523  30.838  1.00  0.00     0.016 C 
HETATM   13  C15 UNL     1      18.079  36.150  31.191  1.00  0.00    -0.017 C 
HETATM   14  C16 UNL     1      19.213  35.788  30.284  1.00  0.00     0.020 C 
HETATM   15  C17 UNL     1      16.932  35.175  31.137  1.00  0.00     0.003 C 
HETATM   16  C18 UNL     1      16.312  35.141  29.796  1.00  0.00     0.007 C 
HETATM   17  C19 UNL     1      15.654  33.900  29.351  1.00  0.00     0.011 C 
HETATM   18  C20 UNL     1      15.944  32.648  30.072  1.00  0.00    -0.030 C 
HETATM   19  C21 UNL     1      17.047  31.807  29.533  1.00  0.00     0.016 C 
ENDROOT
BRANCH   1  20
HETATM   20  C2  UNL     1      14.268  31.132  28.994  1.00  0.00     0.128 C 
HETATM   21  C1  UNL     1      14.297  29.647  28.905  1.00  0.00     0.091 C 
HETATM   22  O1  UNL     1      13.887  31.805  28.052  1.00  0.00    -0.298 OA
ENDBRANCH   1  20
BRANCH  10  23
HETATM   23  O2  UNL     1      18.553  39.832  33.001  1.00  0.00    -0.395 OA
ATOM     24  H2  UNL     1      18.127  40.414  33.620  1.00  0.00     0.210 HD
ENDBRANCH  10  23
TORSDOF 2
ENDMDL
