MODEL 6
REMARK VINA RESULT: -9.921821848      1.399      6.762
REMARK  2 active torsions:
REMARK  status: ('A' for Active; 'I' for Inactive)
REMARK    1  A    between atoms: C2_2  and  C3_4 
REMARK    2  A    between atoms: C12_13  and  O2_14 
ROOT
HETATM    1  C3  UNL     1      16.673  31.181  31.370  1.00  0.00     0.063 C 
HETATM    2  C4  UNL     1      17.535  31.058  30.129  1.00  0.00     0.013 C 
HETATM    3  C5  UNL     1      18.252  32.404  29.996  1.00  0.00     0.006 C 
HETATM    4  C6  UNL     1      17.776  33.181  31.169  1.00  0.00    -0.001 C 
HETATM    5  C7  UNL     1      17.688  34.659  30.998  1.00  0.00    -0.001 C 
HETATM    6  C8  UNL     1      18.923  35.297  30.488  1.00  0.00     0.033 C 
HETATM    7  C9  UNL     1      19.258  36.610  31.064  1.00  0.00    -0.023 C 
HETATM    8  C10 UNL     1      18.513  37.251  31.929  1.00  0.00    -0.072 C 
HETATM    9  C11 UNL     1      18.950  38.566  32.440  1.00  0.00     0.066 C 
HETATM   10  C12 UNL     1      19.235  38.409  33.916  1.00  0.00     0.122 C 
HETATM   11  C13 UNL     1      18.398  37.327  34.501  1.00  0.00     0.033 C 
HETATM   12  C14 UNL     1      17.065  37.141  33.831  1.00  0.00     0.016 C 
HETATM   13  C15 UNL     1      17.240  36.677  32.403  1.00  0.00    -0.017 C 
HETATM   14  C16 UNL     1      16.126  37.201  31.553  1.00  0.00     0.020 C 
HETATM   15  C17 UNL     1      17.340  35.173  32.403  1.00  0.00     0.003 C 
HETATM   16  C18 UNL     1      16.133  34.550  32.985  1.00  0.00     0.007 C 
HETATM   17  C19 UNL     1      15.746  33.201  32.534  1.00  0.00     0.011 C 
HETATM   18  C20 UNL     1      16.332  32.675  31.289  1.00  0.00    -0.030 C 
HETATM   19  C21 UNL     1      15.557  32.900  30.039  1.00  0.00     0.016 C 
ENDROOT
BRANCH   1  20
HETATM   20  C2  UNL     1      15.491  30.319  31.380  1.00  0.00     0.128 C 
HETATM   21  C1  UNL     1      15.378  29.279  30.321  1.00  0.00     0.091 C 
HETATM   22  O1  UNL     1      14.624  30.442  32.226  1.00  0.00    -0.298 OA
ENDBRANCH   1  20
BRANCH  10  23
HETATM   23  O2  UNL     1      19.137  39.617  34.596  1.00  0.00    -0.395 OA
ATOM     24  H2  UNL     1      19.908  40.159  34.472  1.00  0.00     0.210 HD
ENDBRANCH  10  23
TORSDOF 2
ENDMDL
