MODEL 3
REMARK VINA RESULT: -10.973853675      0.957      1.018
REMARK  2 active torsions:
REMARK  status: ('A' for Active; 'I' for Inactive)
REMARK    1  A    between atoms: C2_2  and  C3_4 
REMARK    2  A    between atoms: C12_13  and  O2_14 
ROOT
HETATM    1  C3  UNL     1      17.695  37.968  33.130  1.00  0.00     0.063 C 
HETATM    2  C4  UNL     1      16.857  38.914  32.293  1.00  0.00     0.013 C 
HETATM    3  C5  UNL     1      16.057  38.018  31.343  1.00  0.00     0.006 C 
HETATM    4  C6  UNL     1      16.469  36.642  31.717  1.00  0.00    -0.001 C 
HETATM    5  C7  UNL     1      16.466  35.625  30.627  1.00  0.00    -0.001 C 
HETATM    6  C8  UNL     1      15.198  35.540  29.866  1.00  0.00     0.033 C 
HETATM    7  C9  UNL     1      14.773  34.188  29.465  1.00  0.00    -0.023 C 
HETATM    8  C10 UNL     1      15.467  33.099  29.684  1.00  0.00    -0.072 C 
HETATM    9  C11 UNL     1      14.942  31.794  29.235  1.00  0.00     0.066 C 
HETATM   10  C12 UNL     1      14.651  30.972  30.470  1.00  0.00     0.122 C 
HETATM   11  C13 UNL     1      15.548  31.368  31.589  1.00  0.00     0.033 C 
HETATM   12  C14 UNL     1      16.898  31.869  31.155  1.00  0.00     0.016 C 
HETATM   13  C15 UNL     1      16.768  33.157  30.375  1.00  0.00    -0.017 C 
HETATM   14  C16 UNL     1      17.856  33.248  29.352  1.00  0.00     0.020 C 
HETATM   15  C17 UNL     1      16.764  34.304  31.352  1.00  0.00     0.003 C 
HETATM   16  C18 UNL     1      18.002  34.333  32.159  1.00  0.00     0.007 C 
HETATM   17  C19 UNL     1      18.479  35.628  32.677  1.00  0.00     0.011 C 
HETATM   18  C20 UNL     1      17.942  36.867  32.089  1.00  0.00    -0.030 C 
HETATM   19  C21 UNL     1      18.714  37.464  30.967  1.00  0.00     0.016 C 
ENDROOT
BRANCH   1  20
HETATM   20  C2  UNL     1      18.929  38.551  33.657  1.00  0.00     0.128 C 
HETATM   21  C1  UNL     1      19.161  40.005  33.442  1.00  0.00     0.091 C 
HETATM   22  O1  UNL     1      19.745  37.872  34.255  1.00  0.00    -0.298 OA
ENDBRANCH   1  20
BRANCH  10  23
HETATM   23  O2  UNL     1      14.664  29.608  30.202  1.00  0.00    -0.395 OA
ATOM     24  H2  UNL     1      15.151  29.121  30.858  1.00  0.00     0.210 HD
ENDBRANCH  10  23
TORSDOF 2
ENDMDL
