MODEL 2
REMARK VINA RESULT: -5.107585122      0.023      1.315
REMARK  3 active torsions:
REMARK  status: ('A' for Active; 'I' for Inactive)
REMARK    1  A    between atoms: N1_2  and  C2_5 
REMARK    2  A    between atoms: C2_5  and  C3_6 
REMARK    3  A    between atoms: C6_9  and  C7_10 
ROOT
HETATM    1  C3  UNL     1     -24.632  43.402  16.337  1.00  0.00    -0.033 A 
HETATM    2  C4  UNL     1     -25.608  42.573  15.829  1.00  0.00     0.009 A 
HETATM    3  C5  UNL     1     -25.574  42.105  14.521  1.00  0.00     0.017 A 
HETATM    4  C6  UNL     1     -24.537  42.480  13.710  1.00  0.00     0.047 A 
HETATM    5  C8  UNL     1     -23.542  43.307  14.176  1.00  0.00     0.017 A 
HETATM    6  C9  UNL     1     -23.602  43.763  15.497  1.00  0.00     0.009 A 
ENDROOT
BRANCH   1   7
HETATM    7  C2  UNL     1     -24.675  43.895  17.738  1.00  0.00     0.270 C 
BRANCH   7   8
HETATM    8  N1  UNL     1     -24.389  45.296  17.865  1.00  0.00    -0.075 N 
HETATM    9  C1  UNL     1     -23.333  45.435  18.859  1.00  0.00     0.267 C 
ATOM     10  H12 UNL     1     -25.214  45.853  18.081  1.00  0.00     0.277 HD
ATOM     11  H11 UNL     1     -24.159  45.737  16.975  1.00  0.00     0.277 HD
ENDBRANCH   7   8
ENDBRANCH   1   7
BRANCH   4  12
HETATM   12  C7  UNL     1     -24.481  41.985  12.304  1.00  0.00     0.417 C 
HETATM   13  F1  UNL     1     -24.598  40.620  12.310  1.00  0.00    -0.166 F 
HETATM   14  F2  UNL     1     -23.329  42.411  11.701  1.00  0.00    -0.166 F 
HETATM   15  F3  UNL     1     -25.564  42.530  11.636  1.00  0.00    -0.166 F 
ENDBRANCH   4  12
TORSDOF 3
ENDMDL
