MODEL 5
REMARK VINA RESULT: -5.095972451      2.165      2.928
REMARK  3 active torsions:
REMARK  status: ('A' for Active; 'I' for Inactive)
REMARK    1  A    between atoms: N1_2  and  C2_5 
REMARK    2  A    between atoms: C2_5  and  C3_6 
REMARK    3  A    between atoms: C6_9  and  C7_10 
ROOT
HETATM    1  C3  UNL     1     -24.757  42.122  16.365  1.00  0.00    -0.033 A 
HETATM    2  C4  UNL     1     -25.758  41.749  15.495  1.00  0.00     0.009 A 
HETATM    3  C5  UNL     1     -25.800  42.196  14.180  1.00  0.00     0.017 A 
HETATM    4  C6  UNL     1     -24.815  43.036  13.733  1.00  0.00     0.047 A 
HETATM    5  C8  UNL     1     -23.798  43.434  14.569  1.00  0.00     0.017 A 
HETATM    6  C9  UNL     1     -23.781  42.968  15.888  1.00  0.00     0.009 A 
ENDROOT
BRANCH   1   7
HETATM    7  C2  UNL     1     -24.719  41.636  17.769  1.00  0.00     0.270 C 
BRANCH   7   8
HETATM    8  N1  UNL     1     -25.013  40.238  17.902  1.00  0.00    -0.075 N 
HETATM    9  C1  UNL     1     -26.089  40.110  18.875  1.00  0.00     0.267 C 
ATOM     10  H12 UNL     1     -24.194  39.679  18.138  1.00  0.00     0.277 HD
ATOM     11  H11 UNL     1     -25.227  39.789  17.011  1.00  0.00     0.277 HD
ENDBRANCH   7   8
ENDBRANCH   1   7
BRANCH   4  12
HETATM   12  C7  UNL     1     -24.841  43.523  12.325  1.00  0.00     0.417 C 
HETATM   13  F1  UNL     1     -26.032  43.163  11.753  1.00  0.00    -0.166 F 
HETATM   14  F2  UNL     1     -23.761  43.038  11.639  1.00  0.00    -0.166 F 
HETATM   15  F3  UNL     1     -24.759  44.905  12.370  1.00  0.00    -0.166 F 
ENDBRANCH   4  12
TORSDOF 3
ENDMDL
