MODEL 3
REMARK VINA RESULT: -5.102669528      2.185      3.102
REMARK  3 active torsions:
REMARK  status: ('A' for Active; 'I' for Inactive)
REMARK    1  A    between atoms: N1_2  and  C2_5 
REMARK    2  A    between atoms: C2_5  and  C3_6 
REMARK    3  A    between atoms: C6_9  and  C7_10 
ROOT
HETATM    1  C3  UNL     1     -24.752  42.152  16.370  1.00  0.00    -0.033 A 
HETATM    2  C4  UNL     1     -25.732  41.718  15.504  1.00  0.00     0.009 A 
HETATM    3  C5  UNL     1     -25.826  42.185  14.199  1.00  0.00     0.017 A 
HETATM    4  C6  UNL     1     -24.915  43.106  13.757  1.00  0.00     0.047 A 
HETATM    5  C8  UNL     1     -23.921  43.567  14.588  1.00  0.00     0.017 A 
HETATM    6  C9  UNL     1     -23.851  43.079  15.898  1.00  0.00     0.009 A 
ENDROOT
BRANCH   1   7
HETATM    7  C2  UNL     1     -24.658  41.644  17.763  1.00  0.00     0.270 C 
BRANCH   7   8
HETATM    8  N1  UNL     1     -25.022  40.262  17.898  1.00  0.00    -0.075 N 
HETATM    9  C1  UNL     1     -26.064  40.183  18.912  1.00  0.00     0.267 C 
ATOM     10  H12 UNL     1     -24.225  39.659  18.099  1.00  0.00     0.277 HD
ATOM     11  H11 UNL     1     -25.293  39.833  17.013  1.00  0.00     0.277 HD
ENDBRANCH   7   8
ENDBRANCH   1   7
BRANCH   4  12
HETATM   12  C7  UNL     1     -24.996  43.616  12.358  1.00  0.00     0.417 C 
HETATM   13  F1  UNL     1     -24.746  44.962  12.362  1.00  0.00    -0.166 F 
HETATM   14  F2  UNL     1     -26.215  43.310  11.816  1.00  0.00    -0.166 F 
HETATM   15  F3  UNL     1     -24.008  42.974  11.632  1.00  0.00    -0.166 F 
ENDBRANCH   4  12
TORSDOF 3
ENDMDL
