MODEL 1
REMARK VINA RESULT: -5.108509863      0.000      0.000
REMARK  3 active torsions:
REMARK  status: ('A' for Active; 'I' for Inactive)
REMARK    1  A    between atoms: N1_2  and  C2_5 
REMARK    2  A    between atoms: C2_5  and  C3_6 
REMARK    3  A    between atoms: C6_9  and  C7_10 
ROOT
HETATM    1  C3  UNL     1     -24.628  43.398  16.332  1.00  0.00    -0.033 A 
HETATM    2  C4  UNL     1     -23.608  43.755  15.477  1.00  0.00     0.009 A 
HETATM    3  C5  UNL     1     -23.546  43.296  14.167  1.00  0.00     0.017 A 
HETATM    4  C6  UNL     1     -24.529  42.461  13.710  1.00  0.00     0.047 A 
HETATM    5  C8  UNL     1     -25.565  42.078  14.529  1.00  0.00     0.017 A 
HETATM    6  C9  UNL     1     -25.602  42.556  15.844  1.00  0.00     0.009 A 
ENDROOT
BRANCH   1   7
HETATM    7  C2  UNL     1     -24.688  43.897  17.730  1.00  0.00     0.270 C 
BRANCH   7   8
HETATM    8  N1  UNL     1     -24.379  45.293  17.857  1.00  0.00    -0.075 N 
HETATM    9  C1  UNL     1     -23.330  45.417  18.859  1.00  0.00     0.267 C 
ATOM     10  H12 UNL     1     -25.198  45.864  18.065  1.00  0.00     0.277 HD
ATOM     11  H11 UNL     1     -24.135  45.729  16.968  1.00  0.00     0.277 HD
ENDBRANCH   7   8
ENDBRANCH   1   7
BRANCH   4  12
HETATM   12  C7  UNL     1     -24.481  41.960  12.306  1.00  0.00     0.417 C 
HETATM   13  F1  UNL     1     -24.591  40.595  12.318  1.00  0.00    -0.166 F 
HETATM   14  F2  UNL     1     -23.336  42.389  11.692  1.00  0.00    -0.166 F 
HETATM   15  F3  UNL     1     -25.573  42.497  11.645  1.00  0.00    -0.166 F 
ENDBRANCH   4  12
TORSDOF 3
ENDMDL
