MODEL 4
REMARK VINA RESULT: -5.100507020      2.191      2.828
REMARK  3 active torsions:
REMARK  status: ('A' for Active; 'I' for Inactive)
REMARK    1  A    between atoms: N1_2  and  C2_5 
REMARK    2  A    between atoms: C2_5  and  C3_6 
REMARK    3  A    between atoms: C6_9  and  C7_10 
ROOT
HETATM    1  C3  UNL     1     -24.748  42.157  16.381  1.00  0.00    -0.033 A 
HETATM    2  C4  UNL     1     -23.841  43.071  15.891  1.00  0.00     0.009 A 
HETATM    3  C5  UNL     1     -23.910  43.557  14.591  1.00  0.00     0.017 A 
HETATM    4  C6  UNL     1     -24.911  43.115  13.770  1.00  0.00     0.047 A 
HETATM    5  C8  UNL     1     -25.837  42.201  14.217  1.00  0.00     0.017 A 
HETATM    6  C9  UNL     1     -25.743  41.729  15.531  1.00  0.00     0.009 A 
ENDROOT
BRANCH   1   7
HETATM    7  C2  UNL     1     -24.669  41.645  17.774  1.00  0.00     0.270 C 
BRANCH   7   8
HETATM    8  N1  UNL     1     -25.042  40.265  17.902  1.00  0.00    -0.075 N 
HETATM    9  C1  UNL     1     -26.064  40.184  18.936  1.00  0.00     0.267 C 
ATOM     10  H12 UNL     1     -24.247  39.652  18.080  1.00  0.00     0.277 HD
ATOM     11  H11 UNL     1     -25.335  39.848  17.018  1.00  0.00     0.277 HD
ENDBRANCH   7   8
ENDBRANCH   1   7
BRANCH   4  12
HETATM   12  C7  UNL     1     -25.004  43.628  12.373  1.00  0.00     0.417 C 
HETATM   13  F1  UNL     1     -24.746  44.973  12.377  1.00  0.00    -0.166 F 
HETATM   14  F2  UNL     1     -26.229  43.329  11.842  1.00  0.00    -0.166 F 
HETATM   15  F3  UNL     1     -24.026  42.981  11.635  1.00  0.00    -0.166 F 
ENDBRANCH   4  12
TORSDOF 3
ENDMDL
