MODEL 8
REMARK VINA RESULT: -7.449264685      1.345      1.496
REMARK  8 active torsions:
REMARK  status: ('A' for Active; 'I' for Inactive)
REMARK    1  A    between atoms: N4_10  and  C5_11 
REMARK    2  A    between atoms: C6_13  and  C7_14 
REMARK    3  A    between atoms: C7_14  and  O2_15 
REMARK    4  A    between atoms: O2_15  and  P1_16 
REMARK    5  A    between atoms: P1_16  and  O5_19 
REMARK    6  A    between atoms: O5_19  and  P2_20 
REMARK    7  A    between atoms: C8_24  and  O9_25 
REMARK    8  A    between atoms: C9_27  and  O10_28 
ROOT
HETATM    1  C5  UNL     1      -5.827 -42.638  18.067  1.00  0.00     0.262 C 
HETATM    2  O1  UNL     1      -4.615 -42.069  18.456  1.00  0.00    -0.353 OA
HETATM    3  C6  UNL     1      -3.724 -42.218  17.433  1.00  0.00     0.180 C 
HETATM    4  C8  UNL     1      -4.480 -42.217  16.131  1.00  0.00     0.182 C 
HETATM    5  C9  UNL     1      -5.914 -42.350  16.603  1.00  0.00     0.198 C 
ENDROOT
BRANCH   1   6
HETATM    6  N4  UNL     1      -6.855 -41.940  18.836  1.00  0.00    -0.297 N 
HETATM    7  C2  UNL     1      -6.816 -41.765  20.180  1.00  0.00     0.146 A 
HETATM    8  N2  UNL     1      -5.918 -42.139  21.111  1.00  0.00    -0.314 N 
HETATM    9  C3  UNL     1      -7.966 -41.062  20.502  1.00  0.00     0.146 A 
HETATM   10  C1  UNL     1      -6.155 -41.819  22.380  1.00  0.00     0.196 A 
ATOM     11  H2  UNL     1      -5.078 -42.656  20.851  1.00  0.00     0.170 HD
HETATM   12  N1  UNL     1      -5.222 -42.204  23.376  1.00  0.00    -0.063 NA
HETATM   13  N5  UNL     1      -7.261 -41.135  22.743  1.00  0.00    -0.295 N 
HETATM   14  C10 UNL     1      -8.176 -40.747  21.833  1.00  0.00     0.278 A 
ATOM     15  H5  UNL     1      -7.406 -40.907  23.726  1.00  0.00     0.171 HD
HETATM   16  O11 UNL     1      -9.223 -40.101  22.179  1.00  0.00    -0.265 OA
HETATM   17  N3  UNL     1      -8.686 -40.817  19.378  1.00  0.00    -0.345 N 
HETATM   18  C4  UNL     1      -7.990 -41.363  18.364  1.00  0.00     0.188 A 
ATOM     19  H3  UNL     1      -9.575 -40.320  19.313  1.00  0.00     0.167 HD
ENDBRANCH   1   6
BRANCH   5  20
HETATM   20  O10 UNL     1      -6.457 -43.433  15.879  1.00  0.00    -0.388 OA
ATOM     21  H10 UNL     1      -6.251 -44.270  16.279  1.00  0.00     0.210 HD
ENDBRANCH   5  20
BRANCH   3  22
HETATM   22  C7  UNL     1      -2.699 -41.121  17.374  1.00  0.00     0.216 C 
BRANCH  22  23
HETATM   23  O2  UNL     1      -2.944 -40.372  16.225  1.00  0.00    -0.287 OA
BRANCH  23  24
HETATM   24  P1  UNL     1      -2.381 -38.939  16.095  1.00  0.00     0.418 P 
HETATM   25  O3  UNL     1      -3.910 -38.380  15.822  1.00  0.00    -0.624 OA
HETATM   26  O4  UNL     1      -1.880 -39.091  17.695  1.00  0.00    -0.624 OA
BRANCH  24  27
HETATM   27  O5  UNL     1      -1.870 -37.490  16.165  1.00  0.00    -0.173 OA
BRANCH  27  28
HETATM   28  P2  UNL     1      -0.507 -36.849  15.854  1.00  0.00     0.431 P 
HETATM   29  O6  UNL     1       0.944 -36.305  15.805  1.00  0.00    -0.616 OA
HETATM   30  O7  UNL     1      -0.657 -36.119  17.349  1.00  0.00    -0.616 OA
HETATM   31  O8  UNL     1      -1.046 -36.004  14.569  1.00  0.00    -0.616 OA
ENDBRANCH  27  28
ENDBRANCH  24  27
ENDBRANCH  23  24
ENDBRANCH  22  23
ENDBRANCH   3  22
BRANCH   4  32
HETATM   32  O9  UNL     1      -4.060 -43.339  15.411  1.00  0.00    -0.390 OA
ATOM     33  H9  UNL     1      -4.346 -43.217  14.513  1.00  0.00     0.210 HD
ENDBRANCH   4  32
TORSDOF 8
ENDMDL
