MODEL 5
REMARK VINA RESULT: -7.536457406      9.685     12.575
REMARK  8 active torsions:
REMARK  status: ('A' for Active; 'I' for Inactive)
REMARK    1  A    between atoms: N4_10  and  C5_11 
REMARK    2  A    between atoms: C6_13  and  C7_14 
REMARK    3  A    between atoms: C7_14  and  O2_15 
REMARK    4  A    between atoms: O2_15  and  P1_16 
REMARK    5  A    between atoms: P1_16  and  O5_19 
REMARK    6  A    between atoms: O5_19  and  P2_20 
REMARK    7  A    between atoms: C8_24  and  O9_25 
REMARK    8  A    between atoms: C9_27  and  O10_28 
ROOT
HETATM    1  C5  UNL     1       1.133 -35.645  11.268  1.00  0.00     0.262 C 
HETATM    2  O1  UNL     1       1.429 -35.342  12.596  1.00  0.00    -0.353 OA
HETATM    3  C6  UNL     1       0.948 -36.348  13.383  1.00  0.00     0.180 C 
HETATM    4  C8  UNL     1       0.984 -37.632  12.598  1.00  0.00     0.182 C 
HETATM    5  C9  UNL     1       1.262 -37.133  11.194  1.00  0.00     0.198 C 
ENDROOT
BRANCH   1   6
HETATM    6  N4  UNL     1       2.146 -34.957  10.471  1.00  0.00    -0.297 N 
HETATM    7  C2  UNL     1       3.455 -34.863  10.816  1.00  0.00     0.146 A 
HETATM    8  N2  UNL     1       4.141 -35.322  11.880  1.00  0.00    -0.314 N 
HETATM    9  C3  UNL     1       4.061 -34.140   9.801  1.00  0.00     0.146 A 
HETATM   10  C1  UNL     1       5.444 -35.068  11.946  1.00  0.00     0.196 A 
ATOM     11  H2  UNL     1       3.673 -35.852  12.615  1.00  0.00     0.170 HD
HETATM   12  N1  UNL     1       6.185 -35.543  13.058  1.00  0.00    -0.063 NA
HETATM   13  N5  UNL     1       6.079 -34.369  10.982  1.00  0.00    -0.295 N 
HETATM   14  C10 UNL     1       5.419 -33.897   9.907  1.00  0.00     0.278 A 
ATOM     15  H5  UNL     1       7.080 -34.195  11.069  1.00  0.00     0.171 HD
HETATM   16  O11 UNL     1       6.022 -33.235   8.995  1.00  0.00    -0.265 OA
HETATM   17  N3  UNL     1       3.140 -33.805   8.861  1.00  0.00    -0.345 N 
HETATM   18  C4  UNL     1       1.970 -34.314   9.289  1.00  0.00     0.188 A 
ATOM     19  H3  UNL     1       3.301 -33.275   8.005  1.00  0.00     0.167 HD
ENDBRANCH   1   6
BRANCH   5  20
HETATM   20  O10 UNL     1       0.268 -37.712  10.377  1.00  0.00    -0.388 OA
ATOM     21  H10 UNL     1       0.628 -38.072   9.575  1.00  0.00     0.210 HD
ENDBRANCH   5  20
BRANCH   3  22
HETATM   22  C7  UNL     1       1.747 -36.552  14.640  1.00  0.00     0.216 C 
BRANCH  22  23
HETATM   23  O2  UNL     1       0.941 -36.191  15.718  1.00  0.00    -0.287 OA
BRANCH  23  24
HETATM   24  P1  UNL     1      -0.472 -36.797  15.873  1.00  0.00     0.418 P 
HETATM   25  O3  UNL     1       0.190 -38.309  15.832  1.00  0.00    -0.624 OA
HETATM   26  O4  UNL     1      -0.540 -36.016  17.363  1.00  0.00    -0.624 OA
BRANCH  24  27
HETATM   27  O5  UNL     1      -1.836 -37.410  16.230  1.00  0.00    -0.173 OA
BRANCH  27  28
HETATM   28  P2  UNL     1      -2.391 -38.841  16.144  1.00  0.00     0.431 P 
HETATM   29  O6  UNL     1      -3.066 -40.194  15.802  1.00  0.00    -0.616 OA
HETATM   30  O7  UNL     1      -3.866 -38.112  15.858  1.00  0.00    -0.616 OA
HETATM   31  O8  UNL     1      -2.045 -39.213  17.692  1.00  0.00    -0.616 OA
ENDBRANCH  27  28
ENDBRANCH  24  27
ENDBRANCH  23  24
ENDBRANCH  22  23
ENDBRANCH   3  22
BRANCH   4  32
HETATM   32  O9  UNL     1      -0.283 -38.214  12.705  1.00  0.00    -0.390 OA
ATOM     33  H9  UNL     1      -0.151 -39.138  12.883  1.00  0.00     0.210 HD
ENDBRANCH   4  32
TORSDOF 8
ENDMDL
