MODEL 3
REMARK VINA RESULT: -7.751978707      8.053     11.352
REMARK  8 active torsions:
REMARK  status: ('A' for Active; 'I' for Inactive)
REMARK    1  A    between atoms: N4_10  and  C5_11 
REMARK    2  A    between atoms: C6_13  and  C7_14 
REMARK    3  A    between atoms: C7_14  and  O2_15 
REMARK    4  A    between atoms: O2_15  and  P1_16 
REMARK    5  A    between atoms: P1_16  and  O5_19 
REMARK    6  A    between atoms: O5_19  and  P2_20 
REMARK    7  A    between atoms: C8_24  and  O9_25 
REMARK    8  A    between atoms: C9_27  and  O10_28 
ROOT
HETATM    1  C5  UNL     1       2.147 -36.129  14.812  1.00  0.00     0.262 C 
HETATM    2  O1  UNL     1       1.578 -37.370  14.529  1.00  0.00    -0.353 OA
HETATM    3  C6  UNL     1       0.472 -37.525  15.314  1.00  0.00     0.180 C 
HETATM    4  C8  UNL     1      -0.122 -36.168  15.581  1.00  0.00     0.182 C 
HETATM    5  C9  UNL     1       0.975 -35.244  15.090  1.00  0.00     0.198 C 
ENDROOT
BRANCH   1   6
HETATM    6  N4  UNL     1       2.867 -35.740  13.602  1.00  0.00    -0.297 N 
HETATM    7  C2  UNL     1       2.302 -35.658  12.371  1.00  0.00     0.146 A 
HETATM    8  N2  UNL     1       1.047 -35.888  11.938  1.00  0.00    -0.314 N 
HETATM    9  C3  UNL     1       3.318 -35.259  11.517  1.00  0.00     0.146 A 
HETATM   10  C1  UNL     1       0.787 -35.722  10.645  1.00  0.00     0.196 A 
ATOM     11  H2  UNL     1       0.316 -36.181  12.586  1.00  0.00     0.170 HD
HETATM   12  N1  UNL     1      -0.528 -35.957  10.169  1.00  0.00    -0.063 NA
HETATM   13  N5  UNL     1       1.742 -35.334   9.774  1.00  0.00    -0.295 N 
HETATM   14  C10 UNL     1       3.006 -35.097  10.178  1.00  0.00     0.278 A 
ATOM     15  H5  UNL     1       1.503 -35.217   8.790  1.00  0.00     0.171 HD
HETATM   16  O11 UNL     1       3.909 -34.731   9.352  1.00  0.00    -0.265 OA
HETATM   17  N3  UNL     1       4.471 -35.102  12.215  1.00  0.00    -0.345 N 
HETATM   18  C4  UNL     1       4.176 -35.401  13.493  1.00  0.00     0.188 A 
ATOM     19  H3  UNL     1       5.378 -34.815  11.846  1.00  0.00     0.167 HD
ENDBRANCH   1   6
BRANCH   5  20
HETATM   20  O10 UNL     1       1.226 -34.348  16.151  1.00  0.00    -0.388 OA
ATOM     21  H10 UNL     1       0.447 -34.177  16.667  1.00  0.00     0.210 HD
ENDBRANCH   5  20
BRANCH   3  22
HETATM   22  C7  UNL     1      -0.590 -38.379  14.682  1.00  0.00     0.216 C 
BRANCH  22  23
HETATM   23  O2  UNL     1      -1.809 -38.044  15.268  1.00  0.00    -0.287 OA
BRANCH  23  24
HETATM   24  P1  UNL     1      -2.650 -39.122  15.989  1.00  0.00     0.418 P 
HETATM   25  O3  UNL     1      -1.717 -38.924  17.337  1.00  0.00    -0.624 OA
HETATM   26  O4  UNL     1      -3.967 -38.090  15.794  1.00  0.00    -0.624 OA
BRANCH  24  27
HETATM   27  O5  UNL     1      -3.596 -40.037  16.784  1.00  0.00    -0.173 OA
BRANCH  27  28
HETATM   28  P2  UNL     1      -3.432 -40.816  18.100  1.00  0.00     0.431 P 
HETATM   29  O6  UNL     1      -3.008 -41.682  19.313  1.00  0.00    -0.616 OA
HETATM   30  O7  UNL     1      -3.073 -42.126  17.127  1.00  0.00    -0.616 OA
HETATM   31  O8  UNL     1      -4.988 -40.645  18.551  1.00  0.00    -0.616 OA
ENDBRANCH  27  28
ENDBRANCH  24  27
ENDBRANCH  23  24
ENDBRANCH  22  23
ENDBRANCH   3  22
BRANCH   4  32
HETATM   32  O9  UNL     1      -0.311 -36.067  16.963  1.00  0.00    -0.390 OA
ATOM     33  H9  UNL     1      -0.406 -35.143  17.164  1.00  0.00     0.210 HD
ENDBRANCH   4  32
TORSDOF 8
ENDMDL
