MODEL 1
REMARK VINA RESULT: -8.231456424      0.000      0.000
REMARK  8 active torsions:
REMARK  status: ('A' for Active; 'I' for Inactive)
REMARK    1  A    between atoms: N4_10  and  C5_11 
REMARK    2  A    between atoms: C6_13  and  C7_14 
REMARK    3  A    between atoms: C7_14  and  O2_15 
REMARK    4  A    between atoms: O2_15  and  P1_16 
REMARK    5  A    between atoms: P1_16  and  O5_19 
REMARK    6  A    between atoms: O5_19  and  P2_20 
REMARK    7  A    between atoms: C8_24  and  O9_25 
REMARK    8  A    between atoms: C9_27  and  O10_28 
ROOT
HETATM    1  C5  UNL     1      -5.316 -41.645  19.231  1.00  0.00     0.262 C 
HETATM    2  O1  UNL     1      -4.541 -40.800  18.439  1.00  0.00    -0.353 OA
HETATM    3  C6  UNL     1      -4.095 -41.511  17.363  1.00  0.00     0.180 C 
HETATM    4  C8  UNL     1      -5.110 -42.571  17.031  1.00  0.00     0.182 C 
HETATM    5  C9  UNL     1      -6.012 -42.533  18.249  1.00  0.00     0.198 C 
ENDROOT
BRANCH   1   6
HETATM    6  N4  UNL     1      -6.243 -40.774  19.950  1.00  0.00    -0.297 N 
HETATM    7  C2  UNL     1      -6.974 -41.159  21.026  1.00  0.00     0.146 A 
HETATM    8  N2  UNL     1      -7.060 -42.331  21.683  1.00  0.00    -0.314 N 
HETATM    9  C3  UNL     1      -7.710 -40.046  21.398  1.00  0.00     0.146 A 
HETATM   10  C1  UNL     1      -7.883 -42.410  22.725  1.00  0.00     0.196 A 
ATOM     11  H2  UNL     1      -6.508 -43.138  21.391  1.00  0.00     0.170 HD
HETATM   12  N1  UNL     1      -7.988 -43.635  23.432  1.00  0.00    -0.063 NA
HETATM   13  N5  UNL     1      -8.620 -41.353  23.127  1.00  0.00    -0.295 N 
HETATM   14  C10 UNL     1      -8.555 -40.169  22.488  1.00  0.00     0.278 A 
ATOM     15  H5  UNL     1      -9.239 -41.454  23.931  1.00  0.00     0.171 HD
HETATM   16  O11 UNL     1      -9.255 -39.170  22.869  1.00  0.00    -0.265 OA
HETATM   17  N3  UNL     1      -7.430 -39.009  20.568  1.00  0.00    -0.345 N 
HETATM   18  C4  UNL     1      -6.528 -39.474  19.685  1.00  0.00     0.188 A 
ATOM     19  H3  UNL     1      -7.824 -38.069  20.605  1.00  0.00     0.167 HD
ENDBRANCH   1   6
BRANCH   5  20
HETATM   20  O10 UNL     1      -6.098 -43.865  18.705  1.00  0.00    -0.388 OA
ATOM     21  H10 UNL     1      -6.737 -44.370  18.217  1.00  0.00     0.210 HD
ENDBRANCH   5  20
BRANCH   3  22
HETATM   22  C7  UNL     1      -3.891 -40.666  16.137  1.00  0.00     0.216 C 
BRANCH  22  23
HETATM   23  O2  UNL     1      -2.538 -40.339  16.066  1.00  0.00    -0.287 OA
BRANCH  23  24
HETATM   24  P1  UNL     1      -2.096 -38.859  16.011  1.00  0.00     0.418 P 
HETATM   25  O3  UNL     1      -3.662 -38.419  15.730  1.00  0.00    -0.624 OA
HETATM   26  O4  UNL     1      -1.613 -39.043  17.613  1.00  0.00    -0.624 OA
BRANCH  24  27
HETATM   27  O5  UNL     1      -1.710 -37.378  16.156  1.00  0.00    -0.173 OA
BRANCH  27  28
HETATM   28  P2  UNL     1      -0.413 -36.605  15.865  1.00  0.00     0.431 P 
HETATM   29  O6  UNL     1       0.983 -35.930  15.833  1.00  0.00    -0.616 OA
HETATM   30  O7  UNL     1      -0.622 -35.942  17.384  1.00  0.00    -0.616 OA
HETATM   31  O8  UNL     1      -1.032 -35.771  14.611  1.00  0.00    -0.616 OA
ENDBRANCH  27  28
ENDBRANCH  24  27
ENDBRANCH  23  24
ENDBRANCH  22  23
ENDBRANCH   3  22
BRANCH   4  32
HETATM   32  O9  UNL     1      -4.420 -43.783  16.930  1.00  0.00    -0.390 OA
ATOM     33  H9  UNL     1      -4.221 -44.065  17.815  1.00  0.00     0.210 HD
ENDBRANCH   4  32
TORSDOF 8
ENDMDL
