MODEL 4
REMARK VINA RESULT: -7.729550409      8.159     11.220
REMARK  8 active torsions:
REMARK  status: ('A' for Active; 'I' for Inactive)
REMARK    1  A    between atoms: N4_10  and  C5_11 
REMARK    2  A    between atoms: C6_13  and  C7_14 
REMARK    3  A    between atoms: C7_14  and  O2_15 
REMARK    4  A    between atoms: O2_15  and  P1_16 
REMARK    5  A    between atoms: P1_16  and  O5_19 
REMARK    6  A    between atoms: O5_19  and  P2_20 
REMARK    7  A    between atoms: C8_24  and  O9_25 
REMARK    8  A    between atoms: C9_27  and  O10_28 
ROOT
HETATM    1  C5  UNL     1       4.001 -35.745  13.500  1.00  0.00     0.262 C 
HETATM    2  O1  UNL     1       2.948 -35.695  14.412  1.00  0.00    -0.353 OA
HETATM    3  C6  UNL     1       1.973 -34.890  13.898  1.00  0.00     0.180 C 
HETATM    4  C8  UNL     1       2.018 -34.979  12.396  1.00  0.00     0.182 C 
HETATM    5  C9  UNL     1       3.331 -35.698  12.164  1.00  0.00     0.198 C 
ENDROOT
BRANCH   1   6
HETATM    6  N4  UNL     1       4.674 -37.019  13.743  1.00  0.00    -0.297 N 
HETATM    7  C2  UNL     1       4.031 -38.182  14.017  1.00  0.00     0.146 A 
HETATM    8  N2  UNL     1       2.723 -38.481  14.134  1.00  0.00    -0.314 N 
HETATM    9  C3  UNL     1       5.025 -39.133  14.178  1.00  0.00     0.146 A 
HETATM   10  C1  UNL     1       2.388 -39.737  14.415  1.00  0.00     0.196 A 
ATOM     11  H2  UNL     1       2.008 -37.764  14.012  1.00  0.00     0.170 HD
HETATM   12  N1  UNL     1       1.016 -40.074  14.543  1.00  0.00    -0.063 NA
HETATM   13  N5  UNL     1       3.320 -40.699  14.581  1.00  0.00    -0.295 N 
HETATM   14  C10 UNL     1       4.635 -40.428  14.468  1.00  0.00     0.278 A 
ATOM     15  H5  UNL     1       3.022 -41.651  14.795  1.00  0.00     0.171 HD
HETATM   16  O11 UNL     1       5.516 -41.340  14.627  1.00  0.00    -0.265 OA
HETATM   17  N3  UNL     1       6.244 -38.559  14.005  1.00  0.00    -0.345 N 
HETATM   18  C4  UNL     1       6.009 -37.261  13.740  1.00  0.00     0.188 A 
ATOM     19  H3  UNL     1       7.153 -39.019  14.065  1.00  0.00     0.167 HD
ENDBRANCH   1   6
BRANCH   5  20
HETATM   20  O10 UNL     1       4.045 -34.906  11.239  1.00  0.00    -0.388 OA
ATOM     21  H10 UNL     1       3.557 -34.766  10.437  1.00  0.00     0.210 HD
ENDBRANCH   5  20
BRANCH   3  22
HETATM   22  C7  UNL     1       0.590 -35.273  14.344  1.00  0.00     0.216 C 
BRANCH  22  23
HETATM   23  O2  UNL     1       0.702 -35.904  15.581  1.00  0.00    -0.287 OA
BRANCH  23  24
HETATM   24  P1  UNL     1      -0.443 -36.798  16.107  1.00  0.00     0.418 P 
HETATM   25  O3  UNL     1      -0.490 -35.898  17.490  1.00  0.00    -0.624 OA
HETATM   26  O4  UNL     1      -1.344 -36.254  14.792  1.00  0.00    -0.624 OA
BRANCH  24  27
HETATM   27  O5  UNL     1      -1.712 -37.543  16.555  1.00  0.00    -0.173 OA
BRANCH  27  28
HETATM   28  P2  UNL     1      -2.270 -38.939  16.232  1.00  0.00     0.431 P 
HETATM   29  O6  UNL     1      -2.911 -40.225  15.650  1.00  0.00    -0.616 OA
HETATM   30  O7  UNL     1      -3.681 -38.139  15.834  1.00  0.00    -0.616 OA
HETATM   31  O8  UNL     1      -2.146 -39.490  17.760  1.00  0.00    -0.616 OA
ENDBRANCH  27  28
ENDBRANCH  24  27
ENDBRANCH  23  24
ENDBRANCH  22  23
ENDBRANCH   3  22
BRANCH   4  32
HETATM   32  O9  UNL     1       2.045 -33.669  11.908  1.00  0.00    -0.390 OA
ATOM     33  H9  UNL     1       1.383 -33.611  11.229  1.00  0.00     0.210 HD
ENDBRANCH   4  32
TORSDOF 8
ENDMDL
