MODEL 4
REMARK VINA RESULT: -6.728601292      2.745      5.979
REMARK  4 active torsions:
REMARK  status: ('A' for Active; 'I' for Inactive)
REMARK    1  A    between atoms: C2_2  and  O1_3 
REMARK    2  A    between atoms: C2_2  and  C3_5 
REMARK    3  A    between atoms: C3_5  and  O2_6 
REMARK    4  A    between atoms: C3_5  and  C4_8 
ROOT
HETATM    1  C4  UNL     1       7.702  98.350  11.313  1.00  0.00     0.131 C 
HETATM    2  C5  UNL     1       8.502  99.566  10.955  1.00  0.00     0.149 C 
HETATM    3  N1  UNL     1       9.147  99.347   9.674  1.00  0.00    -0.372 N 
ATOM      4  H1  UNL     1       9.114 100.057   8.942  1.00  0.00     0.161 HD
HETATM    5  C6  UNL     1       9.823  98.119   9.470  1.00  0.00     0.136 A 
HETATM    6  N2  UNL     1      10.805  98.011   8.617  1.00  0.00    -0.315 N 
ATOM      7  H2  UNL     1      11.089  98.836   8.088  1.00  0.00     0.170 HD
HETATM    8  C7  UNL     1      11.492  96.786   8.400  1.00  0.00     0.196 A 
HETATM    9  N3  UNL     1      12.566  96.761   7.438  1.00  0.00    -0.063 NA
HETATM   10  N4  UNL     1      11.149  95.744   9.057  1.00  0.00    -0.295 N 
ATOM     11  H4  UNL     1      11.660  94.878   8.883  1.00  0.00     0.171 HD
HETATM   12  C8  UNL     1      10.092  95.718  10.022  1.00  0.00     0.278 A 
HETATM   13  O3  UNL     1       9.758  94.707  10.660  1.00  0.00    -0.265 OA
HETATM   14  C9  UNL     1       9.378  96.970  10.252  1.00  0.00     0.141 A 
HETATM   15  N5  UNL     1       8.417  97.122  11.072  1.00  0.00    -0.374 N 
ATOM     16  H5  UNL     1       8.128  96.302  11.606  1.00  0.00     0.160 HD
ENDROOT
BRANCH   1  17
HETATM   17  C3  UNL     1       7.235  98.342  12.740  1.00  0.00     0.170 C 
BRANCH  17  18
HETATM   18  C2  UNL     1       5.816  98.823  12.902  1.00  0.00     0.145 C 
HETATM   19  C1  UNL     1       5.135  99.112  11.597  1.00  0.00     0.042 C 
BRANCH  18  20
HETATM   20  O1  UNL     1       5.711  99.909  13.760  1.00  0.00    -0.393 OA
ATOM     21  H1  UNL     1       5.959  99.663  14.644  1.00  0.00     0.210 HD
ENDBRANCH  18  20
ENDBRANCH  17  18
BRANCH  17  22
HETATM   22  O2  UNL     1       8.041  99.081  13.584  1.00  0.00    -0.391 OA
ATOM     23  H2  UNL     1       8.699  98.502  13.950  1.00  0.00     0.210 HD
ENDBRANCH  17  22
ENDBRANCH   1  17
TORSDOF 4
ENDMDL
