MODEL 3
REMARK VINA RESULT: -6.730571708      2.538      6.049
REMARK  4 active torsions:
REMARK  status: ('A' for Active; 'I' for Inactive)
REMARK    1  A    between atoms: C2_2  and  O1_3 
REMARK    2  A    between atoms: C2_2  and  C3_5 
REMARK    3  A    between atoms: C3_5  and  O2_6 
REMARK    4  A    between atoms: C3_5  and  C4_8 
ROOT
HETATM    1  C4  UNL     1       8.019  97.733  13.771  1.00  0.00     0.131 C 
HETATM    2  C5  UNL     1       7.091  98.874  13.481  1.00  0.00     0.149 C 
HETATM    3  N1  UNL     1       6.908  98.982  12.046  1.00  0.00    -0.372 N 
ATOM      4  H1  UNL     1       5.977  99.084  11.642  1.00  0.00     0.161 HD
HETATM    5  C6  UNL     1       8.060  98.940  11.223  1.00  0.00     0.136 A 
HETATM    6  N2  UNL     1       8.080  99.498  10.043  1.00  0.00    -0.315 N 
ATOM      7  H2  UNL     1       7.242  99.975   9.711  1.00  0.00     0.170 HD
HETATM    8  C7  UNL     1       9.228  99.464   9.205  1.00  0.00     0.196 A 
HETATM    9  N3  UNL     1       9.158 100.109   7.917  1.00  0.00    -0.063 NA
HETATM   10  N4  UNL     1      10.286  98.870   9.607  1.00  0.00    -0.295 N 
ATOM     11  H4  UNL     1      11.096  98.862   8.987  1.00  0.00     0.171 HD
HETATM   12  C8  UNL     1      10.405  98.217  10.875  1.00  0.00     0.278 A 
HETATM   13  O3  UNL     1      11.433  97.640  11.267  1.00  0.00    -0.265 OA
HETATM   14  C9  UNL     1       9.233  98.244  11.744  1.00  0.00     0.141 A 
HETATM   15  N5  UNL     1       9.168  97.716  12.899  1.00  0.00    -0.374 N 
ATOM     16  H5  UNL     1      10.002  97.237  13.239  1.00  0.00     0.160 HD
ENDROOT
BRANCH   1  17
HETATM   17  C3  UNL     1       8.514  97.712  15.189  1.00  0.00     0.170 C 
BRANCH  17  18
HETATM   18  C2  UNL     1       7.970  98.844  16.023  1.00  0.00     0.145 C 
HETATM   19  C1  UNL     1       9.004  99.873  16.372  1.00  0.00     0.042 C 
BRANCH  18  20
HETATM   20  O1  UNL     1       7.312  98.403  17.163  1.00  0.00    -0.393 OA
ATOM     21  H1  UNL     1       6.741  97.672  16.959  1.00  0.00     0.210 HD
ENDBRANCH  18  20
ENDBRANCH  17  18
BRANCH  17  22
HETATM   22  O2  UNL     1       9.892  97.726  15.288  1.00  0.00    -0.391 OA
ATOM     23  H2  UNL     1      10.146  98.488  15.795  1.00  0.00     0.210 HD
ENDBRANCH  17  22
ENDBRANCH   1  17
TORSDOF 4
ENDMDL
