MODEL 2
REMARK VINA RESULT: -7.183935799      2.511      6.152
REMARK  4 active torsions:
REMARK  status: ('A' for Active; 'I' for Inactive)
REMARK    1  A    between atoms: C2_2  and  O1_3 
REMARK    2  A    between atoms: C2_2  and  C3_5 
REMARK    3  A    between atoms: C3_5  and  O2_6 
REMARK    4  A    between atoms: C3_5  and  C4_8 
ROOT
HETATM    1  C4  UNL     1       8.172  97.927  12.054  1.00  0.00     0.131 C 
HETATM    2  C5  UNL     1       8.772  99.255  11.701  1.00  0.00     0.149 C 
HETATM    3  N1  UNL     1       8.945  99.327  10.262  1.00  0.00    -0.372 N 
ATOM      4  H1  UNL     1       8.647 100.151   9.739  1.00  0.00     0.161 HD
HETATM    5  C6  UNL     1       9.539  98.222   9.607  1.00  0.00     0.136 A 
HETATM    6  N2  UNL     1      10.172  98.357   8.473  1.00  0.00    -0.315 N 
ATOM      7  H2  UNL     1      10.238  99.285   8.055  1.00  0.00     0.170 HD
HETATM    8  C7  UNL     1      10.773  97.257   7.802  1.00  0.00     0.196 A 
HETATM    9  N3  UNL     1      11.453  97.502   6.554  1.00  0.00    -0.063 NA
HETATM   10  N4  UNL     1      10.701  96.088   8.314  1.00  0.00    -0.295 N 
ATOM     11  H4  UNL     1      11.142  95.316   7.813  1.00  0.00     0.171 HD
HETATM   12  C8  UNL     1      10.039  95.794   9.549  1.00  0.00     0.278 A 
HETATM   13  O3  UNL     1       9.967  94.660  10.047  1.00  0.00    -0.265 OA
HETATM   14  C9  UNL     1       9.417  96.916  10.247  1.00  0.00     0.141 A 
HETATM   15  N5  UNL     1       8.791  96.832  11.351  1.00  0.00    -0.374 N 
ATOM     16  H5  UNL     1       8.722  95.907  11.777  1.00  0.00     0.160 HD
ENDROOT
BRANCH   1  17
HETATM   17  C3  UNL     1       8.222  97.622  13.524  1.00  0.00     0.170 C 
BRANCH  17  18
HETATM   18  C2  UNL     1       7.634  98.717  14.377  1.00  0.00     0.145 C 
HETATM   19  C1  UNL     1       7.761  98.454  15.849  1.00  0.00     0.042 C 
BRANCH  18  20
HETATM   20  O1  UNL     1       6.319  99.011  14.043  1.00  0.00    -0.393 OA
ATOM     21  H1  UNL     1       6.284  99.557  13.267  1.00  0.00     0.210 HD
ENDBRANCH  18  20
ENDBRANCH  17  18
BRANCH  17  22
HETATM   22  O2  UNL     1       9.497  97.353  13.984  1.00  0.00    -0.391 OA
ATOM     23  H2  UNL     1      10.022  97.059  13.249  1.00  0.00     0.210 HD
ENDBRANCH  17  22
ENDBRANCH   1  17
TORSDOF 4
ENDMDL
