MODEL 1
REMARK VINA RESULT: -7.931359114      0.000      0.000
REMARK  4 active torsions:
REMARK  status: ('A' for Active; 'I' for Inactive)
REMARK    1  A    between atoms: C2_2  and  O1_3 
REMARK    2  A    between atoms: C2_2  and  C3_5 
REMARK    3  A    between atoms: C3_5  and  O2_6 
REMARK    4  A    between atoms: C3_5  and  C4_8 
ROOT
HETATM    1  C4  UNL     1       9.645  97.198  10.806  1.00  0.00     0.131 C 
HETATM    2  C5  UNL     1      10.836  97.367  11.700  1.00  0.00     0.149 C 
HETATM    3  N1  UNL     1      10.454  97.042  13.062  1.00  0.00    -0.372 N 
ATOM      4  H1  UNL     1      11.032  96.429  13.637  1.00  0.00     0.161 HD
HETATM    5  C6  UNL     1       9.256  97.602  13.569  1.00  0.00     0.136 A 
HETATM    6  N2  UNL     1       9.075  97.790  14.848  1.00  0.00    -0.315 N 
ATOM      7  H2  UNL     1       9.819  97.526  15.494  1.00  0.00     0.170 HD
HETATM    8  C7  UNL     1       7.878  98.350  15.372  1.00  0.00     0.196 A 
HETATM    9  N3  UNL     1       7.767  98.521  16.800  1.00  0.00    -0.063 NA
HETATM   10  N4  UNL     1       6.936  98.688  14.576  1.00  0.00    -0.295 N 
ATOM     11  H4  UNL     1       6.089  99.088  14.979  1.00  0.00     0.171 HD
HETATM   12  C8  UNL     1       6.999  98.539  13.154  1.00  0.00     0.278 A 
HETATM   13  O3  UNL     1       6.085  98.866  12.380  1.00  0.00    -0.265 OA
HETATM   14  C9  UNL     1       8.222  97.964  12.604  1.00  0.00     0.141 A 
HETATM   15  N5  UNL     1       8.443  97.764  11.367  1.00  0.00    -0.374 N 
ATOM     16  H5  UNL     1       7.704  98.026  10.715  1.00  0.00     0.160 HD
ENDROOT
BRANCH   1  17
HETATM   17  C3  UNL     1       9.838  97.786   9.438  1.00  0.00     0.170 C 
BRANCH  17  18
HETATM   18  C2  UNL     1      10.665  96.912   8.529  1.00  0.00     0.145 C 
HETATM   19  C1  UNL     1      10.983  97.560   7.214  1.00  0.00     0.042 C 
BRANCH  18  20
HETATM   20  O1  UNL     1      10.106  95.657   8.335  1.00  0.00    -0.393 OA
ATOM     21  H1  UNL     1      10.441  95.038   8.974  1.00  0.00     0.210 HD
ENDBRANCH  18  20
ENDBRANCH  17  18
BRANCH  17  22
HETATM   22  O2  UNL     1      10.403  99.046   9.458  1.00  0.00    -0.391 OA
ATOM     23  H2  UNL     1       9.707  99.686   9.372  1.00  0.00     0.210 HD
ENDBRANCH  17  22
ENDBRANCH   1  17
TORSDOF 4
ENDMDL
