MODEL 3
REMARK VINA RESULT: -5.945412075      2.164      5.970
REMARK  2 active torsions:
REMARK  status: ('A' for Active; 'I' for Inactive)
REMARK    1  A    between atoms: C4_8  and  C5_9 
REMARK    2  A    between atoms: C5_9  and  N3_10 
ROOT
HETATM    1  N3  UNL     1       8.045  -8.175  -0.503  1.00  0.00     0.098 N 
HETATM    2  C6  UNL     1       7.184  -9.267  -0.108  1.00  0.00     0.278 C 
HETATM    3  C7  UNL     1       5.728  -8.960  -0.348  1.00  0.00     0.069 C 
HETATM    4  C8  UNL     1       5.565  -8.694  -1.803  1.00  0.00    -0.049 A 
HETATM    5  C9  UNL     1       4.363  -8.948  -2.421  1.00  0.00     0.007 A 
HETATM    6  C10 UNL     1       4.233  -8.694  -3.770  1.00  0.00     0.001 A 
HETATM    7  C11 UNL     1       5.285  -8.196  -4.498  1.00  0.00     0.001 A 
HETATM    8  C12 UNL     1       6.472  -7.956  -3.840  1.00  0.00     0.009 A 
HETATM    9  C13 UNL     1       6.636  -8.200  -2.485  1.00  0.00    -0.024 A 
HETATM   10  C14 UNL     1       7.958  -7.900  -1.904  1.00  0.00     0.312 C 
ENDROOT
BRANCH   1  11
HETATM   11  C5  UNL     1       7.782  -6.974   0.262  1.00  0.00     0.331 C 
BRANCH  11  12
HETATM   12  C4  UNL     1       9.071  -6.218   0.389  1.00  0.00     0.061 A 
HETATM   13  C2  UNL     1       9.198  -4.845   0.368  1.00  0.00     0.030 A 
HETATM   14  C1  UNL     1       8.086  -3.849   0.215  1.00  0.00     0.070 C 
HETATM   15  N1  UNL     1      10.493  -4.519   0.507  1.00  0.00    -0.354 N 
HETATM   16  C3  UNL     1      11.159  -5.679   0.613  1.00  0.00     0.180 A 
ATOM     17  H1  UNL     1      10.890  -3.581   0.527  1.00  0.00     0.166 HD
HETATM   18  N2  UNL     1      10.306  -6.706   0.543  1.00  0.00    -0.353 N 
ATOM     19  H2  UNL     1      10.554  -7.694   0.597  1.00  0.00     0.166 HD
ENDBRANCH  11  12
ENDBRANCH   1  11
TORSDOF 2
ENDMDL
