MODEL 1
REMARK VINA RESULT: -6.304588242      0.000      0.000
REMARK  2 active torsions:
REMARK  status: ('A' for Active; 'I' for Inactive)
REMARK    1  A    between atoms: C4_8  and  C5_9 
REMARK    2  A    between atoms: C5_9  and  N3_10 
ROOT
HETATM    1  N3  UNL     1       8.405  -5.992  -0.289  1.00  0.00     0.098 N 
HETATM    2  C6  UNL     1       9.169  -5.619   0.880  1.00  0.00     0.278 C 
HETATM    3  C7  UNL     1      10.654  -5.687   0.636  1.00  0.00     0.069 C 
HETATM    4  C8  UNL     1      10.964  -4.757  -0.482  1.00  0.00    -0.049 A 
HETATM    5  C9  UNL     1      12.204  -4.167  -0.567  1.00  0.00     0.007 A 
HETATM    6  C10 UNL     1      12.470  -3.308  -1.612  1.00  0.00     0.001 A 
HETATM    7  C11 UNL     1      11.517  -3.037  -2.562  1.00  0.00     0.001 A 
HETATM    8  C12 UNL     1      10.288  -3.650  -2.440  1.00  0.00     0.009 A 
HETATM    9  C13 UNL     1       9.987  -4.518  -1.402  1.00  0.00    -0.024 A 
HETATM   10  C14 UNL     1       8.635  -5.106  -1.388  1.00  0.00     0.312 C 
ENDROOT
BRANCH   1  11
HETATM   11  C5  UNL     1       8.659  -7.361  -0.687  1.00  0.00     0.331 C 
BRANCH  11  12
HETATM   12  C4  UNL     1       7.334  -8.047  -0.849  1.00  0.00     0.061 A 
HETATM   13  C2  UNL     1       6.567  -8.555   0.178  1.00  0.00     0.030 A 
HETATM   14  C1  UNL     1       6.901  -8.525   1.641  1.00  0.00     0.070 C 
HETATM   15  N1  UNL     1       5.450  -9.096  -0.333  1.00  0.00    -0.354 N 
HETATM   16  C3  UNL     1       5.526  -8.923  -1.661  1.00  0.00     0.180 A 
ATOM     17  H1  UNL     1       4.696  -9.548   0.184  1.00  0.00     0.166 HD
HETATM   18  N2  UNL     1       6.661  -8.290  -1.977  1.00  0.00    -0.353 N 
ATOM     19  H2  UNL     1       6.961  -8.036  -2.918  1.00  0.00     0.166 HD
ENDBRANCH  11  12
ENDBRANCH   1  11
TORSDOF 2
ENDMDL
