MODEL 2
REMARK VINA RESULT: -6.148006646      0.904      1.531
REMARK  2 active torsions:
REMARK  status: ('A' for Active; 'I' for Inactive)
REMARK    1  A    between atoms: C4_8  and  C5_9 
REMARK    2  A    between atoms: C5_9  and  N3_10 
ROOT
HETATM    1  N3  UNL     1       8.616  -5.887  -0.303  1.00  0.00     0.098 N 
HETATM    2  C6  UNL     1       9.431  -5.556   0.844  1.00  0.00     0.278 C 
HETATM    3  C7  UNL     1      10.904  -5.620   0.535  1.00  0.00     0.069 C 
HETATM    4  C8  UNL     1      11.169  -4.652  -0.563  1.00  0.00    -0.049 A 
HETATM    5  C9  UNL     1      12.406  -4.062  -0.680  1.00  0.00     0.007 A 
HETATM    6  C10 UNL     1      12.630  -3.167  -1.706  1.00  0.00     0.001 A 
HETATM    7  C11 UNL     1      11.638  -2.861  -2.603  1.00  0.00     0.001 A 
HETATM    8  C12 UNL     1      10.414  -3.475  -2.450  1.00  0.00     0.009 A 
HETATM    9  C13 UNL     1      10.155  -4.378  -1.431  1.00  0.00    -0.024 A 
HETATM   10  C14 UNL     1       8.802  -4.963  -1.379  1.00  0.00     0.312 C 
ENDROOT
BRANCH   1  11
HETATM   11  C5  UNL     1       8.847  -7.242  -0.759  1.00  0.00     0.331 C 
BRANCH  11  12
HETATM   12  C4  UNL     1       7.518  -7.933  -0.839  1.00  0.00     0.061 A 
HETATM   13  C2  UNL     1       6.843  -8.234  -2.003  1.00  0.00     0.030 A 
HETATM   14  C1  UNL     1       7.298  -7.932  -3.401  1.00  0.00     0.070 C 
HETATM   15  N1  UNL     1       5.691  -8.850  -1.698  1.00  0.00    -0.354 N 
HETATM   16  C3  UNL     1       5.655  -8.930  -0.359  1.00  0.00     0.180 A 
ATOM     17  H1  UNL     1       4.985  -9.189  -2.351  1.00  0.00     0.166 HD
HETATM   18  N2  UNL     1       6.755  -8.378   0.163  1.00  0.00    -0.353 N 
ATOM     19  H2  UNL     1       6.974  -8.309   1.157  1.00  0.00     0.166 HD
ENDBRANCH  11  12
ENDBRANCH   1  11
TORSDOF 2
ENDMDL
