MODEL 5
REMARK VINA RESULT: -5.630049982      3.535      5.004
REMARK  2 active torsions:
REMARK  status: ('A' for Active; 'I' for Inactive)
REMARK    1  A    between atoms: C4_8  and  C5_9 
REMARK    2  A    between atoms: C5_9  and  N3_10 
ROOT
HETATM    1  N3  UNL     1       6.742  -8.524  -1.110  1.00  0.00    -0.403 N 
HETATM    2  C6  UNL     1       6.834  -8.659   0.347  1.00  0.00     0.122 C 
HETATM    3  C7  UNL     1       8.151  -8.213   0.875  1.00  0.00     0.058 C 
HETATM    4  C8  UNL     1       8.233  -6.797   0.397  1.00  0.00    -0.047 A 
HETATM    5  C9  UNL     1       8.390  -5.730   1.217  1.00  0.00     0.008 A 
HETATM    6  C10 UNL     1       8.504  -4.467   0.640  1.00  0.00     0.002 A 
HETATM    7  C11 UNL     1       8.461  -4.335  -0.724  1.00  0.00     0.027 A 
HETATM    8  C12 UNL     1       8.299  -5.443  -1.554  1.00  0.00     0.054 A 
HETATM    9  N4  UNL     1       8.353  -5.307  -2.961  1.00  0.00    -0.102 NA
HETATM   10  C13 UNL     1       8.182  -6.666  -0.965  1.00  0.00    -0.010 A 
HETATM   11  C14 UNL     1       7.813  -7.915  -1.773  1.00  0.00     0.158 C 
ENDROOT
BRANCH   1  12
HETATM   12  C5  UNL     1       6.106  -9.722  -1.524  1.00  0.00     0.176 C 
BRANCH  12  13
HETATM   13  C4  UNL     1       4.966  -9.480  -2.455  1.00  0.00     0.050 A 
HETATM   14  C2  UNL     1       5.120  -9.582  -3.818  1.00  0.00     0.030 A 
HETATM   15  C1  UNL     1       6.278 -10.174  -4.544  1.00  0.00     0.070 C 
HETATM   16  N1  UNL     1       4.002  -9.154  -4.415  1.00  0.00    -0.354 N 
HETATM   17  C3  UNL     1       3.136  -8.789  -3.404  1.00  0.00     0.180 A 
ATOM     18  H1  UNL     1       3.825  -9.106  -5.419  1.00  0.00     0.166 HD
HETATM   19  N2  UNL     1       3.754  -8.999  -2.253  1.00  0.00    -0.353 N 
ATOM     20  H2  UNL     1       3.349  -8.814  -1.336  1.00  0.00     0.166 HD
ENDBRANCH  12  13
ENDBRANCH   1  12
TORSDOF 2
ENDMDL
