MODEL 4
REMARK VINA RESULT: -5.671338402      3.903      7.496
REMARK  2 active torsions:
REMARK  status: ('A' for Active; 'I' for Inactive)
REMARK    1  A    between atoms: C4_8  and  C5_9 
REMARK    2  A    between atoms: C5_9  and  N3_10 
ROOT
HETATM    1  N3  UNL     1      14.995  -2.416   0.023  1.00  0.00    -0.403 N 
HETATM    2  C6  UNL     1      14.939  -1.584  -1.182  1.00  0.00     0.122 C 
HETATM    3  C7  UNL     1      14.569  -2.363  -2.393  1.00  0.00     0.058 C 
HETATM    4  C8  UNL     1      13.248  -2.954  -2.012  1.00  0.00    -0.047 A 
HETATM    5  C9  UNL     1      12.103  -2.759  -2.709  1.00  0.00     0.008 A 
HETATM    6  C10 UNL     1      10.950  -3.410  -2.275  1.00  0.00     0.002 A 
HETATM    7  C11 UNL     1      11.000  -4.223  -1.173  1.00  0.00     0.027 A 
HETATM    8  C12 UNL     1      12.187  -4.414  -0.468  1.00  0.00     0.054 A 
HETATM    9  N4  UNL     1      12.250  -5.331   0.608  1.00  0.00    -0.102 NA
HETATM   10  C13 UNL     1      13.299  -3.761  -0.907  1.00  0.00    -0.010 A 
HETATM   11  C14 UNL     1      14.599  -3.753  -0.096  1.00  0.00     0.158 C 
ENDROOT
BRANCH   1  12
HETATM   12  C5  UNL     1      16.162  -1.971   0.692  1.00  0.00     0.176 C 
BRANCH  12  13
HETATM   13  C4  UNL     1      16.034  -2.025   2.177  1.00  0.00     0.050 A 
HETATM   14  C2  UNL     1      16.016  -0.879   2.937  1.00  0.00     0.030 A 
HETATM   15  C1  UNL     1      15.855   0.518   2.444  1.00  0.00     0.070 C 
HETATM   16  N1  UNL     1      16.063  -1.214   4.231  1.00  0.00    -0.354 N 
HETATM   17  C3  UNL     1      16.101  -2.593   4.274  1.00  0.00     0.180 A 
ATOM     18  H1  UNL     1      16.071  -0.576   5.028  1.00  0.00     0.166 HD
HETATM   19  N2  UNL     1      16.083  -3.033   3.027  1.00  0.00    -0.353 N 
ATOM     20  H2  UNL     1      16.104  -4.016   2.759  1.00  0.00     0.166 HD
ENDBRANCH  12  13
ENDBRANCH   1  12
TORSDOF 2
ENDMDL
