MODEL 2
REMARK VINA RESULT: -5.819156953      1.633      2.403
REMARK  2 active torsions:
REMARK  status: ('A' for Active; 'I' for Inactive)
REMARK    1  A    between atoms: C4_8  and  C5_9 
REMARK    2  A    between atoms: C5_9  and  N3_10 
ROOT
HETATM    1  N3  UNL     1       9.366  -6.490  -0.494  1.00  0.00    -0.403 N 
HETATM    2  C6  UNL     1       8.464  -5.890  -1.481  1.00  0.00     0.122 C 
HETATM    3  C7  UNL     1       8.438  -4.406  -1.396  1.00  0.00     0.058 C 
HETATM    4  C8  UNL     1       9.875  -4.040  -1.596  1.00  0.00    -0.047 A 
HETATM    5  C9  UNL     1      10.317  -3.223  -2.584  1.00  0.00     0.008 A 
HETATM    6  C10 UNL     1      11.676  -2.921  -2.628  1.00  0.00     0.002 A 
HETATM    7  C11 UNL     1      12.522  -3.444  -1.684  1.00  0.00     0.027 A 
HETATM    8  C12 UNL     1      12.051  -4.282  -0.675  1.00  0.00     0.054 A 
HETATM    9  N4  UNL     1      12.914  -4.737   0.349  1.00  0.00    -0.102 NA
HETATM   10  C13 UNL     1      10.719  -4.569  -0.658  1.00  0.00    -0.010 A 
HETATM   11  C14 UNL     1      10.137  -5.623   0.289  1.00  0.00     0.158 C 
ENDROOT
BRANCH   1  12
HETATM   12  C5  UNL     1       8.640  -7.603   0.001  1.00  0.00     0.176 C 
BRANCH  12  13
HETATM   13  C4  UNL     1       8.289  -8.585  -1.065  1.00  0.00     0.050 A 
HETATM   14  C2  UNL     1       7.041  -9.158  -1.129  1.00  0.00     0.030 A 
HETATM   15  C1  UNL     1       5.825  -8.736  -0.380  1.00  0.00     0.070 C 
HETATM   16  N1  UNL     1       7.049 -10.116  -2.063  1.00  0.00    -0.354 N 
HETATM   17  C3  UNL     1       8.322 -10.128  -2.595  1.00  0.00     0.180 A 
ATOM     18  H1  UNL     1       6.268 -10.717  -2.329  1.00  0.00     0.166 HD
HETATM   19  N2  UNL     1       9.027  -9.201  -1.969  1.00  0.00    -0.353 N 
ATOM     20  H2  UNL     1      10.006  -8.991  -2.159  1.00  0.00     0.166 HD
ENDBRANCH  12  13
ENDBRANCH   1  12
TORSDOF 2
ENDMDL
