MODEL 3
REMARK VINA RESULT: -5.107454543      5.448      8.808
REMARK  9 active torsions:
REMARK  status: ('A' for Active; 'I' for Inactive)
REMARK    1  A    between atoms: O1_1  and  C1_3 
REMARK    2  A    between atoms: C2_4  and  O2_5 
REMARK    3  A    between atoms: C3_7  and  O3_8 
REMARK    4  A    between atoms: O3_8  and  P1_9 
REMARK    5  A    between atoms: C4_13  and  O7_14 
REMARK    6  A    between atoms: C5_16  and  O8_17 
REMARK    7  A    between atoms: O8_17  and  P2_18 
REMARK    8  A    between atoms: C6_22  and  O12_23 
REMARK    9  A    between atoms: O12_23  and  P3_24 
ROOT
HETATM    1  C1  UNL     1       6.093  -0.333  40.890  1.00  0.00     0.181 C 
HETATM    2  C2  UNL     1       5.804   0.389  42.160  1.00  0.00     0.181 C 
HETATM    3  C3  UNL     1       5.372   1.819  41.969  1.00  0.00     0.198 C 
HETATM    4  C4  UNL     1       6.304   2.538  41.021  1.00  0.00     0.182 C 
HETATM    5  C5  UNL     1       6.452   1.804  39.714  1.00  0.00     0.199 C 
HETATM    6  C6  UNL     1       7.036   0.425  39.974  1.00  0.00     0.199 C 
ENDROOT
BRANCH   3   7
HETATM    7  O3  UNL     1       5.442   2.438  43.215  1.00  0.00    -0.272 OA
BRANCH   7   8
HETATM    8  P1  UNL     1       4.114   2.705  43.948  1.00  0.00     0.422 P 
HETATM    9  O4  UNL     1       2.743   3.009  44.575  1.00  0.00    -0.617 OA
HETATM   10  O5  UNL     1       4.754   2.259  45.407  1.00  0.00    -0.617 OA
HETATM   11  O6  UNL     1       4.268   4.302  43.489  1.00  0.00    -0.617 OA
ENDBRANCH   7   8
ENDBRANCH   3   7
BRANCH   2  12
HETATM   12  O2  UNL     1       6.881   0.312  43.057  1.00  0.00    -0.390 OA
ATOM     13  H2  UNL     1       7.713   0.258  42.602  1.00  0.00     0.210 HD
ENDBRANCH   2  12
BRANCH   4  14
HETATM   14  O7  UNL     1       5.856   3.812  40.771  1.00  0.00    -0.390 OA
ATOM     15  H7  UNL     1       6.564   4.440  40.856  1.00  0.00     0.210 HD
ENDBRANCH   4  14
BRANCH   1  16
HETATM   16  O1  UNL     1       6.753  -1.533  41.231  1.00  0.00    -0.390 OA
ATOM     17  H1  UNL     1       6.935  -1.995  40.421  1.00  0.00     0.210 HD
ENDBRANCH   1  16
BRANCH   5  18
HETATM   18  O8  UNL     1       7.250   2.528  38.880  1.00  0.00    -0.272 OA
BRANCH  18  19
HETATM   19  P2  UNL     1       6.567   2.838  37.409  1.00  0.00     0.422 P 
HETATM   20  O9  UNL     1       7.838   3.499  36.882  1.00  0.00    -0.617 OA
HETATM   21  O10 UNL     1       6.730   1.673  36.190  1.00  0.00    -0.617 OA
HETATM   22  O11 UNL     1       5.554   4.074  37.168  1.00  0.00    -0.617 OA
ENDBRANCH  18  19
ENDBRANCH   5  18
BRANCH   6  23
HETATM   23  O12 UNL     1       7.110  -0.275  38.802  1.00  0.00    -0.272 OA
BRANCH  23  24
HETATM   24  P3  UNL     1       8.672  -0.661  38.481  1.00  0.00     0.422 P 
HETATM   25  O13 UNL     1       9.150  -0.211  39.866  1.00  0.00    -0.617 OA
HETATM   26  O14 UNL     1       8.278  -1.110  37.072  1.00  0.00    -0.617 OA
HETATM   27  O15 UNL     1       9.655   0.528  37.838  1.00  0.00    -0.617 OA
ENDBRANCH  23  24
ENDBRANCH   6  23
TORSDOF 9
ENDMDL
