MODEL 2
REMARK VINA RESULT: -5.226697492      2.635      6.059
REMARK  9 active torsions:
REMARK  status: ('A' for Active; 'I' for Inactive)
REMARK    1  A    between atoms: O1_1  and  C1_3 
REMARK    2  A    between atoms: C2_4  and  O2_5 
REMARK    3  A    between atoms: C3_7  and  O3_8 
REMARK    4  A    between atoms: O3_8  and  P1_9 
REMARK    5  A    between atoms: C4_13  and  O7_14 
REMARK    6  A    between atoms: C5_16  and  O8_17 
REMARK    7  A    between atoms: O8_17  and  P2_18 
REMARK    8  A    between atoms: C6_22  and  O12_23 
REMARK    9  A    between atoms: O12_23  and  P3_24 
ROOT
HETATM    1  C1  UNL     1       8.983   0.698  41.903  1.00  0.00     0.181 C 
HETATM    2  C2  UNL     1       8.027   1.406  41.006  1.00  0.00     0.181 C 
HETATM    3  C3  UNL     1       8.388   1.335  39.546  1.00  0.00     0.198 C 
HETATM    4  C4  UNL     1       9.843   1.684  39.336  1.00  0.00     0.182 C 
HETATM    5  C5  UNL     1      10.753   0.843  40.193  1.00  0.00     0.199 C 
HETATM    6  C6  UNL     1      10.429   1.084  41.658  1.00  0.00     0.199 C 
ENDROOT
BRANCH   3   7
HETATM    7  O3  UNL     1       7.605   2.278  38.884  1.00  0.00    -0.272 OA
BRANCH   7   8
HETATM    8  P1  UNL     1       7.090   1.911  37.480  1.00  0.00     0.422 P 
HETATM    9  O4  UNL     1       6.690   1.544  36.041  1.00  0.00    -0.617 OA
HETATM   10  O5  UNL     1       5.511   1.996  37.965  1.00  0.00    -0.617 OA
HETATM   11  O6  UNL     1       7.810   3.313  36.931  1.00  0.00    -0.617 OA
ENDBRANCH   7   8
ENDBRANCH   3   7
BRANCH   2  12
HETATM   12  O2  UNL     1       7.832   2.737  41.405  1.00  0.00    -0.390 OA
ATOM     13  H2  UNL     1       8.061   2.867  42.318  1.00  0.00     0.210 HD
ENDBRANCH   2  12
BRANCH   4  14
HETATM   14  O7  UNL     1      10.196   1.526  38.018  1.00  0.00    -0.390 OA
ATOM     15  H7  UNL     1      11.087   1.204  37.945  1.00  0.00     0.210 HD
ENDBRANCH   4  14
BRANCH   1  16
HETATM   16  O1  UNL     1       8.687   1.092  43.225  1.00  0.00    -0.390 OA
ATOM     17  H1  UNL     1       7.792   0.829  43.404  1.00  0.00     0.210 HD
ENDBRANCH   1  16
BRANCH   5  18
HETATM   18  O8  UNL     1      12.049   1.158  39.915  1.00  0.00    -0.272 OA
BRANCH  18  19
HETATM   19  P2  UNL     1      12.910  -0.089  39.258  1.00  0.00     0.422 P 
HETATM   20  O9  UNL     1      13.072   0.635  37.924  1.00  0.00    -0.617 OA
HETATM   21  O10 UNL     1      14.596  -0.068  39.415  1.00  0.00    -0.617 OA
HETATM   22  O11 UNL     1      12.202  -1.430  38.700  1.00  0.00    -0.617 OA
ENDBRANCH  18  19
ENDBRANCH   5  18
BRANCH   6  23
HETATM   23  O12 UNL     1      11.202   0.274  42.442  1.00  0.00    -0.272 OA
BRANCH  23  24
HETATM   24  P3  UNL     1      11.931   1.162  43.614  1.00  0.00     0.422 P 
HETATM   25  O13 UNL     1      12.383  -0.082  44.385  1.00  0.00    -0.617 OA
HETATM   26  O14 UNL     1      11.496   2.452  42.914  1.00  0.00    -0.617 OA
HETATM   27  O15 UNL     1      11.027   1.576  44.957  1.00  0.00    -0.617 OA
ENDBRANCH  23  24
ENDBRANCH   6  23
TORSDOF 9
ENDMDL
