MODEL 1
REMARK VINA RESULT: -5.393901180      0.000      0.000
REMARK  9 active torsions:
REMARK  status: ('A' for Active; 'I' for Inactive)
REMARK    1  A    between atoms: O1_1  and  C1_3 
REMARK    2  A    between atoms: C2_4  and  O2_5 
REMARK    3  A    between atoms: C3_7  and  O3_8 
REMARK    4  A    between atoms: O3_8  and  P1_9 
REMARK    5  A    between atoms: C4_13  and  O7_14 
REMARK    6  A    between atoms: C5_16  and  O8_17 
REMARK    7  A    between atoms: O8_17  and  P2_18 
REMARK    8  A    between atoms: C6_22  and  O12_23 
REMARK    9  A    between atoms: O12_23  and  P3_24 
ROOT
HETATM    1  C1  UNL     1      11.710   0.328  39.036  1.00  0.00     0.181 C 
HETATM    2  C2  UNL     1      12.735   0.787  38.058  1.00  0.00     0.181 C 
HETATM    3  C3  UNL     1      13.866   1.568  38.674  1.00  0.00     0.198 C 
HETATM    4  C4  UNL     1      13.336   2.639  39.598  1.00  0.00     0.182 C 
HETATM    5  C5  UNL     1      12.398   2.076  40.633  1.00  0.00     0.199 C 
HETATM    6  C6  UNL     1      11.206   1.439  39.938  1.00  0.00     0.199 C 
ENDROOT
BRANCH   3   7
HETATM    7  O3  UNL     1      14.555   2.181  37.631  1.00  0.00    -0.272 OA
BRANCH   7   8
HETATM    8  P1  UNL     1      15.879   1.534  37.180  1.00  0.00     0.422 P 
HETATM    9  O4  UNL     1      17.203   0.833  36.837  1.00  0.00    -0.617 OA
HETATM   10  O5  UNL     1      15.874   2.367  35.751  1.00  0.00    -0.617 OA
HETATM   11  O6  UNL     1      16.597   2.262  38.500  1.00  0.00    -0.617 OA
ENDBRANCH   7   8
ENDBRANCH   3   7
BRANCH   2  12
HETATM   12  O2  UNL     1      12.156   1.504  37.000  1.00  0.00    -0.390 OA
ATOM     13  H2  UNL     1      11.800   0.925  36.336  1.00  0.00     0.210 HD
ENDBRANCH   2  12
BRANCH   4  14
HETATM   14  O7  UNL     1      14.367   3.287  40.234  1.00  0.00    -0.390 OA
ATOM     15  H7  UNL     1      14.344   3.120  41.169  1.00  0.00     0.210 HD
ENDBRANCH   4  14
BRANCH   1  16
HETATM   16  O1  UNL     1      10.594  -0.118  38.297  1.00  0.00    -0.390 OA
ATOM     17  H1  UNL     1      10.772  -1.012  38.029  1.00  0.00     0.210 HD
ENDBRANCH   1  16
BRANCH   5  18
HETATM   18  O8  UNL     1      12.004   3.074  41.473  1.00  0.00    -0.272 OA
BRANCH  18  19
HETATM   19  P2  UNL     1      12.750   3.037  42.946  1.00  0.00     0.422 P 
HETATM   20  O9  UNL     1      13.466   4.361  42.693  1.00  0.00    -0.617 OA
HETATM   21  O10 UNL     1      11.968   3.770  44.257  1.00  0.00    -0.617 OA
HETATM   22  O11 UNL     1      14.054   2.128  43.232  1.00  0.00    -0.617 OA
ENDBRANCH  18  19
ENDBRANCH   5  18
BRANCH   6  23
HETATM   23  O12 UNL     1      10.382   0.863  40.866  1.00  0.00    -0.272 OA
BRANCH  23  24
HETATM   24  P3  UNL     1       8.827   1.299  40.577  1.00  0.00     0.422 P 
HETATM   25  O13 UNL     1       8.476  -0.062  39.968  1.00  0.00    -0.617 OA
HETATM   26  O14 UNL     1       9.104   2.691  41.150  1.00  0.00    -0.617 OA
HETATM   27  O15 UNL     1       8.467   1.973  39.090  1.00  0.00    -0.617 OA
ENDBRANCH  23  24
ENDBRANCH   6  23
TORSDOF 9
ENDMDL
