MODEL 4
REMARK VINA RESULT: -5.011292171      1.644      5.620
REMARK  9 active torsions:
REMARK  status: ('A' for Active; 'I' for Inactive)
REMARK    1  A    between atoms: O1_1  and  C1_3 
REMARK    2  A    between atoms: C2_4  and  O2_5 
REMARK    3  A    between atoms: C3_7  and  O3_8 
REMARK    4  A    between atoms: O3_8  and  P1_9 
REMARK    5  A    between atoms: C4_13  and  O7_14 
REMARK    6  A    between atoms: C5_16  and  O8_17 
REMARK    7  A    between atoms: O8_17  and  P2_18 
REMARK    8  A    between atoms: C6_22  and  O12_23 
REMARK    9  A    between atoms: O12_23  and  P3_24 
ROOT
HETATM    1  C1  UNL     1      11.912   1.766  42.376  1.00  0.00     0.181 C 
HETATM    2  C2  UNL     1      10.834   1.898  41.357  1.00  0.00     0.181 C 
HETATM    3  C3  UNL     1      11.278   1.594  39.950  1.00  0.00     0.198 C 
HETATM    4  C4  UNL     1      12.562   2.321  39.624  1.00  0.00     0.182 C 
HETATM    5  C5  UNL     1      13.640   2.042  40.639  1.00  0.00     0.199 C 
HETATM    6  C6  UNL     1      13.178   2.516  42.007  1.00  0.00     0.199 C 
ENDROOT
BRANCH   3   7
HETATM    7  O3  UNL     1      10.278   2.054  39.096  1.00  0.00    -0.272 OA
BRANCH   7   8
HETATM    8  P1  UNL     1       9.285   1.013  38.544  1.00  0.00     0.422 P 
HETATM    9  O4  UNL     1       8.362  -0.110  38.044  1.00  0.00    -0.617 OA
HETATM   10  O5  UNL     1       8.394   2.176  37.775  1.00  0.00    -0.617 OA
HETATM   11  O6  UNL     1      10.567   0.341  37.713  1.00  0.00    -0.617 OA
ENDBRANCH   7   8
ENDBRANCH   3   7
BRANCH   2  12
HETATM   12  O2  UNL     1      10.214   3.156  41.419  1.00  0.00    -0.390 OA
ATOM     13  H2  UNL     1       9.912   3.354  42.298  1.00  0.00     0.210 HD
ENDBRANCH   2  12
BRANCH   4  14
HETATM   14  O7  UNL     1      13.018   1.968  38.377  1.00  0.00    -0.390 OA
ATOM     15  H7  UNL     1      13.818   2.436  38.167  1.00  0.00     0.210 HD
ENDBRANCH   4  14
BRANCH   1  16
HETATM   16  O1  UNL     1      11.437   2.354  43.567  1.00  0.00    -0.390 OA
ATOM     17  H1  UNL     1      10.538   2.068  43.684  1.00  0.00     0.210 HD
ENDBRANCH   1  16
BRANCH   5  18
HETATM   18  O8  UNL     1      14.787   2.671  40.259  1.00  0.00    -0.272 OA
BRANCH  18  19
HETATM   19  P2  UNL     1      15.940   1.650  39.664  1.00  0.00     0.422 P 
HETATM   20  O9  UNL     1      16.000   2.385  38.328  1.00  0.00    -0.617 OA
HETATM   21  O10 UNL     1      17.568   2.055  39.901  1.00  0.00    -0.617 OA
HETATM   22  O11 UNL     1      15.584   0.179  39.096  1.00  0.00    -0.617 OA
ENDBRANCH  18  19
ENDBRANCH   5  18
BRANCH   6  23
HETATM   23  O12 UNL     1      14.120   2.204  42.947  1.00  0.00    -0.272 OA
BRANCH  23  24
HETATM   24  P3  UNL     1      14.587   3.563  43.740  1.00  0.00     0.422 P 
HETATM   25  O13 UNL     1      13.749   4.473  42.836  1.00  0.00    -0.617 OA
HETATM   26  O14 UNL     1      15.466   2.724  44.671  1.00  0.00    -0.617 OA
HETATM   27  O15 UNL     1      15.937   4.372  43.178  1.00  0.00    -0.617 OA
ENDBRANCH  23  24
ENDBRANCH   6  23
TORSDOF 9
ENDMDL
