MODEL 18
REMARK VINA RESULT: -5.704616397      2.992      3.737
REMARK  0 active torsions:
REMARK  status: ('A' for Active; 'I' for Inactive)
REMARK       I    between atoms: C2_2  and  N1_4 
ROOT
HETATM    1  C1  UNL     1      64.042  38.686  -0.407  1.00  0.00     0.118 C 
HETATM    2  C2  UNL     1      65.435  38.272  -0.640  1.00  0.00     0.223 C 
HETATM    3  O1  UNL     1      65.691  37.076  -0.939  1.00  0.00    -0.273 OA
HETATM    4  N1  UNL     1      66.512  39.227  -0.526  1.00  0.00    -0.303 N 
HETATM    5  C3  UNL     1      66.264  40.501  -0.210  1.00  0.00     0.101 A 
HETATM    6  C4  UNL     1      67.294  41.432  -0.098  1.00  0.00     0.048 A 
HETATM    7  C5  UNL     1      68.605  41.057  -0.314  1.00  0.00     0.046 A 
HETATM    8  N2  UNL     1      69.788  41.654  -0.294  1.00  0.00    -0.355 N 
ATOM      9  H2  UNL     1      69.932  42.642  -0.083  1.00  0.00     0.166 HD
HETATM   10  C6  UNL     1      70.785  40.778  -0.594  1.00  0.00     0.044 A 
HETATM   11  C7  UNL     1      72.157  40.895  -0.702  1.00  0.00     0.032 A 
HETATM   12  C8  UNL     1      72.974  39.833  -1.028  1.00  0.00     0.026 A 
HETATM   13  C9  UNL     1      72.405  38.597  -1.255  1.00  0.00     0.035 A 
HETATM   14 CL1  UNL     1      73.446  37.250  -1.668  1.00  0.00    -0.084 Cl
HETATM   15  C10 UNL     1      71.036  38.454  -1.152  1.00  0.00     0.038 A 
HETATM   16  C11 UNL     1      70.218  39.524  -0.825  1.00  0.00     0.006 A 
HETATM   17  C12 UNL     1      68.858  39.664  -0.659  1.00  0.00     0.019 A 
HETATM   18  C13 UNL     1      67.789  38.800  -0.751  1.00  0.00     0.114 A 
ENDROOT
TORSDOF 0
ENDMDL
