MODEL 1
REMARK VINA RESULT: -6.720369369      0.000      0.000
REMARK  0 active torsions:
REMARK  status: ('A' for Active; 'I' for Inactive)
REMARK       I    between atoms: C2_2  and  N1_4 
ROOT
HETATM    1  C1  UNL     1      63.634  37.451  -0.155  1.00  0.00     0.118 C 
HETATM    2  C2  UNL     1      64.225  38.761  -0.471  1.00  0.00     0.223 C 
HETATM    3  O1  UNL     1      63.475  39.749  -0.694  1.00  0.00    -0.273 OA
HETATM    4  N1  UNL     1      65.659  38.924  -0.527  1.00  0.00    -0.303 N 
HETATM    5  C3  UNL     1      66.473  37.891  -0.294  1.00  0.00     0.101 A 
HETATM    6  C4  UNL     1      67.857  38.035  -0.344  1.00  0.00     0.048 A 
HETATM    7  C5  UNL     1      68.424  39.259  -0.639  1.00  0.00     0.046 A 
HETATM    8  N2  UNL     1      69.653  39.740  -0.767  1.00  0.00    -0.355 N 
ATOM      9  H2  UNL     1      70.503  39.189  -0.646  1.00  0.00     0.166 HD
HETATM   10  C6  UNL     1      69.632  41.064  -1.079  1.00  0.00     0.044 A 
HETATM   11  C7  UNL     1      70.616  42.004  -1.312  1.00  0.00     0.032 A 
HETATM   12  C8  UNL     1      70.335  43.320  -1.617  1.00  0.00     0.026 A 
HETATM   13  C9  UNL     1      69.018  43.722  -1.696  1.00  0.00     0.035 A 
HETATM   14 CL1  UNL     1      68.665  45.393  -2.084  1.00  0.00    -0.084 Cl
HETATM   15  C10 UNL     1      68.016  42.799  -1.467  1.00  0.00     0.038 A 
HETATM   16  C11 UNL     1      68.302  41.479  -1.160  1.00  0.00     0.006 A 
HETATM   17  C12 UNL     1      67.522  40.376  -0.890  1.00  0.00     0.019 A 
HETATM   18  C13 UNL     1      66.164  40.158  -0.823  1.00  0.00     0.114 A 
ENDROOT
TORSDOF 0
ENDMDL
