MODEL 3
REMARK VINA RESULT: -6.458531357      4.381      5.926
REMARK  0 active torsions:
REMARK  status: ('A' for Active; 'I' for Inactive)
REMARK       I    between atoms: C2_2  and  N1_4 
ROOT
HETATM    1  C1  UNL     1      72.489  35.360   3.768  1.00  0.00     0.118 C 
HETATM    2  C2  UNL     1      71.280  35.541   2.949  1.00  0.00     0.223 C 
HETATM    3  O1  UNL     1      70.576  34.542   2.644  1.00  0.00    -0.273 OA
HETATM    4  N1  UNL     1      70.894  36.855   2.491  1.00  0.00    -0.303 N 
HETATM    5  C3  UNL     1      71.626  37.928   2.803  1.00  0.00     0.101 A 
HETATM    6  C4  UNL     1      71.265  39.201   2.369  1.00  0.00     0.048 A 
HETATM    7  C5  UNL     1      70.132  39.384   1.600  1.00  0.00     0.046 A 
HETATM    8  N2  UNL     1      69.513  40.411   1.035  1.00  0.00    -0.355 N 
ATOM      9  H2  UNL     1      69.831  41.379   1.093  1.00  0.00     0.166 HD
HETATM   10  C6  UNL     1      68.398  40.006   0.368  1.00  0.00     0.044 A 
HETATM   11  C7  UNL     1      67.434  40.668  -0.366  1.00  0.00     0.032 A 
HETATM   12  C8  UNL     1      66.371  40.019  -0.959  1.00  0.00     0.026 A 
HETATM   13  C9  UNL     1      66.260  38.651  -0.819  1.00  0.00     0.035 A 
HETATM   14 CL1  UNL     1      64.909  37.830  -1.574  1.00  0.00    -0.084 Cl
HETATM   15  C10 UNL     1      67.212  37.968  -0.090  1.00  0.00     0.038 A 
HETATM   16  C11 UNL     1      68.278  38.623   0.505  1.00  0.00     0.006 A 
HETATM   17  C12 UNL     1      69.345  38.203   1.269  1.00  0.00     0.019 A 
HETATM   18  C13 UNL     1      69.765  36.976   1.734  1.00  0.00     0.114 A 
ENDROOT
TORSDOF 0
ENDMDL
