MODEL 2
REMARK VINA RESULT: -6.647082666      3.823      6.811
REMARK  0 active torsions:
REMARK  status: ('A' for Active; 'I' for Inactive)
REMARK       I    between atoms: C2_2  and  N1_4 
ROOT
HETATM    1  C1  UNL     1      70.585  40.678  -1.221  1.00  0.00     0.118 C 
HETATM    2  C2  UNL     1      69.811  39.577  -0.625  1.00  0.00     0.223 C 
HETATM    3  O1  UNL     1      70.409  38.631  -0.047  1.00  0.00    -0.273 OA
HETATM    4  N1  UNL     1      68.368  39.573  -0.698  1.00  0.00    -0.303 N 
HETATM    5  C3  UNL     1      67.713  40.565  -1.305  1.00  0.00     0.101 A 
HETATM    6  C4  UNL     1      66.322  40.573  -1.382  1.00  0.00     0.048 A 
HETATM    7  C5  UNL     1      65.584  39.547  -0.827  1.00  0.00     0.046 A 
HETATM    8  N2  UNL     1      64.298  39.242  -0.717  1.00  0.00    -0.355 N 
ATOM      9  H2  UNL     1      63.537  39.813  -1.085  1.00  0.00     0.166 HD
HETATM   10  C6  UNL     1      64.127  38.069  -0.048  1.00  0.00     0.044 A 
HETATM   11  C7  UNL     1      63.018  37.334   0.319  1.00  0.00     0.032 A 
HETATM   12  C8  UNL     1      63.105  36.145   1.012  1.00  0.00     0.026 A 
HETATM   13  C9  UNL     1      64.350  35.661   1.356  1.00  0.00     0.035 A 
HETATM   14 CL1  UNL     1      64.458  34.150   2.236  1.00  0.00    -0.084 Cl
HETATM   15  C10 UNL     1      65.475  36.379   1.000  1.00  0.00     0.038 A 
HETATM   16  C11 UNL     1      65.383  37.573   0.304  1.00  0.00     0.006 A 
HETATM   17  C12 UNL     1      66.315  38.472  -0.167  1.00  0.00     0.019 A 
HETATM   18  C13 UNL     1      67.690  38.532  -0.131  1.00  0.00     0.114 A 
ENDROOT
TORSDOF 0
ENDMDL
