MODEL 10
REMARK VINA RESULT: -6.001559720      3.295      4.195
REMARK  0 active torsions:
REMARK  status: ('A' for Active; 'I' for Inactive)
REMARK       I    between atoms: C2_2  and  N1_4 
ROOT
HETATM    1  C1  UNL     1      63.592  38.743  -0.359  1.00  0.00     0.118 C 
HETATM    2  C2  UNL     1      64.901  38.073  -0.340  1.00  0.00     0.223 C 
HETATM    3  O1  UNL     1      64.968  36.834  -0.120  1.00  0.00    -0.273 OA
HETATM    4  N1  UNL     1      66.113  38.825  -0.570  1.00  0.00    -0.303 N 
HETATM    5  C3  UNL     1      66.066  40.139  -0.804  1.00  0.00     0.101 A 
HETATM    6  C4  UNL     1      67.227  40.875  -1.029  1.00  0.00     0.048 A 
HETATM    7  C5  UNL     1      68.462  40.259  -1.014  1.00  0.00     0.046 A 
HETATM    8  N2  UNL     1      69.723  40.634  -1.181  1.00  0.00    -0.355 N 
ATOM      9  H2  UNL     1      70.019  41.590  -1.378  1.00  0.00     0.166 HD
HETATM   10  C6  UNL     1      70.570  39.576  -1.055  1.00  0.00     0.044 A 
HETATM   11  C7  UNL     1      71.942  39.439  -1.138  1.00  0.00     0.032 A 
HETATM   12  C8  UNL     1      72.583  38.229  -0.970  1.00  0.00     0.026 A 
HETATM   13  C9  UNL     1      71.830  37.104  -0.707  1.00  0.00     0.035 A 
HETATM   14 CL1  UNL     1      72.647  35.569  -0.494  1.00  0.00    -0.084 Cl
HETATM   15  C10 UNL     1      70.456  37.216  -0.620  1.00  0.00     0.038 A 
HETATM   16  C11 UNL     1      69.816  38.433  -0.789  1.00  0.00     0.006 A 
HETATM   17  C12 UNL     1      68.495  38.824  -0.757  1.00  0.00     0.019 A 
HETATM   18  C13 UNL     1      67.306  38.162  -0.544  1.00  0.00     0.114 A 
ENDROOT
TORSDOF 0
ENDMDL
