MODEL 11
REMARK VINA RESULT: -8.534095121      1.362      2.503
REMARK  6 active torsions:
REMARK  status: ('A' for Active; 'I' for Inactive)
REMARK    1  A    between atoms: C4_4  and  N1_5 
REMARK    2  A    between atoms: N2_7  and  C5_9 
REMARK    3  A    between atoms: C8_12  and  S1_13 
REMARK    4  A    between atoms: S1_13  and  N3_16 
REMARK    5  A    between atoms: N3_16  and  C9_18 
REMARK    6  A    between atoms: C19_30  and  O3_31 
ROOT
HETATM    1  C5  UNL     1     -15.717   8.363  -6.210  1.00  0.00     0.048 A 
HETATM    2  C6  UNL     1     -15.198   7.312  -6.937  1.00  0.00     0.032 A 
HETATM    3  C7  UNL     1     -15.547   6.019  -6.611  1.00  0.00     0.027 A 
HETATM    4  C8  UNL     1     -16.418   5.711  -5.559  1.00  0.00     0.080 A 
HETATM    5  C14 UNL     1     -16.906   6.794  -4.868  1.00  0.00     0.027 A 
HETATM    6  C15 UNL     1     -16.576   8.109  -5.169  1.00  0.00     0.032 A 
ENDROOT
BRANCH   1   7
HETATM    7  N2  UNL     1     -15.364   9.706  -6.538  1.00  0.00    -0.300 N 
HETATM    8  N1  UNL     1     -14.461  10.015  -7.358  1.00  0.00    -0.300 N 
ATOM      9  H1  UNL     1     -13.944   9.268  -7.823  1.00  0.00     0.187 HD
ATOM     10  H2  UNL     1     -15.874  10.461  -6.079  1.00  0.00     0.187 HD
BRANCH   8  11
HETATM   11  C4  UNL     1     -14.135  11.363  -7.662  1.00  0.00     0.049 A 
HETATM   12  C3  UNL     1     -14.939  12.401  -7.276  1.00  0.00     0.040 A 
HETATM   13  C2  UNL     1     -14.619  13.728  -7.575  1.00  0.00    -0.026 A 
HETATM   14  C1  UNL     1     -15.520  14.825  -7.138  1.00  0.00     0.051 C 
HETATM   15  C19 UNL     1     -13.456  13.966  -8.277  1.00  0.00     0.077 A 
HETATM   16  C17 UNL     1     -12.633  12.926  -8.673  1.00  0.00    -0.026 A 
HETATM   17  C16 UNL     1     -12.977  11.642  -8.365  1.00  0.00     0.040 A 
HETATM   18  C18 UNL     1     -11.390  13.235  -9.429  1.00  0.00     0.051 C 
BRANCH  15  19
HETATM   19  O3  UNL     1     -13.082  15.257  -8.604  1.00  0.00    -0.360 OA
ATOM     20  H3  UNL     1     -13.448  15.689  -9.366  1.00  0.00     0.217 HD
ENDBRANCH  15  19
ENDBRANCH   8  11
ENDBRANCH   1   7
BRANCH   4  21
HETATM   21  S1  UNL     1     -16.835   4.056  -5.208  1.00  0.00     0.264 S 
HETATM   22  O1  UNL     1     -15.877   3.176  -6.003  1.00  0.00    -0.200 OA
HETATM   23  O2  UNL     1     -18.179   3.808  -5.836  1.00  0.00    -0.200 OA
BRANCH  21  24
HETATM   24  N3  UNL     1     -16.764   3.623  -3.577  1.00  0.00    -0.266 N 
ATOM     25  H3  UNL     1     -17.650   3.659  -3.074  1.00  0.00     0.180 HD
BRANCH  24  26
HETATM   26  C9  UNL     1     -15.654   3.222  -2.821  1.00  0.00     0.114 A 
HETATM   27  C10 UNL     1     -15.320   3.708  -1.577  1.00  0.00     0.049 A 
HETATM   28  C11 UNL     1     -14.231   3.301  -0.839  1.00  0.00     0.005 A 
HETATM   29  C12 UNL     1     -13.405   2.335  -1.369  1.00  0.00     0.017 A 
HETATM   30  C13 UNL     1     -13.729   1.841  -2.612  1.00  0.00     0.089 A 
HETATM   31  N4  UNL     1     -14.797   2.268  -3.293  1.00  0.00    -0.352 N 
ATOM     32  H4  UNL     1     -14.982   1.861  -4.210  1.00  0.00     0.166 HD
ENDBRANCH  24  26
ENDBRANCH  21  24
ENDBRANCH   4  21
TORSDOF 6
ENDMDL
