MODEL 6
REMARK VINA RESULT: -8.586099798      2.520      4.557
REMARK  6 active torsions:
REMARK  status: ('A' for Active; 'I' for Inactive)
REMARK    1  A    between atoms: C4_4  and  N1_5 
REMARK    2  A    between atoms: N2_7  and  C5_9 
REMARK    3  A    between atoms: C8_12  and  S1_13 
REMARK    4  A    between atoms: S1_13  and  N3_16 
REMARK    5  A    between atoms: N3_16  and  C9_18 
REMARK    6  A    between atoms: C19_30  and  O3_31 
ROOT
HETATM    1  C5  UNL     1     -15.965   8.169  -8.055  1.00  0.00     0.048 A 
HETATM    2  C6  UNL     1     -16.805   7.590  -8.983  1.00  0.00     0.032 A 
HETATM    3  C7  UNL     1     -17.193   6.277  -8.826  1.00  0.00     0.027 A 
HETATM    4  C8  UNL     1     -16.769   5.484  -7.753  1.00  0.00     0.080 A 
HETATM    5  C14 UNL     1     -15.934   6.108  -6.859  1.00  0.00     0.027 A 
HETATM    6  C15 UNL     1     -15.523   7.429  -6.985  1.00  0.00     0.032 A 
ENDROOT
BRANCH   1   7
HETATM    7  N2  UNL     1     -15.556   9.527  -8.205  1.00  0.00    -0.300 N 
HETATM    8  N1  UNL     1     -14.541  10.021  -7.648  1.00  0.00    -0.300 N 
ATOM      9  H1  UNL     1     -13.970   9.423  -7.050  1.00  0.00     0.187 HD
ATOM     10  H2  UNL     1     -16.120  10.135  -8.800  1.00  0.00     0.187 HD
BRANCH   8  11
HETATM   11  C4  UNL     1     -14.162  11.379  -7.819  1.00  0.00     0.049 A 
HETATM   12  C3  UNL     1     -14.921  12.404  -7.324  1.00  0.00     0.040 A 
HETATM   13  C2  UNL     1     -14.549  13.740  -7.492  1.00  0.00    -0.026 A 
HETATM   14  C1  UNL     1     -15.401  14.824  -6.939  1.00  0.00     0.051 C 
HETATM   15  C19 UNL     1     -13.382  14.001  -8.179  1.00  0.00     0.077 A 
HETATM   16  C17 UNL     1     -12.605  12.974  -8.685  1.00  0.00    -0.026 A 
HETATM   17  C16 UNL     1     -12.998  11.680  -8.503  1.00  0.00     0.040 A 
HETATM   18  C18 UNL     1     -11.354  13.307  -9.419  1.00  0.00     0.051 C 
BRANCH  15  19
HETATM   19  O3  UNL     1     -12.957  15.302  -8.380  1.00  0.00    -0.360 OA
ATOM     20  H3  UNL     1     -12.395  15.520  -9.114  1.00  0.00     0.217 HD
ENDBRANCH  15  19
ENDBRANCH   8  11
ENDBRANCH   1   7
BRANCH   4  21
HETATM   21  S1  UNL     1     -17.310   3.834  -7.602  1.00  0.00     0.264 S 
HETATM   22  O1  UNL     1     -17.952   3.698  -6.226  1.00  0.00    -0.200 OA
HETATM   23  O2  UNL     1     -16.073   2.981  -7.523  1.00  0.00    -0.200 OA
BRANCH  21  24
HETATM   24  N3  UNL     1     -18.406   3.322  -8.780  1.00  0.00    -0.266 N 
ATOM     25  H3  UNL     1     -19.391   3.426  -8.539  1.00  0.00     0.180 HD
BRANCH  24  26
HETATM   26  C9  UNL     1     -18.146   2.772 -10.043  1.00  0.00     0.114 A 
HETATM   27  C10 UNL     1     -18.761   3.147 -11.216  1.00  0.00     0.049 A 
HETATM   28  C11 UNL     1     -18.491   2.606 -12.454  1.00  0.00     0.005 A 
HETATM   29  C12 UNL     1     -17.539   1.616 -12.543  1.00  0.00     0.017 A 
HETATM   30  C13 UNL     1     -16.917   1.232 -11.376  1.00  0.00     0.089 A 
HETATM   31  N4  UNL     1     -17.212   1.786 -10.195  1.00  0.00    -0.352 N 
ATOM     32  H4  UNL     1     -16.714   1.457  -9.368  1.00  0.00     0.166 HD
ENDBRANCH  24  26
ENDBRANCH  21  24
ENDBRANCH   4  21
TORSDOF 6
ENDMDL
