MODEL 7
REMARK VINA RESULT: -8.573243289      2.384      4.318
REMARK  6 active torsions:
REMARK  status: ('A' for Active; 'I' for Inactive)
REMARK    1  A    between atoms: C4_4  and  N1_5 
REMARK    2  A    between atoms: N2_7  and  C5_9 
REMARK    3  A    between atoms: C8_12  and  S1_13 
REMARK    4  A    between atoms: S1_13  and  N3_16 
REMARK    5  A    between atoms: N3_16  and  C9_18 
REMARK    6  A    between atoms: C19_30  and  O3_31 
ROOT
HETATM    1  C5  UNL     1     -15.831   8.096  -7.927  1.00  0.00     0.048 A 
HETATM    2  C6  UNL     1     -15.277   7.362  -6.899  1.00  0.00     0.032 A 
HETATM    3  C7  UNL     1     -15.655   6.049  -6.718  1.00  0.00     0.027 A 
HETATM    4  C8  UNL     1     -16.591   5.409  -7.539  1.00  0.00     0.080 A 
HETATM    5  C14 UNL     1     -17.112   6.184  -8.547  1.00  0.00     0.027 A 
HETATM    6  C15 UNL     1     -16.754   7.510  -8.758  1.00  0.00     0.032 A 
ENDROOT
BRANCH   1   7
HETATM    7  N2  UNL     1     -15.448   9.456  -8.125  1.00  0.00    -0.300 N 
HETATM    8  N1  UNL     1     -14.486  10.009  -7.530  1.00  0.00    -0.300 N 
ATOM      9  H1  UNL     1     -13.942   9.461  -6.864  1.00  0.00     0.187 HD
ATOM     10  H2  UNL     1     -15.987  10.014  -8.788  1.00  0.00     0.187 HD
BRANCH   8  11
HETATM   11  C4  UNL     1     -14.132  11.366  -7.751  1.00  0.00     0.049 A 
HETATM   12  C3  UNL     1     -14.891  12.395  -7.264  1.00  0.00     0.040 A 
HETATM   13  C2  UNL     1     -14.543  13.731  -7.481  1.00  0.00    -0.026 A 
HETATM   14  C1  UNL     1     -15.394  14.818  -6.934  1.00  0.00     0.051 C 
HETATM   15  C19 UNL     1     -13.401  13.987  -8.209  1.00  0.00     0.077 A 
HETATM   16  C17 UNL     1     -12.624  12.956  -8.709  1.00  0.00    -0.026 A 
HETATM   17  C16 UNL     1     -12.993  11.663  -8.478  1.00  0.00     0.040 A 
HETATM   18  C18 UNL     1     -11.401  13.285  -9.489  1.00  0.00     0.051 C 
BRANCH  15  19
HETATM   19  O3  UNL     1     -13.001  15.287  -8.460  1.00  0.00    -0.360 OA
ATOM     20  H3  UNL     1     -12.295  15.682  -7.961  1.00  0.00     0.217 HD
ENDBRANCH  15  19
ENDBRANCH   8  11
ENDBRANCH   1   7
BRANCH   4  21
HETATM   21  S1  UNL     1     -17.013   3.740  -7.270  1.00  0.00     0.264 S 
HETATM   22  O1  UNL     1     -18.364   3.729  -6.565  1.00  0.00    -0.200 OA
HETATM   23  O2  UNL     1     -16.050   3.212  -6.241  1.00  0.00    -0.200 OA
BRANCH  21  24
HETATM   24  N3  UNL     1     -17.103   2.784  -8.659  1.00  0.00    -0.266 N 
ATOM     25  H3  UNL     1     -16.392   2.057  -8.741  1.00  0.00     0.180 HD
BRANCH  24  26
HETATM   26  C9  UNL     1     -18.021   2.853  -9.716  1.00  0.00     0.114 A 
HETATM   27  C10 UNL     1     -17.851   2.284 -10.958  1.00  0.00     0.049 A 
HETATM   28  C11 UNL     1     -18.764   2.350 -11.987  1.00  0.00     0.005 A 
HETATM   29  C12 UNL     1     -19.941   3.034 -11.775  1.00  0.00     0.017 A 
HETATM   30  C13 UNL     1     -20.123   3.607 -10.537  1.00  0.00     0.089 A 
HETATM   31  N4  UNL     1     -19.207   3.516  -9.567  1.00  0.00    -0.352 N 
ATOM     32  H4  UNL     1     -19.404   3.964  -8.671  1.00  0.00     0.166 HD
ENDBRANCH  24  26
ENDBRANCH  21  24
ENDBRANCH   4  21
TORSDOF 6
ENDMDL
