MODEL 5
REMARK VINA RESULT: -8.657843736      2.511      4.226
REMARK  6 active torsions:
REMARK  status: ('A' for Active; 'I' for Inactive)
REMARK    1  A    between atoms: C4_4  and  N1_5 
REMARK    2  A    between atoms: N2_7  and  C5_9 
REMARK    3  A    between atoms: C8_12  and  S1_13 
REMARK    4  A    between atoms: S1_13  and  N3_16 
REMARK    5  A    between atoms: N3_16  and  C9_18 
REMARK    6  A    between atoms: C19_30  and  O3_31 
ROOT
HETATM    1  C5  UNL     1     -15.903   8.138  -8.105  1.00  0.00     0.048 A 
HETATM    2  C6  UNL     1     -16.794   7.572  -8.993  1.00  0.00     0.032 A 
HETATM    3  C7  UNL     1     -17.218   6.275  -8.801  1.00  0.00     0.027 A 
HETATM    4  C8  UNL     1     -16.782   5.486  -7.729  1.00  0.00     0.080 A 
HETATM    5  C14 UNL     1     -15.896   6.097  -6.875  1.00  0.00     0.027 A 
HETATM    6  C15 UNL     1     -15.448   7.401  -7.039  1.00  0.00     0.032 A 
ENDROOT
BRANCH   1   7
HETATM    7  N2  UNL     1     -15.456   9.480  -8.293  1.00  0.00    -0.300 N 
HETATM    8  N1  UNL     1     -14.577  10.033  -7.583  1.00  0.00    -0.300 N 
ATOM      9  H1  UNL     1     -14.152   9.500  -6.824  1.00  0.00     0.187 HD
ATOM     10  H2  UNL     1     -15.875  10.023  -9.049  1.00  0.00     0.187 HD
BRANCH   8  11
HETATM   11  C4  UNL     1     -14.155  11.372  -7.797  1.00  0.00     0.049 A 
HETATM   12  C3  UNL     1     -13.013  11.662  -8.493  1.00  0.00     0.040 A 
HETATM   13  C2  UNL     1     -12.597  12.979  -8.704  1.00  0.00    -0.026 A 
HETATM   14  C1  UNL     1     -11.351  13.251  -9.465  1.00  0.00     0.051 C 
HETATM   15  C19 UNL     1     -13.377  13.990  -8.186  1.00  0.00     0.077 A 
HETATM   16  C17 UNL     1     -14.534  13.712  -7.479  1.00  0.00    -0.026 A 
HETATM   17  C16 UNL     1     -14.911  12.414  -7.292  1.00  0.00     0.040 A 
HETATM   18  C18 UNL     1     -15.342  14.839  -6.939  1.00  0.00     0.051 C 
BRANCH  15  19
HETATM   19  O3  UNL     1     -13.021  15.316  -8.359  1.00  0.00    -0.360 OA
ATOM     20  H3  UNL     1     -13.208  15.960  -7.687  1.00  0.00     0.217 HD
ENDBRANCH  15  19
ENDBRANCH   8  11
ENDBRANCH   1   7
BRANCH   4  21
HETATM   21  S1  UNL     1     -17.370   3.857  -7.530  1.00  0.00     0.264 S 
HETATM   22  O1  UNL     1     -18.048   3.790  -6.167  1.00  0.00    -0.200 OA
HETATM   23  O2  UNL     1     -16.158   2.976  -7.389  1.00  0.00    -0.200 OA
BRANCH  21  24
HETATM   24  N3  UNL     1     -18.451   3.330  -8.715  1.00  0.00    -0.266 N 
ATOM     25  H3  UNL     1     -19.439   3.413  -8.479  1.00  0.00     0.180 HD
BRANCH  24  26
HETATM   26  C9  UNL     1     -18.175   2.791  -9.980  1.00  0.00     0.114 A 
HETATM   27  C10 UNL     1     -18.776   3.175 -11.158  1.00  0.00     0.049 A 
HETATM   28  C11 UNL     1     -18.491   2.645 -12.397  1.00  0.00     0.005 A 
HETATM   29  C12 UNL     1     -17.536   1.657 -12.483  1.00  0.00     0.017 A 
HETATM   30  C13 UNL     1     -16.927   1.265 -11.312  1.00  0.00     0.089 A 
HETATM   31  N4  UNL     1     -17.237   1.809 -10.130  1.00  0.00    -0.352 N 
ATOM     32  H4  UNL     1     -16.748   1.473  -9.299  1.00  0.00     0.166 HD
ENDBRANCH  24  26
ENDBRANCH  21  24
ENDBRANCH   4  21
TORSDOF 6
ENDMDL
