MODEL 14
REMARK VINA RESULT: -8.358827207      1.182      2.216
REMARK  6 active torsions:
REMARK  status: ('A' for Active; 'I' for Inactive)
REMARK    1  A    between atoms: C4_4  and  N1_5 
REMARK    2  A    between atoms: N2_7  and  C5_9 
REMARK    3  A    between atoms: C8_12  and  S1_13 
REMARK    4  A    between atoms: S1_13  and  N3_16 
REMARK    5  A    between atoms: N3_16  and  C9_18 
REMARK    6  A    between atoms: C19_30  and  O3_31 
ROOT
HETATM    1  C5  UNL     1     -15.792   8.127  -6.165  1.00  0.00     0.048 A 
HETATM    2  C6  UNL     1     -16.746   7.844  -5.210  1.00  0.00     0.032 A 
HETATM    3  C7  UNL     1     -17.117   6.535  -4.984  1.00  0.00     0.027 A 
HETATM    4  C8  UNL     1     -16.563   5.458  -5.687  1.00  0.00     0.080 A 
HETATM    5  C14 UNL     1     -15.618   5.795  -6.625  1.00  0.00     0.027 A 
HETATM    6  C15 UNL     1     -15.221   7.102  -6.879  1.00  0.00     0.032 A 
ENDROOT
BRANCH   1   7
HETATM    7  N2  UNL     1     -15.400   9.477  -6.409  1.00  0.00    -0.300 N 
HETATM    8  N1  UNL     1     -14.749   9.847  -7.421  1.00  0.00    -0.300 N 
ATOM      9  H1  UNL     1     -14.481   9.149  -8.114  1.00  0.00     0.187 HD
ATOM     10  H2  UNL     1     -15.662  10.184  -5.722  1.00  0.00     0.187 HD
BRANCH   8  11
HETATM   11  C4  UNL     1     -14.375  11.200  -7.633  1.00  0.00     0.049 A 
HETATM   12  C3  UNL     1     -15.155  12.238  -7.199  1.00  0.00     0.040 A 
HETATM   13  C2  UNL     1     -14.787  13.570  -7.408  1.00  0.00    -0.026 A 
HETATM   14  C1  UNL     1     -15.662  14.667  -6.921  1.00  0.00     0.051 C 
HETATM   15  C19 UNL     1     -13.603  13.813  -8.072  1.00  0.00     0.077 A 
HETATM   16  C17 UNL     1     -12.805  12.773  -8.517  1.00  0.00    -0.026 A 
HETATM   17  C16 UNL     1     -13.195  11.484  -8.295  1.00  0.00     0.040 A 
HETATM   18  C18 UNL     1     -11.537  13.088  -9.228  1.00  0.00     0.051 C 
BRANCH  15  19
HETATM   19  O3  UNL     1     -13.182  15.108  -8.311  1.00  0.00    -0.360 OA
ATOM     20  H3  UNL     1     -12.314  15.280  -8.657  1.00  0.00     0.217 HD
ENDBRANCH  15  19
ENDBRANCH   8  11
ENDBRANCH   1   7
BRANCH   4  21
HETATM   21  S1  UNL     1     -17.061   3.824  -5.341  1.00  0.00     0.264 S 
HETATM   22  O1  UNL     1     -17.633   3.248  -6.631  1.00  0.00    -0.200 OA
HETATM   23  O2  UNL     1     -18.245   3.920  -4.417  1.00  0.00    -0.200 OA
BRANCH  21  24
HETATM   24  N3  UNL     1     -15.843   2.804  -4.769  1.00  0.00    -0.266 N 
ATOM     25  H3  UNL     1     -15.512   2.100  -5.428  1.00  0.00     0.180 HD
BRANCH  24  26
HETATM   26  C9  UNL     1     -15.224   2.793  -3.511  1.00  0.00     0.114 A 
HETATM   27  C10 UNL     1     -14.138   2.021  -3.164  1.00  0.00     0.049 A 
HETATM   28  C11 UNL     1     -13.532   2.025  -1.927  1.00  0.00     0.005 A 
HETATM   29  C12 UNL     1     -14.037   2.857  -0.953  1.00  0.00     0.017 A 
HETATM   30  C13 UNL     1     -15.123   3.634  -1.288  1.00  0.00     0.089 A 
HETATM   31  N4  UNL     1     -15.679   3.597  -2.503  1.00  0.00    -0.352 N 
ATOM     32  H4  UNL     1     -16.482   4.199  -2.687  1.00  0.00     0.166 HD
ENDBRANCH  24  26
ENDBRANCH  21  24
ENDBRANCH   4  21
TORSDOF 6
ENDMDL
