MODEL 9
REMARK VINA RESULT: -8.551740292      1.340      1.817
REMARK  6 active torsions:
REMARK  status: ('A' for Active; 'I' for Inactive)
REMARK    1  A    between atoms: C4_4  and  N1_5 
REMARK    2  A    between atoms: N2_7  and  C5_9 
REMARK    3  A    between atoms: C8_12  and  S1_13 
REMARK    4  A    between atoms: S1_13  and  N3_16 
REMARK    5  A    between atoms: N3_16  and  C9_18 
REMARK    6  A    between atoms: C19_30  and  O3_31 
ROOT
HETATM    1  C5  UNL     1     -15.740   8.228  -6.256  1.00  0.00     0.048 A 
HETATM    2  C6  UNL     1     -16.589   7.944  -5.206  1.00  0.00     0.032 A 
HETATM    3  C7  UNL     1     -16.913   6.634  -4.926  1.00  0.00     0.027 A 
HETATM    4  C8  UNL     1     -16.415   5.555  -5.665  1.00  0.00     0.080 A 
HETATM    5  C14 UNL     1     -15.574   5.892  -6.699  1.00  0.00     0.027 A 
HETATM    6  C15 UNL     1     -15.227   7.200  -7.009  1.00  0.00     0.032 A 
ENDROOT
BRANCH   1   7
HETATM    7  N2  UNL     1     -15.397   9.579  -6.557  1.00  0.00    -0.300 N 
HETATM    8  N1  UNL     1     -14.491   9.910  -7.365  1.00  0.00    -0.300 N 
ATOM      9  H1  UNL     1     -13.964   9.176  -7.839  1.00  0.00     0.187 HD
ATOM     10  H2  UNL     1     -15.917  10.321  -6.089  1.00  0.00     0.187 HD
BRANCH   8  11
HETATM   11  C4  UNL     1     -14.175  11.267  -7.642  1.00  0.00     0.049 A 
HETATM   12  C3  UNL     1     -13.051  11.614  -8.342  1.00  0.00     0.040 A 
HETATM   13  C2  UNL     1     -12.739  12.948  -8.615  1.00  0.00    -0.026 A 
HETATM   14  C1  UNL     1     -11.509  13.282  -9.377  1.00  0.00     0.051 C 
HETATM   15  C19 UNL     1     -13.605  13.917  -8.154  1.00  0.00     0.077 A 
HETATM   16  C17 UNL     1     -14.745  13.581  -7.445  1.00  0.00    -0.026 A 
HETATM   17  C16 UNL     1     -15.019  12.267  -7.197  1.00  0.00     0.040 A 
HETATM   18  C18 UNL     1     -15.647  14.664  -6.970  1.00  0.00     0.051 C 
BRANCH  15  19
HETATM   19  O3  UNL     1     -13.354  15.257  -8.391  1.00  0.00    -0.360 OA
ATOM     20  H3  UNL     1     -14.068  15.879  -8.458  1.00  0.00     0.217 HD
ENDBRANCH  15  19
ENDBRANCH   8  11
ENDBRANCH   1   7
BRANCH   4  21
HETATM   21  S1  UNL     1     -16.847   3.918  -5.248  1.00  0.00     0.264 S 
HETATM   22  O1  UNL     1     -15.927   2.997  -6.041  1.00  0.00    -0.200 OA
HETATM   23  O2  UNL     1     -18.213   3.673  -5.829  1.00  0.00    -0.200 OA
BRANCH  21  24
HETATM   24  N3  UNL     1     -16.736   3.538  -3.607  1.00  0.00    -0.266 N 
ATOM     25  H3  UNL     1     -17.604   3.614  -3.078  1.00  0.00     0.180 HD
BRANCH  24  26
HETATM   26  C9  UNL     1     -15.613   3.132  -2.872  1.00  0.00     0.114 A 
HETATM   27  C10 UNL     1     -15.275   3.586  -1.618  1.00  0.00     0.049 A 
HETATM   28  C11 UNL     1     -14.174   3.174  -0.901  1.00  0.00     0.005 A 
HETATM   29  C12 UNL     1     -13.337   2.237  -1.467  1.00  0.00     0.017 A 
HETATM   30  C13 UNL     1     -13.665   1.775  -2.721  1.00  0.00     0.089 A 
HETATM   31  N4  UNL     1     -14.746   2.205  -3.380  1.00  0.00    -0.352 N 
ATOM     32  H4  UNL     1     -14.933   1.822  -4.307  1.00  0.00     0.166 HD
ENDBRANCH  24  26
ENDBRANCH  21  24
ENDBRANCH   4  21
TORSDOF 6
ENDMDL
