MODEL 2
REMARK VINA RESULT: -8.930420322      2.563      4.099
REMARK  5 active torsions:
REMARK  status: ('A' for Active; 'I' for Inactive)
REMARK    1  A    between atoms: C4_5  and  N2_6 
REMARK    2  A    between atoms: N3_8  and  C5_10 
REMARK    3  A    between atoms: C8_13  and  S1_14 
REMARK    4  A    between atoms: S1_14  and  N4_17 
REMARK    5  A    between atoms: N4_17  and  C9_19 
ROOT
HETATM    1  C5  UNL     1     -15.712   8.026  -7.802  1.00  0.00     0.048 A 
HETATM    2  C6  UNL     1     -15.279   7.191  -6.826  1.00  0.00     0.032 A 
HETATM    3  C7  UNL     1     -15.775   5.901  -6.770  1.00  0.00     0.027 A 
HETATM    4  C8  UNL     1     -16.699   5.389  -7.651  1.00  0.00     0.080 A 
HETATM    5  C14 UNL     1     -17.134   6.266  -8.654  1.00  0.00     0.027 A 
HETATM    6  C15 UNL     1     -16.638   7.536  -8.700  1.00  0.00     0.032 A 
ENDROOT
BRANCH   1   7
HETATM    7  N3  UNL     1     -15.292   9.369  -7.982  1.00  0.00    -0.300 N 
HETATM    8  N2  UNL     1     -14.394   9.935  -7.309  1.00  0.00    -0.299 N 
ATOM      9  H2  UNL     1     -13.933   9.390  -6.581  1.00  0.00     0.187 HD
ATOM     10  H3  UNL     1     -15.752   9.914  -8.710  1.00  0.00     0.187 HD
BRANCH   8  11
HETATM   11  C4  UNL     1     -13.977  11.280  -7.492  1.00  0.00     0.070 A 
HETATM   12  C3  UNL     1     -14.817  12.427  -7.184  1.00  0.00     0.083 A 
HETATM   13  C2  UNL     1     -14.418  13.667  -7.357  1.00  0.00     0.011 A 
HETATM   14  N1  UNL     1     -16.112  12.185  -6.677  1.00  0.00    -0.099 NA
HETATM   15  C1  UNL     1     -15.297  14.839  -7.033  1.00  0.00     0.054 C 
HETATM   16  C19 UNL     1     -13.095  13.944  -7.875  1.00  0.00     0.164 A 
HETATM   17  C17 UNL     1     -12.175  12.850  -8.215  1.00  0.00     0.081 A 
HETATM   18  O3  UNL     1     -12.703  15.161  -8.046  1.00  0.00    -0.292 OA
HETATM   19  C16 UNL     1     -12.770  11.528  -7.964  1.00  0.00     0.018 A 
HETATM   20  C18 UNL     1     -11.795  12.909  -9.692  1.00  0.00     0.022 C 
ENDBRANCH   8  11
ENDBRANCH   1   7
BRANCH   4  21
HETATM   21  S1  UNL     1     -17.344   3.768  -7.590  1.00  0.00     0.264 S 
HETATM   22  O1  UNL     1     -16.221   2.746  -7.549  1.00  0.00    -0.200 OA
HETATM   23  O2  UNL     1     -18.019   3.647  -6.225  1.00  0.00    -0.200 OA
BRANCH  21  24
HETATM   24  N4  UNL     1     -18.444   3.386  -8.821  1.00  0.00    -0.266 N 
ATOM     25  H4  UNL     1     -19.432   3.560  -8.637  1.00  0.00     0.180 HD
BRANCH  24  26
HETATM   26  C9  UNL     1     -18.105   2.844 -10.083  1.00  0.00     0.114 A 
HETATM   27  C10 UNL     1     -18.738   3.212 -11.236  1.00  0.00     0.049 A 
HETATM   28  C11 UNL     1     -18.378   2.632 -12.459  1.00  0.00     0.005 A 
HETATM   29  C12 UNL     1     -17.377   1.683 -12.477  1.00  0.00     0.017 A 
HETATM   30  C13 UNL     1     -16.744   1.316 -11.303  1.00  0.00     0.089 A 
HETATM   31  N5  UNL     1     -17.118   1.894 -10.172  1.00  0.00    -0.352 N 
ATOM     32  H5  UNL     1     -16.645   1.616  -9.312  1.00  0.00     0.166 HD
ENDBRANCH  24  26
ENDBRANCH  21  24
ENDBRANCH   4  21
TORSDOF 5
ENDMDL
