MODEL 4
REMARK VINA RESULT: -8.886889696      1.297      1.836
REMARK  5 active torsions:
REMARK  status: ('A' for Active; 'I' for Inactive)
REMARK    1  A    between atoms: C4_5  and  N2_6 
REMARK    2  A    between atoms: N3_8  and  C5_10 
REMARK    3  A    between atoms: C8_13  and  S1_14 
REMARK    4  A    between atoms: S1_14  and  N4_17 
REMARK    5  A    between atoms: N4_17  and  C9_19 
ROOT
HETATM    1  C5  UNL     1     -15.501   8.222  -5.959  1.00  0.00     0.048 A 
HETATM    2  C6  UNL     1     -15.152   7.146  -6.705  1.00  0.00     0.032 A 
HETATM    3  C7  UNL     1     -15.647   5.899  -6.367  1.00  0.00     0.027 A 
HETATM    4  C8  UNL     1     -16.488   5.663  -5.304  1.00  0.00     0.080 A 
HETATM    5  C14 UNL     1     -16.838   6.788  -4.545  1.00  0.00     0.027 A 
HETATM    6  C15 UNL     1     -16.345   8.012  -4.887  1.00  0.00     0.032 A 
ENDROOT
BRANCH   1   7
HETATM    7  N3  UNL     1     -15.072   9.555  -6.187  1.00  0.00    -0.300 N 
HETATM    8  N2  UNL     1     -14.432   9.939  -7.197  1.00  0.00    -0.299 N 
ATOM      9  H2  UNL     1     -14.203   9.242  -7.906  1.00  0.00     0.187 HD
ATOM     10  H3  UNL     1     -15.301  10.252  -5.478  1.00  0.00     0.187 HD
BRANCH   8  11
HETATM   11  C4  UNL     1     -14.004  11.275  -7.421  1.00  0.00     0.070 A 
HETATM   12  C3  UNL     1     -14.833  12.437  -7.145  1.00  0.00     0.083 A 
HETATM   13  C2  UNL     1     -14.423  13.667  -7.357  1.00  0.00     0.011 A 
HETATM   14  N1  UNL     1     -16.128  12.222  -6.627  1.00  0.00    -0.099 NA
HETATM   15  C1  UNL     1     -15.291  14.857  -7.066  1.00  0.00     0.054 C 
HETATM   16  C19 UNL     1     -13.100  13.918  -7.886  1.00  0.00     0.164 A 
HETATM   17  C17 UNL     1     -12.191  12.806  -8.196  1.00  0.00     0.081 A 
HETATM   18  O3  UNL     1     -12.698  15.125  -8.095  1.00  0.00    -0.292 OA
HETATM   19  C16 UNL     1     -12.797  11.497  -7.904  1.00  0.00     0.018 A 
HETATM   20  C18 UNL     1     -11.815  12.817  -9.676  1.00  0.00     0.022 C 
ENDBRANCH   8  11
ENDBRANCH   1   7
BRANCH   4  21
HETATM   21  S1  UNL     1     -17.114   4.096  -4.857  1.00  0.00     0.264 S 
HETATM   22  O1  UNL     1     -18.564   3.956  -5.288  1.00  0.00    -0.200 OA
HETATM   23  O2  UNL     1     -16.360   3.091  -5.725  1.00  0.00    -0.200 OA
BRANCH  21  24
HETATM   24  N4  UNL     1     -16.945   3.696  -3.219  1.00  0.00    -0.266 N 
ATOM     25  H4  UNL     1     -17.758   3.832  -2.618  1.00  0.00     0.180 HD
BRANCH  24  26
HETATM   26  C9  UNL     1     -15.770   3.189  -2.617  1.00  0.00     0.114 A 
HETATM   27  C10 UNL     1     -15.359   3.569  -1.371  1.00  0.00     0.049 A 
HETATM   28  C11 UNL     1     -14.177   3.053  -0.826  1.00  0.00     0.005 A 
HETATM   29  C12 UNL     1     -13.436   2.157  -1.570  1.00  0.00     0.017 A 
HETATM   30  C13 UNL     1     -13.861   1.780  -2.832  1.00  0.00     0.089 A 
HETATM   31  N5  UNL     1     -14.986   2.296  -3.303  1.00  0.00    -0.352 N 
ATOM     32  H5  UNL     1     -15.290   2.011  -4.234  1.00  0.00     0.166 HD
ENDBRANCH  24  26
ENDBRANCH  21  24
ENDBRANCH   4  21
TORSDOF 5
ENDMDL
