MODEL 6
REMARK VINA RESULT: -8.671355088      2.388      3.934
REMARK  5 active torsions:
REMARK  status: ('A' for Active; 'I' for Inactive)
REMARK    1  A    between atoms: C4_5  and  N2_6 
REMARK    2  A    between atoms: N3_8  and  C5_10 
REMARK    3  A    between atoms: C8_13  and  S1_14 
REMARK    4  A    between atoms: S1_14  and  N4_17 
REMARK    5  A    between atoms: N4_17  and  C9_19 
ROOT
HETATM    1  C5  UNL     1     -15.639   8.127  -7.518  1.00  0.00     0.048 A 
HETATM    2  C6  UNL     1     -15.220   7.353  -6.488  1.00  0.00     0.032 A 
HETATM    3  C7  UNL     1     -15.649   6.040  -6.410  1.00  0.00     0.027 A 
HETATM    4  C8  UNL     1     -16.491   5.445  -7.322  1.00  0.00     0.080 A 
HETATM    5  C14 UNL     1     -16.913   6.262  -8.380  1.00  0.00     0.027 A 
HETATM    6  C15 UNL     1     -16.484   7.555  -8.448  1.00  0.00     0.032 A 
ENDROOT
BRANCH   1   7
HETATM    7  N3  UNL     1     -15.282   9.484  -7.726  1.00  0.00    -0.300 N 
HETATM    8  N2  UNL     1     -14.213  10.012  -7.330  1.00  0.00    -0.299 N 
ATOM      9  H2  UNL     1     -13.553   9.423  -6.823  1.00  0.00     0.187 HD
ATOM     10  H3  UNL     1     -15.941  10.074  -8.233  1.00  0.00     0.187 HD
BRANCH   8  11
HETATM   11  C4  UNL     1     -13.859  11.372  -7.539  1.00  0.00     0.070 A 
HETATM   12  C3  UNL     1     -14.749  12.484  -7.244  1.00  0.00     0.083 A 
HETATM   13  C2  UNL     1     -14.408  13.737  -7.442  1.00  0.00     0.011 A 
HETATM   14  N1  UNL     1     -16.028  12.192  -6.722  1.00  0.00    -0.099 NA
HETATM   15  C1  UNL     1     -15.338  14.873  -7.131  1.00  0.00     0.054 C 
HETATM   16  C19 UNL     1     -13.103  14.066  -7.974  1.00  0.00     0.164 A 
HETATM   17  C17 UNL     1     -12.137  13.010  -8.302  1.00  0.00     0.081 A 
HETATM   18  O3  UNL     1     -12.769  15.296  -8.169  1.00  0.00    -0.292 OA
HETATM   19  C16 UNL     1     -12.669  11.666  -8.025  1.00  0.00     0.018 A 
HETATM   20  C18 UNL     1     -11.770  13.060  -9.784  1.00  0.00     0.022 C 
ENDBRANCH   8  11
ENDBRANCH   1   7
BRANCH   4  21
HETATM   21  S1  UNL     1     -17.050   3.794  -7.235  1.00  0.00     0.264 S 
HETATM   22  O1  UNL     1     -16.120   2.959  -6.372  1.00  0.00    -0.200 OA
HETATM   23  O2  UNL     1     -18.357   3.846  -6.446  1.00  0.00    -0.200 OA
BRANCH  21  24
HETATM   24  N4  UNL     1     -17.301   3.041  -8.732  1.00  0.00    -0.266 N 
ATOM     25  H4  UNL     1     -16.501   2.577  -9.162  1.00  0.00     0.180 HD
BRANCH  24  26
HETATM   26  C9  UNL     1     -18.528   3.003  -9.434  1.00  0.00     0.114 A 
HETATM   27  C10 UNL     1     -18.832   3.883 -10.432  1.00  0.00     0.049 A 
HETATM   28  C11 UNL     1     -20.069   3.816 -11.085  1.00  0.00     0.005 A 
HETATM   29  C12 UNL     1     -20.973   2.848 -10.701  1.00  0.00     0.017 A 
HETATM   30  C13 UNL     1     -20.656   1.961  -9.687  1.00  0.00     0.089 A 
HETATM   31  N5  UNL     1     -19.472   2.064  -9.101  1.00  0.00    -0.352 N 
ATOM     32  H5  UNL     1     -19.248   1.406  -8.355  1.00  0.00     0.166 HD
ENDBRANCH  24  26
ENDBRANCH  21  24
ENDBRANCH   4  21
TORSDOF 5
ENDMDL
