MODEL 9
REMARK VINA RESULT: -8.580671821      2.938      9.859
REMARK  5 active torsions:
REMARK  status: ('A' for Active; 'I' for Inactive)
REMARK    1  A    between atoms: C4_5  and  N2_6 
REMARK    2  A    between atoms: N3_8  and  C5_10 
REMARK    3  A    between atoms: C8_13  and  S1_14 
REMARK    4  A    between atoms: S1_14  and  N4_17 
REMARK    5  A    between atoms: N4_17  and  C9_19 
ROOT
HETATM    1  C5  UNL     1     -15.410   8.316  -6.555  1.00  0.00     0.048 A 
HETATM    2  C6  UNL     1     -15.004   9.004  -5.460  1.00  0.00     0.032 A 
HETATM    3  C7  UNL     1     -14.634  10.331  -5.593  1.00  0.00     0.027 A 
HETATM    4  C8  UNL     1     -14.648  11.022  -6.783  1.00  0.00     0.080 A 
HETATM    5  C14 UNL     1     -15.072  10.295  -7.903  1.00  0.00     0.027 A 
HETATM    6  C15 UNL     1     -15.434   8.987  -7.761  1.00  0.00     0.032 A 
ENDROOT
BRANCH   1   7
HETATM    7  N3  UNL     1     -15.817   6.958  -6.568  1.00  0.00    -0.300 N 
HETATM    8  N2  UNL     1     -15.035   5.976  -6.584  1.00  0.00    -0.299 N 
ATOM      9  H2  UNL     1     -14.033   6.168  -6.586  1.00  0.00     0.187 HD
ATOM     10  H3  UNL     1     -16.819   6.765  -6.565  1.00  0.00     0.187 HD
BRANCH   8  11
HETATM   11  C4  UNL     1     -15.447   4.616  -6.598  1.00  0.00     0.070 A 
HETATM   12  C3  UNL     1     -16.504   4.110  -7.459  1.00  0.00     0.083 A 
HETATM   13  C2  UNL     1     -16.875   2.849  -7.462  1.00  0.00     0.011 A 
HETATM   14  N1  UNL     1     -17.150   5.019  -8.324  1.00  0.00    -0.099 NA
HETATM   15  C1  UNL     1     -17.967   2.343  -8.357  1.00  0.00     0.054 C 
HETATM   16  C19 UNL     1     -16.230   1.894  -6.586  1.00  0.00     0.164 A 
HETATM   17  C17 UNL     1     -15.151   2.313  -5.680  1.00  0.00     0.081 A 
HETATM   18  O3  UNL     1     -16.594   0.658  -6.588  1.00  0.00    -0.292 OA
HETATM   19  C16 UNL     1     -14.856   3.750  -5.797  1.00  0.00     0.018 A 
HETATM   20  C18 UNL     1     -15.535   2.041  -4.228  1.00  0.00     0.022 C 
ENDBRANCH   8  11
ENDBRANCH   1   7
BRANCH   4  21
HETATM   21  S1  UNL     1     -14.176  12.692  -6.971  1.00  0.00     0.264 S 
HETATM   22  O1  UNL     1     -15.158  13.428  -7.867  1.00  0.00    -0.200 OA
HETATM   23  O2  UNL     1     -14.364  13.329  -5.596  1.00  0.00    -0.200 OA
BRANCH  21  24
HETATM   24  N4  UNL     1     -12.589  12.933  -7.514  1.00  0.00    -0.266 N 
ATOM     25  H4  UNL     1     -11.899  13.232  -6.825  1.00  0.00     0.180 HD
BRANCH  24  26
HETATM   26  C9  UNL     1     -12.142  12.755  -8.844  1.00  0.00     0.114 A 
HETATM   27  C10 UNL     1     -11.724  13.793  -9.626  1.00  0.00     0.049 A 
HETATM   28  C11 UNL     1     -11.309  13.567 -10.944  1.00  0.00     0.005 A 
HETATM   29  C12 UNL     1     -11.333  12.280 -11.438  1.00  0.00     0.017 A 
HETATM   30  C13 UNL     1     -11.761  11.234 -10.639  1.00  0.00     0.089 A 
HETATM   31  N5  UNL     1     -12.142  11.499  -9.398  1.00  0.00    -0.352 N 
ATOM     32  H5  UNL     1     -12.455  10.721  -8.817  1.00  0.00     0.166 HD
ENDBRANCH  24  26
ENDBRANCH  21  24
ENDBRANCH   4  21
TORSDOF 5
ENDMDL
