MODEL 3
REMARK VINA RESULT: -8.900066685      0.719      1.433
REMARK  5 active torsions:
REMARK  status: ('A' for Active; 'I' for Inactive)
REMARK    1  A    between atoms: C4_5  and  N2_6 
REMARK    2  A    between atoms: N3_8  and  C5_10 
REMARK    3  A    between atoms: C8_13  and  S1_14 
REMARK    4  A    between atoms: S1_14  and  N4_17 
REMARK    5  A    between atoms: N4_17  and  C9_19 
ROOT
HETATM    1  C5  UNL     1     -15.706   7.998  -7.649  1.00  0.00     0.048 A 
HETATM    2  C6  UNL     1     -16.616   7.329  -8.400  1.00  0.00     0.032 A 
HETATM    3  C7  UNL     1     -16.937   6.025  -8.068  1.00  0.00     0.027 A 
HETATM    4  C8  UNL     1     -16.390   5.338  -7.009  1.00  0.00     0.080 A 
HETATM    5  C14 UNL     1     -15.452   6.047  -6.245  1.00  0.00     0.027 A 
HETATM    6  C15 UNL     1     -15.143   7.332  -6.580  1.00  0.00     0.032 A 
ENDROOT
BRANCH   1   7
HETATM    7  N3  UNL     1     -15.282   9.333  -7.870  1.00  0.00    -0.300 N 
HETATM    8  N2  UNL     1     -14.396   9.923  -7.204  1.00  0.00    -0.299 N 
ATOM      9  H2  UNL     1     -13.947   9.405  -6.449  1.00  0.00     0.187 HD
ATOM     10  H3  UNL     1     -15.731   9.853  -8.625  1.00  0.00     0.187 HD
BRANCH   8  11
HETATM   11  C4  UNL     1     -13.975  11.262  -7.428  1.00  0.00     0.070 A 
HETATM   12  C3  UNL     1     -14.808  12.420  -7.145  1.00  0.00     0.083 A 
HETATM   13  C2  UNL     1     -14.406  13.652  -7.357  1.00  0.00     0.011 A 
HETATM   14  N1  UNL     1     -16.100  12.198  -6.621  1.00  0.00    -0.099 NA
HETATM   15  C1  UNL     1     -15.277  14.837  -7.059  1.00  0.00     0.054 C 
HETATM   16  C19 UNL     1     -13.086  13.910  -7.893  1.00  0.00     0.164 A 
HETATM   17  C17 UNL     1     -12.173  12.803  -8.209  1.00  0.00     0.081 A 
HETATM   18  O3  UNL     1     -12.691  15.120  -8.101  1.00  0.00    -0.292 OA
HETATM   19  C16 UNL     1     -12.771  11.491  -7.917  1.00  0.00     0.018 A 
HETATM   20  C18 UNL     1     -11.805  12.819  -9.691  1.00  0.00     0.022 C 
ENDBRANCH   8  11
ENDBRANCH   1   7
BRANCH   4  21
HETATM   21  S1  UNL     1     -16.776   3.690  -6.582  1.00  0.00     0.264 S 
HETATM   22  O1  UNL     1     -17.957   3.189  -7.395  1.00  0.00    -0.200 OA
HETATM   23  O2  UNL     1     -15.595   2.854  -7.071  1.00  0.00    -0.200 OA
BRANCH  21  24
HETATM   24  N4  UNL     1     -17.040   3.419  -4.930  1.00  0.00    -0.266 N 
ATOM     25  H4  UNL     1     -17.983   3.575  -4.575  1.00  0.00     0.180 HD
BRANCH  24  26
HETATM   26  C9  UNL     1     -16.059   2.996  -4.003  1.00  0.00     0.114 A 
HETATM   27  C10 UNL     1     -16.036   3.427  -2.707  1.00  0.00     0.049 A 
HETATM   28  C11 UNL     1     -15.032   2.993  -1.833  1.00  0.00     0.005 A 
HETATM   29  C12 UNL     1     -14.068   2.126  -2.303  1.00  0.00     0.017 A 
HETATM   30  C13 UNL     1     -14.100   1.696  -3.618  1.00  0.00     0.089 A 
HETATM   31  N5  UNL     1     -15.070   2.134  -4.406  1.00  0.00    -0.352 N 
ATOM     32  H5  UNL     1     -15.084   1.810  -5.373  1.00  0.00     0.166 HD
ENDBRANCH  24  26
ENDBRANCH  21  24
ENDBRANCH   4  21
TORSDOF 5
ENDMDL
