MODEL 9
REMARK VINA RESULT: -6.508007340      4.223      7.123
REMARK  2 active torsions:
REMARK  status: ('A' for Active; 'I' for Inactive)
REMARK    1  A    between atoms: N4_12  and  C7_13 
REMARK    2  A    between atoms: C11_23  and  O6_24 
ROOT
HETATM    1  C7  UNL     1       2.548  15.180  14.893  1.00  0.00     0.261 C 
HETATM    2  O1  UNL     1       3.004  13.907  15.298  1.00  0.00    -0.353 OA
HETATM    3  C8  UNL     1       1.825  13.183  14.992  1.00  0.00     0.180 C 
HETATM    4  C9  UNL     1       1.976  11.733  15.289  1.00  0.00     0.216 C 
HETATM    5  O2  UNL     1       1.020  10.953  14.736  1.00  0.00    -0.287 OA
HETATM    6  P1  UNL     1       0.013  11.805  13.736  1.00  0.00     0.408 P 
HETATM    7  O3  UNL     1       0.398  10.977  12.524  1.00  0.00    -0.624 OA
HETATM    8  O4  UNL     1      -1.585  11.368  13.587  1.00  0.00    -0.624 OA
HETATM    9  O5  UNL     1       0.503  13.219  13.060  1.00  0.00    -0.279 OA
HETATM   10  C10 UNL     1       1.775  13.468  13.486  1.00  0.00     0.198 C 
HETATM   11  C11 UNL     1       2.138  14.931  13.482  1.00  0.00     0.199 C 
ENDROOT
BRANCH   1  12
HETATM   12  N4  UNL     1       3.517  16.200  15.078  1.00  0.00    -0.312 N 
HETATM   13  C3  UNL     1       3.697  17.310  14.358  1.00  0.00     0.124 A 
HETATM   14  N3  UNL     1       3.089  17.822  13.296  1.00  0.00    -0.338 N 
HETATM   15  C4  UNL     1       4.766  18.028  14.895  1.00  0.00     0.051 A 
HETATM   16  C2  UNL     1       3.470  18.985  12.746  1.00  0.00     0.183 A 
ATOM     17  H3  UNL     1       2.305  17.316  12.885  1.00  0.00     0.168 HD
HETATM   18  N2  UNL     1       4.497  19.720  13.225  1.00  0.00    -0.340 N 
HETATM   19  C1  UNL     1       5.132  19.214  14.308  1.00  0.00     0.131 A 
ATOM     20  H2  UNL     1       4.776  20.603  12.797  1.00  0.00     0.167 HD
HETATM   21  N1  UNL     1       6.219  19.965  14.837  1.00  0.00    -0.082 NA
HETATM   22  C5  UNL     1       5.215  17.306  15.958  1.00  0.00     0.036 A 
HETATM   23  C6  UNL     1       4.449  16.189  16.067  1.00  0.00     0.096 A 
ENDBRANCH   1  12
BRANCH  11  24
HETATM   24  O6  UNL     1       1.069  15.727  13.079  1.00  0.00    -0.388 OA
ATOM     25  H6  UNL     1       0.909  16.456  13.667  1.00  0.00     0.210 HD
ENDBRANCH  11  24
TORSDOF 2
ENDMDL
