MODEL 4
REMARK VINA RESULT: -7.386010477      3.966      7.023
REMARK  2 active torsions:
REMARK  status: ('A' for Active; 'I' for Inactive)
REMARK    1  A    between atoms: N4_12  and  C7_13 
REMARK    2  A    between atoms: C11_23  and  O6_24 
ROOT
HETATM    1  C7  UNL     1       3.614  16.731  14.832  1.00  0.00     0.261 C 
HETATM    2  O1  UNL     1       2.477  15.970  14.488  1.00  0.00    -0.353 OA
HETATM    3  C8  UNL     1       3.106  14.700  14.463  1.00  0.00     0.180 C 
HETATM    4  C9  UNL     1       2.141  13.614  14.140  1.00  0.00     0.216 C 
HETATM    5  O2  UNL     1       2.601  12.370  14.405  1.00  0.00    -0.287 OA
HETATM    6  P1  UNL     1       4.068  12.391  15.171  1.00  0.00     0.408 P 
HETATM    7  O3  UNL     1       3.519  11.687  16.398  1.00  0.00    -0.624 OA
HETATM    8  O4  UNL     1       5.169  11.173  14.905  1.00  0.00    -0.624 OA
HETATM    9  O5  UNL     1       4.555  13.713  16.014  1.00  0.00    -0.279 OA
HETATM   10  C10 UNL     1       3.569  14.653  15.923  1.00  0.00     0.198 C 
HETATM   11  C11 UNL     1       4.067  16.068  16.087  1.00  0.00     0.199 C 
ENDROOT
BRANCH   1  12
HETATM   12  N4  UNL     1       3.339  18.119  14.939  1.00  0.00    -0.312 N 
HETATM   13  C3  UNL     1       4.204  19.136  14.921  1.00  0.00     0.124 A 
HETATM   14  N3  UNL     1       5.523  19.216  14.808  1.00  0.00    -0.338 N 
HETATM   15  C4  UNL     1       3.497  20.332  15.056  1.00  0.00     0.051 A 
HETATM   16  C2  UNL     1       6.172  20.391  14.820  1.00  0.00     0.183 A 
ATOM     17  H3  UNL     1       6.063  18.356  14.709  1.00  0.00     0.168 HD
HETATM   18  N2  UNL     1       5.538  21.577  14.946  1.00  0.00    -0.340 N 
HETATM   19  C1  UNL     1       4.190  21.517  15.064  1.00  0.00     0.131 A 
ATOM     20  H2  UNL     1       6.043  22.463  14.953  1.00  0.00     0.167 HD
HETATM   21  N1  UNL     1       3.492  22.749  15.200  1.00  0.00    -0.082 NA
HETATM   22  C5  UNL     1       2.183  19.989  15.154  1.00  0.00     0.036 A 
HETATM   23  C6  UNL     1       2.090  18.636  15.082  1.00  0.00     0.096 A 
ENDBRANCH   1  12
BRANCH  11  24
HETATM   24  O6  UNL     1       5.448  16.112  16.256  1.00  0.00    -0.388 OA
ATOM     25  H6  UNL     1       5.709  16.131  17.170  1.00  0.00     0.210 HD
ENDBRANCH  11  24
TORSDOF 2
ENDMDL
