MODEL 12
REMARK VINA RESULT: -6.105854249      0.901      1.885
REMARK  2 active torsions:
REMARK  status: ('A' for Active; 'I' for Inactive)
REMARK    1  A    between atoms: N4_12  and  C7_13 
REMARK    2  A    between atoms: C11_23  and  O6_24 
ROOT
HETATM    1  C7  UNL     1       3.694  16.669  14.653  1.00  0.00     0.261 C 
HETATM    2  O1  UNL     1       4.862  17.156  15.277  1.00  0.00    -0.353 OA
HETATM    3  C8  UNL     1       4.837  18.460  14.721  1.00  0.00     0.180 C 
HETATM    4  C9  UNL     1       5.970  19.289  15.211  1.00  0.00     0.216 C 
HETATM    5  O2  UNL     1       5.830  20.613  14.972  1.00  0.00    -0.287 OA
HETATM    6  P1  UNL     1       4.350  20.984  14.331  1.00  0.00     0.408 P 
HETATM    7  O3  UNL     1       3.983  21.874  15.505  1.00  0.00    -0.624 OA
HETATM    8  O4  UNL     1       4.194  22.248  13.261  1.00  0.00    -0.624 OA
HETATM    9  O5  UNL     1       3.067  19.983  14.550  1.00  0.00    -0.279 OA
HETATM   10  C10 UNL     1       3.490  18.917  15.292  1.00  0.00     0.198 C 
HETATM   11  C11 UNL     1       2.672  17.668  15.074  1.00  0.00     0.199 C 
ENDROOT
BRANCH   1  12
HETATM   12  N4  UNL     1       3.406  15.321  14.992  1.00  0.00    -0.312 N 
HETATM   13  C3  UNL     1       2.570  14.475  14.385  1.00  0.00     0.124 A 
HETATM   14  N3  UNL     1       1.769  14.577  13.332  1.00  0.00    -0.338 N 
HETATM   15  C4  UNL     1       2.599  13.252  15.055  1.00  0.00     0.051 A 
HETATM   16  C2  UNL     1       1.009  13.554  12.912  1.00  0.00     0.183 A 
ATOM     17  H3  UNL     1       1.730  15.461  12.825  1.00  0.00     0.168 HD
HETATM   18  N2  UNL     1       0.998  12.349  13.522  1.00  0.00    -0.340 N 
HETATM   19  C1  UNL     1       1.809  12.226  14.600  1.00  0.00     0.131 A 
ATOM     20  H2  UNL     1       0.416  11.580  13.192  1.00  0.00     0.167 HD
HETATM   21  N1  UNL     1       1.820  10.969  15.267  1.00  0.00    -0.082 NA
HETATM   22  C5  UNL     1       3.481  13.401  16.082  1.00  0.00     0.036 A 
HETATM   23  C6  UNL     1       3.973  14.666  16.040  1.00  0.00     0.096 A 
ENDBRANCH   1  12
BRANCH  11  24
HETATM   24  O6  UNL     1       1.677  17.862  14.120  1.00  0.00    -0.388 OA
ATOM     25  H6  UNL     1       1.860  17.420  13.300  1.00  0.00     0.210 HD
ENDBRANCH  11  24
TORSDOF 2
ENDMDL
