MODEL 7
REMARK VINA RESULT: -6.649877835      5.446      8.181
REMARK  2 active torsions:
REMARK  status: ('A' for Active; 'I' for Inactive)
REMARK    1  A    between atoms: N4_12  and  C7_13 
REMARK    2  A    between atoms: C11_23  and  O6_24 
ROOT
HETATM    1  C7  UNL     1       1.662  12.599  14.120  1.00  0.00     0.261 C 
HETATM    2  O1  UNL     1       0.372  13.020  13.734  1.00  0.00    -0.353 OA
HETATM    3  C8  UNL     1      -0.089  11.774  13.242  1.00  0.00     0.180 C 
HETATM    4  C9  UNL     1      -1.493  11.859  12.754  1.00  0.00     0.216 C 
HETATM    5  O2  UNL     1      -2.086  10.659  12.568  1.00  0.00    -0.287 OA
HETATM    6  P1  UNL     1      -1.142   9.402  13.086  1.00  0.00     0.408 P 
HETATM    7  O3  UNL     1      -2.167   8.960  14.114  1.00  0.00    -0.624 OA
HETATM    8  O4  UNL     1      -1.210   7.930  12.314  1.00  0.00    -0.624 OA
HETATM    9  O5  UNL     1       0.036   9.644  14.204  1.00  0.00    -0.279 OA
HETATM   10  C10 UNL     1       0.029  10.967  14.539  1.00  0.00     0.198 C 
HETATM   11  C11 UNL     1       1.359  11.469  15.043  1.00  0.00     0.199 C 
ENDROOT
BRANCH   1  12
HETATM   12  N4  UNL     1       2.444  13.647  14.673  1.00  0.00    -0.312 N 
HETATM   13  C3  UNL     1       2.567  14.904  14.240  1.00  0.00     0.124 A 
HETATM   14  N3  UNL     1       2.049  15.577  13.221  1.00  0.00    -0.338 N 
HETATM   15  C4  UNL     1       3.440  15.589  15.086  1.00  0.00     0.051 A 
HETATM   16  C2  UNL     1       2.339  16.868  12.996  1.00  0.00     0.183 A 
ATOM     17  H3  UNL     1       1.409  15.098  12.588  1.00  0.00     0.168 HD
HETATM   18  N2  UNL     1       3.176  17.579  13.783  1.00  0.00    -0.340 N 
HETATM   19  C1  UNL     1       3.717  16.909  14.828  1.00  0.00     0.131 A 
ATOM     20  H2  UNL     1       3.387  18.560  13.600  1.00  0.00     0.167 HD
HETATM   21  N1  UNL     1       4.603  17.630  15.676  1.00  0.00    -0.082 NA
HETATM   22  C5  UNL     1       3.830  14.695  16.036  1.00  0.00     0.036 A 
HETATM   23  C6  UNL     1       3.220  13.510  15.780  1.00  0.00     0.096 A 
ENDBRANCH   1  12
BRANCH  11  24
HETATM   24  O6  UNL     1       2.331  10.472  15.016  1.00  0.00    -0.388 OA
ATOM     25  H6  UNL     1       3.215  10.815  15.084  1.00  0.00     0.210 HD
ENDBRANCH  11  24
TORSDOF 2
ENDMDL
