MODEL 3
REMARK VINA RESULT: -7.866444922      1.616      1.683
REMARK  10 active torsions:
REMARK  status: ('A' for Active; 'I' for Inactive)
REMARK    1  A    between atoms: N5_13  and  C6_14 
REMARK    2  A    between atoms: C7_16  and  C8_17 
REMARK    3  A    between atoms: C8_17  and  S1_18 
REMARK    4  A    between atoms: S1_18  and  C9_19 
REMARK    5  A    between atoms: C9_19  and  C10_20 
REMARK    6  A    between atoms: C10_20  and  C11_21 
REMARK    7  A    between atoms: C11_21  and  N6_22 
REMARK    8  A    between atoms: C11_21  and  C12_26 
REMARK    9  A    between atoms: C13_29  and  O4_30 
REMARK   10  A    between atoms: C14_32  and  O5_33 
ROOT
HETATM    1  C6  UNL     1      28.450   1.297 -25.174  1.00  0.00     0.262 C 
HETATM    2  O1  UNL     1      28.855   2.152 -26.202  1.00  0.00    -0.355 OA
HETATM    3  C7  UNL     1      27.673   2.823 -26.596  1.00  0.00     0.165 C 
HETATM    4  C13 UNL     1      27.141   3.231 -25.238  1.00  0.00     0.180 C 
HETATM    5  C14 UNL     1      27.252   1.891 -24.525  1.00  0.00     0.198 C 
ENDROOT
BRANCH   1   6
HETATM    6  N5  UNL     1      29.526   0.962 -24.295  1.00  0.00    -0.297 N 
HETATM    7  C3  UNL     1      30.856   0.967 -24.504  1.00  0.00     0.142 A 
HETATM    8  N3  UNL     1      31.537   1.298 -25.614  1.00  0.00    -0.336 N 
HETATM    9  C4  UNL     1      31.528   0.568 -23.374  1.00  0.00     0.119 A 
HETATM   10  C2  UNL     1      32.879   1.221 -25.568  1.00  0.00     0.183 A 
ATOM     11  H3  UNL     1      31.054   1.597 -26.461  1.00  0.00     0.168 HD
HETATM   12  N2  UNL     1      33.557   0.827 -24.461  1.00  0.00    -0.339 N 
HETATM   13  C1  UNL     1      32.915   0.490 -23.334  1.00  0.00     0.148 A 
ATOM     14  H2  UNL     1      34.576   0.787 -24.486  1.00  0.00     0.167 HD
HETATM   15  N1  UNL     1      33.542   0.070 -22.140  1.00  0.00    -0.080 NA
HETATM   16  N4  UNL     1      30.571   0.311 -22.450  1.00  0.00    -0.346 N 
HETATM   17  C5  UNL     1      29.369   0.547 -23.004  1.00  0.00     0.188 A 
ATOM     18  H4  UNL     1      30.734  -0.008 -21.496  1.00  0.00     0.167 HD
ENDBRANCH   1   6
BRANCH   5  19
HETATM   19  O5  UNL     1      26.077   1.191 -24.851  1.00  0.00    -0.388 OA
ATOM     20  H5  UNL     1      25.314   1.756 -24.844  1.00  0.00     0.210 HD
ENDBRANCH   5  19
BRANCH   3  21
HETATM   21  C8  UNL     1      27.997   3.990 -27.480  1.00  0.00     0.108 C 
BRANCH  21  22
HETATM   22  S1  UNL     1      29.793   3.893 -27.833  1.00  0.00    -0.166 SA
BRANCH  22  23
HETATM   23  C9  UNL     1      30.021   2.912 -29.359  1.00  0.00     0.076 C 
BRANCH  23  24
HETATM   24  C10 UNL     1      28.782   2.929 -30.184  1.00  0.00     0.054 C 
BRANCH  24  25
HETATM   25  C11 UNL     1      28.362   1.559 -30.641  1.00  0.00     0.284 C 
BRANCH  25  26
HETATM   26  N6  UNL     1      28.831   0.528 -29.725  1.00  0.00    -0.065 N 
ATOM     27  H63 UNL     1      29.577   0.875 -29.122  1.00  0.00     0.275 HD
ATOM     28  H62 UNL     1      28.135   0.319 -29.010  1.00  0.00     0.275 HD
ATOM     29  H61 UNL     1      29.116  -0.312 -30.227  1.00  0.00     0.275 HD
ENDBRANCH  25  26
BRANCH  25  30
HETATM   30  C12 UNL     1      28.826   1.200 -31.997  1.00  0.00     0.204 C 
HETATM   31  O2  UNL     1      27.997   0.810 -32.890  1.00  0.00    -0.646 OA
HETATM   32  O3  UNL     1      30.144   1.251 -32.413  1.00  0.00    -0.646 OA
ENDBRANCH  25  30
ENDBRANCH  24  25
ENDBRANCH  23  24
ENDBRANCH  22  23
ENDBRANCH  21  22
ENDBRANCH   3  21
BRANCH   4  33
HETATM   33  O4  UNL     1      25.817   3.655 -25.310  1.00  0.00    -0.390 OA
ATOM     34  H4  UNL     1      25.755   4.581 -25.516  1.00  0.00     0.210 HD
ENDBRANCH   4  33
TORSDOF 10
ENDMDL
