MODEL 2
REMARK VINA RESULT: -7.984850930      1.177      1.187
REMARK  10 active torsions:
REMARK  status: ('A' for Active; 'I' for Inactive)
REMARK    1  A    between atoms: N5_13  and  C6_14 
REMARK    2  A    between atoms: C7_16  and  C8_17 
REMARK    3  A    between atoms: C8_17  and  S1_18 
REMARK    4  A    between atoms: S1_18  and  C9_19 
REMARK    5  A    between atoms: C9_19  and  C10_20 
REMARK    6  A    between atoms: C10_20  and  C11_21 
REMARK    7  A    between atoms: C11_21  and  N6_22 
REMARK    8  A    between atoms: C11_21  and  C12_26 
REMARK    9  A    between atoms: C13_29  and  O4_30 
REMARK   10  A    between atoms: C14_32  and  O5_33 
ROOT
HETATM    1  C6  UNL     1      28.478   1.271 -25.133  1.00  0.00     0.262 C 
HETATM    2  O1  UNL     1      28.899   2.111 -26.168  1.00  0.00    -0.355 OA
HETATM    3  C7  UNL     1      27.726   2.786 -26.580  1.00  0.00     0.165 C 
HETATM    4  C13 UNL     1      27.185   3.214 -25.231  1.00  0.00     0.180 C 
HETATM    5  C14 UNL     1      27.279   1.882 -24.502  1.00  0.00     0.198 C 
ENDROOT
BRANCH   1   6
HETATM    6  N5  UNL     1      29.544   0.937 -24.242  1.00  0.00    -0.297 N 
HETATM    7  C3  UNL     1      30.876   0.945 -24.434  1.00  0.00     0.142 A 
HETATM    8  N3  UNL     1      31.571   1.277 -25.535  1.00  0.00    -0.336 N 
HETATM    9  C4  UNL     1      31.535   0.546 -23.296  1.00  0.00     0.119 A 
HETATM   10  C2  UNL     1      32.912   1.202 -25.472  1.00  0.00     0.183 A 
ATOM     11  H3  UNL     1      31.098   1.576 -26.388  1.00  0.00     0.168 HD
HETATM   12  N2  UNL     1      33.577   0.809 -24.357  1.00  0.00    -0.339 N 
HETATM   13  C1  UNL     1      32.921   0.471 -23.238  1.00  0.00     0.148 A 
ATOM     14  H2  UNL     1      34.596   0.771 -24.369  1.00  0.00     0.167 HD
HETATM   15  N1  UNL     1      33.534   0.052 -22.037  1.00  0.00    -0.080 NA
HETATM   16  N4  UNL     1      30.566   0.288 -22.384  1.00  0.00    -0.346 N 
HETATM   17  C5  UNL     1      29.371   0.522 -22.953  1.00  0.00     0.188 A 
ATOM     18  H4  UNL     1      30.718  -0.031 -21.427  1.00  0.00     0.167 HD
ENDBRANCH   1   6
BRANCH   5  19
HETATM   19  O5  UNL     1      26.101   1.187 -24.830  1.00  0.00    -0.388 OA
ATOM     20  H5  UNL     1      25.384   1.413 -24.251  1.00  0.00     0.210 HD
ENDBRANCH   5  19
BRANCH   3  21
HETATM   21  C8  UNL     1      28.067   3.941 -27.473  1.00  0.00     0.108 C 
BRANCH  21  22
HETATM   22  S1  UNL     1      28.773   3.223 -29.005  1.00  0.00    -0.166 SA
BRANCH  22  23
HETATM   23  C9  UNL     1      27.722   1.814 -29.510  1.00  0.00     0.076 C 
BRANCH  23  24
HETATM   24  C10 UNL     1      28.503   0.840 -30.320  1.00  0.00     0.054 C 
BRANCH  24  25
HETATM   25  C11 UNL     1      28.769   1.321 -31.721  1.00  0.00     0.284 C 
BRANCH  25  26
HETATM   26  N6  UNL     1      28.025   0.538 -32.699  1.00  0.00    -0.065 N 
ATOM     27  H63 UNL     1      28.575  -0.249 -33.044  1.00  0.00     0.275 HD
ATOM     28  H62 UNL     1      27.264   0.019 -32.262  1.00  0.00     0.275 HD
ATOM     29  H61 UNL     1      27.689   1.123 -33.463  1.00  0.00     0.275 HD
ENDBRANCH  25  26
BRANCH  25  30
HETATM   30  C12 UNL     1      30.193   1.295 -32.114  1.00  0.00     0.204 C 
HETATM   31  O2  UNL     1      30.607   0.489 -33.017  1.00  0.00    -0.646 OA
HETATM   32  O3  UNL     1      31.171   2.105 -31.569  1.00  0.00    -0.646 OA
ENDBRANCH  25  30
ENDBRANCH  24  25
ENDBRANCH  23  24
ENDBRANCH  22  23
ENDBRANCH  21  22
ENDBRANCH   3  21
BRANCH   4  33
HETATM   33  O4  UNL     1      25.866   3.648 -25.320  1.00  0.00    -0.390 OA
ATOM     34  H4  UNL     1      25.714   4.154 -26.110  1.00  0.00     0.210 HD
ENDBRANCH   4  33
TORSDOF 10
ENDMDL
