MODEL 1
REMARK VINA RESULT: -8.001600625      0.000      0.000
REMARK  10 active torsions:
REMARK  status: ('A' for Active; 'I' for Inactive)
REMARK    1  A    between atoms: N5_13  and  C6_14 
REMARK    2  A    between atoms: C7_16  and  C8_17 
REMARK    3  A    between atoms: C8_17  and  S1_18 
REMARK    4  A    between atoms: S1_18  and  C9_19 
REMARK    5  A    between atoms: C9_19  and  C10_20 
REMARK    6  A    between atoms: C10_20  and  C11_21 
REMARK    7  A    between atoms: C11_21  and  N6_22 
REMARK    8  A    between atoms: C11_21  and  C12_26 
REMARK    9  A    between atoms: C13_29  and  O4_30 
REMARK   10  A    between atoms: C14_32  and  O5_33 
ROOT
HETATM    1  C6  UNL     1      28.411   1.345 -24.942  1.00  0.00     0.262 C 
HETATM    2  O1  UNL     1      28.931   2.123 -25.979  1.00  0.00    -0.355 OA
HETATM    3  C7  UNL     1      27.805   2.767 -26.542  1.00  0.00     0.165 C 
HETATM    4  C13 UNL     1      27.136   3.272 -25.281  1.00  0.00     0.180 C 
HETATM    5  C14 UNL     1      27.157   1.986 -24.467  1.00  0.00     0.198 C 
ENDROOT
BRANCH   1   6
HETATM    6  N5  UNL     1      29.385   1.070 -23.932  1.00  0.00    -0.297 N 
HETATM    7  C3  UNL     1      30.434   1.801 -23.511  1.00  0.00     0.142 A 
HETATM    8  N3  UNL     1      30.850   3.006 -23.933  1.00  0.00    -0.336 N 
HETATM    9  C4  UNL     1      31.112   1.147 -22.510  1.00  0.00     0.119 A 
HETATM   10  C2  UNL     1      31.938   3.531 -23.343  1.00  0.00     0.183 A 
ATOM     11  H3  UNL     1      30.358   3.505 -24.674  1.00  0.00     0.168 HD
HETATM   12  N2  UNL     1      32.619   2.898 -22.355  1.00  0.00    -0.339 N 
HETATM   13  C1  UNL     1      32.236   1.695 -21.905  1.00  0.00     0.148 A 
ATOM     14  H2  UNL     1      33.440   3.346 -21.946  1.00  0.00     0.167 HD
HETATM   15  N1  UNL     1      32.887   0.970 -20.883  1.00  0.00    -0.080 NA
HETATM   16  N4  UNL     1      30.450  -0.020 -22.321  1.00  0.00    -0.346 N 
HETATM   17  C5  UNL     1      29.414  -0.066 -23.176  1.00  0.00     0.188 A 
ATOM     18  H4  UNL     1      30.696  -0.743 -21.645  1.00  0.00     0.167 HD
ENDBRANCH   1   6
BRANCH   5  19
HETATM   19  O5  UNL     1      26.016   1.267 -24.867  1.00  0.00    -0.388 OA
ATOM     20  H5  UNL     1      25.261   1.832 -24.975  1.00  0.00     0.210 HD
ENDBRANCH   5  19
BRANCH   3  21
HETATM   21  C8  UNL     1      28.232   3.869 -27.466  1.00  0.00     0.108 C 
BRANCH  21  22
HETATM   22  S1  UNL     1      28.944   3.058 -28.948  1.00  0.00    -0.166 SA
BRANCH  22  23
HETATM   23  C9  UNL     1      27.771   1.772 -29.511  1.00  0.00     0.076 C 
BRANCH  23  24
HETATM   24  C10 UNL     1      28.460   0.777 -30.378  1.00  0.00     0.054 C 
BRANCH  24  25
HETATM   25  C11 UNL     1      28.700   1.281 -31.775  1.00  0.00     0.284 C 
BRANCH  25  26
HETATM   26  N6  UNL     1      27.937   0.516 -32.752  1.00  0.00    -0.065 N 
ATOM     27  H63 UNL     1      27.211  -0.044 -32.305  1.00  0.00     0.275 HD
ATOM     28  H62 UNL     1      27.343   1.120 -33.319  1.00  0.00     0.275 HD
ATOM     29  H61 UNL     1      28.548  -0.059 -33.331  1.00  0.00     0.275 HD
ENDBRANCH  25  26
BRANCH  25  30
HETATM   30  C12 UNL     1      30.116   1.260 -32.194  1.00  0.00     0.204 C 
HETATM   31  O2  UNL     1      30.548   0.359 -32.995  1.00  0.00    -0.646 OA
HETATM   32  O3  UNL     1      31.070   2.172 -31.782  1.00  0.00    -0.646 OA
ENDBRANCH  25  30
ENDBRANCH  24  25
ENDBRANCH  23  24
ENDBRANCH  22  23
ENDBRANCH  21  22
ENDBRANCH   3  21
BRANCH   4  33
HETATM   33  O4  UNL     1      25.831   3.693 -25.523  1.00  0.00    -0.390 OA
ATOM     34  H4  UNL     1      25.572   4.392 -24.934  1.00  0.00     0.210 HD
ENDBRANCH   4  33
TORSDOF 10
ENDMDL
