MODEL 7
REMARK VINA RESULT: -9.720841488      3.054      6.365
REMARK  6 active torsions:
REMARK  status: ('A' for Active; 'I' for Inactive)
REMARK    1  A    between atoms: O1_2  and  C2_3 
REMARK    2  A    between atoms: C4_5  and  N1_6 
REMARK    3  A    between atoms: N1_6  and  C5_8 
REMARK    4  A    between atoms: C10_15  and  C11_16 
REMARK    5  A    between atoms: C20_30  and  O3_31 
REMARK    6  A    between atoms: C22_33  and  O4_34 
ROOT
HETATM    1  C5  UNL     1     -18.133  -0.980 -23.713  1.00  0.00     0.230 A 
HETATM    2  N2  UNL     1     -17.354  -2.060 -23.649  1.00  0.00    -0.319 N 
ATOM      3  H2  UNL     1     -17.686  -3.020 -23.745  1.00  0.00     0.169 HD
HETATM    4  C6  UNL     1     -16.067  -1.709 -23.441  1.00  0.00     0.070 A 
HETATM    5  C7  UNL     1     -14.888  -2.368 -23.299  1.00  0.00     0.032 A 
HETATM    6  C8  UNL     1     -13.728  -1.656 -23.094  1.00  0.00     0.003 A 
HETATM    7  C9  UNL     1     -13.780  -0.295 -23.035  1.00  0.00     0.015 A 
HETATM    8  C10 UNL     1     -14.952   0.436 -23.173  1.00  0.00     0.013 A 
HETATM    9  C18 UNL     1     -16.110  -0.316 -23.381  1.00  0.00     0.117 A 
HETATM   10  O2  UNL     1     -17.341   0.074 -23.545  1.00  0.00    -0.276 OA
ENDROOT
BRANCH   1  11
HETATM   11  N1  UNL     1     -19.532  -0.960 -23.919  1.00  0.00    -0.322 N 
ATOM     12  H1  UNL     1     -19.965  -1.842 -24.193  1.00  0.00     0.169 HD
BRANCH  11  13
HETATM   13  C4  UNL     1     -20.388   0.147 -23.787  1.00  0.00     0.040 A 
HETATM   14  C3  UNL     1     -20.038   1.391 -23.364  1.00  0.00     0.069 A 
HETATM   15  C2  UNL     1     -20.946   2.451 -23.249  1.00  0.00     0.106 A 
HETATM   16  C22 UNL     1     -22.257   2.222 -23.581  1.00  0.00     0.135 A 
HETATM   17  C20 UNL     1     -22.657   0.958 -24.021  1.00  0.00     0.106 A 
HETATM   18  C19 UNL     1     -21.733  -0.047 -24.117  1.00  0.00     0.069 A 
BRANCH  15  19
HETATM   19  O1  UNL     1     -20.531   3.704 -22.810  1.00  0.00    -0.353 OA
HETATM   20  C1  UNL     1     -19.346   3.780 -22.049  1.00  0.00     0.210 C 
ENDBRANCH  15  19
BRANCH  16  21
HETATM   21  O4  UNL     1     -23.209   3.204 -23.496  1.00  0.00    -0.351 OA
HETATM   22  C23 UNL     1     -23.904   3.520 -22.319  1.00  0.00     0.210 C 
ENDBRANCH  16  21
BRANCH  17  23
HETATM   23  O3  UNL     1     -23.989   0.719 -24.358  1.00  0.00    -0.353 OA
HETATM   24  C21 UNL     1     -24.804   0.029 -23.435  1.00  0.00     0.210 C 
ENDBRANCH  17  23
ENDBRANCH  11  13
ENDBRANCH   1  11
BRANCH   8  25
HETATM   25  C11 UNL     1     -15.010   1.891 -23.098  1.00  0.00     0.006 A 
HETATM   26  C12 UNL     1     -15.880   2.620 -23.897  1.00  0.00     0.015 A 
HETATM   27  C13 UNL     1     -15.949   3.992 -23.808  1.00  0.00     0.003 A 
HETATM   28  C14 UNL     1     -15.143   4.662 -22.912  1.00  0.00     0.032 A 
HETATM   29  C15 UNL     1     -14.264   3.965 -22.102  1.00  0.00     0.060 A 
HETATM   30  N3  UNL     1     -13.384   4.357 -21.171  1.00  0.00    -0.350 N 
HETATM   31  C17 UNL     1     -14.206   2.569 -22.203  1.00  0.00     0.071 A 
HETATM   32  C16 UNL     1     -12.784   3.253 -20.696  1.00  0.00     0.181 A 
ATOM     33  H3  UNL     1     -13.203   5.317 -20.878  1.00  0.00     0.166 HD
HETATM   34  N4  UNL     1     -13.277   2.173 -21.317  1.00  0.00    -0.350 N 
ATOM     35  H4  UNL     1     -12.994   1.208 -21.144  1.00  0.00     0.166 HD
ENDBRANCH   8  25
TORSDOF 6
ENDMDL
