MODEL 1
REMARK VINA RESULT: -10.105460680      0.000      0.000
REMARK  6 active torsions:
REMARK  status: ('A' for Active; 'I' for Inactive)
REMARK    1  A    between atoms: O1_2  and  C2_3 
REMARK    2  A    between atoms: C4_5  and  N1_6 
REMARK    3  A    between atoms: N1_6  and  C5_8 
REMARK    4  A    between atoms: C10_15  and  C11_16 
REMARK    5  A    between atoms: C20_30  and  O3_31 
REMARK    6  A    between atoms: C22_33  and  O4_34 
ROOT
HETATM    1  C5  UNL     1     -13.802   3.135 -20.966  1.00  0.00     0.230 A 
HETATM    2  N2  UNL     1     -12.503   3.047 -21.255  1.00  0.00    -0.319 N 
ATOM      3  H2  UNL     1     -11.790   3.696 -20.922  1.00  0.00     0.169 HD
HETATM    4  C6  UNL     1     -12.262   1.980 -22.047  1.00  0.00     0.070 A 
HETATM    5  C7  UNL     1     -11.166   1.425 -22.627  1.00  0.00     0.032 A 
HETATM    6  C8  UNL     1     -11.301   0.293 -23.397  1.00  0.00     0.003 A 
HETATM    7  C9  UNL     1     -12.536  -0.257 -23.569  1.00  0.00     0.015 A 
HETATM    8  C10 UNL     1     -13.693   0.262 -23.003  1.00  0.00     0.013 A 
HETATM    9  C18 UNL     1     -13.522   1.410 -22.227  1.00  0.00     0.117 A 
HETATM   10  O2  UNL     1     -14.400   2.118 -21.576  1.00  0.00    -0.276 OA
ENDROOT
BRANCH   1  11
HETATM   11  N1  UNL     1     -14.423   4.121 -20.165  1.00  0.00    -0.322 N 
ATOM     12  H1  UNL     1     -14.034   4.261 -19.232  1.00  0.00     0.169 HD
BRANCH  11  13
HETATM   13  C4  UNL     1     -15.518   4.928 -20.518  1.00  0.00     0.040 A 
HETATM   14  C3  UNL     1     -16.676   4.509 -21.094  1.00  0.00     0.069 A 
HETATM   15  C2  UNL     1     -17.729   5.370 -21.426  1.00  0.00     0.106 A 
HETATM   16  C22 UNL     1     -17.585   6.707 -21.157  1.00  0.00     0.135 A 
HETATM   17  C20 UNL     1     -16.409   7.178 -20.565  1.00  0.00     0.106 A 
HETATM   18  C19 UNL     1     -15.409   6.297 -20.258  1.00  0.00     0.069 A 
BRANCH  15  19
HETATM   19  O1  UNL     1     -18.893   4.883 -22.014  1.00  0.00    -0.353 OA
HETATM   20  C1  UNL     1     -19.468   3.714 -21.476  1.00  0.00     0.210 C 
ENDBRANCH  15  19
BRANCH  16  21
HETATM   21  O4  UNL     1     -18.566   7.616 -21.451  1.00  0.00    -0.351 OA
HETATM   22  C23 UNL     1     -19.642   7.909 -20.599  1.00  0.00     0.210 C 
ENDBRANCH  16  21
BRANCH  17  23
HETATM   23  O3  UNL     1     -16.256   8.536 -20.290  1.00  0.00    -0.353 OA
HETATM   24  C21 UNL     1     -15.011   8.988 -19.803  1.00  0.00     0.210 C 
ENDBRANCH  17  23
ENDBRANCH  11  13
ENDBRANCH   1  11
BRANCH   8  25
HETATM   25  C11 UNL     1     -15.017  -0.318 -23.197  1.00  0.00     0.006 A 
HETATM   26  C12 UNL     1     -15.232  -1.684 -23.065  1.00  0.00     0.015 A 
HETATM   27  C13 UNL     1     -16.486  -2.227 -23.226  1.00  0.00     0.003 A 
HETATM   28  C14 UNL     1     -17.554  -1.406 -23.526  1.00  0.00     0.032 A 
HETATM   29  C15 UNL     1     -17.373  -0.042 -23.664  1.00  0.00     0.060 A 
HETATM   30  N3  UNL     1     -18.217   0.959 -23.951  1.00  0.00    -0.350 N 
HETATM   31  C17 UNL     1     -16.091   0.496 -23.497  1.00  0.00     0.071 A 
HETATM   32  C16 UNL     1     -17.499   2.095 -23.967  1.00  0.00     0.181 A 
ATOM     33  H3  UNL     1     -19.218   0.874 -24.125  1.00  0.00     0.166 HD
HETATM   34  N4  UNL     1     -16.217   1.819 -23.694  1.00  0.00    -0.350 N 
ATOM     35  H4  UNL     1     -15.460   2.501 -23.643  1.00  0.00     0.166 HD
ENDBRANCH   8  25
TORSDOF 6
ENDMDL
