MODEL 4
REMARK VINA RESULT: -9.820256453      2.913      5.834
REMARK  6 active torsions:
REMARK  status: ('A' for Active; 'I' for Inactive)
REMARK    1  A    between atoms: O1_2  and  C2_3 
REMARK    2  A    between atoms: C4_5  and  N1_6 
REMARK    3  A    between atoms: N1_6  and  C5_8 
REMARK    4  A    between atoms: C10_15  and  C11_16 
REMARK    5  A    between atoms: C20_30  and  O3_31 
REMARK    6  A    between atoms: C22_33  and  O4_34 
ROOT
HETATM    1  C5  UNL     1     -17.919  -1.132 -23.677  1.00  0.00     0.230 A 
HETATM    2  N2  UNL     1     -17.094  -2.179 -23.622  1.00  0.00    -0.319 N 
ATOM      3  H2  UNL     1     -17.385  -3.152 -23.719  1.00  0.00     0.169 HD
HETATM    4  C6  UNL     1     -15.822  -1.774 -23.422  1.00  0.00     0.070 A 
HETATM    5  C7  UNL     1     -14.615  -2.383 -23.290  1.00  0.00     0.032 A 
HETATM    6  C8  UNL     1     -13.485  -1.623 -23.091  1.00  0.00     0.003 A 
HETATM    7  C9  UNL     1     -13.594  -0.266 -23.028  1.00  0.00     0.015 A 
HETATM    8  C10 UNL     1     -14.797   0.416 -23.156  1.00  0.00     0.013 A 
HETATM    9  C18 UNL     1     -15.924  -0.384 -23.357  1.00  0.00     0.117 A 
HETATM   10  O2  UNL     1     -17.172  -0.047 -23.511  1.00  0.00    -0.276 OA
ENDROOT
BRANCH   1  11
HETATM   11  N1  UNL     1     -19.318  -1.171 -23.873  1.00  0.00    -0.322 N 
ATOM     12  H1  UNL     1     -19.724  -2.083 -24.087  1.00  0.00     0.169 HD
BRANCH  11  13
HETATM   13  C4  UNL     1     -20.210  -0.088 -23.805  1.00  0.00     0.040 A 
HETATM   14  C3  UNL     1     -21.536  -0.115 -24.105  1.00  0.00     0.069 A 
HETATM   15  C2  UNL     1     -22.370   1.007 -24.022  1.00  0.00     0.106 A 
HETATM   16  C22 UNL     1     -21.821   2.196 -23.616  1.00  0.00     0.135 A 
HETATM   17  C20 UNL     1     -20.462   2.266 -23.297  1.00  0.00     0.106 A 
HETATM   18  C19 UNL     1     -19.688   1.142 -23.394  1.00  0.00     0.069 A 
BRANCH  15  19
HETATM   19  O1  UNL     1     -23.722   0.919 -24.342  1.00  0.00    -0.353 OA
HETATM   20  C1  UNL     1     -24.526   0.041 -23.588  1.00  0.00     0.210 C 
ENDBRANCH  15  19
BRANCH  16  21
HETATM   21  O4  UNL     1     -22.566   3.340 -23.508  1.00  0.00    -0.351 OA
HETATM   22  C23 UNL     1     -23.291   3.696 -22.360  1.00  0.00     0.210 C 
ENDBRANCH  16  21
BRANCH  17  23
HETATM   23  O3  UNL     1     -19.897   3.472 -22.884  1.00  0.00    -0.353 OA
HETATM   24  C21 UNL     1     -19.215   3.508 -21.649  1.00  0.00     0.210 C 
ENDBRANCH  17  23
ENDBRANCH  11  13
ENDBRANCH   1  11
BRANCH   8  25
HETATM   25  C11 UNL     1     -14.916   1.867 -23.075  1.00  0.00     0.006 A 
HETATM   26  C12 UNL     1     -15.823   2.560 -23.866  1.00  0.00     0.015 A 
HETATM   27  C13 UNL     1     -15.950   3.927 -23.773  1.00  0.00     0.003 A 
HETATM   28  C14 UNL     1     -15.165   4.629 -22.881  1.00  0.00     0.032 A 
HETATM   29  C15 UNL     1     -14.252   3.968 -22.079  1.00  0.00     0.060 A 
HETATM   30  N3  UNL     1     -13.383   4.395 -21.154  1.00  0.00    -0.350 N 
HETATM   31  C17 UNL     1     -14.135   2.576 -22.185  1.00  0.00     0.071 A 
HETATM   32  C16 UNL     1     -12.732   3.316 -20.686  1.00  0.00     0.181 A 
ATOM     33  H3  UNL     1     -13.240   5.361 -20.859  1.00  0.00     0.166 HD
HETATM   34  N4  UNL     1     -13.184   2.218 -21.307  1.00  0.00    -0.350 N 
ATOM     35  H4  UNL     1     -12.858   1.265 -21.139  1.00  0.00     0.166 HD
ENDBRANCH   8  25
TORSDOF 6
ENDMDL
