MODEL 3
REMARK VINA RESULT: -9.985690016      0.598      2.356
REMARK  6 active torsions:
REMARK  status: ('A' for Active; 'I' for Inactive)
REMARK    1  A    between atoms: O1_2  and  C2_3 
REMARK    2  A    between atoms: C4_5  and  N1_6 
REMARK    3  A    between atoms: N1_6  and  C5_8 
REMARK    4  A    between atoms: C10_15  and  C11_16 
REMARK    5  A    between atoms: C20_30  and  O3_31 
REMARK    6  A    between atoms: C22_33  and  O4_34 
ROOT
HETATM    1  C5  UNL     1     -14.065   3.223 -21.024  1.00  0.00     0.230 A 
HETATM    2  N2  UNL     1     -12.759   3.203 -21.294  1.00  0.00    -0.319 N 
ATOM      3  H2  UNL     1     -12.089   3.901 -20.971  1.00  0.00     0.169 HD
HETATM    4  C6  UNL     1     -12.445   2.132 -22.054  1.00  0.00     0.070 A 
HETATM    5  C7  UNL     1     -11.311   1.627 -22.605  1.00  0.00     0.032 A 
HETATM    6  C8  UNL     1     -11.370   0.469 -23.347  1.00  0.00     0.003 A 
HETATM    7  C9  UNL     1     -12.569  -0.157 -23.518  1.00  0.00     0.015 A 
HETATM    8  C10 UNL     1     -13.762   0.309 -22.981  1.00  0.00     0.013 A 
HETATM    9  C18 UNL     1     -13.668   1.485 -22.235  1.00  0.00     0.117 A 
HETATM   10  O2  UNL     1     -14.594   2.157 -21.614  1.00  0.00    -0.276 OA
ENDROOT
BRANCH   1  11
HETATM   11  N1  UNL     1     -14.752   4.192 -20.258  1.00  0.00    -0.322 N 
ATOM     12  H1  UNL     1     -14.449   4.307 -19.291  1.00  0.00     0.169 HD
BRANCH  11  13
HETATM   13  C4  UNL     1     -15.809   5.013 -20.687  1.00  0.00     0.040 A 
HETATM   14  C3  UNL     1     -15.850   6.371 -20.628  1.00  0.00     0.069 A 
HETATM   15  C2  UNL     1     -16.940   7.130 -21.070  1.00  0.00     0.106 A 
HETATM   16  C22 UNL     1     -18.025   6.470 -21.589  1.00  0.00     0.135 A 
HETATM   17  C20 UNL     1     -18.022   5.074 -21.667  1.00  0.00     0.106 A 
HETATM   18  C19 UNL     1     -16.932   4.376 -21.223  1.00  0.00     0.069 A 
BRANCH  15  19
HETATM   19  O1  UNL     1     -16.926   8.519 -20.984  1.00  0.00    -0.353 OA
HETATM   20  C1  UNL     1     -16.050   9.226 -21.833  1.00  0.00     0.210 C 
ENDBRANCH  15  19
BRANCH  16  21
HETATM   21  O4  UNL     1     -19.132   7.137 -22.042  1.00  0.00    -0.351 OA
HETATM   22  C23 UNL     1     -20.219   7.491 -21.228  1.00  0.00     0.210 C 
ENDBRANCH  16  21
BRANCH  17  23
HETATM   23  O3  UNL     1     -19.121   4.397 -22.193  1.00  0.00    -0.353 OA
HETATM   24  C21 UNL     1     -19.718   3.379 -21.418  1.00  0.00     0.210 C 
ENDBRANCH  17  23
ENDBRANCH  11  13
ENDBRANCH   1  11
BRANCH   8  25
HETATM   25  C11 UNL     1     -15.047  -0.352 -23.176  1.00  0.00     0.006 A 
HETATM   26  C12 UNL     1     -15.184  -1.724 -23.010  1.00  0.00     0.015 A 
HETATM   27  C13 UNL     1     -16.403  -2.343 -23.172  1.00  0.00     0.003 A 
HETATM   28  C14 UNL     1     -17.512  -1.594 -23.506  1.00  0.00     0.032 A 
HETATM   29  C15 UNL     1     -17.409  -0.226 -23.679  1.00  0.00     0.060 A 
HETATM   30  N3  UNL     1     -18.305   0.717 -24.001  1.00  0.00    -0.350 N 
HETATM   31  C17 UNL     1     -16.162   0.390 -23.510  1.00  0.00     0.071 A 
HETATM   32  C16 UNL     1     -17.654   1.892 -24.039  1.00  0.00     0.181 A 
ATOM     33  H3  UNL     1     -19.297   0.570 -24.185  1.00  0.00     0.166 HD
HETATM   34  N4  UNL     1     -16.362   1.698 -23.743  1.00  0.00    -0.350 N 
ATOM     35  H4  UNL     1     -15.646   2.425 -23.702  1.00  0.00     0.166 HD
ENDBRANCH   8  25
TORSDOF 6
ENDMDL
