MODEL 2
REMARK VINA RESULT: -10.018633055      0.720      2.405
REMARK  6 active torsions:
REMARK  status: ('A' for Active; 'I' for Inactive)
REMARK    1  A    between atoms: O1_2  and  C2_3 
REMARK    2  A    between atoms: C4_5  and  N1_6 
REMARK    3  A    between atoms: N1_6  and  C5_8 
REMARK    4  A    between atoms: C10_15  and  C11_16 
REMARK    5  A    between atoms: C20_30  and  O3_31 
REMARK    6  A    between atoms: C22_33  and  O4_34 
ROOT
HETATM    1  C5  UNL     1     -13.586   3.071 -20.830  1.00  0.00     0.230 A 
HETATM    2  N2  UNL     1     -12.303   2.933 -21.170  1.00  0.00    -0.319 N 
ATOM      3  H2  UNL     1     -11.546   3.525 -20.828  1.00  0.00     0.169 HD
HETATM    4  C6  UNL     1     -12.145   1.902 -22.028  1.00  0.00     0.070 A 
HETATM    5  C7  UNL     1     -11.100   1.326 -22.676  1.00  0.00     0.032 A 
HETATM    6  C8  UNL     1     -11.320   0.248 -23.502  1.00  0.00     0.003 A 
HETATM    7  C9  UNL     1     -12.588  -0.228 -23.659  1.00  0.00     0.015 A 
HETATM    8  C10 UNL     1     -13.696   0.317 -23.025  1.00  0.00     0.013 A 
HETATM    9  C18 UNL     1     -13.439   1.409 -22.193  1.00  0.00     0.117 A 
HETATM   10  O2  UNL     1     -14.256   2.122 -21.474  1.00  0.00    -0.276 OA
ENDROOT
BRANCH   1  11
HETATM   11  N1  UNL     1     -14.126   4.040 -19.954  1.00  0.00    -0.322 N 
ATOM     12  H1  UNL     1     -13.936   3.912 -18.960  1.00  0.00     0.169 HD
BRANCH  11  13
HETATM   13  C4  UNL     1     -14.898   5.160 -20.308  1.00  0.00     0.040 A 
HETATM   14  C3  UNL     1     -14.704   6.438 -19.886  1.00  0.00     0.069 A 
HETATM   15  C2  UNL     1     -15.516   7.510 -20.273  1.00  0.00     0.106 A 
HETATM   16  C22 UNL     1     -16.563   7.259 -21.123  1.00  0.00     0.135 A 
HETATM   17  C20 UNL     1     -16.796   5.959 -21.580  1.00  0.00     0.106 A 
HETATM   18  C19 UNL     1     -15.974   4.944 -21.174  1.00  0.00     0.069 A 
BRANCH  15  19
HETATM   19  O1  UNL     1     -15.270   8.799 -19.809  1.00  0.00    -0.353 OA
HETATM   20  C1  UNL     1     -14.086   9.024 -19.077  1.00  0.00     0.210 C 
ENDBRANCH  15  19
BRANCH  16  21
HETATM   21  O4  UNL     1     -17.406   8.251 -21.549  1.00  0.00    -0.351 OA
HETATM   22  C23 UNL     1     -18.556   8.653 -20.854  1.00  0.00     0.210 C 
ENDBRANCH  16  21
BRANCH  17  23
HETATM   23  O3  UNL     1     -17.859   5.697 -22.444  1.00  0.00    -0.353 OA
HETATM   24  C21 UNL     1     -19.009   5.066 -21.922  1.00  0.00     0.210 C 
ENDBRANCH  17  23
ENDBRANCH  11  13
ENDBRANCH   1  11
BRANCH   8  25
HETATM   25  C11 UNL     1     -15.055  -0.183 -23.203  1.00  0.00     0.006 A 
HETATM   26  C12 UNL     1     -15.347  -1.535 -23.081  1.00  0.00     0.015 A 
HETATM   27  C13 UNL     1     -16.633  -2.002 -23.227  1.00  0.00     0.003 A 
HETATM   28  C14 UNL     1     -17.656  -1.118 -23.501  1.00  0.00     0.032 A 
HETATM   29  C15 UNL     1     -17.398   0.235 -23.629  1.00  0.00     0.060 A 
HETATM   30  N3  UNL     1     -18.186   1.287 -23.891  1.00  0.00    -0.350 N 
HETATM   31  C17 UNL     1     -16.084   0.695 -23.476  1.00  0.00     0.071 A 
HETATM   32  C16 UNL     1     -17.403   2.379 -23.907  1.00  0.00     0.181 A 
ATOM     33  H3  UNL     1     -19.193   1.263 -24.049  1.00  0.00     0.166 HD
HETATM   34  N4  UNL     1     -16.135   2.026 -23.658  1.00  0.00    -0.350 N 
ATOM     35  H4  UNL     1     -15.339   2.662 -23.613  1.00  0.00     0.166 HD
ENDBRANCH   8  25
TORSDOF 6
ENDMDL
