MODEL 2
REMARK VINA RESULT: -7.313167417      1.094      1.717
REMARK  9 active torsions:
REMARK  status: ('A' for Active; 'I' for Inactive)
REMARK    1  A    between atoms: O1_2  and  C2_3 
REMARK    2  A    between atoms: C2_3  and  C3_5 
REMARK    3  A    between atoms: C3_5  and  C4_6 
REMARK    4  A    between atoms: C4_6  and  C5_7 
REMARK    5  A    between atoms: C5_7  and  C6_8 
REMARK    6  A    between atoms: C5_7  and  C9_17 
REMARK    7  A    between atoms: C6_8  and  C7_9 
REMARK    8  A    between atoms: C7_9  and  N1_10 
REMARK    9  A    between atoms: C7_9  and  C8_14 
ROOT
HETATM    1  C5  UNL     1       3.857  26.595  14.958  1.00  0.00     0.089 C 
ENDROOT
BRANCH   1   2
HETATM    2  C4  UNL     1       4.957  26.454  16.052  1.00  0.00     0.025 C 
BRANCH   2   3
HETATM    3  C3  UNL     1       6.176  25.804  15.486  1.00  0.00     0.112 C 
BRANCH   3   4
HETATM    4  C2  UNL     1       7.328  26.741  15.475  1.00  0.00     0.258 C 
HETATM    5  O2  UNL     1       8.401  26.430  14.910  1.00  0.00    -0.265 OA
BRANCH   4   6
HETATM    6  O1  UNL     1       7.277  27.993  16.082  1.00  0.00    -0.326 OA
HETATM    7  C1  UNL     1       8.281  28.957  15.855  1.00  0.00     0.213 C 
ENDBRANCH   4   6
ENDBRANCH   3   4
ENDBRANCH   2   3
ENDBRANCH   1   2
BRANCH   1   8
HETATM    8  C6  UNL     1       3.460  28.013  15.035  1.00  0.00     0.059 C 
BRANCH   8   9
HETATM    9  C7  UNL     1       3.763  28.957  13.965  1.00  0.00     0.284 C 
BRANCH   9  10
HETATM   10  N1  UNL     1       5.004  29.663  14.407  1.00  0.00    -0.065 N 
ATOM     11  H13 UNL     1       5.279  29.451  15.367  1.00  0.00     0.275 HD
ATOM     12  H12 UNL     1       5.855  29.320  13.962  1.00  0.00     0.275 HD
ATOM     13  H11 UNL     1       4.822  30.653  14.240  1.00  0.00     0.275 HD
ENDBRANCH   9  10
BRANCH   9  14
HETATM   14  C8  UNL     1       2.810  29.970  13.578  1.00  0.00     0.204 C 
HETATM   15  O3  UNL     1       1.595  29.896  13.846  1.00  0.00    -0.646 OA
HETATM   16  O4  UNL     1       3.223  31.092  12.877  1.00  0.00    -0.646 OA
ENDBRANCH   9  14
ENDBRANCH   8   9
ENDBRANCH   1   8
BRANCH   1  17
HETATM   17  C9  UNL     1       2.820  25.587  15.183  1.00  0.00     0.177 C 
HETATM   18  O5  UNL     1       1.610  25.850  14.859  1.00  0.00    -0.648 OA
HETATM   19  O6  UNL     1       3.037  24.332  15.729  1.00  0.00    -0.648 OA
ENDBRANCH   1  17
TORSDOF 9
ENDMDL
