MODEL 6
REMARK VINA RESULT: -6.936652011      1.646      4.881
REMARK  9 active torsions:
REMARK  status: ('A' for Active; 'I' for Inactive)
REMARK    1  A    between atoms: O1_2  and  C2_3 
REMARK    2  A    between atoms: C2_3  and  C3_5 
REMARK    3  A    between atoms: C3_5  and  C4_6 
REMARK    4  A    between atoms: C4_6  and  C5_7 
REMARK    5  A    between atoms: C5_7  and  C6_8 
REMARK    6  A    between atoms: C5_7  and  C9_17 
REMARK    7  A    between atoms: C6_8  and  C7_9 
REMARK    8  A    between atoms: C7_9  and  N1_10 
REMARK    9  A    between atoms: C7_9  and  C8_14 
ROOT
HETATM    1  C5  UNL     1       4.603  26.385  16.206  1.00  0.00     0.089 C 
ENDROOT
BRANCH   1   2
HETATM    2  C4  UNL     1       3.166  26.960  16.031  1.00  0.00     0.025 C 
BRANCH   2   3
HETATM    3  C3  UNL     1       3.210  28.259  15.295  1.00  0.00     0.112 C 
BRANCH   3   4
HETATM    4  C2  UNL     1       2.963  28.062  13.844  1.00  0.00     0.258 C 
HETATM    5  O2  UNL     1       2.712  26.925  13.386  1.00  0.00    -0.265 OA
BRANCH   4   6
HETATM    6  O1  UNL     1       2.998  29.114  12.933  1.00  0.00    -0.326 OA
HETATM    7  C1  UNL     1       2.678  30.431  13.324  1.00  0.00     0.213 C 
ENDBRANCH   4   6
ENDBRANCH   3   4
ENDBRANCH   2   3
ENDBRANCH   1   2
BRANCH   1   8
HETATM    8  C6  UNL     1       5.480  27.481  15.753  1.00  0.00     0.059 C 
BRANCH   8   9
HETATM    9  C7  UNL     1       6.834  27.649  16.270  1.00  0.00     0.284 C 
BRANCH   9  10
HETATM   10  N1  UNL     1       6.946  29.101  16.605  1.00  0.00    -0.065 N 
ATOM     11  H13 UNL     1       7.790  29.544  16.241  1.00  0.00     0.275 HD
ATOM     12  H12 UNL     1       6.280  29.692  16.107  1.00  0.00     0.275 HD
ATOM     13  H11 UNL     1       6.860  29.148  17.621  1.00  0.00     0.275 HD
ENDBRANCH   9  10
BRANCH   9  14
HETATM   14  C8  UNL     1       7.982  27.305  15.467  1.00  0.00     0.204 C 
HETATM   15  O3  UNL     1       8.680  28.155  14.880  1.00  0.00    -0.646 OA
HETATM   16  O4  UNL     1       8.363  25.981  15.316  1.00  0.00    -0.646 OA
ENDBRANCH   9  14
ENDBRANCH   8   9
ENDBRANCH   1   8
BRANCH   1  17
HETATM   17  C9  UNL     1       4.700  25.104  15.506  1.00  0.00     0.177 C 
HETATM   18  O5  UNL     1       5.298  25.052  14.376  1.00  0.00    -0.648 OA
HETATM   19  O6  UNL     1       4.189  23.903  15.972  1.00  0.00    -0.648 OA
ENDBRANCH   1  17
TORSDOF 9
ENDMDL
