MODEL 1
REMARK VINA RESULT: -7.390793456      0.000      0.000
REMARK  9 active torsions:
REMARK  status: ('A' for Active; 'I' for Inactive)
REMARK    1  A    between atoms: O1_2  and  C2_3 
REMARK    2  A    between atoms: C2_3  and  C3_5 
REMARK    3  A    between atoms: C3_5  and  C4_6 
REMARK    4  A    between atoms: C4_6  and  C5_7 
REMARK    5  A    between atoms: C5_7  and  C6_8 
REMARK    6  A    between atoms: C5_7  and  C9_17 
REMARK    7  A    between atoms: C6_8  and  C7_9 
REMARK    8  A    between atoms: C7_9  and  N1_10 
REMARK    9  A    between atoms: C7_9  and  C8_14 
ROOT
HETATM    1  C5  UNL     1       4.480  27.323  15.120  1.00  0.00     0.089 C 
ENDROOT
BRANCH   1   2
HETATM    2  C4  UNL     1       5.121  27.350  16.539  1.00  0.00     0.025 C 
BRANCH   2   3
HETATM    3  C3  UNL     1       6.041  28.518  16.674  1.00  0.00     0.112 C 
BRANCH   3   4
HETATM    4  C2  UNL     1       7.264  28.337  15.850  1.00  0.00     0.258 C 
HETATM    5  O2  UNL     1       7.554  29.154  14.949  1.00  0.00    -0.265 OA
BRANCH   4   6
HETATM    6  O1  UNL     1       8.135  27.267  16.035  1.00  0.00    -0.326 OA
HETATM    7  C1  UNL     1       8.000  26.078  15.288  1.00  0.00     0.213 C 
ENDBRANCH   4   6
ENDBRANCH   3   4
ENDBRANCH   2   3
ENDBRANCH   1   2
BRANCH   1   8
HETATM    8  C6  UNL     1       3.886  28.665  14.974  1.00  0.00     0.059 C 
BRANCH   8   9
HETATM    9  C7  UNL     1       3.671  29.275  13.666  1.00  0.00     0.284 C 
BRANCH   9  10
HETATM   10  N1  UNL     1       4.962  29.953  13.335  1.00  0.00    -0.065 N 
ATOM     11  H13 UNL     1       5.206  30.709  13.976  1.00  0.00     0.275 HD
ATOM     12  H12 UNL     1       5.786  29.379  13.511  1.00  0.00     0.275 HD
ATOM     13  H11 UNL     1       4.865  30.251  12.364  1.00  0.00     0.275 HD
ENDBRANCH   9  10
BRANCH   9  14
HETATM   14  C8  UNL     1       2.617  30.238  13.462  1.00  0.00     0.204 C 
HETATM   15  O3  UNL     1       1.433  30.029  13.791  1.00  0.00    -0.646 OA
HETATM   16  O4  UNL     1       2.889  31.465  12.878  1.00  0.00    -0.646 OA
ENDBRANCH   9  14
ENDBRANCH   8   9
ENDBRANCH   1   8
BRANCH   1  17
HETATM   17  C9  UNL     1       3.585  26.170  15.015  1.00  0.00     0.177 C 
HETATM   18  O5  UNL     1       3.925  25.061  15.556  1.00  0.00    -0.648 OA
HETATM   19  O6  UNL     1       2.362  26.171  14.364  1.00  0.00    -0.648 OA
ENDBRANCH   1  17
TORSDOF 9
ENDMDL
