MODEL 5
REMARK VINA RESULT: -6.977416980      1.547      4.639
REMARK  9 active torsions:
REMARK  status: ('A' for Active; 'I' for Inactive)
REMARK    1  A    between atoms: O1_2  and  C2_3 
REMARK    2  A    between atoms: C2_3  and  C3_5 
REMARK    3  A    between atoms: C3_5  and  C4_6 
REMARK    4  A    between atoms: C4_6  and  C5_7 
REMARK    5  A    between atoms: C5_7  and  C6_8 
REMARK    6  A    between atoms: C5_7  and  C9_17 
REMARK    7  A    between atoms: C6_8  and  C7_9 
REMARK    8  A    between atoms: C7_9  and  N1_10 
REMARK    9  A    between atoms: C7_9  and  C8_14 
ROOT
HETATM    1  C5  UNL     1       3.966  28.844  14.566  1.00  0.00     0.089 C 
ENDROOT
BRANCH   1   2
HETATM    2  C4  UNL     1       3.013  28.413  15.720  1.00  0.00     0.025 C 
BRANCH   2   3
HETATM    3  C3  UNL     1       2.720  26.951  15.635  1.00  0.00     0.112 C 
BRANCH   3   4
HETATM    4  C2  UNL     1       3.311  26.355  14.411  1.00  0.00     0.258 C 
HETATM    5  O2  UNL     1       2.817  26.584  13.284  1.00  0.00    -0.265 OA
BRANCH   4   6
HETATM    6  O1  UNL     1       4.428  25.524  14.450  1.00  0.00    -0.326 OA
HETATM    7  C1  UNL     1       4.734  24.765  15.599  1.00  0.00     0.213 C 
ENDBRANCH   4   6
ENDBRANCH   3   4
ENDBRANCH   2   3
ENDBRANCH   1   2
BRANCH   1   8
HETATM    8  C6  UNL     1       5.202  29.253  15.260  1.00  0.00     0.059 C 
BRANCH   8   9
HETATM    9  C7  UNL     1       6.126  28.277  15.827  1.00  0.00     0.284 C 
BRANCH   9  10
HETATM   10  N1  UNL     1       6.020  28.454  17.308  1.00  0.00    -0.065 N 
ATOM     11  H13 UNL     1       6.520  29.270  17.662  1.00  0.00     0.275 HD
ATOM     12  H12 UNL     1       5.093  28.737  17.624  1.00  0.00     0.275 HD
ATOM     13  H11 UNL     1       6.340  27.570  17.705  1.00  0.00     0.275 HD
ENDBRANCH   9  10
BRANCH   9  14
HETATM   14  C8  UNL     1       7.530  28.304  15.492  1.00  0.00     0.204 C 
HETATM   15  O3  UNL     1       8.095  29.308  15.017  1.00  0.00    -0.646 OA
HETATM   16  O4  UNL     1       8.322  27.185  15.694  1.00  0.00    -0.646 OA
ENDBRANCH   9  14
ENDBRANCH   8   9
ENDBRANCH   1   8
BRANCH   1  17
HETATM   17  C9  UNL     1       3.296  29.842  13.732  1.00  0.00     0.177 C 
HETATM   18  O5  UNL     1       4.000  30.636  13.017  1.00  0.00    -0.648 OA
HETATM   19  O6  UNL     1       1.923  30.009  13.641  1.00  0.00    -0.648 OA
ENDBRANCH   1  17
TORSDOF 9
ENDMDL
