MODEL 4
REMARK VINA RESULT: -6.987199433      1.279      4.793
REMARK  9 active torsions:
REMARK  status: ('A' for Active; 'I' for Inactive)
REMARK    1  A    between atoms: O1_2  and  C2_3 
REMARK    2  A    between atoms: C2_3  and  C3_5 
REMARK    3  A    between atoms: C3_5  and  C4_6 
REMARK    4  A    between atoms: C4_6  and  C5_7 
REMARK    5  A    between atoms: C5_7  and  C6_8 
REMARK    6  A    between atoms: C5_7  and  C9_17 
REMARK    7  A    between atoms: C6_8  and  C7_9 
REMARK    8  A    between atoms: C7_9  and  N1_10 
REMARK    9  A    between atoms: C7_9  and  C8_14 
ROOT
HETATM    1  C5  UNL     1       3.891  28.610  14.055  1.00  0.00     0.089 C 
ENDROOT
BRANCH   1   2
HETATM    2  C4  UNL     1       3.049  27.301  14.022  1.00  0.00     0.025 C 
BRANCH   2   3
HETATM    3  C3  UNL     1       2.874  26.759  15.403  1.00  0.00     0.112 C 
BRANCH   3   4
HETATM    4  C2  UNL     1       2.301  25.389  15.373  1.00  0.00     0.258 C 
HETATM    5  O2  UNL     1       1.101  25.205  15.069  1.00  0.00    -0.265 OA
BRANCH   4   6
HETATM    6  O1  UNL     1       3.054  24.258  15.676  1.00  0.00    -0.326 OA
HETATM    7  C1  UNL     1       4.455  24.332  15.826  1.00  0.00     0.213 C 
ENDBRANCH   4   6
ENDBRANCH   3   4
ENDBRANCH   2   3
ENDBRANCH   1   2
BRANCH   1   8
HETATM    8  C6  UNL     1       4.477  28.622  15.409  1.00  0.00     0.059 C 
BRANCH   8   9
HETATM    9  C7  UNL     1       5.874  28.969  15.642  1.00  0.00     0.284 C 
BRANCH   9  10
HETATM   10  N1  UNL     1       6.236  29.898  14.528  1.00  0.00    -0.065 N 
ATOM     11  H13 UNL     1       6.622  29.428  13.709  1.00  0.00     0.275 HD
ATOM     12  H12 UNL     1       5.431  30.312  14.058  1.00  0.00     0.275 HD
ATOM     13  H11 UNL     1       6.867  30.583  14.946  1.00  0.00     0.275 HD
ENDBRANCH   9  10
BRANCH   9  14
HETATM   14  C8  UNL     1       6.892  27.948  15.695  1.00  0.00     0.204 C 
HETATM   15  O3  UNL     1       6.684  26.804  16.145  1.00  0.00    -0.646 OA
HETATM   16  O4  UNL     1       8.173  28.208  15.234  1.00  0.00    -0.646 OA
ENDBRANCH   9  14
ENDBRANCH   8   9
ENDBRANCH   1   8
BRANCH   1  17
HETATM   17  C9  UNL     1       3.044  29.741  13.673  1.00  0.00     0.177 C 
HETATM   18  O5  UNL     1       1.789  29.693  13.916  1.00  0.00    -0.648 OA
HETATM   19  O6  UNL     1       3.493  30.896  13.054  1.00  0.00    -0.648 OA
ENDBRANCH   1  17
TORSDOF 9
ENDMDL
