MODEL 20
REMARK VINA RESULT: -6.480861119      1.247      1.321
REMARK  9 active torsions:
REMARK  status: ('A' for Active; 'I' for Inactive)
REMARK    1  A    between atoms: O1_2  and  C2_3 
REMARK    2  A    between atoms: C2_3  and  C3_5 
REMARK    3  A    between atoms: C3_5  and  C4_6 
REMARK    4  A    between atoms: C4_6  and  C5_7 
REMARK    5  A    between atoms: C5_7  and  C6_8 
REMARK    6  A    between atoms: C5_7  and  C9_17 
REMARK    7  A    between atoms: C6_8  and  C7_9 
REMARK    8  A    between atoms: C7_9  and  N1_10 
REMARK    9  A    between atoms: C7_9  and  C8_14 
ROOT
HETATM    1  C5  UNL     1       4.718  27.241  15.501  1.00  0.00     0.089 C 
ENDROOT
BRANCH   1   2
HETATM    2  C4  UNL     1       5.709  27.822  16.553  1.00  0.00     0.025 C 
BRANCH   2   3
HETATM    3  C3  UNL     1       6.532  28.911  15.949  1.00  0.00     0.112 C 
BRANCH   3   4
HETATM    4  C2  UNL     1       7.906  28.440  15.644  1.00  0.00     0.258 C 
HETATM    5  O2  UNL     1       8.722  29.184  15.055  1.00  0.00    -0.265 OA
BRANCH   4   6
HETATM    6  O1  UNL     1       8.353  27.168  15.992  1.00  0.00    -0.326 OA
HETATM    7  C1  UNL     1       8.236  26.083  15.097  1.00  0.00     0.213 C 
ENDBRANCH   4   6
ENDBRANCH   3   4
ENDBRANCH   2   3
ENDBRANCH   1   2
BRANCH   1   8
HETATM    8  C6  UNL     1       3.581  28.180  15.527  1.00  0.00     0.059 C 
BRANCH   8   9
HETATM    9  C7  UNL     1       2.784  28.460  14.338  1.00  0.00     0.284 C 
BRANCH   9  10
HETATM   10  N1  UNL     1       3.141  27.381  13.366  1.00  0.00    -0.065 N 
ATOM     11  H13 UNL     1       3.342  26.482  13.804  1.00  0.00     0.275 HD
ATOM     12  H12 UNL     1       2.358  27.063  12.797  1.00  0.00     0.275 HD
ATOM     13  H11 UNL     1       3.919  27.759  12.824  1.00  0.00     0.275 HD
ENDBRANCH   9  10
BRANCH   9  14
HETATM   14  C8  UNL     1       2.905  29.719  13.644  1.00  0.00     0.204 C 
HETATM   15  O3  UNL     1       1.922  30.416  13.326  1.00  0.00    -0.646 OA
HETATM   16  O4  UNL     1       4.153  30.213  13.298  1.00  0.00    -0.646 OA
ENDBRANCH   9  14
ENDBRANCH   8   9
ENDBRANCH   1   8
BRANCH   1  17
HETATM   17  C9  UNL     1       4.447  25.838  15.815  1.00  0.00     0.177 C 
HETATM   18  O5  UNL     1       5.369  25.123  16.338  1.00  0.00    -0.648 OA
HETATM   19  O6  UNL     1       3.240  25.193  15.591  1.00  0.00    -0.648 OA
ENDBRANCH   1  17
TORSDOF 9
ENDMDL
