MODEL 1
REMARK VINA RESULT: -8.291137509      0.000      0.000
REMARK  8 active torsions:
REMARK  status: ('A' for Active; 'I' for Inactive)
REMARK    1  A    between atoms: N5_13  and  C6_14 
REMARK    2  A    between atoms: C7_16  and  C8_17 
REMARK    3  A    between atoms: C8_17  and  O2_18 
REMARK    4  A    between atoms: O2_18  and  P1_19 
REMARK    5  A    between atoms: P1_19  and  O5_22 
REMARK    6  A    between atoms: O5_22  and  P2_23 
REMARK    7  A    between atoms: C9_27  and  O9_28 
REMARK    8  A    between atoms: C10_30  and  O10_31 
ROOT
HETATM    1  C6  UNL     1      -2.225 -35.510  -8.428  1.00  0.00     0.262 C 
HETATM    2  O1  UNL     1      -3.399 -34.801  -8.173  1.00  0.00    -0.353 OA
HETATM    3  C7  UNL     1      -3.771 -35.348  -6.946  1.00  0.00     0.180 C 
HETATM    4  C9  UNL     1      -2.524 -35.382  -6.105  1.00  0.00     0.182 C 
HETATM    5  C10 UNL     1      -1.430 -35.236  -7.173  1.00  0.00     0.198 C 
ENDROOT
BRANCH   1   6
HETATM    6  N5  UNL     1      -1.558 -35.076  -9.623  1.00  0.00    -0.297 N 
HETATM    7  C3  UNL     1      -0.431 -35.651 -10.094  1.00  0.00     0.142 A 
HETATM    8  N3  UNL     1       0.312 -36.685  -9.629  1.00  0.00    -0.336 N 
HETATM    9  C4  UNL     1      -0.040 -35.013 -11.251  1.00  0.00     0.119 A 
HETATM   10  C2  UNL     1       1.423 -37.116 -10.255  1.00  0.00     0.183 A 
ATOM     11  H3  UNL     1       0.018 -37.154  -8.772  1.00  0.00     0.168 HD
HETATM   12  N2  UNL     1       1.799 -36.499 -11.370  1.00  0.00    -0.339 N 
HETATM   13  C1  UNL     1       1.094 -35.461 -11.880  1.00  0.00     0.148 A 
ATOM     14  H2  UNL     1       2.639 -36.814 -11.854  1.00  0.00     0.167 HD
HETATM   15  N1  UNL     1       1.527 -34.842 -13.057  1.00  0.00    -0.080 NA
HETATM   16  N4  UNL     1      -0.957 -34.051 -11.455  1.00  0.00    -0.346 N 
HETATM   17  C5  UNL     1      -1.868 -34.099 -10.465  1.00  0.00     0.188 A 
ATOM     18  H4  UNL     1      -0.962 -33.391 -12.234  1.00  0.00     0.167 HD
ENDBRANCH   1   6
BRANCH   5  19
HETATM   19  O10 UNL     1      -0.405 -36.129  -6.966  1.00  0.00    -0.388 OA
ATOM     20  H10 UNL     1      -0.621 -36.819  -6.350  1.00  0.00     0.210 HD
ENDBRANCH   5  19
BRANCH   3  21
HETATM   21  C8  UNL     1      -4.888 -34.567  -6.293  1.00  0.00     0.216 C 
BRANCH  21  22
HETATM   22  O2  UNL     1      -5.173 -35.154  -5.100  1.00  0.00    -0.287 OA
BRANCH  22  23
HETATM   23  P1  UNL     1      -5.574 -34.194  -3.837  1.00  0.00     0.418 P 
HETATM   24  O3  UNL     1      -4.127 -33.995  -3.389  1.00  0.00    -0.624 OA
HETATM   25  O4  UNL     1      -5.651 -32.503  -4.136  1.00  0.00    -0.624 OA
BRANCH  23  26
HETATM   26  O5  UNL     1      -6.082 -34.783  -2.430  1.00  0.00    -0.173 OA
BRANCH  26  27
HETATM   27  P2  UNL     1      -5.634 -34.036  -1.034  1.00  0.00     0.431 P 
HETATM   28  O6  UNL     1      -6.140 -32.538  -0.701  1.00  0.00    -0.616 OA
HETATM   29  O7  UNL     1      -4.451 -34.768  -0.073  1.00  0.00    -0.616 OA
HETATM   30  O8  UNL     1      -6.696 -34.803  -0.244  1.00  0.00    -0.616 OA
ENDBRANCH  26  27
ENDBRANCH  23  26
ENDBRANCH  22  23
ENDBRANCH  21  22
ENDBRANCH   3  21
BRANCH   4  31
HETATM   31  O9  UNL     1      -2.337 -36.654  -5.546  1.00  0.00    -0.390 OA
ATOM     32  H9  UNL     1      -1.421 -36.903  -5.577  1.00  0.00     0.210 HD
ENDBRANCH   4  31
TORSDOF 8
ENDMDL
