MODEL 2
REMARK VINA RESULT: -8.056746147      3.993      5.944
REMARK  8 active torsions:
REMARK  status: ('A' for Active; 'I' for Inactive)
REMARK    1  A    between atoms: N5_13  and  C6_14 
REMARK    2  A    between atoms: C7_16  and  C8_17 
REMARK    3  A    between atoms: C8_17  and  O2_18 
REMARK    4  A    between atoms: O2_18  and  P1_19 
REMARK    5  A    between atoms: P1_19  and  O5_22 
REMARK    6  A    between atoms: O5_22  and  P2_23 
REMARK    7  A    between atoms: C9_27  and  O9_28 
REMARK    8  A    between atoms: C10_30  and  O10_31 
ROOT
HETATM    1  C6  UNL     1      -0.241 -36.295 -12.932  1.00  0.00     0.262 C 
HETATM    2  O1  UNL     1      -1.108 -36.299 -11.840  1.00  0.00    -0.353 OA
HETATM    3  C7  UNL     1      -0.209 -36.097 -10.794  1.00  0.00     0.180 C 
HETATM    4  C9  UNL     1       0.704 -34.985 -11.232  1.00  0.00     0.182 C 
HETATM    5  C10 UNL     1       0.469 -34.974 -12.749  1.00  0.00     0.198 C 
ENDROOT
BRANCH   1   6
HETATM    6  N5  UNL     1      -0.925 -36.398 -14.190  1.00  0.00    -0.297 N 
HETATM    7  C3  UNL     1      -0.312 -36.744 -15.342  1.00  0.00     0.142 A 
HETATM    8  N3  UNL     1       0.978 -37.058 -15.613  1.00  0.00    -0.336 N 
HETATM    9  C4  UNL     1      -1.234 -36.755 -16.366  1.00  0.00     0.119 A 
HETATM   10  C2  UNL     1       1.398 -37.381 -16.851  1.00  0.00     0.183 A 
ATOM     11  H3  UNL     1       1.656 -37.049 -14.852  1.00  0.00     0.168 HD
HETATM   12  N2  UNL     1       0.508 -37.390 -17.837  1.00  0.00    -0.339 N 
HETATM   13  C1  UNL     1      -0.794 -37.086 -17.623  1.00  0.00     0.148 A 
ATOM     14  H2  UNL     1       0.812 -37.632 -18.780  1.00  0.00     0.167 HD
HETATM   15  N1  UNL     1      -1.696 -37.109 -18.691  1.00  0.00    -0.080 NA
HETATM   16  N4  UNL     1      -2.403 -36.409 -15.797  1.00  0.00    -0.346 N 
HETATM   17  C5  UNL     1      -2.203 -36.196 -14.484  1.00  0.00     0.188 A 
ATOM     18  H4  UNL     1      -3.296 -36.322 -16.284  1.00  0.00     0.167 HD
ENDBRANCH   1   6
BRANCH   5  19
HETATM   19  O10 UNL     1       1.654 -34.887 -13.440  1.00  0.00    -0.388 OA
ATOM     20  H10 UNL     1       2.106 -34.061 -13.316  1.00  0.00     0.210 HD
ENDBRANCH   5  19
BRANCH   3  21
HETATM   21  C8  UNL     1      -0.913 -35.790  -9.493  1.00  0.00     0.216 C 
BRANCH  21  22
HETATM   22  O2  UNL     1      -0.213 -34.815  -8.854  1.00  0.00    -0.287 OA
BRANCH  22  23
HETATM   23  P1  UNL     1      -0.972 -33.949  -7.691  1.00  0.00     0.418 P 
HETATM   24  O3  UNL     1       0.320 -33.347  -7.142  1.00  0.00    -0.624 OA
HETATM   25  O4  UNL     1      -1.468 -32.356  -8.103  1.00  0.00    -0.624 OA
BRANCH  23  26
HETATM   26  O5  UNL     1      -1.434 -34.596  -6.293  1.00  0.00    -0.173 OA
BRANCH  26  27
HETATM   27  P2  UNL     1      -3.006 -35.036  -6.088  1.00  0.00     0.431 P 
HETATM   28  O6  UNL     1      -4.025 -35.064  -7.343  1.00  0.00    -0.616 OA
HETATM   29  O7  UNL     1      -3.591 -35.226  -4.513  1.00  0.00    -0.616 OA
HETATM   30  O8  UNL     1      -2.626 -36.517  -6.087  1.00  0.00    -0.616 OA
ENDBRANCH  26  27
ENDBRANCH  23  26
ENDBRANCH  22  23
ENDBRANCH  21  22
ENDBRANCH   3  21
BRANCH   4  31
HETATM   31  O9  UNL     1       2.047 -35.350 -11.062  1.00  0.00    -0.390 OA
ATOM     32  H9  UNL     1       2.599 -34.901 -11.692  1.00  0.00     0.210 HD
ENDBRANCH   4  31
TORSDOF 8
ENDMDL
