MODEL 1
REMARK VINA RESULT: -8.383857723      0.000      0.000
REMARK  8 active torsions:
REMARK  status: ('A' for Active; 'I' for Inactive)
REMARK    1  A    between atoms: N4_10  and  C5_11 
REMARK    2  A    between atoms: C6_13  and  C7_14 
REMARK    3  A    between atoms: C7_14  and  O2_15 
REMARK    4  A    between atoms: O2_15  and  P1_16 
REMARK    5  A    between atoms: P1_16  and  O5_19 
REMARK    6  A    between atoms: O5_19  and  P2_20 
REMARK    7  A    between atoms: C8_24  and  O9_25 
REMARK    8  A    between atoms: C9_27  and  O10_28 
ROOT
HETATM    1  C5  UNL     1       0.346 -35.544  -9.653  1.00  0.00     0.262 C 
HETATM    2  O1  UNL     1       0.255 -35.685  -8.270  1.00  0.00    -0.353 OA
HETATM    3  C6  UNL     1      -0.948 -35.183  -7.865  1.00  0.00     0.180 C 
HETATM    4  C8  UNL     1      -1.945 -35.370  -8.977  1.00  0.00     0.182 C 
HETATM    5  C9  UNL     1      -1.052 -35.762 -10.137  1.00  0.00     0.198 C 
ENDROOT
BRANCH   1   6
HETATM    6  N4  UNL     1       1.260 -36.593 -10.098  1.00  0.00    -0.297 N 
HETATM    7  C2  UNL     1       1.641 -36.778 -11.387  1.00  0.00     0.146 A 
HETATM    8  N2  UNL     1       1.326 -36.124 -12.522  1.00  0.00    -0.314 N 
HETATM    9  C3  UNL     1       2.502 -37.864 -11.373  1.00  0.00     0.146 A 
HETATM   10  C1  UNL     1       1.866 -36.545 -13.662  1.00  0.00     0.196 A 
ATOM     11  H2  UNL     1       0.690 -35.327 -12.507  1.00  0.00     0.170 HD
HETATM   12  N1  UNL     1       1.548 -35.870 -14.868  1.00  0.00    -0.063 NA
HETATM   13  N5  UNL     1       2.710 -37.597 -13.699  1.00  0.00    -0.295 N 
HETATM   14  C10 UNL     1       3.044 -38.270 -12.580  1.00  0.00     0.278 A 
ATOM     15  H5  UNL     1       3.105 -37.889 -14.593  1.00  0.00     0.171 HD
HETATM   16  O11 UNL     1       3.842 -39.267 -12.618  1.00  0.00    -0.265 OA
HETATM   17  N3  UNL     1       2.640 -38.326 -10.104  1.00  0.00    -0.345 N 
HETATM   18  C4  UNL     1       1.871 -37.534  -9.335  1.00  0.00     0.188 A 
ATOM     19  H3  UNL     1       3.211 -39.114  -9.796  1.00  0.00     0.167 HD
ENDBRANCH   1   6
BRANCH   5  20
HETATM   20  O10 UNL     1      -1.391 -34.890 -11.194  1.00  0.00    -0.388 OA
ATOM     21  H10 UNL     1      -1.612 -35.361 -11.988  1.00  0.00     0.210 HD
ENDBRANCH   5  20
BRANCH   3  22
HETATM   22  C7  UNL     1      -1.490 -35.858  -6.637  1.00  0.00     0.216 C 
BRANCH  22  23
HETATM   23  O2  UNL     1      -2.865 -36.010  -6.809  1.00  0.00    -0.287 OA
BRANCH  23  24
HETATM   24  P1  UNL     1      -3.842 -35.588  -5.688  1.00  0.00     0.418 P 
HETATM   25  O3  UNL     1      -2.558 -35.081  -4.783  1.00  0.00    -0.624 OA
HETATM   26  O4  UNL     1      -4.493 -34.500  -6.796  1.00  0.00    -0.624 OA
BRANCH  24  27
HETATM   27  O5  UNL     1      -4.804 -34.978  -4.656  1.00  0.00    -0.173 OA
BRANCH  27  28
HETATM   28  P2  UNL     1      -4.697 -33.761  -3.722  1.00  0.00     0.431 P 
HETATM   29  O6  UNL     1      -4.391 -32.698  -2.636  1.00  0.00    -0.616 OA
HETATM   30  O7  UNL     1      -4.941 -34.855  -2.483  1.00  0.00    -0.616 OA
HETATM   31  O8  UNL     1      -6.021 -33.020  -4.315  1.00  0.00    -0.616 OA
ENDBRANCH  27  28
ENDBRANCH  24  27
ENDBRANCH  23  24
ENDBRANCH  22  23
ENDBRANCH   3  22
BRANCH   4  32
HETATM   32  O9  UNL     1      -2.562 -34.133  -9.187  1.00  0.00    -0.390 OA
ATOM     33  H9  UNL     1      -3.048 -34.198 -10.001  1.00  0.00     0.210 HD
ENDBRANCH   4  32
TORSDOF 8
ENDMDL
