MODEL 3
REMARK VINA RESULT: -8.274944957      3.553      4.565
REMARK  8 active torsions:
REMARK  status: ('A' for Active; 'I' for Inactive)
REMARK    1  A    between atoms: N4_10  and  C5_11 
REMARK    2  A    between atoms: C6_13  and  C7_14 
REMARK    3  A    between atoms: C7_14  and  O2_15 
REMARK    4  A    between atoms: O2_15  and  P1_16 
REMARK    5  A    between atoms: P1_16  and  O5_19 
REMARK    6  A    between atoms: O5_19  and  P2_20 
REMARK    7  A    between atoms: C8_24  and  O9_25 
REMARK    8  A    between atoms: C9_27  and  O10_28 
ROOT
HETATM    1  C5  UNL     1      -0.381 -35.785  -9.287  1.00  0.00     0.262 C 
HETATM    2  O1  UNL     1      -1.034 -34.566  -9.459  1.00  0.00    -0.353 OA
HETATM    3  C6  UNL     1      -1.346 -34.069  -8.227  1.00  0.00     0.180 C 
HETATM    4  C8  UNL     1      -0.312 -34.541  -7.241  1.00  0.00     0.182 C 
HETATM    5  C9  UNL     1       0.423 -35.597  -8.041  1.00  0.00     0.198 C 
ENDROOT
BRANCH   1   6
HETATM    6  N4  UNL     1       0.456 -35.956 -10.472  1.00  0.00    -0.297 N 
HETATM    7  C2  UNL     1      -0.017 -35.982 -11.743  1.00  0.00     0.146 A 
HETATM    8  N2  UNL     1      -1.262 -35.871 -12.243  1.00  0.00    -0.314 N 
HETATM    9  C3  UNL     1       1.093 -36.159 -12.554  1.00  0.00     0.146 A 
HETATM   10  C1  UNL     1      -1.419 -35.937 -13.562  1.00  0.00     0.196 A 
ATOM     11  H2  UNL     1      -2.064 -35.741 -11.627  1.00  0.00     0.170 HD
HETATM   12  N1  UNL     1      -2.723 -35.822 -14.109  1.00  0.00    -0.063 NA
HETATM   13  N5  UNL     1      -0.370 -36.108 -14.393  1.00  0.00    -0.295 N 
HETATM   14  C10 UNL     1       0.887 -36.221 -13.921  1.00  0.00     0.278 A 
ATOM     15  H5  UNL     1      -0.532 -36.153 -15.399  1.00  0.00     0.171 HD
HETATM   16  O11 UNL     1       1.880 -36.385 -14.709  1.00  0.00    -0.265 OA
HETATM   17  N3  UNL     1       2.213 -36.239 -11.791  1.00  0.00    -0.345 N 
HETATM   18  C4  UNL     1       1.803 -36.112 -10.516  1.00  0.00     0.188 A 
ATOM     19  H3  UNL     1       3.171 -36.368 -12.118  1.00  0.00     0.167 HD
ENDBRANCH   1   6
BRANCH   5  20
HETATM   20  O10 UNL     1       0.431 -36.755  -7.233  1.00  0.00    -0.388 OA
ATOM     21  H10 UNL     1       0.812 -36.593  -6.379  1.00  0.00     0.210 HD
ENDBRANCH   5  20
BRANCH   3  22
HETATM   22  C7  UNL     1      -1.377 -32.567  -8.183  1.00  0.00     0.216 C 
BRANCH  22  23
HETATM   23  O2  UNL     1      -2.074 -32.123  -9.305  1.00  0.00    -0.287 OA
BRANCH  23  24
HETATM   24  P1  UNL     1      -2.817 -30.768  -9.274  1.00  0.00     0.418 P 
HETATM   25  O3  UNL     1      -1.544 -30.107  -8.458  1.00  0.00    -0.624 OA
HETATM   26  O4  UNL     1      -2.737 -30.794 -10.956  1.00  0.00    -0.624 OA
BRANCH  24  27
HETATM   27  O5  UNL     1      -3.447 -29.372  -9.413  1.00  0.00    -0.173 OA
BRANCH  27  28
HETATM   28  P2  UNL     1      -4.846 -28.823  -9.088  1.00  0.00     0.431 P 
HETATM   29  O6  UNL     1      -6.156 -28.019  -8.878  1.00  0.00    -0.616 OA
HETATM   30  O7  UNL     1      -4.036 -27.564  -8.347  1.00  0.00    -0.616 OA
HETATM   31  O8  UNL     1      -5.267 -30.080  -8.141  1.00  0.00    -0.616 OA
ENDBRANCH  27  28
ENDBRANCH  24  27
ENDBRANCH  23  24
ENDBRANCH  22  23
ENDBRANCH   3  22
BRANCH   4  32
HETATM   32  O9  UNL     1      -1.001 -35.091  -6.156  1.00  0.00    -0.390 OA
ATOM     33  H9  UNL     1      -0.429 -35.742  -5.764  1.00  0.00     0.210 HD
ENDBRANCH   4  32
TORSDOF 8
ENDMDL
