MODEL 3
REMARK VINA RESULT: -7.492319792      2.321      4.928
REMARK  4 active torsions:
REMARK  status: ('A' for Active; 'I' for Inactive)
REMARK    1  A    between atoms: C16_19  and  C17_20 
REMARK    2  A    between atoms: C17_20  and  O1_21 
REMARK    3  A    between atoms: C17_20  and  C22_26 
REMARK    4  A    between atoms: O1_21  and  C18_22 
ROOT
HETATM    1  C1  UNL     1      18.768  64.700   7.693  1.00  0.00     0.069 C 
HETATM    2  C2  UNL     1      20.243  64.591   7.854  1.00  0.00     0.016 A 
HETATM    3  N1  UNL     1      21.003  64.994   6.815  1.00  0.00    -0.359 N 
ATOM      4  H1  UNL     1      20.531  65.316   5.970  1.00  0.00     0.166 HD
HETATM    5  C3  UNL     1      22.341  64.996   6.830  1.00  0.00     0.043 A 
HETATM    6  C4  UNL     1      23.073  65.420   5.728  1.00  0.00     0.030 A 
HETATM    7  C5  UNL     1      24.434  65.398   5.799  1.00  0.00     0.002 A 
HETATM    8  C6  UNL     1      25.054  64.960   6.948  1.00  0.00     0.001 A 
HETATM    9  C7  UNL     1      24.293  64.535   8.048  1.00  0.00     0.014 A 
HETATM   10  C8  UNL     1      22.923  64.551   7.996  1.00  0.00     0.002 A 
HETATM   11  C9  UNL     1      22.183  64.124   9.096  1.00  0.00    -0.002 A 
HETATM   12  C10 UNL     1      22.943  63.664  10.236  1.00  0.00    -0.024 A 
HETATM   13  C11 UNL     1      23.017  62.335  10.567  1.00  0.00     0.014 A 
HETATM   14  C12 UNL     1      23.797  61.886  11.628  1.00  0.00     0.024 A 
HETATM   15  C13 UNL     1      24.500  62.837  12.340  1.00  0.00     0.034 A 
HETATM   16 CL1  UNL     1      25.516  62.343  13.706  1.00  0.00    -0.084 Cl
HETATM   17  C14 UNL     1      24.437  64.173  12.021  1.00  0.00     0.024 A 
HETATM   18  C15 UNL     1      23.657  64.569  10.971  1.00  0.00     0.014 A 
HETATM   19  C16 UNL     1      20.794  64.128   9.061  1.00  0.00     0.015 A 
ENDROOT
BRANCH  19  20
HETATM   20  C17 UNL     1      19.936  63.571  10.123  1.00  0.00     0.259 C 
BRANCH  20  21
HETATM   21  O1  UNL     1      18.980  62.752   9.581  1.00  0.00    -0.360 OA
BRANCH  21  22
HETATM   22  C18 UNL     1      19.185  61.406   9.767  1.00  0.00     0.051 C 
HETATM   23  C19 UNL     1      19.576  61.036  11.179  1.00  0.00     0.045 C 
HETATM   24  C20 UNL     1      20.218  60.797   8.846  1.00  0.00     0.045 C 
HETATM   25  C21 UNL     1      17.870  60.708   9.488  1.00  0.00     0.045 C 
ENDBRANCH  21  22
ENDBRANCH  20  21
BRANCH  20  26
HETATM   26  C22 UNL     1      19.332  64.549  11.028  1.00  0.00     0.208 C 
HETATM   27  O2  UNL     1      20.137  64.989  11.962  1.00  0.00    -0.646 OA
HETATM   28  O3  UNL     1      18.084  65.078  11.059  1.00  0.00    -0.646 OA
ENDBRANCH  20  26
ENDBRANCH  19  20
TORSDOF 4
ENDMDL
