MODEL 1
REMARK VINA RESULT: -8.096711854      0.000      0.000
REMARK  4 active torsions:
REMARK  status: ('A' for Active; 'I' for Inactive)
REMARK    1  A    between atoms: C16_19  and  C17_20 
REMARK    2  A    between atoms: C17_20  and  O1_21 
REMARK    3  A    between atoms: C17_20  and  C22_26 
REMARK    4  A    between atoms: O1_21  and  C18_22 
ROOT
HETATM    1  C1  UNL     1      19.743  63.529   6.403  1.00  0.00     0.069 C 
HETATM    2  C2  UNL     1      19.800  63.845   7.857  1.00  0.00     0.016 A 
HETATM    3  N1  UNL     1      18.727  64.463   8.390  1.00  0.00    -0.359 N 
ATOM      4  H1  UNL     1      17.955  64.709   7.770  1.00  0.00     0.166 HD
HETATM    5  C3  UNL     1      18.616  64.772   9.687  1.00  0.00     0.043 A 
HETATM    6  C4  UNL     1      17.487  65.412  10.182  1.00  0.00     0.030 A 
HETATM    7  C5  UNL     1      17.429  65.704  11.512  1.00  0.00     0.002 A 
HETATM    8  C6  UNL     1      18.481  65.365  12.334  1.00  0.00     0.001 A 
HETATM    9  C7  UNL     1      19.612  64.719  11.812  1.00  0.00     0.014 A 
HETATM   10  C8  UNL     1      19.687  64.417  10.476  1.00  0.00     0.002 A 
HETATM   11  C9  UNL     1      20.818  63.778   9.973  1.00  0.00    -0.002 A 
HETATM   12  C10 UNL     1      21.867  63.493  10.927  1.00  0.00    -0.024 A 
HETATM   13  C11 UNL     1      23.044  64.197  10.938  1.00  0.00     0.014 A 
HETATM   14  C12 UNL     1      24.029  63.964  11.893  1.00  0.00     0.024 A 
HETATM   15  C13 UNL     1      23.772  62.990  12.838  1.00  0.00     0.034 A 
HETATM   16 CL1  UNL     1      24.977  62.635  14.088  1.00  0.00    -0.084 Cl
HETATM   17  C14 UNL     1      22.597  62.276  12.840  1.00  0.00     0.024 A 
HETATM   18  C15 UNL     1      21.658  62.538  11.883  1.00  0.00     0.014 A 
HETATM   19  C16 UNL     1      20.916  63.467   8.622  1.00  0.00     0.015 A 
ENDROOT
BRANCH  19  20
HETATM   20  C17 UNL     1      22.125  62.916   7.983  1.00  0.00     0.259 C 
BRANCH  20  21
HETATM   21  O1  UNL     1      22.438  63.635   6.860  1.00  0.00    -0.360 OA
BRANCH  21  22
HETATM   22  C18 UNL     1      23.390  64.612   7.034  1.00  0.00     0.051 C 
HETATM   23  C19 UNL     1      24.535  64.198   7.928  1.00  0.00     0.045 C 
HETATM   24  C20 UNL     1      22.853  65.918   7.576  1.00  0.00     0.045 C 
HETATM   25  C21 UNL     1      23.988  64.904   5.674  1.00  0.00     0.045 C 
ENDBRANCH  21  22
ENDBRANCH  20  21
BRANCH  20  26
HETATM   26  C22 UNL     1      22.090  61.483   7.691  1.00  0.00     0.208 C 
HETATM   27  O2  UNL     1      21.576  60.749   8.645  1.00  0.00    -0.646 OA
HETATM   28  O3  UNL     1      22.494  60.789   6.598  1.00  0.00    -0.646 OA
ENDBRANCH  20  26
ENDBRANCH  19  20
TORSDOF 4
ENDMDL
