MODEL 5
REMARK VINA RESULT: -6.610323574      2.864      5.046
REMARK  4 active torsions:
REMARK  status: ('A' for Active; 'I' for Inactive)
REMARK    1  A    between atoms: C16_19  and  C17_20 
REMARK    2  A    between atoms: C17_20  and  O1_21 
REMARK    3  A    between atoms: C17_20  and  C22_26 
REMARK    4  A    between atoms: O1_21  and  C18_22 
ROOT
HETATM    1  C1  UNL     1      23.628  64.569   8.521  1.00  0.00     0.069 C 
HETATM    2  C2  UNL     1      23.297  63.643   9.639  1.00  0.00     0.016 A 
HETATM    3  N1  UNL     1      24.183  63.570  10.653  1.00  0.00    -0.359 N 
ATOM      4  H1  UNL     1      25.040  64.120  10.585  1.00  0.00     0.166 HD
HETATM    5  C3  UNL     1      24.002  62.817  11.744  1.00  0.00     0.043 A 
HETATM    6  C4  UNL     1      24.951  62.776  12.758  1.00  0.00     0.030 A 
HETATM    7  C5  UNL     1      24.715  61.990  13.846  1.00  0.00     0.002 A 
HETATM    8  C6  UNL     1      23.553  61.254  13.920  1.00  0.00     0.001 A 
HETATM    9  C7  UNL     1      22.609  61.310  12.883  1.00  0.00     0.014 A 
HETATM   10  C8  UNL     1      22.829  62.097  11.781  1.00  0.00     0.002 A 
HETATM   11  C9  UNL     1      21.883  62.139  10.759  1.00  0.00    -0.002 A 
HETATM   12  C10 UNL     1      20.715  61.306  10.938  1.00  0.00    -0.024 A 
HETATM   13  C11 UNL     1      20.525  60.160  10.208  1.00  0.00     0.014 A 
HETATM   14  C12 UNL     1      19.432  59.327  10.422  1.00  0.00     0.024 A 
HETATM   15  C13 UNL     1      18.538  59.701  11.405  1.00  0.00     0.034 A 
HETATM   16 CL1  UNL     1      17.118  58.692  11.736  1.00  0.00    -0.084 Cl
HETATM   17  C14 UNL     1      18.713  60.847  12.145  1.00  0.00     0.024 A 
HETATM   18  C15 UNL     1      19.801  61.635  11.901  1.00  0.00     0.014 A 
HETATM   19  C16 UNL     1      22.089  62.926   9.633  1.00  0.00     0.015 A 
ENDROOT
BRANCH  19  20
HETATM   20  C17 UNL     1      21.210  62.927   8.449  1.00  0.00     0.259 C 
BRANCH  20  21
HETATM   21  O1  UNL     1      19.895  62.943   8.834  1.00  0.00    -0.360 OA
BRANCH  21  22
HETATM   22  C18 UNL     1      19.273  64.166   8.753  1.00  0.00     0.051 C 
HETATM   23  C19 UNL     1      20.019  65.177   7.914  1.00  0.00     0.045 C 
HETATM   24  C20 UNL     1      18.997  64.816  10.090  1.00  0.00     0.045 C 
HETATM   25  C21 UNL     1      17.936  63.947   8.077  1.00  0.00     0.045 C 
ENDBRANCH  21  22
ENDBRANCH  20  21
BRANCH  20  26
HETATM   26  C22 UNL     1      21.456  61.863   7.477  1.00  0.00     0.208 C 
HETATM   27  O2  UNL     1      20.556  61.778   6.529  1.00  0.00    -0.646 OA
HETATM   28  O3  UNL     1      22.459  60.955   7.388  1.00  0.00    -0.646 OA
ENDBRANCH  20  26
ENDBRANCH  19  20
TORSDOF 4
ENDMDL
