MODEL 2
REMARK VINA RESULT: -7.559733598      1.624      4.628
REMARK  4 active torsions:
REMARK  status: ('A' for Active; 'I' for Inactive)
REMARK    1  A    between atoms: C16_19  and  C17_20 
REMARK    2  A    between atoms: C17_20  and  O1_21 
REMARK    3  A    between atoms: C17_20  and  C22_26 
REMARK    4  A    between atoms: O1_21  and  C18_22 
ROOT
HETATM    1  C1  UNL     1      18.933  63.425   6.914  1.00  0.00     0.069 C 
HETATM    2  C2  UNL     1      20.348  63.652   7.313  1.00  0.00     0.016 A 
HETATM    3  N1  UNL     1      21.151  64.245   6.405  1.00  0.00    -0.359 N 
ATOM      4  H1  UNL     1      20.759  64.471   5.491  1.00  0.00     0.166 HD
HETATM    5  C3  UNL     1      22.433  64.552   6.635  1.00  0.00     0.043 A 
HETATM    6  C4  UNL     1      23.215  65.160   5.661  1.00  0.00     0.030 A 
HETATM    7  C5  UNL     1      24.515  65.448   5.951  1.00  0.00     0.002 A 
HETATM    8  C6  UNL     1      25.027  65.134   7.190  1.00  0.00     0.001 A 
HETATM    9  C7  UNL     1      24.218  64.520   8.158  1.00  0.00     0.014 A 
HETATM   10  C8  UNL     1      22.907  64.223   7.885  1.00  0.00     0.002 A 
HETATM   11  C9  UNL     1      22.119  63.611   8.857  1.00  0.00    -0.002 A 
HETATM   12  C10 UNL     1      22.773  63.307  10.110  1.00  0.00    -0.024 A 
HETATM   13  C11 UNL     1      23.096  62.023  10.465  1.00  0.00     0.014 A 
HETATM   14  C12 UNL     1      23.778  61.737  11.644  1.00  0.00     0.024 A 
HETATM   15  C13 UNL     1      24.121  62.805  12.448  1.00  0.00     0.034 A 
HETATM   16 CL1  UNL     1      24.991  62.523  13.966  1.00  0.00    -0.084 Cl
HETATM   17  C14 UNL     1      23.804  64.099  12.106  1.00  0.00     0.024 A 
HETATM   18  C15 UNL     1      23.132  64.333  10.940  1.00  0.00     0.014 A 
HETATM   19  C16 UNL     1      20.790  63.297   8.599  1.00  0.00     0.015 A 
ENDROOT
BRANCH  19  20
HETATM   20  C17 UNL     1      19.925  62.532   9.515  1.00  0.00     0.259 C 
BRANCH  20  21
HETATM   21  O1  UNL     1      19.961  63.079  10.770  1.00  0.00    -0.360 OA
BRANCH  21  22
HETATM   22  C18 UNL     1      18.764  63.579  11.229  1.00  0.00     0.051 C 
HETATM   23  C19 UNL     1      18.335  63.012  12.562  1.00  0.00     0.045 C 
HETATM   24  C20 UNL     1      17.605  63.398  10.275  1.00  0.00     0.045 C 
HETATM   25  C21 UNL     1      18.948  65.068  11.432  1.00  0.00     0.045 C 
ENDBRANCH  21  22
ENDBRANCH  20  21
BRANCH  20  26
HETATM   26  C22 UNL     1      20.174  61.092   9.566  1.00  0.00     0.208 C 
HETATM   27  O2  UNL     1      20.624  60.581   8.448  1.00  0.00    -0.646 OA
HETATM   28  O3  UNL     1      20.023  60.199  10.576  1.00  0.00    -0.646 OA
ENDBRANCH  20  26
ENDBRANCH  19  20
TORSDOF 4
ENDMDL
