MODEL 4
REMARK VINA RESULT: -6.907767012      0.870      1.162
REMARK  4 active torsions:
REMARK  status: ('A' for Active; 'I' for Inactive)
REMARK    1  A    between atoms: C16_19  and  C17_20 
REMARK    2  A    between atoms: C17_20  and  O1_21 
REMARK    3  A    between atoms: C17_20  and  C22_26 
REMARK    4  A    between atoms: O1_21  and  C18_22 
ROOT
HETATM    1  C1  UNL     1      18.953  63.029   6.858  1.00  0.00     0.069 C 
HETATM    2  C2  UNL     1      19.100  63.268   8.320  1.00  0.00     0.016 A 
HETATM    3  N1  UNL     1      17.993  63.648   8.990  1.00  0.00    -0.359 N 
ATOM      4  H1  UNL     1      17.132  63.784   8.461  1.00  0.00     0.166 HD
HETATM    5  C3  UNL     1      17.960  63.858  10.311  1.00  0.00     0.043 A 
HETATM    6  C4  UNL     1      16.792  64.252  10.951  1.00  0.00     0.030 A 
HETATM    7  C5  UNL     1      16.818  64.452  12.298  1.00  0.00     0.002 A 
HETATM    8  C6  UNL     1      17.990  64.266  12.996  1.00  0.00     0.001 A 
HETATM    9  C7  UNL     1      19.159  63.868  12.329  1.00  0.00     0.014 A 
HETATM   10  C8  UNL     1      19.151  63.660  10.974  1.00  0.00     0.002 A 
HETATM   11  C9  UNL     1      20.321  63.268  10.327  1.00  0.00    -0.002 A 
HETATM   12  C10 UNL     1      21.494  63.127  11.160  1.00  0.00    -0.024 A 
HETATM   13  C11 UNL     1      22.524  64.032  11.119  1.00  0.00     0.014 A 
HETATM   14  C12 UNL     1      23.625  63.930  11.963  1.00  0.00     0.024 A 
HETATM   15  C13 UNL     1      23.640  62.874  12.852  1.00  0.00     0.034 A 
HETATM   16 CL1  UNL     1      25.009  62.675  13.961  1.00  0.00    -0.084 Cl
HETATM   17  C14 UNL     1      22.616  61.958  12.906  1.00  0.00     0.024 A 
HETATM   18  C15 UNL     1      21.555  62.097  12.057  1.00  0.00     0.014 A 
HETATM   19  C16 UNL     1      20.336  63.057   8.953  1.00  0.00     0.015 A 
ENDROOT
BRANCH  19  20
HETATM   20  C17 UNL     1      21.553  62.774   8.170  1.00  0.00     0.259 C 
BRANCH  20  21
HETATM   21  O1  UNL     1      21.633  63.619   7.095  1.00  0.00    -0.360 OA
BRANCH  21  22
HETATM   22  C18 UNL     1      22.739  64.437   7.072  1.00  0.00     0.051 C 
HETATM   23  C19 UNL     1      23.422  64.503   5.726  1.00  0.00     0.045 C 
HETATM   24  C20 UNL     1      23.798  64.085   8.092  1.00  0.00     0.045 C 
HETATM   25  C21 UNL     1      22.266  65.841   7.385  1.00  0.00     0.045 C 
ENDBRANCH  21  22
ENDBRANCH  20  21
BRANCH  20  26
HETATM   26  C22 UNL     1      21.728  61.383   7.754  1.00  0.00     0.208 C 
HETATM   27  O2  UNL     1      21.109  60.510   8.509  1.00  0.00    -0.646 OA
HETATM   28  O3  UNL     1      22.417  60.846   6.717  1.00  0.00    -0.646 OA
ENDBRANCH  20  26
ENDBRANCH  19  20
TORSDOF 4
ENDMDL
