MODEL 3
REMARK VINA RESULT: -8.935452552      2.543      5.284
REMARK  2 active torsions:
REMARK  status: ('A' for Active; 'I' for Inactive)
REMARK    1  A    between atoms: N2_8  and  C7_9 
REMARK    2  A    between atoms: C10_12  and  C11_13 
ROOT
HETATM    1  C1  UNL     1       0.713 -13.184 -22.280  1.00  0.00     0.310 C 
HETATM    2  N1  UNL     1       0.802 -12.715 -23.633  1.00  0.00     0.090 N 
HETATM    3  C2  UNL     1       0.834 -13.800 -24.594  1.00  0.00     0.277 C 
HETATM    4  C3  UNL     1       2.087 -14.596 -24.535  1.00  0.00     0.072 C 
HETATM    5  C4  UNL     1       3.261 -13.696 -24.473  1.00  0.00    -0.016 A 
HETATM    6  C5  UNL     1       4.621 -13.936 -24.717  1.00  0.00     0.041 A 
HETATM    7  C6  UNL     1       5.272 -12.741 -24.508  1.00  0.00     0.032 A 
HETATM    8  N2  UNL     1       4.394 -11.790 -24.153  1.00  0.00    -0.316 N 
HETATM    9  C14 UNL     1       3.160 -12.379 -24.133  1.00  0.00     0.052 A 
HETATM   10  C15 UNL     1       1.860 -11.778 -23.809  1.00  0.00     0.329 C 
HETATM   11  C16 UNL     1       6.741 -12.724 -24.704  1.00  0.00     0.067 C 
HETATM   12  C17 UNL     1       7.047 -13.610 -25.897  1.00  0.00    -0.036 C 
HETATM   13  C18 UNL     1       6.155 -13.251 -27.067  1.00  0.00     0.015 C 
HETATM   14  C19 UNL     1       8.479 -13.461 -26.350  1.00  0.00     0.015 C 
HETATM   15  C20 UNL     1       6.769 -15.045 -25.498  1.00  0.00     0.093 C 
HETATM   16  C21 UNL     1       5.338 -15.123 -25.107  1.00  0.00     0.162 C 
HETATM   17  O2  UNL     1       4.771 -16.224 -25.124  1.00  0.00    -0.292 OA
ENDROOT
BRANCH   8  18
HETATM   18  C7  UNL     1       4.647 -10.421 -23.849  1.00  0.00     0.039 A 
HETATM   19  C8  UNL     1       5.374 -10.072 -22.737  1.00  0.00     0.031 A 
HETATM   20  C9  UNL     1       5.630  -8.743 -22.426  1.00  0.00     0.019 A 
HETATM   21  C10 UNL     1       5.161  -7.729 -23.225  1.00  0.00     0.029 A 
HETATM   22  C12 UNL     1       4.432  -8.090 -24.342  1.00  0.00     0.019 A 
HETATM   23  C13 UNL     1       4.180  -9.392 -24.647  1.00  0.00     0.031 A 
BRANCH  21  24
HETATM   24  C11 UNL     1       5.418  -6.332 -22.917  1.00  0.00     0.264 C 
HETATM   25  N3  UNL     1       4.706  -5.702 -21.865  1.00  0.00    -0.057 NA
HETATM   26  O1  UNL     1       6.259  -5.699 -23.579  1.00  0.00    -0.271 OA
ENDBRANCH  21  24
ENDBRANCH   8  18
TORSDOF 2
ENDMDL
