MODEL 1
REMARK VINA RESULT: -9.789020783      0.000      0.000
REMARK  2 active torsions:
REMARK  status: ('A' for Active; 'I' for Inactive)
REMARK    1  A    between atoms: N2_8  and  C7_9 
REMARK    2  A    between atoms: C10_12  and  C11_13 
ROOT
HETATM    1  C1  UNL     1       5.715  -7.832 -22.618  1.00  0.00     0.310 C 
HETATM    2  N1  UNL     1       5.516  -9.032 -21.855  1.00  0.00     0.090 N 
HETATM    3  C2  UNL     1       6.755  -9.743 -21.609  1.00  0.00     0.277 C 
HETATM    4  C3  UNL     1       7.343 -10.337 -22.837  1.00  0.00     0.072 C 
HETATM    5  C4  UNL     1       6.295 -11.030 -23.621  1.00  0.00    -0.016 A 
HETATM    6  C5  UNL     1       6.388 -11.981 -24.647  1.00  0.00     0.041 A 
HETATM    7  C6  UNL     1       5.097 -12.283 -25.018  1.00  0.00     0.032 A 
HETATM    8  N2  UNL     1       4.226 -11.577 -24.282  1.00  0.00    -0.316 N 
HETATM    9  C14 UNL     1       4.963 -10.809 -23.424  1.00  0.00     0.052 A 
HETATM   10  C15 UNL     1       4.496  -9.857 -22.408  1.00  0.00     0.329 C 
HETATM   11  C16 UNL     1       4.916 -13.279 -26.101  1.00  0.00     0.067 C 
HETATM   12  C17 UNL     1       5.970 -14.353 -25.907  1.00  0.00    -0.036 C 
HETATM   13  C18 UNL     1       5.978 -14.835 -24.471  1.00  0.00     0.015 C 
HETATM   14  C19 UNL     1       5.718 -15.549 -26.791  1.00  0.00     0.015 C 
HETATM   15  C20 UNL     1       7.323 -13.744 -26.220  1.00  0.00     0.093 C 
HETATM   16  C21 UNL     1       7.518 -12.605 -25.287  1.00  0.00     0.162 C 
HETATM   17  O2  UNL     1       8.668 -12.201 -25.066  1.00  0.00    -0.292 OA
ENDROOT
BRANCH   8  18
HETATM   18  C7  UNL     1       2.802 -11.590 -24.342  1.00  0.00     0.039 A 
HETATM   19  C8  UNL     1       2.083 -12.592 -23.737  1.00  0.00     0.031 A 
HETATM   20  C9  UNL     1       0.695 -12.619 -23.787  1.00  0.00     0.019 A 
HETATM   21  C10 UNL     1      -0.007 -11.640 -24.445  1.00  0.00     0.029 A 
HETATM   22  C12 UNL     1       0.725 -10.635 -25.050  1.00  0.00     0.019 A 
HETATM   23  C13 UNL     1       2.085 -10.608 -25.002  1.00  0.00     0.031 A 
BRANCH  21  24
HETATM   24  C11 UNL     1      -1.459 -11.650 -24.509  1.00  0.00     0.264 C 
HETATM   25  N3  UNL     1      -2.212 -11.882 -23.329  1.00  0.00    -0.057 NA
HETATM   26  O1  UNL     1      -2.030 -11.458 -25.596  1.00  0.00    -0.271 OA
ENDBRANCH  21  24
ENDBRANCH   8  18
TORSDOF 2
ENDMDL
