MODEL 5
REMARK VINA RESULT: -8.803870953      2.548      5.985
REMARK  2 active torsions:
REMARK  status: ('A' for Active; 'I' for Inactive)
REMARK    1  A    between atoms: N2_8  and  C7_9 
REMARK    2  A    between atoms: C10_12  and  C11_13 
ROOT
HETATM    1  C1  UNL     1       4.972  -8.583 -20.618  1.00  0.00     0.310 C 
HETATM    2  N1  UNL     1       5.461  -8.262 -21.928  1.00  0.00     0.090 N 
HETATM    3  C2  UNL     1       4.989  -6.974 -22.395  1.00  0.00     0.277 C 
HETATM    4  C3  UNL     1       3.530  -6.952 -22.675  1.00  0.00     0.072 C 
HETATM    5  C4  UNL     1       3.142  -8.152 -23.452  1.00  0.00    -0.016 A 
HETATM    6  C5  UNL     1       1.994  -8.429 -24.208  1.00  0.00     0.041 A 
HETATM    7  C6  UNL     1       2.158  -9.698 -24.715  1.00  0.00     0.032 A 
HETATM    8  N2  UNL     1       3.332 -10.210 -24.315  1.00  0.00    -0.316 N 
HETATM    9  C14 UNL     1       3.935  -9.258 -23.541  1.00  0.00     0.052 A 
HETATM   10  C15 UNL     1       5.234  -9.314 -22.860  1.00  0.00     0.329 C 
HETATM   11  C16 UNL     1       1.068 -10.238 -25.563  1.00  0.00     0.067 C 
HETATM   12  C17 UNL     1       0.549  -9.093 -26.412  1.00  0.00    -0.036 C 
HETATM   13  C18 UNL     1       1.697  -8.365 -27.081  1.00  0.00     0.015 C 
HETATM   14  C19 UNL     1      -0.380  -9.579 -27.498  1.00  0.00     0.015 C 
HETATM   15  C20 UNL     1      -0.173  -8.122 -25.500  1.00  0.00     0.093 C 
HETATM   16  C21 UNL     1       0.811  -7.656 -24.488  1.00  0.00     0.162 C 
HETATM   17  O2  UNL     1       0.599  -6.592 -23.891  1.00  0.00    -0.292 OA
ENDROOT
BRANCH   8  18
HETATM   18  C7  UNL     1       3.888 -11.488 -24.613  1.00  0.00     0.039 A 
HETATM   19  C8  UNL     1       5.160 -11.599 -25.120  1.00  0.00     0.031 A 
HETATM   20  C9  UNL     1       5.717 -12.836 -25.416  1.00  0.00     0.019 A 
HETATM   21  C10 UNL     1       5.010 -13.995 -25.210  1.00  0.00     0.029 A 
HETATM   22  C12 UNL     1       3.731 -13.874 -24.699  1.00  0.00     0.019 A 
HETATM   23  C13 UNL     1       3.185 -12.662 -24.409  1.00  0.00     0.031 A 
BRANCH  21  24
HETATM   24  C11 UNL     1       5.574 -15.300 -25.513  1.00  0.00     0.264 C 
HETATM   25  N3  UNL     1       6.810 -15.388 -26.203  1.00  0.00    -0.057 NA
HETATM   26  O1  UNL     1       4.969 -16.329 -25.167  1.00  0.00    -0.271 OA
ENDBRANCH  21  24
ENDBRANCH   8  18
TORSDOF 2
ENDMDL
