MODEL 6
REMARK VINA RESULT: -8.723877190      2.551      7.432
REMARK  2 active torsions:
REMARK  status: ('A' for Active; 'I' for Inactive)
REMARK    1  A    between atoms: N2_8  and  C7_9 
REMARK    2  A    between atoms: C10_12  and  C11_13 
ROOT
HETATM    1  C1  UNL     1       0.949 -14.211 -23.813  1.00  0.00     0.310 C 
HETATM    2  N1  UNL     1       0.617 -12.994 -23.129  1.00  0.00     0.090 N 
HETATM    3  C2  UNL     1      -0.748 -12.575 -23.375  1.00  0.00     0.277 C 
HETATM    4  C3  UNL     1      -0.981 -12.132 -24.774  1.00  0.00     0.072 C 
HETATM    5  C4  UNL     1       0.107 -11.227 -25.210  1.00  0.00    -0.016 A 
HETATM    6  C5  UNL     1       0.183 -10.325 -26.282  1.00  0.00     0.041 A 
HETATM    7  C6  UNL     1       1.429  -9.746 -26.217  1.00  0.00     0.032 A 
HETATM    8  N2  UNL     1       2.116 -10.238 -25.174  1.00  0.00    -0.316 N 
HETATM    9  C14 UNL     1       1.302 -11.146 -24.557  1.00  0.00     0.052 A 
HETATM   10  C15 UNL     1       1.572 -11.965 -23.369  1.00  0.00     0.329 C 
HETATM   11  C16 UNL     1       1.767  -8.740 -27.253  1.00  0.00     0.067 C 
HETATM   12  C17 UNL     1       0.514  -7.926 -27.515  1.00  0.00    -0.036 C 
HETATM   13  C18 UNL     1      -0.093  -7.451 -26.211  1.00  0.00     0.015 C 
HETATM   14  C19 UNL     1       0.805  -6.708 -28.356  1.00  0.00     0.015 C 
HETATM   15  C20 UNL     1      -0.488  -8.821 -28.217  1.00  0.00     0.093 C 
HETATM   16  C21 UNL     1      -0.757  -9.971 -27.315  1.00  0.00     0.162 C 
HETATM   17  O2  UNL     1      -1.802 -10.619 -27.464  1.00  0.00    -0.292 OA
ENDROOT
BRANCH   8  18
HETATM   18  C7  UNL     1       3.436  -9.909 -24.750  1.00  0.00     0.039 A 
HETATM   19  C8  UNL     1       3.727  -8.656 -24.268  1.00  0.00     0.031 A 
HETATM   20  C9  UNL     1       5.008  -8.320 -23.850  1.00  0.00     0.019 A 
HETATM   21  C10 UNL     1       6.032  -9.234 -23.906  1.00  0.00     0.029 A 
HETATM   22  C12 UNL     1       5.729 -10.493 -24.392  1.00  0.00     0.019 A 
HETATM   23  C13 UNL     1       4.474 -10.823 -24.801  1.00  0.00     0.031 A 
BRANCH  21  24
HETATM   24  C11 UNL     1       7.379  -8.902 -23.474  1.00  0.00     0.264 C 
HETATM   25  N3  UNL     1       7.949  -7.657 -23.844  1.00  0.00    -0.057 NA
HETATM   26  O1  UNL     1       8.023  -9.712 -22.785  1.00  0.00    -0.271 OA
ENDBRANCH  21  24
ENDBRANCH   8  18
TORSDOF 2
ENDMDL
