MODEL 3
REMARK VINA RESULT: -10.942817924      1.627      7.384
REMARK  3 active torsions:
REMARK  status: ('A' for Active; 'I' for Inactive)
REMARK    1  A    between atoms: C2_2  and  N1_4 
REMARK    2  A    between atoms: N1_4  and  C4_6 
REMARK    3  A    between atoms: C6_8  and  N2_9 
ROOT
HETATM    1  C4  UNL     1       5.948 -11.615 -24.444  1.00  0.00     0.046 A 
HETATM    2  C5  UNL     1       4.583 -11.535 -24.746  1.00  0.00     0.060 A 
HETATM    3  C6  UNL     1       3.883 -10.348 -24.690  1.00  0.00     0.042 A 
HETATM    4  C21 UNL     1       4.557  -9.188 -24.321  1.00  0.00     0.038 A 
HETATM    5  C22 UNL     1       5.900  -9.239 -24.020  1.00  0.00    -0.036 A 
HETATM    6  C23 UNL     1       6.568 -10.450 -24.087  1.00  0.00     0.064 A 
HETATM    7  C24 UNL     1       7.980 -10.428 -23.753  1.00  0.00     0.254 C 
HETATM    8  O2  UNL     1       8.697 -11.449 -23.773  1.00  0.00    -0.268 OA
HETATM    9  N4  UNL     1       8.546  -9.152 -23.385  1.00  0.00    -0.356 N 
ATOM     10  H4  UNL     1       9.535  -8.977 -23.562  1.00  0.00     0.162 HD
HETATM   11  C25 UNL     1       7.741  -8.115 -22.770  1.00  0.00     0.127 C 
HETATM   12  C26 UNL     1       6.528  -7.952 -23.641  1.00  0.00     0.059 C 
ENDROOT
BRANCH   3  13
HETATM   13  N2  UNL     1       2.491 -10.292 -25.001  1.00  0.00    -0.316 N 
HETATM   14  C7  UNL     1       1.884  -9.602 -25.985  1.00  0.00     0.052 A 
HETATM   15  C8  UNL     1       0.528  -9.822 -25.940  1.00  0.00    -0.016 A 
HETATM   16  C20 UNL     1       2.513  -8.718 -27.003  1.00  0.00     0.329 C 
HETATM   17  C9  UNL     1       0.300 -10.683 -24.883  1.00  0.00     0.041 A 
HETATM   18  C17 UNL     1      -0.395  -9.195 -26.898  1.00  0.00     0.072 C 
HETATM   19  C10 UNL     1       1.541 -10.953 -24.324  1.00  0.00     0.032 A 
HETATM   20  C16 UNL     1      -0.885 -11.280 -24.326  1.00  0.00     0.162 C 
HETATM   21  C11 UNL     1       1.635 -11.858 -23.153  1.00  0.00     0.067 C 
HETATM   22  C12 UNL     1       0.582 -12.946 -23.219  1.00  0.00    -0.036 C 
HETATM   23  C13 UNL     1       0.659 -13.719 -21.914  1.00  0.00     0.015 C 
HETATM   24  C14 UNL     1       0.893 -13.927 -24.334  1.00  0.00     0.015 C 
HETATM   25  C15 UNL     1      -0.806 -12.417 -23.369  1.00  0.00     0.093 C 
HETATM   26  O1  UNL     1      -2.038 -10.866 -24.626  1.00  0.00    -0.292 OA
HETATM   27  C18 UNL     1       0.372  -8.771 -28.105  1.00  0.00     0.277 C 
HETATM   28  N3  UNL     1       1.558  -8.015 -27.795  1.00  0.00     0.090 N 
HETATM   29  C19 UNL     1       1.222  -6.706 -27.254  1.00  0.00     0.310 C 
ENDBRANCH   3  13
BRANCH   1  30
HETATM   30  N1  UNL     1       6.573 -12.871 -24.541  1.00  0.00    -0.385 N 
ATOM     31  H1  UNL     1       7.272 -13.135 -23.847  1.00  0.00     0.160 HD
BRANCH  30  32
HETATM   32  C2  UNL     1       6.242 -13.804 -25.617  1.00  0.00     0.073 C 
HETATM   33  C1  UNL     1       6.172 -15.227 -25.178  1.00  0.00     0.031 C 
HETATM   34  C3  UNL     1       7.289 -13.676 -26.696  1.00  0.00     0.031 C 
ENDBRANCH  30  32
ENDBRANCH   1  30
TORSDOF 3
ENDMDL
