MODEL 4
REMARK VINA RESULT: -10.330272355      1.797      7.699
REMARK  3 active torsions:
REMARK  status: ('A' for Active; 'I' for Inactive)
REMARK    1  A    between atoms: C2_2  and  N1_4 
REMARK    2  A    between atoms: N1_4  and  C4_6 
REMARK    3  A    between atoms: C6_8  and  N2_9 
ROOT
HETATM    1  C4  UNL     1       5.761  -9.806 -23.708  1.00  0.00     0.046 A 
HETATM    2  C5  UNL     1       4.538 -10.285 -24.192  1.00  0.00     0.060 A 
HETATM    3  C6  UNL     1       3.501  -9.444 -24.540  1.00  0.00     0.042 A 
HETATM    4  C21 UNL     1       3.677  -8.070 -24.405  1.00  0.00     0.038 A 
HETATM    5  C22 UNL     1       4.871  -7.573 -23.932  1.00  0.00    -0.036 A 
HETATM    6  C23 UNL     1       5.889  -8.449 -23.593  1.00  0.00     0.064 A 
HETATM    7  C24 UNL     1       7.116  -7.854 -23.099  1.00  0.00     0.254 C 
HETATM    8  O2  UNL     1       8.108  -8.530 -22.758  1.00  0.00    -0.268 OA
HETATM    9  N4  UNL     1       7.155  -6.414 -23.009  1.00  0.00    -0.356 N 
ATOM     10  H4  UNL     1       8.051  -5.934 -23.097  1.00  0.00     0.162 HD
HETATM   11  C25 UNL     1       5.951  -5.634 -22.795  1.00  0.00     0.127 C 
HETATM   12  C26 UNL     1       4.962  -6.098 -23.826  1.00  0.00     0.059 C 
ENDROOT
BRANCH   3  13
HETATM   13  N2  UNL     1       2.263  -9.956 -25.030  1.00  0.00    -0.316 N 
HETATM   14  C7  UNL     1       1.513 -10.953 -24.524  1.00  0.00     0.052 A 
HETATM   15  C8  UNL     1       0.392 -11.133 -25.298  1.00  0.00    -0.016 A 
HETATM   16  C20 UNL     1       1.787 -11.779 -23.318  1.00  0.00     0.329 C 
HETATM   17  C9  UNL     1       0.462 -10.205 -26.319  1.00  0.00     0.041 A 
HETATM   18  C17 UNL     1      -0.615 -12.158 -24.985  1.00  0.00     0.072 C 
HETATM   19  C10 UNL     1       1.636  -9.492 -26.122  1.00  0.00     0.032 A 
HETATM   20  C16 UNL     1      -0.390  -9.890 -27.436  1.00  0.00     0.162 C 
HETATM   21  C11 UNL     1       2.003  -8.408 -27.066  1.00  0.00     0.067 C 
HETATM   22  C12 UNL     1       0.769  -7.703 -27.593  1.00  0.00    -0.036 C 
HETATM   23  C13 UNL     1       1.236  -6.725 -28.656  1.00  0.00     0.015 C 
HETATM   24  C14 UNL     1       0.110  -6.884 -26.497  1.00  0.00     0.015 C 
HETATM   25  C15 UNL     1      -0.223  -8.631 -28.211  1.00  0.00     0.093 C 
HETATM   26  O1  UNL     1      -1.314 -10.668 -27.803  1.00  0.00    -0.292 OA
HETATM   27  C18 UNL     1      -0.484 -12.544 -23.550  1.00  0.00     0.277 C 
HETATM   28  N3  UNL     1       0.867 -12.857 -23.160  1.00  0.00     0.090 N 
HETATM   29  C19 UNL     1       1.323 -14.092 -23.782  1.00  0.00     0.310 C 
ENDBRANCH   3  13
BRANCH   1  30
HETATM   30  N1  UNL     1       6.759 -10.744 -23.392  1.00  0.00    -0.385 N 
ATOM     31  H1  UNL     1       7.103 -10.804 -22.434  1.00  0.00     0.160 HD
BRANCH  30  32
HETATM   32  C2  UNL     1       7.315 -11.635 -24.409  1.00  0.00     0.073 C 
HETATM   33  C1  UNL     1       7.076 -13.082 -24.138  1.00  0.00     0.031 C 
HETATM   34  C3  UNL     1       8.803 -11.393 -24.492  1.00  0.00     0.031 C 
ENDBRANCH  30  32
ENDBRANCH   1  30
TORSDOF 3
ENDMDL
