MODEL 5
REMARK VINA RESULT: -10.285655883      1.982      7.363
REMARK  3 active torsions:
REMARK  status: ('A' for Active; 'I' for Inactive)
REMARK    1  A    between atoms: C2_2  and  N1_4 
REMARK    2  A    between atoms: N1_4  and  C4_6 
REMARK    3  A    between atoms: C6_8  and  N2_9 
ROOT
HETATM    1  C4  UNL     1       5.278  -8.507 -22.865  1.00  0.00     0.046 A 
HETATM    2  C5  UNL     1       4.027  -8.803 -23.420  1.00  0.00     0.060 A 
HETATM    3  C6  UNL     1       3.810  -9.920 -24.200  1.00  0.00     0.042 A 
HETATM    4  C21 UNL     1       4.873 -10.784 -24.445  1.00  0.00     0.038 A 
HETATM    5  C22 UNL     1       6.114 -10.517 -23.910  1.00  0.00    -0.036 A 
HETATM    6  C23 UNL     1       6.292  -9.385 -23.133  1.00  0.00     0.064 A 
HETATM    7  C24 UNL     1       7.627  -9.167 -22.607  1.00  0.00     0.254 C 
HETATM    8  O2  UNL     1       7.923  -8.187 -21.894  1.00  0.00    -0.268 OA
HETATM    9  N4  UNL     1       8.632 -10.145 -22.946  1.00  0.00    -0.356 N 
ATOM     10  H4  UNL     1       9.411 -10.301 -22.305  1.00  0.00     0.162 HD
HETATM   11  C25 UNL     1       8.562 -10.911 -24.174  1.00  0.00     0.127 C 
HETATM   12  C26 UNL     1       7.179 -11.497 -24.226  1.00  0.00     0.059 C 
ENDROOT
BRANCH   3  13
HETATM   13  N2  UNL     1       2.526 -10.199 -24.754  1.00  0.00    -0.316 N 
HETATM   14  C7  UNL     1       1.631 -11.126 -24.362  1.00  0.00     0.052 A 
HETATM   15  C8  UNL     1       0.516 -11.067 -25.163  1.00  0.00    -0.016 A 
HETATM   16  C20 UNL     1       1.756 -12.099 -23.244  1.00  0.00     0.329 C 
HETATM   17  C9  UNL     1       0.742 -10.060 -26.083  1.00  0.00     0.041 A 
HETATM   18  C17 UNL     1      -0.632 -11.965 -24.968  1.00  0.00     0.072 C 
HETATM   19  C10 UNL     1       1.999  -9.545 -25.800  1.00  0.00     0.032 A 
HETATM   20  C16 UNL     1      -0.029  -9.518 -27.171  1.00  0.00     0.162 C 
HETATM   21  C11 UNL     1       2.537  -8.435 -26.623  1.00  0.00     0.067 C 
HETATM   22  C12 UNL     1       1.428  -7.512 -27.089  1.00  0.00    -0.036 C 
HETATM   23  C13 UNL     1       2.055  -6.510 -28.041  1.00  0.00     0.015 C 
HETATM   24  C14 UNL     1       0.863  -6.723 -25.922  1.00  0.00     0.015 C 
HETATM   25  C15 UNL     1       0.333  -8.224 -27.811  1.00  0.00     0.093 C 
HETATM   26  O1  UNL     1      -1.042 -10.116 -27.627  1.00  0.00    -0.292 OA
HETATM   27  C18 UNL     1      -0.594 -12.507 -23.580  1.00  0.00     0.277 C 
HETATM   28  N3  UNL     1       0.690 -13.046 -23.208  1.00  0.00     0.090 N 
HETATM   29  C19 UNL     1       0.985 -14.264 -23.948  1.00  0.00     0.310 C 
ENDBRANCH   3  13
BRANCH   1  30
HETATM   30  N1  UNL     1       5.394  -7.350 -22.076  1.00  0.00    -0.385 N 
ATOM     31  H1  UNL     1       5.695  -7.436 -21.105  1.00  0.00     0.160 HD
BRANCH  30  32
HETATM   32  C2  UNL     1       5.092  -6.026 -22.617  1.00  0.00     0.073 C 
HETATM   33  C1  UNL     1       6.228  -5.404 -23.355  1.00  0.00     0.031 C 
HETATM   34  C3  UNL     1       4.700  -5.123 -21.473  1.00  0.00     0.031 C 
ENDBRANCH  30  32
ENDBRANCH   1  30
TORSDOF 3
ENDMDL
