MODEL 1
REMARK VINA RESULT: -11.296430842      0.000      0.000
REMARK  3 active torsions:
REMARK  status: ('A' for Active; 'I' for Inactive)
REMARK    1  A    between atoms: C2_2  and  N1_4 
REMARK    2  A    between atoms: N1_4  and  C4_6 
REMARK    3  A    between atoms: C6_8  and  N2_9 
ROOT
HETATM    1  C4  UNL     1       1.391 -10.456 -25.246  1.00  0.00     0.046 A 
HETATM    2  C5  UNL     1       2.780 -10.383 -25.081  1.00  0.00     0.060 A 
HETATM    3  C6  UNL     1       3.463 -11.202 -24.205  1.00  0.00     0.042 A 
HETATM    4  C21 UNL     1       2.747 -12.133 -23.459  1.00  0.00     0.038 A 
HETATM    5  C22 UNL     1       1.380 -12.225 -23.602  1.00  0.00    -0.036 A 
HETATM    6  C23 UNL     1       0.730 -11.386 -24.492  1.00  0.00     0.064 A 
HETATM    7  C24 UNL     1      -0.710 -11.538 -24.587  1.00  0.00     0.254 C 
HETATM    8  O2  UNL     1      -1.415 -10.845 -25.348  1.00  0.00    -0.268 OA
HETATM    9  N4  UNL     1      -1.319 -12.543 -23.750  1.00  0.00    -0.356 N 
ATOM     10  H4  UNL     1      -2.184 -12.990 -24.057  1.00  0.00     0.162 HD
HETATM   11  C25 UNL     1      -0.732 -12.932 -22.483  1.00  0.00     0.127 C 
HETATM   12  C26 UNL     1       0.709 -13.247 -22.766  1.00  0.00     0.059 C 
ENDROOT
BRANCH   3  13
HETATM   13  N2  UNL     1       4.879 -11.108 -24.054  1.00  0.00    -0.316 N 
HETATM   14  C7  UNL     1       5.579 -10.313 -23.223  1.00  0.00     0.052 A 
HETATM   15  C8  UNL     1       6.925 -10.534 -23.390  1.00  0.00    -0.016 A 
HETATM   16  C20 UNL     1       5.050  -9.324 -22.246  1.00  0.00     0.329 C 
HETATM   17  C9  UNL     1       7.050 -11.505 -24.364  1.00  0.00     0.041 A 
HETATM   18  C17 UNL     1       7.937  -9.804 -22.611  1.00  0.00     0.072 C 
HETATM   19  C10 UNL     1       5.760 -11.838 -24.754  1.00  0.00     0.032 A 
HETATM   20  C16 UNL     1       8.177 -12.158 -24.978  1.00  0.00     0.162 C 
HETATM   21  C11 UNL     1       5.554 -12.868 -25.802  1.00  0.00     0.067 C 
HETATM   22  C12 UNL     1       6.624 -13.940 -25.731  1.00  0.00    -0.036 C 
HETATM   23  C13 UNL     1       6.418 -14.852 -26.927  1.00  0.00     0.015 C 
HETATM   24  C14 UNL     1       6.447 -14.792 -24.487  1.00  0.00     0.015 C 
HETATM   25  C15 UNL     1       8.011 -13.394 -25.791  1.00  0.00     0.093 C 
HETATM   26  O1  UNL     1       9.349 -11.711 -24.851  1.00  0.00    -0.292 OA
HETATM   27  C18 UNL     1       7.297  -9.251 -21.383  1.00  0.00     0.277 C 
HETATM   28  N3  UNL     1       6.074  -8.535 -21.643  1.00  0.00     0.090 N 
HETATM   29  C19 UNL     1       6.332  -7.293 -22.357  1.00  0.00     0.310 C 
ENDBRANCH   3  13
BRANCH   1  30
HETATM   30  N1  UNL     1       0.790  -9.586 -26.172  1.00  0.00    -0.385 N 
ATOM     31  H1  UNL     1       0.040  -9.934 -26.770  1.00  0.00     0.160 HD
BRANCH  30  32
HETATM   32  C2  UNL     1       1.216  -8.193 -26.294  1.00  0.00     0.073 C 
HETATM   33  C1  UNL     1       0.151  -7.206 -25.955  1.00  0.00     0.031 C 
HETATM   34  C3  UNL     1       1.666  -7.957 -27.715  1.00  0.00     0.031 C 
ENDBRANCH  30  32
ENDBRANCH   1  30
TORSDOF 3
ENDMDL
