MODEL 5
REMARK VINA RESULT: -10.737291919      2.474      5.539
REMARK  3 active torsions:
REMARK  status: ('A' for Active; 'I' for Inactive)
REMARK    1  A    between atoms: C2_2  and  C4_4 
REMARK    2  A    between atoms: C4_4  and  C5_5 
REMARK    3  A    between atoms: C7_7  and  N1_8 
ROOT
HETATM    1  N1  UNL     1       4.455 -11.690 -24.325  1.00  0.00    -0.316 N 
HETATM    2  C8  UNL     1       3.247 -12.250 -24.190  1.00  0.00     0.052 A 
HETATM    3  C9  UNL     1       3.354 -13.582 -24.528  1.00  0.00    -0.016 A 
HETATM    4  C10 UNL     1       4.674 -13.818 -24.875  1.00  0.00     0.041 A 
HETATM    5  C11 UNL     1       5.354 -12.603 -24.739  1.00  0.00     0.032 A 
HETATM    6  C12 UNL     1       6.792 -12.499 -25.034  1.00  0.00     0.067 C 
HETATM    7  C13 UNL     1       7.232 -13.590 -25.986  1.00  0.00    -0.036 C 
HETATM    8  C14 UNL     1       8.739 -13.538 -26.106  1.00  0.00     0.015 C 
HETATM    9  C15 UNL     1       6.645 -13.399 -27.360  1.00  0.00     0.015 C 
HETATM   10  C16 UNL     1       6.874 -14.944 -25.400  1.00  0.00     0.093 C 
HETATM   11  C17 UNL     1       5.391 -15.001 -25.312  1.00  0.00     0.162 C 
HETATM   12  O1  UNL     1       4.753 -16.046 -25.607  1.00  0.00    -0.292 OA
HETATM   13  C18 UNL     1       2.203 -14.517 -24.493  1.00  0.00     0.072 C 
HETATM   14  C19 UNL     1       0.953 -13.830 -23.971  1.00  0.00     0.277 C 
HETATM   15  N2  UNL     1       0.957 -12.495 -24.529  1.00  0.00     0.090 N 
HETATM   16  C20 UNL     1      -0.323 -11.884 -24.610  1.00  0.00     0.310 C 
HETATM   17  C21 UNL     1       1.929 -11.722 -23.777  1.00  0.00     0.329 C 
ENDROOT
BRANCH   1  18
HETATM   18  C7  UNL     1       4.719 -10.309 -24.056  1.00  0.00     0.040 A 
HETATM   19  C6  UNL     1       3.752  -9.341 -24.188  1.00  0.00     0.038 A 
HETATM   20  C5  UNL     1       4.006  -7.984 -23.925  1.00  0.00    -0.039 A 
HETATM   21  C24 UNL     1       5.306  -7.700 -23.521  1.00  0.00     0.044 A 
HETATM   22  C23 UNL     1       6.284  -8.667 -23.388  1.00  0.00    -0.038 A 
HETATM   23  C25 UNL     1       5.636  -6.304 -23.230  1.00  0.00     0.252 C 
HETATM   24  C22 UNL     1       5.973  -9.984 -23.662  1.00  0.00     0.038 A 
HETATM   25  C27 UNL     1       7.636  -8.291 -22.928  1.00  0.00     0.059 C 
HETATM   26  C26 UNL     1       7.990  -6.897 -23.363  1.00  0.00     0.127 C 
HETATM   27  N3  UNL     1       6.978  -5.993 -22.819  1.00  0.00    -0.357 N 
ATOM     28  H3  UNL     1       7.203  -5.213 -22.203  1.00  0.00     0.162 HD
HETATM   29  O2  UNL     1       4.789  -5.424 -23.332  1.00  0.00    -0.268 OA
BRANCH  20  30
HETATM   30  C4  UNL     1       2.968  -6.969 -24.123  1.00  0.00     0.043 C 
BRANCH  30  31
HETATM   31  C2  UNL     1       2.121  -7.143 -25.355  1.00  0.00    -0.019 C 
HETATM   32  C1  UNL     1       2.346  -5.938 -26.255  1.00  0.00     0.010 C 
HETATM   33  C3  UNL     1       0.625  -6.993 -24.960  1.00  0.00     0.010 C 
ENDBRANCH  30  31
ENDBRANCH  20  30
ENDBRANCH   1  18
TORSDOF 3
ENDMDL
