MODEL 4
REMARK VINA RESULT: -10.810184132      1.239      7.445
REMARK  3 active torsions:
REMARK  status: ('A' for Active; 'I' for Inactive)
REMARK    1  A    between atoms: C2_2  and  C4_4 
REMARK    2  A    between atoms: C4_4  and  C5_5 
REMARK    3  A    between atoms: C7_7  and  N1_8 
ROOT
HETATM    1  N1  UNL     1       1.946 -10.827 -24.889  1.00  0.00    -0.316 N 
HETATM    2  C8  UNL     1       0.987 -11.653 -24.452  1.00  0.00     0.052 A 
HETATM    3  C9  UNL     1      -0.149 -11.420 -25.197  1.00  0.00    -0.016 A 
HETATM    4  C10 UNL     1       0.149 -10.420 -26.107  1.00  0.00     0.041 A 
HETATM    5  C11 UNL     1       1.484 -10.059 -25.894  1.00  0.00     0.032 A 
HETATM    6  C12 UNL     1       2.127  -9.010 -26.701  1.00  0.00     0.067 C 
HETATM    7  C13 UNL     1       1.098  -8.064 -27.282  1.00  0.00    -0.036 C 
HETATM    8  C14 UNL     1       1.801  -7.125 -28.238  1.00  0.00     0.015 C 
HETATM    9  C15 UNL     1       0.438  -7.236 -26.212  1.00  0.00     0.015 C 
HETATM   10  C16 UNL     1       0.086  -8.856 -28.091  1.00  0.00     0.093 C 
HETATM   11  C17 UNL     1      -0.622  -9.754 -27.142  1.00  0.00     0.162 C 
HETATM   12  O1  UNL     1      -1.864  -9.947 -27.217  1.00  0.00    -0.292 OA
HETATM   13  C18 UNL     1      -1.417 -12.161 -24.985  1.00  0.00     0.072 C 
HETATM   14  C19 UNL     1      -1.256 -13.230 -23.920  1.00  0.00     0.277 C 
HETATM   15  N2  UNL     1      -0.415 -12.660 -22.890  1.00  0.00     0.090 N 
HETATM   16  C20 UNL     1      -0.564 -13.253 -21.608  1.00  0.00     0.310 C 
HETATM   17  C21 UNL     1       0.947 -12.683 -23.393  1.00  0.00     0.329 C 
ENDROOT
BRANCH   1  18
HETATM   18  C7  UNL     1       3.268 -10.794 -24.342  1.00  0.00     0.040 A 
HETATM   19  C6  UNL     1       4.229 -11.711 -24.697  1.00  0.00     0.038 A 
HETATM   20  C5  UNL     1       5.528 -11.682 -24.162  1.00  0.00    -0.039 A 
HETATM   21  C24 UNL     1       5.765 -10.658 -23.253  1.00  0.00     0.044 A 
HETATM   22  C23 UNL     1       4.804  -9.733 -22.891  1.00  0.00    -0.038 A 
HETATM   23  C25 UNL     1       7.100 -10.571 -22.660  1.00  0.00     0.252 C 
HETATM   24  C22 UNL     1       3.544  -9.814 -23.450  1.00  0.00     0.038 A 
HETATM   25  C27 UNL     1       5.138  -8.656 -21.938  1.00  0.00     0.059 C 
HETATM   26  C26 UNL     1       6.180  -9.105 -20.953  1.00  0.00     0.127 C 
HETATM   27  N3  UNL     1       7.357  -9.521 -21.713  1.00  0.00    -0.357 N 
ATOM     28  H3  UNL     1       8.279  -9.104 -21.583  1.00  0.00     0.162 HD
HETATM   29  O2  UNL     1       7.976 -11.372 -22.967  1.00  0.00    -0.268 OA
BRANCH  20  30
HETATM   30  C4  UNL     1       6.515 -12.704 -24.522  1.00  0.00     0.043 C 
BRANCH  30  31
HETATM   31  C2  UNL     1       6.090 -13.663 -25.602  1.00  0.00    -0.019 C 
HETATM   32  C1  UNL     1       6.471 -15.068 -25.161  1.00  0.00     0.010 C 
HETATM   33  C3  UNL     1       6.991 -13.445 -26.849  1.00  0.00     0.010 C 
ENDBRANCH  30  31
ENDBRANCH  20  30
ENDBRANCH   1  18
TORSDOF 3
ENDMDL
