MODEL 1
REMARK VINA RESULT: -12.059376435      0.000      0.000
REMARK  3 active torsions:
REMARK  status: ('A' for Active; 'I' for Inactive)
REMARK    1  A    between atoms: C2_2  and  C4_4 
REMARK    2  A    between atoms: C4_4  and  C5_5 
REMARK    3  A    between atoms: C7_7  and  N1_8 
ROOT
HETATM    1  N1  UNL     1       4.581 -11.272 -24.292  1.00  0.00    -0.316 N 
HETATM    2  C8  UNL     1       5.227 -10.375 -23.536  1.00  0.00     0.052 A 
HETATM    3  C9  UNL     1       6.581 -10.581 -23.693  1.00  0.00    -0.016 A 
HETATM    4  C10 UNL     1       6.741 -11.638 -24.574  1.00  0.00     0.041 A 
HETATM    5  C11 UNL     1       5.458 -12.060 -24.941  1.00  0.00     0.032 A 
HETATM    6  C12 UNL     1       5.264 -13.180 -25.875  1.00  0.00     0.067 C 
HETATM    7  C13 UNL     1       6.469 -14.095 -25.885  1.00  0.00    -0.036 C 
HETATM    8  C14 UNL     1       6.284 -15.115 -26.987  1.00  0.00     0.015 C 
HETATM    9  C15 UNL     1       6.616 -14.835 -24.581  1.00  0.00     0.015 C 
HETATM   10  C16 UNL     1       7.711 -13.289 -26.222  1.00  0.00     0.093 C 
HETATM   11  C17 UNL     1       7.905 -12.309 -25.122  1.00  0.00     0.162 C 
HETATM   12  O1  UNL     1       9.049 -12.054 -24.661  1.00  0.00    -0.292 OA
HETATM   13  C18 UNL     1       7.607  -9.764 -23.000  1.00  0.00     0.072 C 
HETATM   14  C19 UNL     1       6.965  -8.655 -22.185  1.00  0.00     0.277 C 
HETATM   15  N2  UNL     1       5.773  -9.220 -21.590  1.00  0.00     0.090 N 
HETATM   16  C20 UNL     1       5.329  -8.560 -20.414  1.00  0.00     0.310 C 
HETATM   17  C21 UNL     1       4.769  -9.295 -22.637  1.00  0.00     0.329 C 
ENDROOT
BRANCH   1  18
HETATM   18  C7  UNL     1       3.154 -11.350 -24.376  1.00  0.00     0.040 A 
HETATM   19  C6  UNL     1       2.423 -10.517 -25.188  1.00  0.00     0.038 A 
HETATM   20  C5  UNL     1       1.022 -10.591 -25.273  1.00  0.00    -0.039 A 
HETATM   21  C24 UNL     1       0.438 -11.569 -24.477  1.00  0.00     0.044 A 
HETATM   22  C23 UNL     1       1.166 -12.409 -23.657  1.00  0.00    -0.038 A 
HETATM   23  C25 UNL     1      -1.019 -11.699 -24.520  1.00  0.00     0.252 C 
HETATM   24  C22 UNL     1       2.541 -12.288 -23.615  1.00  0.00     0.038 A 
HETATM   25  C27 UNL     1       0.477 -13.443 -22.859  1.00  0.00     0.059 C 
HETATM   26  C26 UNL     1      -0.904 -12.997 -22.468  1.00  0.00     0.127 C 
HETATM   27  N3  UNL     1      -1.638 -12.702 -23.697  1.00  0.00    -0.357 N 
ATOM     28  H3  UNL     1      -2.512 -13.165 -23.948  1.00  0.00     0.162 HD
HETATM   29  O2  UNL     1      -1.693 -10.974 -25.243  1.00  0.00    -0.268 OA
BRANCH  20  30
HETATM   30  C4  UNL     1       0.266  -9.656 -26.110  1.00  0.00     0.043 C 
BRANCH  30  31
HETATM   31  C2  UNL     1       0.966  -8.362 -26.428  1.00  0.00    -0.019 C 
HETATM   32  C1  UNL     1      -0.007  -7.223 -26.164  1.00  0.00     0.010 C 
HETATM   33  C3  UNL     1       1.181  -8.271 -27.964  1.00  0.00     0.010 C 
ENDBRANCH  30  31
ENDBRANCH  20  30
ENDBRANCH   1  18
TORSDOF 3
ENDMDL
