MODEL 3
REMARK VINA RESULT: -10.890944883      1.569      7.398
REMARK  3 active torsions:
REMARK  status: ('A' for Active; 'I' for Inactive)
REMARK    1  A    between atoms: C2_2  and  C4_4 
REMARK    2  A    between atoms: C4_4  and  C5_5 
REMARK    3  A    between atoms: C7_7  and  N1_8 
ROOT
HETATM    1  N1  UNL     1       2.370 -10.536 -24.837  1.00  0.00    -0.316 N 
HETATM    2  C8  UNL     1       1.869  -9.661 -25.717  1.00  0.00     0.052 A 
HETATM    3  C9  UNL     1       0.495  -9.773 -25.696  1.00  0.00    -0.016 A 
HETATM    4  C10 UNL     1       0.173 -10.750 -24.769  1.00  0.00     0.041 A 
HETATM    5  C11 UNL     1       1.379 -11.220 -24.236  1.00  0.00     0.032 A 
HETATM    6  C12 UNL     1       1.398 -12.278 -23.214  1.00  0.00     0.067 C 
HETATM    7  C13 UNL     1       0.139 -13.116 -23.273  1.00  0.00    -0.036 C 
HETATM    8  C14 UNL     1       0.139 -14.061 -22.092  1.00  0.00     0.015 C 
HETATM    9  C15 UNL     1       0.079 -13.939 -24.533  1.00  0.00     0.015 C 
HETATM   10  C16 UNL     1      -1.073 -12.213 -23.129  1.00  0.00     0.093 C 
HETATM   11  C17 UNL     1      -1.085 -11.308 -24.307  1.00  0.00     0.162 C 
HETATM   12  O1  UNL     1      -2.154 -11.018 -24.906  1.00  0.00    -0.292 OA
HETATM   13  C18 UNL     1      -0.394  -8.949 -26.550  1.00  0.00     0.072 C 
HETATM   14  C19 UNL     1       0.403  -7.944 -27.362  1.00  0.00     0.277 C 
HETATM   15  N2  UNL     1       1.609  -8.623 -27.784  1.00  0.00     0.090 N 
HETATM   16  C20 UNL     1       2.218  -8.079 -28.947  1.00  0.00     0.310 C 
HETATM   17  C21 UNL     1       2.491  -8.680 -26.632  1.00  0.00     0.329 C 
ENDROOT
BRANCH   1  18
HETATM   18  C7  UNL     1       3.772 -10.695 -24.594  1.00  0.00     0.040 A 
HETATM   19  C6  UNL     1       4.430 -11.874 -24.848  1.00  0.00     0.038 A 
HETATM   20  C5  UNL     1       5.806 -12.034 -24.611  1.00  0.00    -0.039 A 
HETATM   21  C24 UNL     1       6.446 -10.910 -24.102  1.00  0.00     0.044 A 
HETATM   22  C23 UNL     1       5.792  -9.721 -23.842  1.00  0.00    -0.038 A 
HETATM   23  C25 UNL     1       7.881 -11.009 -23.833  1.00  0.00     0.252 C 
HETATM   24  C22 UNL     1       4.438  -9.625 -24.096  1.00  0.00     0.038 A 
HETATM   25  C27 UNL     1       6.545  -8.560 -23.327  1.00  0.00     0.059 C 
HETATM   26  C26 UNL     1       7.705  -8.999 -22.478  1.00  0.00     0.127 C 
HETATM   27  N3  UNL     1       8.556  -9.857 -23.300  1.00  0.00    -0.357 N 
ATOM     28  H3  UNL     1       9.539  -9.657 -23.480  1.00  0.00     0.162 HD
HETATM   29  O2  UNL     1       8.491 -12.048 -24.060  1.00  0.00    -0.268 OA
BRANCH  20  30
HETATM   30  C4  UNL     1       6.468 -13.320 -24.844  1.00  0.00     0.043 C 
BRANCH  30  31
HETATM   31  C2  UNL     1       5.848 -14.182 -25.910  1.00  0.00    -0.019 C 
HETATM   32  C1  UNL     1       5.529 -15.536 -25.294  1.00  0.00     0.010 C 
HETATM   33  C3  UNL     1       6.934 -14.539 -26.963  1.00  0.00     0.010 C 
ENDBRANCH  30  31
ENDBRANCH  20  30
ENDBRANCH   1  18
TORSDOF 3
ENDMDL
