MODEL 3
REMARK VINA RESULT: -10.691634935      1.522      7.293
REMARK  3 active torsions:
REMARK  status: ('A' for Active; 'I' for Inactive)
REMARK    1  A    between atoms: N1_4  and  C4_5 
REMARK    2  A    between atoms: C8_9  and  C9_10 
REMARK    3  A    between atoms: C9_10  and  C10_11 
ROOT
HETATM    1  C4  UNL     1       4.353 -11.958 -24.363  1.00  0.00     0.040 A 
HETATM    2  C5  UNL     1       4.946 -13.169 -24.628  1.00  0.00     0.038 A 
HETATM    3  C6  UNL     1       6.310 -13.318 -24.745  1.00  0.00    -0.038 A 
HETATM    4  C7  UNL     1       7.105 -12.198 -24.588  1.00  0.00     0.044 A 
HETATM    5  C8  UNL     1       6.585 -10.945 -24.317  1.00  0.00    -0.039 A 
HETATM    6  C13 UNL     1       5.186 -10.873 -24.213  1.00  0.00     0.038 A 
HETATM    7  C14 UNL     1       8.534 -12.388 -24.744  1.00  0.00     0.252 C 
HETATM    8  O1  UNL     1       9.291 -11.400 -24.615  1.00  0.00    -0.268 OA
HETATM    9  N2  UNL     1       9.037 -13.676 -25.040  1.00  0.00    -0.357 N 
ATOM     10  H2  UNL     1      10.018 -13.885 -24.855  1.00  0.00     0.162 HD
HETATM   11  C15 UNL     1       8.201 -14.683 -25.590  1.00  0.00     0.127 C 
HETATM   12  C16 UNL     1       6.805 -14.677 -25.036  1.00  0.00     0.059 C 
ENDROOT
BRANCH   1  13
HETATM   13  N1  UNL     1       2.947 -11.828 -24.248  1.00  0.00    -0.324 N 
HETATM   14  C3  UNL     1       2.198 -12.653 -23.520  1.00  0.00     0.105 A 
HETATM   15  C2  UNL     1       0.884 -12.297 -23.593  1.00  0.00    -0.030 A 
HETATM   16  C1  UNL     1      -0.265 -12.956 -22.929  1.00  0.00     0.050 C 
HETATM   17  C18 UNL     1       0.860 -11.190 -24.417  1.00  0.00     0.040 A 
HETATM   18  C17 UNL     1       2.149 -10.918 -24.811  1.00  0.00     0.031 A 
HETATM   19  C19 UNL     1      -0.294 -10.380 -24.854  1.00  0.00     0.162 C 
HETATM   20  C24 UNL     1       2.383  -9.755 -25.717  1.00  0.00     0.067 C 
HETATM   21  C21 UNL     1       1.346  -8.703 -25.401  1.00  0.00    -0.036 C 
HETATM   22  C20 UNL     1      -0.044  -9.202 -25.707  1.00  0.00     0.093 C 
HETATM   23  C22 UNL     1       1.396  -8.375 -23.912  1.00  0.00     0.015 C 
HETATM   24  C23 UNL     1       1.594  -7.416 -26.140  1.00  0.00     0.015 C 
HETATM   25  O2  UNL     1      -1.440 -10.724 -24.485  1.00  0.00    -0.292 OA
ENDBRANCH   1  13
BRANCH   5  26
HETATM   26  C9  UNL     1       7.411  -9.739 -24.090  1.00  0.00     0.043 C 
BRANCH  26  27
HETATM   27  C10 UNL     1       7.116  -8.986 -22.838  1.00  0.00    -0.019 C 
HETATM   28  C11 UNL     1       7.858  -7.630 -22.883  1.00  0.00     0.010 C 
HETATM   29  C12 UNL     1       7.802  -9.743 -21.698  1.00  0.00     0.010 C 
ENDBRANCH  26  27
ENDBRANCH   5  26
TORSDOF 3
ENDMDL
