MODEL 1
REMARK VINA RESULT: -11.324292988      0.000      0.000
REMARK  3 active torsions:
REMARK  status: ('A' for Active; 'I' for Inactive)
REMARK    1  A    between atoms: N1_4  and  C4_5 
REMARK    2  A    between atoms: C8_9  and  C9_10 
REMARK    3  A    between atoms: C9_10  and  C10_11 
ROOT
HETATM    1  C4  UNL     1       3.909 -10.994 -24.062  1.00  0.00     0.040 A 
HETATM    2  C5  UNL     1       3.146 -12.026 -23.572  1.00  0.00     0.038 A 
HETATM    3  C6  UNL     1       1.778 -12.075 -23.721  1.00  0.00    -0.038 A 
HETATM    4  C7  UNL     1       1.158 -11.038 -24.393  1.00  0.00     0.044 A 
HETATM    5  C8  UNL     1       1.856  -9.965 -24.918  1.00  0.00    -0.039 A 
HETATM    6  C13 UNL     1       3.246  -9.987 -24.725  1.00  0.00     0.038 A 
HETATM    7  C14 UNL     1      -0.286 -11.110 -24.508  1.00  0.00     0.252 C 
HETATM    8  O1  UNL     1      -0.889 -10.190 -25.104  1.00  0.00    -0.268 OA
HETATM    9  N2  UNL     1      -0.975 -12.208 -23.945  1.00  0.00    -0.357 N 
ATOM     10  H2  UNL     1      -1.918 -12.427 -24.269  1.00  0.00     0.162 HD
HETATM   11  C15 UNL     1      -0.381 -13.011 -22.937  1.00  0.00     0.127 C 
HETATM   12  C16 UNL     1       1.089 -13.242 -23.140  1.00  0.00     0.059 C 
ENDROOT
BRANCH   1  13
HETATM   13  N1  UNL     1       5.315 -10.966 -23.896  1.00  0.00    -0.324 N 
HETATM   14  C3  UNL     1       5.920 -10.269 -22.937  1.00  0.00     0.105 A 
HETATM   15  C2  UNL     1       7.273 -10.420 -23.015  1.00  0.00    -0.030 A 
HETATM   16  C1  UNL     1       8.299  -9.813 -22.135  1.00  0.00     0.050 C 
HETATM   17  C18 UNL     1       7.477 -11.260 -24.091  1.00  0.00     0.040 A 
HETATM   18  C17 UNL     1       6.250 -11.585 -24.621  1.00  0.00     0.031 A 
HETATM   19  C19 UNL     1       8.745 -11.771 -24.646  1.00  0.00     0.162 C 
HETATM   20  C24 UNL     1       6.208 -12.492 -25.806  1.00  0.00     0.067 C 
HETATM   21  C21 UNL     1       7.375 -13.446 -25.704  1.00  0.00    -0.036 C 
HETATM   22  C20 UNL     1       8.687 -12.707 -25.785  1.00  0.00     0.093 C 
HETATM   23  C22 UNL     1       7.332 -14.155 -24.354  1.00  0.00     0.015 C 
HETATM   24  C23 UNL     1       7.333 -14.517 -26.760  1.00  0.00     0.015 C 
HETATM   25  O2  UNL     1       9.820 -11.389 -24.131  1.00  0.00    -0.292 OA
ENDBRANCH   1  13
BRANCH   5  26
HETATM   26  C9  UNL     1       1.228  -8.868 -25.687  1.00  0.00     0.043 C 
BRANCH  26  27
HETATM   27  C10 UNL     1       1.696  -8.724 -27.096  1.00  0.00    -0.019 C 
HETATM   28  C11 UNL     1       2.273  -7.302 -27.289  1.00  0.00     0.010 C 
HETATM   29  C12 UNL     1       0.445  -8.736 -27.978  1.00  0.00     0.010 C 
ENDBRANCH  26  27
ENDBRANCH   5  26
TORSDOF 3
ENDMDL
