MODEL 4
REMARK VINA RESULT: -10.056185824      1.567      7.476
REMARK  3 active torsions:
REMARK  status: ('A' for Active; 'I' for Inactive)
REMARK    1  A    between atoms: N1_4  and  C4_5 
REMARK    2  A    between atoms: C8_9  and  C9_10 
REMARK    3  A    between atoms: C9_10  and  C10_11 
ROOT
HETATM    1  C4  UNL     1       4.039 -10.788 -24.556  1.00  0.00     0.040 A 
HETATM    2  C5  UNL     1       4.781  -9.708 -24.142  1.00  0.00     0.038 A 
HETATM    3  C6  UNL     1       6.134  -9.784 -23.903  1.00  0.00    -0.038 A 
HETATM    4  C7  UNL     1       6.762 -11.001 -24.089  1.00  0.00     0.044 A 
HETATM    5  C8  UNL     1       6.087 -12.134 -24.505  1.00  0.00    -0.039 A 
HETATM    6  C13 UNL     1       4.710 -11.977 -24.729  1.00  0.00     0.038 A 
HETATM    7  C14 UNL     1       8.184 -11.050 -23.802  1.00  0.00     0.252 C 
HETATM    8  O1  UNL     1       8.791 -12.133 -23.952  1.00  0.00    -0.268 OA
HETATM    9  N2  UNL     1       8.845  -9.882 -23.359  1.00  0.00    -0.357 N 
ATOM     10  H2  UNL     1       9.859  -9.817 -23.445  1.00  0.00     0.162 HD
HETATM   11  C15 UNL     1       8.123  -8.797 -22.796  1.00  0.00     0.127 C 
HETATM   12  C16 UNL     1       6.800  -8.544 -23.459  1.00  0.00     0.059 C 
ENDROOT
BRANCH   1  13
HETATM   13  N1  UNL     1       2.647 -10.686 -24.795  1.00  0.00    -0.324 N 
HETATM   14  C3  UNL     1       2.132  -9.984 -25.801  1.00  0.00     0.105 A 
HETATM   15  C2  UNL     1       0.770 -10.057 -25.789  1.00  0.00    -0.030 A 
HETATM   16  C1  UNL     1      -0.175  -9.419 -26.735  1.00  0.00     0.050 C 
HETATM   17  C18 UNL     1       0.465 -10.856 -24.705  1.00  0.00     0.040 A 
HETATM   18  C17 UNL     1       1.643 -11.234 -24.104  1.00  0.00     0.031 A 
HETATM   19  C19 UNL     1      -0.856 -11.281 -24.204  1.00  0.00     0.162 C 
HETATM   20  C24 UNL     1       1.575 -12.109 -22.897  1.00  0.00     0.067 C 
HETATM   21  C21 UNL     1       0.363 -13.000 -23.037  1.00  0.00    -0.036 C 
HETATM   22  C20 UNL     1      -0.909 -12.188 -23.041  1.00  0.00     0.093 C 
HETATM   23  C22 UNL     1       0.433 -13.746 -24.365  1.00  0.00     0.015 C 
HETATM   24  C23 UNL     1       0.291 -14.042 -21.954  1.00  0.00     0.015 C 
HETATM   25  O2  UNL     1      -1.881 -10.854 -24.783  1.00  0.00    -0.292 OA
ENDBRANCH   1  13
BRANCH   5  26
HETATM   26  C9  UNL     1       6.739 -13.436 -24.766  1.00  0.00     0.043 C 
BRANCH  26  27
HETATM   27  C10 UNL     1       6.134 -14.250 -25.859  1.00  0.00    -0.019 C 
HETATM   28  C11 UNL     1       5.717 -15.625 -25.287  1.00  0.00     0.010 C 
HETATM   29  C12 UNL     1       7.265 -14.586 -26.834  1.00  0.00     0.010 C 
ENDBRANCH  26  27
ENDBRANCH   5  26
TORSDOF 3
ENDMDL
