MODEL 2
REMARK VINA RESULT: -11.137691931      1.458      7.491
REMARK  3 active torsions:
REMARK  status: ('A' for Active; 'I' for Inactive)
REMARK    1  A    between atoms: N1_4  and  C4_5 
REMARK    2  A    between atoms: C8_9  and  C9_10 
REMARK    3  A    between atoms: C9_10  and  C10_11 
ROOT
HETATM    1  C4  UNL     1       4.123 -11.722 -24.152  1.00  0.00     0.040 A 
HETATM    2  C5  UNL     1       4.878 -10.591 -23.956  1.00  0.00     0.038 A 
HETATM    3  C6  UNL     1       6.255 -10.605 -23.974  1.00  0.00    -0.038 A 
HETATM    4  C7  UNL     1       6.892 -11.811 -24.200  1.00  0.00     0.044 A 
HETATM    5  C8  UNL     1       6.203 -12.992 -24.408  1.00  0.00    -0.039 A 
HETATM    6  C13 UNL     1       4.803 -12.897 -24.375  1.00  0.00     0.038 A 
HETATM    7  C14 UNL     1       8.343 -11.792 -24.186  1.00  0.00     0.252 C 
HETATM    8  O1  UNL     1       8.960 -12.862 -24.380  1.00  0.00    -0.268 OA
HETATM    9  N2  UNL     1       9.020 -10.574 -23.950  1.00  0.00    -0.357 N 
ATOM     10  H2  UNL     1       9.997 -10.482 -24.232  1.00  0.00     0.162 HD
HETATM   11  C15 UNL     1       8.368  -9.477 -23.329  1.00  0.00     0.127 C 
HETATM   12  C16 UNL     1       6.934  -9.316 -23.744  1.00  0.00     0.059 C 
ENDROOT
BRANCH   1  13
HETATM   13  N1  UNL     1       2.707 -11.684 -24.128  1.00  0.00    -0.324 N 
HETATM   14  C3  UNL     1       1.971 -12.496 -23.374  1.00  0.00     0.105 A 
HETATM   15  C2  UNL     1       0.642 -12.241 -23.552  1.00  0.00    -0.030 A 
HETATM   16  C1  UNL     1      -0.500 -12.923 -22.899  1.00  0.00     0.050 C 
HETATM   17  C18 UNL     1       0.596 -11.212 -24.470  1.00  0.00     0.040 A 
HETATM   18  C17 UNL     1       1.886 -10.883 -24.813  1.00  0.00     0.031 A 
HETATM   19  C19 UNL     1      -0.579 -10.526 -25.040  1.00  0.00     0.162 C 
HETATM   20  C24 UNL     1       2.099  -9.786 -25.802  1.00  0.00     0.067 C 
HETATM   21  C21 UNL     1       0.977  -8.787 -25.638  1.00  0.00    -0.036 C 
HETATM   22  C20 UNL     1      -0.355  -9.408 -25.978  1.00  0.00     0.093 C 
HETATM   23  C22 UNL     1       0.913  -8.333 -24.183  1.00  0.00     0.015 C 
HETATM   24  C23 UNL     1       1.184  -7.552 -26.472  1.00  0.00     0.015 C 
HETATM   25  O2  UNL     1      -1.720 -10.918 -24.708  1.00  0.00    -0.292 OA
ENDBRANCH   1  13
BRANCH   5  26
HETATM   26  C9  UNL     1       6.855 -14.287 -24.705  1.00  0.00     0.043 C 
BRANCH  26  27
HETATM   27  C10 UNL     1       6.653 -14.803 -26.089  1.00  0.00    -0.019 C 
HETATM   28  C11 UNL     1       6.408 -13.608 -27.039  1.00  0.00     0.010 C 
HETATM   29  C12 UNL     1       5.317 -15.551 -26.089  1.00  0.00     0.010 C 
ENDBRANCH  26  27
ENDBRANCH   5  26
TORSDOF 3
ENDMDL
