MODEL 12
REMARK VINA RESULT: -7.204279538      1.129      1.428
REMARK  9 active torsions:
REMARK  status: ('A' for Active; 'I' for Inactive)
REMARK    1  A    between atoms: C1_2  and  C2_4 
REMARK    2  A    between atoms: C4_6  and  C5_7 
REMARK    3  A    between atoms: C8_10  and  C9_11 
REMARK    4  A    between atoms: C9_11  and  N1_12 
REMARK    5  A    between atoms: N1_12  and  C10_15 
REMARK    6  A    between atoms: C10_15  and  C11_17 
REMARK    7  A    between atoms: C14_20  and  C15_21 
REMARK    8  A    between atoms: C18_24  and  C19_25 
REMARK    9  A    between atoms: N2_34  and  C24_35 
ROOT
HETATM    1  C5  UNL     1      -2.400  11.423  -0.743  1.00  0.00    -0.007 A 
HETATM    2  C6  UNL     1      -2.167  12.492   0.071  1.00  0.00     0.014 A 
HETATM    3  C7  UNL     1      -0.865  12.885   0.435  1.00  0.00     0.010 A 
HETATM    4  C8  UNL     1       0.230  12.193  -0.026  1.00  0.00    -0.033 A 
HETATM    5  C22 UNL     1      -0.001  11.118  -0.844  1.00  0.00     0.010 A 
HETATM    6  C23 UNL     1      -1.285  10.741  -1.196  1.00  0.00     0.014 A 
ENDROOT
BRANCH   4   7
HETATM    7  C9  UNL     1       1.623  12.555   0.319  1.00  0.00     0.272 C 
BRANCH   7   8
HETATM    8  N1  UNL     1       2.376  11.306   0.373  1.00  0.00    -0.053 N 
ATOM      9  H12 UNL     1       1.805  10.502   0.114  1.00  0.00     0.279 HD
ATOM     10  H11 UNL     1       3.067  11.242  -0.374  1.00  0.00     0.279 HD
BRANCH   8  11
HETATM   11  C10 UNL     1       2.971  11.153   1.683  1.00  0.00     0.293 C 
HETATM   12  S1  UNL     1       1.744  10.626   2.912  1.00  0.00    -0.057 SA
BRANCH  11  13
HETATM   13  C11 UNL     1       4.080  10.180   1.587  1.00  0.00     0.005 A 
HETATM   14  C12 UNL     1       3.877   8.989   0.897  1.00  0.00     0.013 A 
HETATM   15  C13 UNL     1       4.897   8.040   0.794  1.00  0.00     0.015 A 
HETATM   16  C14 UNL     1       6.118   8.263   1.372  1.00  0.00    -0.001 A 
HETATM   17  C20 UNL     1       6.339   9.429   2.056  1.00  0.00     0.038 A 
HETATM   18  C21 UNL     1       5.310  10.377   2.154  1.00  0.00     0.044 A 
HETATM   19 CL1  UNL     1       5.650  11.867   3.030  1.00  0.00    -0.084 Cl
BRANCH  16  20
HETATM   20  C15 UNL     1       7.145   7.224   1.226  1.00  0.00     0.086 A 
HETATM   21  C16 UNL     1       7.116   6.157   0.331  1.00  0.00     0.041 A 
HETATM   22  C17 UNL     1       8.260   5.427   0.519  1.00  0.00     0.047 A 
HETATM   23  C18 UNL     1       8.969   6.065   1.530  1.00  0.00     0.152 A 
HETATM   24  O5  UNL     1       8.259   7.098   1.888  1.00  0.00    -0.303 OA
BRANCH  23  25
HETATM   25  C19 UNL     1      10.260   5.631   2.061  1.00  0.00     0.234 C 
HETATM   26  O3  UNL     1      10.391   5.476   3.286  1.00  0.00    -0.642 OA
HETATM   27  O4  UNL     1      11.311   5.400   1.207  1.00  0.00    -0.642 OA
ENDBRANCH  23  25
ENDBRANCH  16  20
ENDBRANCH  11  13
ENDBRANCH   8  11
ENDBRANCH   7   8
ENDBRANCH   4   7
BRANCH   1  28
HETATM   28  C4  UNL     1      -3.753  11.009  -1.124  1.00  0.00     0.069 A 
HETATM   29  C3  UNL     1      -4.263  11.212  -2.408  1.00  0.00     0.070 A 
HETATM   30  C2  UNL     1      -5.538  10.731  -2.479  1.00  0.00     0.127 A 
HETATM   31  N3  UNL     1      -5.798  10.243  -1.258  1.00  0.00    -0.287 N 
HETATM   32  N2  UNL     1      -4.723  10.417  -0.465  1.00  0.00    -0.255 N 
ATOM     33  H3  UNL     1      -6.675   9.808  -0.973  1.00  0.00     0.188 HD
BRANCH  30  34
HETATM   34  C1  UNL     1      -6.453  10.734  -3.631  1.00  0.00     0.228 C 
HETATM   35  O1  UNL     1      -6.984   9.674  -4.012  1.00  0.00    -0.643 OA
HETATM   36  O2  UNL     1      -6.716  11.914  -4.283  1.00  0.00    -0.643 OA
ENDBRANCH  30  34
BRANCH  32  37
HETATM   37  C24 UNL     1      -4.740   9.985   0.880  1.00  0.00     0.058 A 
HETATM   38  C25 UNL     1      -5.406  10.712   1.873  1.00  0.00     0.033 A 
HETATM   39  C26 UNL     1      -5.471  10.319   3.174  1.00  0.00     0.028 A 
HETATM   40  C27 UNL     1      -4.874   9.166   3.576  1.00  0.00     0.055 A 
HETATM   41 CL2  UNL     1      -4.983   8.701   5.251  1.00  0.00    -0.083 Cl
HETATM   42  C28 UNL     1      -4.203   8.410   2.634  1.00  0.00     0.058 A 
HETATM   43 CL3  UNL     1      -3.445   6.925   3.196  1.00  0.00    -0.082 Cl
HETATM   44  C29 UNL     1      -4.131   8.800   1.314  1.00  0.00     0.057 A 
ENDBRANCH  32  37
ENDBRANCH   1  28
TORSDOF 9
ENDMDL
