MODEL 4
REMARK VINA RESULT: -7.554971687      5.747      7.065
REMARK  9 active torsions:
REMARK  status: ('A' for Active; 'I' for Inactive)
REMARK    1  A    between atoms: C1_2  and  C2_4 
REMARK    2  A    between atoms: C4_6  and  C5_7 
REMARK    3  A    between atoms: C8_10  and  C9_11 
REMARK    4  A    between atoms: C9_11  and  N1_12 
REMARK    5  A    between atoms: N1_12  and  C10_15 
REMARK    6  A    between atoms: C10_15  and  C11_17 
REMARK    7  A    between atoms: C14_20  and  C15_21 
REMARK    8  A    between atoms: C18_24  and  C19_25 
REMARK    9  A    between atoms: N2_34  and  C24_35 
ROOT
HETATM    1  C5  UNL     1      -2.531  12.074   2.082  1.00  0.00    -0.007 A 
HETATM    2  C6  UNL     1      -1.178  12.238   2.076  1.00  0.00     0.014 A 
HETATM    3  C7  UNL     1      -0.578  13.508   2.187  1.00  0.00     0.010 A 
HETATM    4  C8  UNL     1      -1.350  14.638   2.309  1.00  0.00    -0.033 A 
HETATM    5  C22 UNL     1      -2.711  14.476   2.316  1.00  0.00     0.010 A 
HETATM    6  C23 UNL     1      -3.290  13.225   2.205  1.00  0.00     0.014 A 
ENDROOT
BRANCH   4   7
HETATM    7  C9  UNL     1      -0.782  15.999   2.431  1.00  0.00     0.272 C 
BRANCH   7   8
HETATM    8  N1  UNL     1       0.456  16.003   1.657  1.00  0.00    -0.053 N 
ATOM      9  H12 UNL     1       1.230  16.421   2.172  1.00  0.00     0.279 HD
ATOM     10  H11 UNL     1       0.842  15.066   1.545  1.00  0.00     0.279 HD
BRANCH   8  11
HETATM   11  C10 UNL     1       0.232  16.656   0.385  1.00  0.00     0.293 C 
HETATM   12  S1  UNL     1       1.422  17.999   0.109  1.00  0.00    -0.057 SA
BRANCH  11  13
HETATM   13  C11 UNL     1       0.316  15.642  -0.687  1.00  0.00     0.005 A 
HETATM   14  C12 UNL     1       1.559  15.112  -1.021  1.00  0.00     0.013 A 
HETATM   15  C13 UNL     1       1.680  14.160  -2.036  1.00  0.00     0.015 A 
HETATM   16  C14 UNL     1       0.578  13.730  -2.725  1.00  0.00    -0.001 A 
HETATM   17  C20 UNL     1      -0.655  14.239  -2.413  1.00  0.00     0.038 A 
HETATM   18  C21 UNL     1      -0.769  15.194  -1.392  1.00  0.00     0.044 A 
HETATM   19 CL1  UNL     1      -2.377  15.806  -1.018  1.00  0.00    -0.084 Cl
BRANCH  16  20
HETATM   20  C15 UNL     1       0.777  12.728  -3.779  1.00  0.00     0.086 A 
HETATM   21  C16 UNL     1      -0.061  12.502  -4.870  1.00  0.00     0.041 A 
HETATM   22  C17 UNL     1       0.485  11.485  -5.608  1.00  0.00     0.047 A 
HETATM   23  C18 UNL     1       1.651  11.107  -4.951  1.00  0.00     0.152 A 
HETATM   24  O5  UNL     1       1.752  11.873  -3.901  1.00  0.00    -0.303 OA
BRANCH  23  25
HETATM   25  C19 UNL     1       2.562  10.051  -5.386  1.00  0.00     0.234 C 
HETATM   26  O3  UNL     1       2.783   9.901  -6.599  1.00  0.00    -0.642 OA
HETATM   27  O4  UNL     1       3.164   9.238  -4.456  1.00  0.00    -0.642 OA
ENDBRANCH  23  25
ENDBRANCH  16  20
ENDBRANCH  11  13
ENDBRANCH   8  11
ENDBRANCH   7   8
ENDBRANCH   4   7
BRANCH   1  28
HETATM   28  C4  UNL     1      -3.161  10.756   1.965  1.00  0.00     0.069 A 
HETATM   29  C3  UNL     1      -3.187   9.844   3.022  1.00  0.00     0.070 A 
HETATM   30  C2  UNL     1      -3.834   8.707   2.633  1.00  0.00     0.127 A 
HETATM   31  N3  UNL     1      -4.195   8.926   1.361  1.00  0.00    -0.287 N 
HETATM   32  N2  UNL     1      -3.786  10.151   0.981  1.00  0.00    -0.255 N 
ATOM     33  H3  UNL     1      -4.701   8.265   0.771  1.00  0.00     0.188 HD
BRANCH  30  34
HETATM   34  C1  UNL     1      -4.094   7.490   3.418  1.00  0.00     0.228 C 
HETATM   35  O1  UNL     1      -3.408   6.468   3.235  1.00  0.00    -0.643 OA
HETATM   36  O2  UNL     1      -5.100   7.491   4.354  1.00  0.00    -0.643 OA
ENDBRANCH  30  34
BRANCH  32  37
HETATM   37  C24 UNL     1      -4.044  10.626  -0.324  1.00  0.00     0.058 A 
HETATM   38  C25 UNL     1      -3.078  11.330  -1.052  1.00  0.00     0.033 A 
HETATM   39  C26 UNL     1      -3.274  11.780  -2.320  1.00  0.00     0.028 A 
HETATM   40  C27 UNL     1      -4.456  11.559  -2.955  1.00  0.00     0.055 A 
HETATM   41 CL2  UNL     1      -4.664  12.154  -4.578  1.00  0.00    -0.083 Cl
HETATM   42  C28 UNL     1      -5.445  10.869  -2.281  1.00  0.00     0.058 A 
HETATM   43 CL3  UNL     1      -6.958  10.604  -3.137  1.00  0.00    -0.082 Cl
HETATM   44  C29 UNL     1      -5.256  10.408  -0.995  1.00  0.00     0.057 A 
ENDBRANCH  32  37
ENDBRANCH   1  28
TORSDOF 9
ENDMDL
