MODEL 6
REMARK VINA RESULT: -7.523440859      4.652      6.855
REMARK  9 active torsions:
REMARK  status: ('A' for Active; 'I' for Inactive)
REMARK    1  A    between atoms: C1_2  and  C2_4 
REMARK    2  A    between atoms: C4_6  and  C5_7 
REMARK    3  A    between atoms: C8_10  and  C9_11 
REMARK    4  A    between atoms: C9_11  and  N1_12 
REMARK    5  A    between atoms: N1_12  and  C10_15 
REMARK    6  A    between atoms: C10_15  and  C11_17 
REMARK    7  A    between atoms: C14_20  and  C15_21 
REMARK    8  A    between atoms: C18_24  and  C19_25 
REMARK    9  A    between atoms: N2_34  and  C24_35 
ROOT
HETATM    1  C5  UNL     1       0.896  12.357  -3.716  1.00  0.00    -0.007 A 
HETATM    2  C6  UNL     1      -0.202  12.201  -2.923  1.00  0.00     0.014 A 
HETATM    3  C7  UNL     1      -0.100  12.031  -1.528  1.00  0.00     0.010 A 
HETATM    4  C8  UNL     1       1.130  12.017  -0.914  1.00  0.00    -0.033 A 
HETATM    5  C22 UNL     1       2.235  12.174  -1.708  1.00  0.00     0.010 A 
HETATM    6  C23 UNL     1       2.123  12.340  -3.076  1.00  0.00     0.014 A 
ENDROOT
BRANCH   4   7
HETATM    7  C9  UNL     1       1.304  11.843   0.546  1.00  0.00     0.272 C 
BRANCH   7   8
HETATM    8  N1  UNL     1       2.721  12.055   0.823  1.00  0.00    -0.053 N 
ATOM      9  H12 UNL     1       3.314  11.749   0.051  1.00  0.00     0.279 HD
ATOM     10  H11 UNL     1       2.971  13.044   0.816  1.00  0.00     0.279 HD
BRANCH   8  11
HETATM   11  C10 UNL     1       3.075  11.412   2.070  1.00  0.00     0.293 C 
HETATM   12  S1  UNL     1       1.610  10.749   2.913  1.00  0.00    -0.057 SA
BRANCH  11  13
HETATM   13  C11 UNL     1       4.056  10.343   1.789  1.00  0.00     0.005 A 
HETATM   14  C12 UNL     1       3.665   9.251   1.020  1.00  0.00     0.013 A 
HETATM   15  C13 UNL     1       4.560   8.215   0.743  1.00  0.00     0.015 A 
HETATM   16  C14 UNL     1       5.842   8.254   1.222  1.00  0.00    -0.001 A 
HETATM   17  C20 UNL     1       6.247   9.320   1.981  1.00  0.00     0.038 A 
HETATM   18  C21 UNL     1       5.343  10.355   2.256  1.00  0.00     0.044 A 
HETATM   19 CL1  UNL     1       5.918  11.711   3.222  1.00  0.00    -0.084 Cl
BRANCH  16  20
HETATM   20  C15 UNL     1       6.731   7.133   0.893  1.00  0.00     0.086 A 
HETATM   21  C16 UNL     1       7.613   6.497   1.764  1.00  0.00     0.041 A 
HETATM   22  C17 UNL     1       8.249   5.508   1.061  1.00  0.00     0.047 A 
HETATM   23  C18 UNL     1       7.741   5.559  -0.232  1.00  0.00     0.152 A 
HETATM   24  O5  UNL     1       6.867   6.525  -0.251  1.00  0.00    -0.303 OA
BRANCH  23  25
HETATM   25  C19 UNL     1       8.137   4.680  -1.331  1.00  0.00     0.234 C 
HETATM   26  O3  UNL     1       7.485   4.699  -2.388  1.00  0.00    -0.642 OA
HETATM   27  O4  UNL     1       9.220   3.847  -1.188  1.00  0.00    -0.642 OA
ENDBRANCH  23  25
ENDBRANCH  16  20
ENDBRANCH  11  13
ENDBRANCH   8  11
ENDBRANCH   7   8
ENDBRANCH   4   7
BRANCH   1  28
HETATM   28  C4  UNL     1       0.796  12.534  -5.167  1.00  0.00     0.069 A 
HETATM   29  C3  UNL     1      -0.153  13.373  -5.754  1.00  0.00     0.070 A 
HETATM   30  C2  UNL     1      -0.017  13.345  -7.112  1.00  0.00     0.127 A 
HETATM   31  N3  UNL     1       0.999  12.502  -7.345  1.00  0.00    -0.287 N 
HETATM   32  N2  UNL     1       1.471  12.030  -6.174  1.00  0.00    -0.255 N 
ATOM     33  H3  UNL     1       1.359  12.255  -8.266  1.00  0.00     0.188 HD
BRANCH  30  34
HETATM   34  C1  UNL     1      -0.799  14.070  -8.124  1.00  0.00     0.228 C 
HETATM   35  O1  UNL     1      -0.275  14.401  -9.203  1.00  0.00    -0.643 OA
HETATM   36  O2  UNL     1      -2.114  14.380  -7.869  1.00  0.00    -0.643 OA
ENDBRANCH  30  34
BRANCH  32  37
HETATM   37  C24 UNL     1       2.549  11.118  -6.146  1.00  0.00     0.058 A 
HETATM   38  C25 UNL     1       2.359   9.770  -5.822  1.00  0.00     0.033 A 
HETATM   39  C26 UNL     1       3.363   8.853  -5.809  1.00  0.00     0.028 A 
HETATM   40  C27 UNL     1       4.635   9.218  -6.122  1.00  0.00     0.055 A 
HETATM   41 CL2  UNL     1       5.889   8.010  -6.093  1.00  0.00    -0.083 Cl
HETATM   42  C28 UNL     1       4.878  10.538  -6.449  1.00  0.00     0.058 A 
HETATM   43 CL3  UNL     1       6.535  10.970  -6.847  1.00  0.00    -0.082 Cl
HETATM   44  C29 UNL     1       3.866  11.475  -6.465  1.00  0.00     0.057 A 
ENDBRANCH  32  37
ENDBRANCH   1  28
TORSDOF 9
ENDMDL
