MODEL 5
REMARK VINA RESULT: -7.532743602      5.795      7.133
REMARK  9 active torsions:
REMARK  status: ('A' for Active; 'I' for Inactive)
REMARK    1  A    between atoms: C1_2  and  C2_4 
REMARK    2  A    between atoms: C4_6  and  C5_7 
REMARK    3  A    between atoms: C8_10  and  C9_11 
REMARK    4  A    between atoms: C9_11  and  N1_12 
REMARK    5  A    between atoms: N1_12  and  C10_15 
REMARK    6  A    between atoms: C10_15  and  C11_17 
REMARK    7  A    between atoms: C14_20  and  C15_21 
REMARK    8  A    between atoms: C18_24  and  C19_25 
REMARK    9  A    between atoms: N2_34  and  C24_35 
ROOT
HETATM    1  C5  UNL     1      -2.727  12.165   2.096  1.00  0.00    -0.007 A 
HETATM    2  C6  UNL     1      -3.459  13.304   2.254  1.00  0.00     0.014 A 
HETATM    3  C7  UNL     1      -2.855  14.574   2.346  1.00  0.00     0.010 A 
HETATM    4  C8  UNL     1      -1.489  14.705   2.276  1.00  0.00    -0.033 A 
HETATM    5  C22 UNL     1      -0.751  13.562   2.117  1.00  0.00     0.010 A 
HETATM    6  C23 UNL     1      -1.354  12.320   2.028  1.00  0.00     0.014 A 
ENDROOT
BRANCH   4   7
HETATM    7  C9  UNL     1      -0.795  16.010   2.365  1.00  0.00     0.272 C 
BRANCH   7   8
HETATM    8  N1  UNL     1       0.033  16.122   1.168  1.00  0.00    -0.053 N 
ATOM      9  H12 UNL     1       0.768  16.822   1.273  1.00  0.00     0.279 HD
ATOM     10  H11 UNL     1       0.628  15.304   1.034  1.00  0.00     0.279 HD
BRANCH   8  11
HETATM   11  C10 UNL     1      -0.806  16.379   0.018  1.00  0.00     0.293 C 
HETATM   12  S1  UNL     1      -0.578  18.070  -0.604  1.00  0.00    -0.057 SA
BRANCH  11  13
HETATM   13  C11 UNL     1      -0.494  15.382  -1.027  1.00  0.00     0.005 A 
HETATM   14  C12 UNL     1       0.826  15.214  -1.431  1.00  0.00     0.013 A 
HETATM   15  C13 UNL     1       1.158  14.289  -2.423  1.00  0.00     0.015 A 
HETATM   16  C14 UNL     1       0.189  13.528  -3.020  1.00  0.00    -0.001 A 
HETATM   17  C20 UNL     1      -1.117  13.677  -2.638  1.00  0.00     0.038 A 
HETATM   18  C21 UNL     1      -1.443  14.608  -1.641  1.00  0.00     0.044 A 
HETATM   19 CL1  UNL     1      -3.135  14.750  -1.173  1.00  0.00    -0.084 Cl
BRANCH  16  20
HETATM   20  C15 UNL     1       0.607  12.576  -4.056  1.00  0.00     0.086 A 
HETATM   21  C16 UNL     1       0.076  12.467  -5.339  1.00  0.00     0.041 A 
HETATM   22  C17 UNL     1       0.744  11.459  -5.982  1.00  0.00     0.047 A 
HETATM   23  C18 UNL     1       1.676  10.967  -5.074  1.00  0.00     0.152 A 
HETATM   24  O5  UNL     1       1.536  11.665  -3.982  1.00  0.00    -0.303 OA
BRANCH  23  25
HETATM   25  C19 UNL     1       2.615   9.878  -5.333  1.00  0.00     0.234 C 
HETATM   26  O3  UNL     1       3.046   9.209  -4.380  1.00  0.00    -0.642 OA
HETATM   27  O4  UNL     1       3.011   9.604  -6.620  1.00  0.00    -0.642 OA
ENDBRANCH  23  25
ENDBRANCH  16  20
ENDBRANCH  11  13
ENDBRANCH   8  11
ENDBRANCH   7   8
ENDBRANCH   4   7
BRANCH   1  28
HETATM   28  C4  UNL     1      -3.349  10.842   2.000  1.00  0.00     0.069 A 
HETATM   29  C3  UNL     1      -3.279   9.906   3.034  1.00  0.00     0.070 A 
HETATM   30  C2  UNL     1      -3.943   8.769   2.674  1.00  0.00     0.127 A 
HETATM   31  N3  UNL     1      -4.409   9.011   1.440  1.00  0.00    -0.287 N 
HETATM   32  N2  UNL     1      -4.046  10.250   1.057  1.00  0.00    -0.255 N 
ATOM     33  H3  UNL     1      -4.954   8.358   0.878  1.00  0.00     0.188 HD
BRANCH  30  34
HETATM   34  C1  UNL     1      -4.125   7.532   3.449  1.00  0.00     0.228 C 
HETATM   35  O1  UNL     1      -5.017   7.460   4.313  1.00  0.00    -0.643 OA
HETATM   36  O2  UNL     1      -3.303   6.458   3.210  1.00  0.00    -0.643 OA
ENDBRANCH  30  34
BRANCH  32  37
HETATM   37  C24 UNL     1      -4.415  10.750  -0.212  1.00  0.00     0.058 A 
HETATM   38  C25 UNL     1      -3.497  10.823  -1.266  1.00  0.00     0.033 A 
HETATM   39  C26 UNL     1      -3.816  11.272  -2.509  1.00  0.00     0.028 A 
HETATM   40  C27 UNL     1      -5.082  11.680  -2.791  1.00  0.00     0.055 A 
HETATM   41 CL2  UNL     1      -5.446  12.247  -4.397  1.00  0.00    -0.083 Cl
HETATM   42  C28 UNL     1      -6.028  11.629  -1.785  1.00  0.00     0.058 A 
HETATM   43 CL3  UNL     1      -7.653  12.167  -2.190  1.00  0.00    -0.082 Cl
HETATM   44  C29 UNL     1      -5.714  11.176  -0.522  1.00  0.00     0.057 A 
ENDBRANCH  32  37
ENDBRANCH   1  28
TORSDOF 9
ENDMDL
