MODEL 2
REMARK VINA RESULT: -7.757560320      1.142      1.380
REMARK  9 active torsions:
REMARK  status: ('A' for Active; 'I' for Inactive)
REMARK    1  A    between atoms: C1_2  and  C2_4 
REMARK    2  A    between atoms: C4_6  and  C5_7 
REMARK    3  A    between atoms: C8_10  and  C9_11 
REMARK    4  A    between atoms: C9_11  and  N1_12 
REMARK    5  A    between atoms: N1_12  and  C10_15 
REMARK    6  A    between atoms: C10_15  and  C11_17 
REMARK    7  A    between atoms: C14_20  and  C15_21 
REMARK    8  A    between atoms: C18_24  and  C19_25 
REMARK    9  A    between atoms: N2_34  and  C24_35 
ROOT
HETATM    1  C5  UNL     1      -2.457  11.646  -0.443  1.00  0.00    -0.007 A 
HETATM    2  C6  UNL     1      -1.271  11.076  -0.801  1.00  0.00     0.014 A 
HETATM    3  C7  UNL     1      -0.033  11.595  -0.375  1.00  0.00     0.010 A 
HETATM    4  C8  UNL     1       0.019  12.709   0.429  1.00  0.00    -0.033 A 
HETATM    5  C22 UNL     1      -1.171  13.283   0.791  1.00  0.00     0.010 A 
HETATM    6  C23 UNL     1      -2.381  12.765   0.367  1.00  0.00     0.014 A 
ENDROOT
BRANCH   4   7
HETATM    7  C9  UNL     1       1.287  13.302   0.911  1.00  0.00     0.272 C 
BRANCH   7   8
HETATM    8  N1  UNL     1       2.173  12.186   1.230  1.00  0.00    -0.053 N 
ATOM      9  H12 UNL     1       2.056  11.864   2.190  1.00  0.00     0.279 HD
ATOM     10  H11 UNL     1       1.897  11.328   0.753  1.00  0.00     0.279 HD
BRANCH   8  11
HETATM   11  C10 UNL     1       3.542  12.554   0.941  1.00  0.00     0.293 C 
HETATM   12  S1  UNL     1       4.220  13.647   2.222  1.00  0.00    -0.057 SA
BRANCH  11  13
HETATM   13  C11 UNL     1       4.346  11.320   0.815  1.00  0.00     0.005 A 
HETATM   14  C12 UNL     1       4.167  10.298   1.741  1.00  0.00     0.013 A 
HETATM   15  C13 UNL     1       4.917   9.122   1.662  1.00  0.00     0.015 A 
HETATM   16  C14 UNL     1       5.844   8.951   0.669  1.00  0.00    -0.001 A 
HETATM   17  C20 UNL     1       6.035   9.945  -0.254  1.00  0.00     0.038 A 
HETATM   18  C21 UNL     1       5.279  11.123  -0.167  1.00  0.00     0.044 A 
HETATM   19 CL1  UNL     1       5.552  12.363  -1.388  1.00  0.00    -0.084 Cl
BRANCH  16  20
HETATM   20  C15 UNL     1       6.596   7.691   0.644  1.00  0.00     0.086 A 
HETATM   21  C16 UNL     1       7.173   7.054   1.740  1.00  0.00     0.041 A 
HETATM   22  C17 UNL     1       7.779   5.912   1.285  1.00  0.00     0.047 A 
HETATM   23  C18 UNL     1       7.560   5.874  -0.088  1.00  0.00     0.152 A 
HETATM   24  O5  UNL     1       6.868   6.938  -0.384  1.00  0.00    -0.303 OA
BRANCH  23  25
HETATM   25  C19 UNL     1       8.031   4.826  -0.990  1.00  0.00     0.234 C 
HETATM   26  O3  UNL     1       8.916   4.045  -0.605  1.00  0.00    -0.642 OA
HETATM   27  O4  UNL     1       7.494   4.713  -2.251  1.00  0.00    -0.642 OA
ENDBRANCH  23  25
ENDBRANCH  16  20
ENDBRANCH  11  13
ENDBRANCH   8  11
ENDBRANCH   7   8
ENDBRANCH   4   7
BRANCH   1  28
HETATM   28  C4  UNL     1      -3.748  11.111  -0.884  1.00  0.00     0.069 A 
HETATM   29  C3  UNL     1      -4.228  11.291  -2.183  1.00  0.00     0.070 A 
HETATM   30  C2  UNL     1      -5.446  10.690  -2.312  1.00  0.00     0.127 A 
HETATM   31  N3  UNL     1      -5.702  10.154  -1.110  1.00  0.00    -0.287 N 
HETATM   32  N2  UNL     1      -4.679  10.414  -0.274  1.00  0.00    -0.255 N 
ATOM     33  H3  UNL     1      -6.542   9.629  -0.867  1.00  0.00     0.188 HD
BRANCH  30  34
HETATM   34  C1  UNL     1      -6.313  10.628  -3.498  1.00  0.00     0.228 C 
HETATM   35  O1  UNL     1      -7.288   9.855  -3.522  1.00  0.00    -0.643 OA
HETATM   36  O2  UNL     1      -6.038  11.429  -4.580  1.00  0.00    -0.643 OA
ENDBRANCH  30  34
BRANCH  32  37
HETATM   37  C24 UNL     1      -4.704   9.955   1.062  1.00  0.00     0.058 A 
HETATM   38  C25 UNL     1      -5.369  10.665   2.068  1.00  0.00     0.033 A 
HETATM   39  C26 UNL     1      -5.442  10.246   3.360  1.00  0.00     0.028 A 
HETATM   40  C27 UNL     1      -4.853   9.081   3.741  1.00  0.00     0.055 A 
HETATM   41 CL2  UNL     1      -4.972   8.583   5.405  1.00  0.00    -0.083 Cl
HETATM   42  C28 UNL     1      -4.182   8.341   2.786  1.00  0.00     0.058 A 
HETATM   43 CL3  UNL     1      -3.435   6.841   3.320  1.00  0.00    -0.082 Cl
HETATM   44  C29 UNL     1      -4.103   8.758   1.475  1.00  0.00     0.057 A 
ENDBRANCH  32  37
ENDBRANCH   1  28
TORSDOF 9
ENDMDL
