MODEL 1
REMARK VINA RESULT: -8.387855593      0.000      0.000
REMARK  9 active torsions:
REMARK  status: ('A' for Active; 'I' for Inactive)
REMARK    1  A    between atoms: C1_2  and  C2_4 
REMARK    2  A    between atoms: C4_6  and  C5_7 
REMARK    3  A    between atoms: C8_10  and  C9_11 
REMARK    4  A    between atoms: C9_11  and  N1_12 
REMARK    5  A    between atoms: N1_12  and  C10_15 
REMARK    6  A    between atoms: C10_15  and  C11_17 
REMARK    7  A    between atoms: C14_20  and  C15_21 
REMARK    8  A    between atoms: C18_24  and  C19_25 
REMARK    9  A    between atoms: N2_34  and  C24_35 
ROOT
HETATM    1  C5  UNL     1      -2.484  11.636  -0.568  1.00  0.00    -0.007 A 
HETATM    2  C6  UNL     1      -2.348  12.692   0.283  1.00  0.00     0.014 A 
HETATM    3  C7  UNL     1      -1.085  13.166   0.691  1.00  0.00     0.010 A 
HETATM    4  C8  UNL     1       0.066  12.570   0.235  1.00  0.00    -0.033 A 
HETATM    5  C22 UNL     1      -0.068  11.508  -0.620  1.00  0.00     0.010 A 
HETATM    6  C23 UNL     1      -1.313  11.051  -1.014  1.00  0.00     0.014 A 
ENDROOT
BRANCH   4   7
HETATM    7  C9  UNL     1       1.421  13.020   0.625  1.00  0.00     0.272 C 
BRANCH   7   8
HETATM    8  N1  UNL     1       2.303  11.867   0.470  1.00  0.00    -0.053 N 
ATOM      9  H12 UNL     1       1.837  11.087   0.007  1.00  0.00     0.279 HD
ATOM     10  H11 UNL     1       3.034  12.033  -0.222  1.00  0.00     0.279 HD
BRANCH   8  11
HETATM   11  C10 UNL     1       2.846  11.492   1.758  1.00  0.00     0.293 C 
HETATM   12  S1  UNL     1       1.539  10.946   2.894  1.00  0.00    -0.057 SA
BRANCH  11  13
HETATM   13  C11 UNL     1       3.852  10.430   1.554  1.00  0.00     0.005 A 
HETATM   14  C12 UNL     1       3.499   9.289   0.840  1.00  0.00     0.013 A 
HETATM   15  C13 UNL     1       4.419   8.259   0.637  1.00  0.00     0.015 A 
HETATM   16  C14 UNL     1       5.690   8.350   1.138  1.00  0.00    -0.001 A 
HETATM   17  C20 UNL     1       6.059   9.464   1.845  1.00  0.00     0.038 A 
HETATM   18  C21 UNL     1       5.129  10.494   2.044  1.00  0.00     0.044 A 
HETATM   19 CL1  UNL     1       5.658  11.912   2.945  1.00  0.00    -0.084 Cl
BRANCH  16  20
HETATM   20  C15 UNL     1       6.607   7.231   0.888  1.00  0.00     0.086 A 
HETATM   21  C16 UNL     1       7.456   6.637   1.820  1.00  0.00     0.041 A 
HETATM   22  C17 UNL     1       8.136   5.634   1.181  1.00  0.00     0.047 A 
HETATM   23  C18 UNL     1       7.689   5.635  -0.135  1.00  0.00     0.152 A 
HETATM   24  O5  UNL     1       6.804   6.588  -0.227  1.00  0.00    -0.303 OA
BRANCH  23  25
HETATM   25  C19 UNL     1       8.145   4.726  -1.184  1.00  0.00     0.234 C 
HETATM   26  O3  UNL     1       9.075   3.938  -0.943  1.00  0.00    -0.642 OA
HETATM   27  O4  UNL     1       7.547   4.749  -2.421  1.00  0.00    -0.642 OA
ENDBRANCH  23  25
ENDBRANCH  16  20
ENDBRANCH  11  13
ENDBRANCH   8  11
ENDBRANCH   7   8
ENDBRANCH   4   7
BRANCH   1  28
HETATM   28  C4  UNL     1      -3.795  11.139  -0.995  1.00  0.00     0.069 A 
HETATM   29  C3  UNL     1      -4.282  11.330  -2.289  1.00  0.00     0.070 A 
HETATM   30  C2  UNL     1      -5.519  10.765  -2.405  1.00  0.00     0.127 A 
HETATM   31  N3  UNL     1      -5.778  10.239  -1.199  1.00  0.00    -0.287 N 
HETATM   32  N2  UNL     1      -4.740  10.471  -0.374  1.00  0.00    -0.255 N 
ATOM     33  H3  UNL     1      -6.631   9.740  -0.947  1.00  0.00     0.188 HD
BRANCH  30  34
HETATM   34  C1  UNL     1      -6.399  10.726  -3.582  1.00  0.00     0.228 C 
HETATM   35  O1  UNL     1      -6.917   9.653  -3.942  1.00  0.00    -0.643 OA
HETATM   36  O2  UNL     1      -6.645  11.883  -4.282  1.00  0.00    -0.643 OA
ENDBRANCH  30  34
BRANCH  32  37
HETATM   37  C24 UNL     1      -4.765  10.015   0.963  1.00  0.00     0.058 A 
HETATM   38  C25 UNL     1      -5.449  10.717   1.963  1.00  0.00     0.033 A 
HETATM   39  C26 UNL     1      -5.522  10.300   3.255  1.00  0.00     0.028 A 
HETATM   40  C27 UNL     1      -4.916   9.147   3.643  1.00  0.00     0.055 A 
HETATM   41 CL2  UNL     1      -5.035   8.652   5.309  1.00  0.00    -0.083 Cl
HETATM   42  C28 UNL     1      -4.226   8.415   2.695  1.00  0.00     0.058 A 
HETATM   43 CL3  UNL     1      -3.456   6.931   3.238  1.00  0.00    -0.082 Cl
HETATM   44  C29 UNL     1      -4.146   8.830   1.383  1.00  0.00     0.057 A 
ENDBRANCH  32  37
ENDBRANCH   1  28
TORSDOF 9
ENDMDL
