MODEL 1
REMARK VINA RESULT: -12.435451873      0.000      0.000
REMARK  2 active torsions:
REMARK  status: ('A' for Active; 'I' for Inactive)
REMARK    1  A    between atoms: N1_4  and  C4_5 
REMARK    2  A    between atoms: C8_9  and  C9_10 
ROOT
HETATM    1  C4  UNL     1       3.100 -11.131 -24.052  1.00  0.00     0.040 A 
HETATM    2  C5  UNL     1       2.396 -12.158 -23.564  1.00  0.00     0.038 A 
HETATM    3  C6  UNL     1       1.021 -12.237 -23.771  1.00  0.00    -0.038 A 
HETATM    4  C7  UNL     1       0.359 -11.260 -24.483  1.00  0.00     0.049 A 
HETATM    5  C8  UNL     1       1.019 -10.172 -25.029  1.00  0.00    -0.015 A 
HETATM    6  C14 UNL     1       2.418 -10.143 -24.779  1.00  0.00     0.042 A 
HETATM    7  C15 UNL     1      -1.107 -11.271 -24.487  1.00  0.00     0.253 C 
HETATM    8  O1  UNL     1      -1.730 -10.398 -25.096  1.00  0.00    -0.268 OA
HETATM    9  N2  UNL     1      -1.794 -12.295 -23.765  1.00  0.00    -0.357 N 
ATOM     10  H2  UNL     1      -2.800 -12.402 -23.897  1.00  0.00     0.162 HD
HETATM   11  C16 UNL     1      -1.117 -13.169 -22.867  1.00  0.00     0.127 C 
HETATM   12  C17 UNL     1       0.305 -13.409 -23.240  1.00  0.00     0.059 C 
ENDROOT
BRANCH   1  13
HETATM   13  N1  UNL     1       4.510 -11.031 -23.914  1.00  0.00    -0.324 N 
HETATM   14  C3  UNL     1       5.135  -9.918 -23.419  1.00  0.00     0.105 A 
HETATM   15  C2  UNL     1       6.477 -10.058 -23.374  1.00  0.00    -0.030 A 
HETATM   16  C1  UNL     1       7.461  -9.046 -22.915  1.00  0.00     0.050 C 
HETATM   17  C19 UNL     1       6.727 -11.337 -23.872  1.00  0.00     0.040 A 
HETATM   18  C18 UNL     1       5.492 -11.906 -24.197  1.00  0.00     0.031 A 
HETATM   19  C20 UNL     1       8.004 -11.983 -24.011  1.00  0.00     0.162 C 
HETATM   20  C25 UNL     1       5.489 -13.253 -24.759  1.00  0.00     0.067 C 
HETATM   21  C22 UNL     1       6.893 -13.613 -25.317  1.00  0.00    -0.036 C 
HETATM   22  C21 UNL     1       7.958 -13.470 -24.260  1.00  0.00     0.093 C 
HETATM   23  C23 UNL     1       7.161 -12.664 -26.470  1.00  0.00     0.015 C 
HETATM   24  C24 UNL     1       6.894 -15.052 -25.778  1.00  0.00     0.015 C 
HETATM   25  O2  UNL     1       9.092 -11.391 -23.941  1.00  0.00    -0.292 OA
ENDBRANCH   1  13
BRANCH   5  26
HETATM   26  C9  UNL     1       0.426  -9.284 -26.009  1.00  0.00    -0.069 C 
HETATM   27  C10 UNL     1       0.052  -9.767 -27.377  1.00  0.00     0.035 C 
HETATM   28  C11 UNL     1       0.120  -8.483 -28.218  1.00  0.00     0.005 C 
HETATM   29  C12 UNL     1       0.069  -7.312 -27.291  1.00  0.00     0.005 C 
HETATM   30  C13 UNL     1       0.050  -7.863 -25.860  1.00  0.00     0.035 C 
ENDBRANCH   5  26
TORSDOF 2
ENDMDL
