MODEL 8
REMARK VINA RESULT: -9.868868283      1.336      7.990
REMARK  2 active torsions:
REMARK  status: ('A' for Active; 'I' for Inactive)
REMARK    1  A    between atoms: N1_4  and  C4_5 
REMARK    2  A    between atoms: C8_9  and  C9_10 
ROOT
HETATM    1  C4  UNL     1       4.204 -10.942 -24.192  1.00  0.00     0.040 A 
HETATM    2  C5  UNL     1       4.735  -9.764 -23.845  1.00  0.00     0.038 A 
HETATM    3  C6  UNL     1       6.116  -9.587 -23.826  1.00  0.00    -0.038 A 
HETATM    4  C7  UNL     1       6.964 -10.619 -24.164  1.00  0.00     0.049 A 
HETATM    5  C8  UNL     1       6.492 -11.865 -24.544  1.00  0.00    -0.015 A 
HETATM    6  C14 UNL     1       5.076 -11.987 -24.539  1.00  0.00     0.042 A 
HETATM    7  C15 UNL     1       8.400 -10.454 -23.919  1.00  0.00     0.253 C 
HETATM    8  O1  UNL     1       9.182 -11.367 -24.189  1.00  0.00    -0.268 OA
HETATM    9  N2  UNL     1       8.868  -9.229 -23.350  1.00  0.00    -0.357 N 
ATOM     10  H2  UNL     1       9.871  -9.047 -23.329  1.00  0.00     0.162 HD
HETATM   11  C16 UNL     1       7.977  -8.257 -22.812  1.00  0.00     0.127 C 
HETATM   12  C17 UNL     1       6.640  -8.258 -23.470  1.00  0.00     0.059 C 
ENDROOT
BRANCH   1  13
HETATM   13  N1  UNL     1       2.803 -11.159 -24.279  1.00  0.00    -0.324 N 
HETATM   14  C3  UNL     1       2.194 -12.293 -23.814  1.00  0.00     0.105 A 
HETATM   15  C2  UNL     1       0.856 -12.271 -23.998  1.00  0.00    -0.030 A 
HETATM   16  C1  UNL     1      -0.109 -13.340 -23.636  1.00  0.00     0.050 C 
HETATM   17  C19 UNL     1       0.594 -11.050 -24.619  1.00  0.00     0.040 A 
HETATM   18  C18 UNL     1       1.818 -10.393 -24.778  1.00  0.00     0.031 A 
HETATM   19  C20 UNL     1      -0.687 -10.529 -25.009  1.00  0.00     0.162 C 
HETATM   20  C25 UNL     1       1.810  -9.084 -25.425  1.00  0.00     0.067 C 
HETATM   21  C22 UNL     1       0.496  -8.883 -26.228  1.00  0.00    -0.036 C 
HETATM   22  C21 UNL     1      -0.717  -9.060 -25.351  1.00  0.00     0.093 C 
HETATM   23  C23 UNL     1       0.500  -9.915 -27.340  1.00  0.00     0.015 C 
HETATM   24  C24 UNL     1       0.460  -7.477 -26.783  1.00  0.00     0.015 C 
HETATM   25  O2  UNL     1      -1.723 -11.210 -25.076  1.00  0.00    -0.292 OA
ENDBRANCH   1  13
BRANCH   5  26
HETATM   26  C9  UNL     1       7.317 -12.877 -25.171  1.00  0.00    -0.069 C 
HETATM   27  C10 UNL     1       7.717 -14.123 -24.442  1.00  0.00     0.035 C 
HETATM   28  C11 UNL     1       9.023 -14.522 -25.147  1.00  0.00     0.005 C 
HETATM   29  C12 UNL     1       9.078 -13.820 -26.464  1.00  0.00     0.005 C 
HETATM   30  C13 UNL     1       7.842 -12.915 -26.552  1.00  0.00     0.035 C 
ENDBRANCH   5  26
TORSDOF 2
ENDMDL
