MODEL 4
REMARK VINA RESULT: -10.938988388      0.826      1.118
REMARK  2 active torsions:
REMARK  status: ('A' for Active; 'I' for Inactive)
REMARK    1  A    between atoms: N1_4  and  C4_5 
REMARK    2  A    between atoms: C8_9  and  C9_10 
ROOT
HETATM    1  C4  UNL     1       3.699 -11.050 -24.301  1.00  0.00     0.040 A 
HETATM    2  C5  UNL     1       2.906 -12.066 -23.940  1.00  0.00     0.038 A 
HETATM    3  C6  UNL     1       1.533 -12.006 -24.161  1.00  0.00    -0.038 A 
HETATM    4  C7  UNL     1       0.962 -10.902 -24.755  1.00  0.00     0.049 A 
HETATM    5  C8  UNL     1       1.716  -9.815 -25.167  1.00  0.00    -0.015 A 
HETATM    6  C14 UNL     1       3.109  -9.931 -24.910  1.00  0.00     0.042 A 
HETATM    7  C15 UNL     1      -0.500 -10.790 -24.767  1.00  0.00     0.253 C 
HETATM    8  O1  UNL     1      -1.041  -9.805 -25.271  1.00  0.00    -0.268 OA
HETATM    9  N2  UNL     1      -1.278 -11.831 -24.172  1.00  0.00    -0.357 N 
ATOM     10  H2  UNL     1      -2.287 -11.840 -24.320  1.00  0.00     0.162 HD
HETATM   11  C16 UNL     1      -0.687 -12.857 -23.380  1.00  0.00     0.127 C 
HETATM   12  C17 UNL     1       0.716 -13.169 -23.773  1.00  0.00     0.059 C 
ENDROOT
BRANCH   1  13
HETATM   13  N1  UNL     1       5.110 -11.084 -24.146  1.00  0.00    -0.324 N 
HETATM   14  C3  UNL     1       5.803 -10.154 -23.420  1.00  0.00     0.105 A 
HETATM   15  C2  UNL     1       7.132 -10.396 -23.409  1.00  0.00    -0.030 A 
HETATM   16  C1  UNL     1       8.178  -9.581 -22.741  1.00  0.00     0.050 C 
HETATM   17  C19 UNL     1       7.299 -11.549 -24.175  1.00  0.00     0.040 A 
HETATM   18  C18 UNL     1       6.032 -11.944 -24.616  1.00  0.00     0.031 A 
HETATM   19  C20 UNL     1       8.529 -12.239 -24.455  1.00  0.00     0.162 C 
HETATM   20  C25 UNL     1       5.942 -13.132 -25.459  1.00  0.00     0.067 C 
HETATM   21  C22 UNL     1       7.326 -13.460 -26.084  1.00  0.00    -0.036 C 
HETATM   22  C21 UNL     1       8.383 -13.629 -25.023  1.00  0.00     0.093 C 
HETATM   23  C23 UNL     1       7.676 -12.304 -27.001  1.00  0.00     0.015 C 
HETATM   24  C24 UNL     1       7.232 -14.761 -26.849  1.00  0.00     0.015 C 
HETATM   25  O2  UNL     1       9.655 -11.757 -24.258  1.00  0.00    -0.292 OA
ENDBRANCH   1  13
BRANCH   5  26
HETATM   26  C9  UNL     1       1.211  -8.773 -26.038  1.00  0.00    -0.069 C 
HETATM   27  C10 UNL     1       1.036  -7.366 -25.555  1.00  0.00     0.035 C 
HETATM   28  C11 UNL     1      -0.067  -6.827 -26.480  1.00  0.00     0.005 C 
HETATM   29  C12 UNL     1      -0.149  -7.715 -27.678  1.00  0.00     0.005 C 
HETATM   30  C13 UNL     1       0.850  -8.860 -27.468  1.00  0.00     0.035 C 
ENDBRANCH   5  26
TORSDOF 2
ENDMDL
