MODEL 7
REMARK VINA RESULT: -10.060031905      3.138      6.548
REMARK  2 active torsions:
REMARK  status: ('A' for Active; 'I' for Inactive)
REMARK    1  A    between atoms: N1_4  and  C4_5 
REMARK    2  A    between atoms: C8_9  and  C9_10 
ROOT
HETATM    1  C4  UNL     1       5.079 -10.063 -24.064  1.00  0.00     0.040 A 
HETATM    2  C5  UNL     1       3.901 -10.475 -23.579  1.00  0.00     0.038 A 
HETATM    3  C6  UNL     1       3.499 -11.799 -23.727  1.00  0.00    -0.038 A 
HETATM    4  C7  UNL     1       4.303 -12.713 -24.373  1.00  0.00     0.049 A 
HETATM    5  C8  UNL     1       5.539 -12.367 -24.893  1.00  0.00    -0.015 A 
HETATM    6  C14 UNL     1       5.893 -11.001 -24.717  1.00  0.00     0.042 A 
HETATM    7  C15 UNL     1       3.746 -14.030 -24.696  1.00  0.00     0.253 C 
HETATM    8  O1  UNL     1       4.432 -14.862 -25.293  1.00  0.00    -0.268 OA
HETATM    9  N2  UNL     1       2.398 -14.323 -24.320  1.00  0.00    -0.357 N 
ATOM     10  H2  UNL     1       2.062 -15.283 -24.395  1.00  0.00     0.162 HD
HETATM   11  C16 UNL     1       1.511 -13.314 -23.846  1.00  0.00     0.127 C 
HETATM   12  C17 UNL     1       2.208 -12.201 -23.142  1.00  0.00     0.059 C 
ENDROOT
BRANCH   1  13
HETATM   13  N1  UNL     1       5.559  -8.737 -23.894  1.00  0.00    -0.324 N 
HETATM   14  C3  UNL     1       6.869  -8.447 -23.623  1.00  0.00     0.105 A 
HETATM   15  C2  UNL     1       7.090  -7.120 -23.511  1.00  0.00    -0.030 A 
HETATM   16  C1  UNL     1       8.381  -6.456 -23.203  1.00  0.00     0.050 C 
HETATM   17  C19 UNL     1       5.846  -6.525 -23.722  1.00  0.00     0.040 A 
HETATM   18  C18 UNL     1       4.926  -7.552 -23.951  1.00  0.00     0.031 A 
HETATM   19  C20 UNL     1       5.543  -5.119 -23.731  1.00  0.00     0.162 C 
HETATM   20  C25 UNL     1       3.534  -7.181 -24.185  1.00  0.00     0.067 C 
HETATM   21  C22 UNL     1       3.262  -5.740 -23.674  1.00  0.00    -0.036 C 
HETATM   22  C21 UNL     1       4.200  -4.745 -24.307  1.00  0.00     0.093 C 
HETATM   23  C23 UNL     1       3.455  -5.767 -22.169  1.00  0.00     0.015 C 
HETATM   24  C24 UNL     1       1.851  -5.338 -24.040  1.00  0.00     0.015 C 
HETATM   25  O2  UNL     1       6.308  -4.242 -23.300  1.00  0.00    -0.292 OA
ENDBRANCH   1  13
BRANCH   5  26
HETATM   26  C9  UNL     1       6.528 -13.335 -25.321  1.00  0.00    -0.069 C 
HETATM   27  C10 UNL     1       7.401 -14.050 -24.336  1.00  0.00     0.035 C 
HETATM   28  C11 UNL     1       8.640 -14.401 -25.176  1.00  0.00     0.005 C 
HETATM   29  C12 UNL     1       8.269 -14.307 -26.620  1.00  0.00     0.005 C 
HETATM   30  C13 UNL     1       6.816 -13.818 -26.688  1.00  0.00     0.035 C 
ENDBRANCH   5  26
TORSDOF 2
ENDMDL
