MODEL 5
REMARK VINA RESULT: -10.694832216      1.365      7.604
REMARK  2 active torsions:
REMARK  status: ('A' for Active; 'I' for Inactive)
REMARK    1  A    between atoms: N1_4  and  C4_5 
REMARK    2  A    between atoms: C8_9  and  C9_10 
ROOT
HETATM    1  C4  UNL     1       3.812 -12.128 -24.254  1.00  0.00     0.040 A 
HETATM    2  C5  UNL     1       4.433 -13.258 -24.612  1.00  0.00     0.038 A 
HETATM    3  C6  UNL     1       5.822 -13.347 -24.566  1.00  0.00    -0.038 A 
HETATM    4  C7  UNL     1       6.584 -12.277 -24.150  1.00  0.00     0.049 A 
HETATM    5  C8  UNL     1       6.015 -11.078 -23.753  1.00  0.00    -0.015 A 
HETATM    6  C14 UNL     1       4.596 -11.045 -23.828  1.00  0.00     0.042 A 
HETATM    7  C15 UNL     1       8.038 -12.343 -24.326  1.00  0.00     0.253 C 
HETATM    8  O1  UNL     1       8.746 -11.394 -23.986  1.00  0.00    -0.268 OA
HETATM    9  N2  UNL     1       8.612 -13.515 -24.911  1.00  0.00    -0.357 N 
ATOM     10  H2  UNL     1       9.625 -13.634 -24.886  1.00  0.00     0.162 HD
HETATM   11  C16 UNL     1       7.813 -14.520 -25.526  1.00  0.00     0.127 C 
HETATM   12  C17 UNL     1       6.447 -14.628 -24.939  1.00  0.00     0.059 C 
ENDROOT
BRANCH   1  13
HETATM   13  N1  UNL     1       2.397 -12.003 -24.232  1.00  0.00    -0.324 N 
HETATM   14  C3  UNL     1       1.573 -12.941 -23.672  1.00  0.00     0.105 A 
HETATM   15  C2  UNL     1       0.270 -12.602 -23.764  1.00  0.00    -0.030 A 
HETATM   16  C1  UNL     1      -0.891 -13.394 -23.284  1.00  0.00     0.050 C 
HETATM   17  C19 UNL     1       0.258 -11.374 -24.425  1.00  0.00     0.040 A 
HETATM   18  C18 UNL     1       1.586 -11.037 -24.701  1.00  0.00     0.031 A 
HETATM   19  C20 UNL     1      -0.889 -10.571 -24.752  1.00  0.00     0.162 C 
HETATM   20  C25 UNL     1       1.840  -9.786 -25.410  1.00  0.00     0.067 C 
HETATM   21  C22 UNL     1       0.553  -9.299 -26.129  1.00  0.00    -0.036 C 
HETATM   22  C21 UNL     1      -0.594  -9.150 -25.163  1.00  0.00     0.093 C 
HETATM   23  C23 UNL     1       0.224 -10.337 -27.186  1.00  0.00     0.015 C 
HETATM   24  C24 UNL     1       0.810  -7.945 -26.750  1.00  0.00     0.015 C 
HETATM   25  O2  UNL     1      -2.058 -10.983 -24.713  1.00  0.00    -0.292 OA
ENDBRANCH   1  13
BRANCH   5  26
HETATM   26  C9  UNL     1       6.742 -10.040 -23.051  1.00  0.00    -0.069 C 
HETATM   27  C10 UNL     1       6.959  -8.689 -23.659  1.00  0.00     0.035 C 
HETATM   28  C11 UNL     1       8.239  -8.205 -22.958  1.00  0.00     0.005 C 
HETATM   29  C12 UNL     1       8.433  -9.023 -21.723  1.00  0.00     0.005 C 
HETATM   30  C13 UNL     1       7.318 -10.075 -21.691  1.00  0.00     0.035 C 
ENDBRANCH   5  26
TORSDOF 2
ENDMDL
