MODEL 4
REMARK VINA RESULT: -9.537856573      2.352      4.515
REMARK  4 active torsions:
REMARK  status: ('A' for Active; 'I' for Inactive)
REMARK    1  A    between atoms: C6_8  and  C7_9 
REMARK    2  A    between atoms: C8_10  and  C9_11 
REMARK    3  A    between atoms: C9_11  and  O1_12 
REMARK    4  A    between atoms: N2_21  and  C17_22 
ROOT
HETATM    1  C1  UNL     1     -18.517  -3.700  10.791  1.00  0.00     0.090 C 
HETATM    2  C2  UNL     1     -19.032  -2.924  11.956  1.00  0.00     0.102 A 
HETATM    3  N1  UNL     1     -19.469  -3.394  13.149  1.00  0.00    -0.344 N 
ATOM      4  H1  UNL     1     -19.507  -4.376  13.425  1.00  0.00     0.167 HD
HETATM    5  C3  UNL     1     -19.843  -2.351  13.905  1.00  0.00     0.061 A 
HETATM    6  C4  UNL     1     -20.353  -2.175  15.167  1.00  0.00     0.033 A 
HETATM    7  C5  UNL     1     -20.631  -0.908  15.642  1.00  0.00     0.023 A 
HETATM    8  C6  UNL     1     -20.415   0.229  14.890  1.00  0.00     0.020 A 
HETATM    9  C15 UNL     1     -19.901   0.050  13.619  1.00  0.00     0.053 A 
HETATM   10  C16 UNL     1     -19.622  -1.218  13.141  1.00  0.00     0.086 A 
HETATM   11  N2  UNL     1     -19.124  -1.582  11.945  1.00  0.00    -0.134 N 
ENDROOT
BRANCH   8  12
HETATM   12  C7  UNL     1     -20.714   1.547  15.407  1.00  0.00    -0.064 C 
HETATM   13  C8  UNL     1     -20.983   2.642  15.835  1.00  0.00    -0.063 C 
BRANCH  13  14
HETATM   14  C9  UNL     1     -21.337   3.976  16.363  1.00  0.00     0.121 C 
HETATM   15  C10 UNL     1     -22.790   3.923  16.747  1.00  0.00     0.051 C 
HETATM   16  C11 UNL     1     -23.271   5.331  16.968  1.00  0.00     0.004 C 
HETATM   17  C12 UNL     1     -22.290   6.081  17.804  1.00  0.00     0.000 C 
HETATM   18  C13 UNL     1     -21.318   5.199  18.545  1.00  0.00     0.004 C 
HETATM   19  C14 UNL     1     -20.547   4.290  17.615  1.00  0.00     0.051 C 
BRANCH  14  20
HETATM   20  O1  UNL     1     -21.108   4.980  15.454  1.00  0.00    -0.378 OA
ATOM     21  H1  UNL     1     -20.971   5.823  15.871  1.00  0.00     0.211 HD
ENDBRANCH  14  20
ENDBRANCH  13  14
ENDBRANCH   8  12
BRANCH  11  22
HETATM   22  C17 UNL     1     -18.771  -0.694  10.890  1.00  0.00     0.694 A 
HETATM   23  N3  UNL     1     -17.521  -0.580  10.431  1.00  0.00    -0.187 N 
HETATM   24  C18 UNL     1     -17.191   0.269   9.423  1.00  0.00     0.200 A 
ATOM     25  H3  UNL     1     -16.788  -1.151  10.853  1.00  0.00     0.185 HD
HETATM   26  N4  UNL     1     -18.180   1.006   8.888  1.00  0.00    -0.326 N 
HETATM   27  C19 UNL     1     -19.469   0.936   9.309  1.00  0.00     0.207 A 
ATOM     28  H4  UNL     1     -17.951   1.648   8.130  1.00  0.00     0.169 HD
HETATM   29  N5  UNL     1     -20.486   1.731   8.720  1.00  0.00    -0.063 NA
HETATM   30  N6  UNL     1     -19.718   0.070  10.315  1.00  0.00    -0.163 N 
ATOM     31  H6  UNL     1     -20.675  -0.010  10.657  1.00  0.00     0.187 HD
ENDBRANCH  11  22
TORSDOF 4
ENDMDL
