MODEL 2
REMARK VINA RESULT: -10.167456241      2.529      4.812
REMARK  4 active torsions:
REMARK  status: ('A' for Active; 'I' for Inactive)
REMARK    1  A    between atoms: C6_8  and  C7_9 
REMARK    2  A    between atoms: C8_10  and  C9_11 
REMARK    3  A    between atoms: C9_11  and  O1_12 
REMARK    4  A    between atoms: N2_21  and  C17_22 
ROOT
HETATM    1  C1  UNL     1     -18.258  -3.148  10.308  1.00  0.00     0.090 C 
HETATM    2  C2  UNL     1     -18.735  -2.462  11.543  1.00  0.00     0.102 A 
HETATM    3  N1  UNL     1     -18.986  -3.004  12.759  1.00  0.00    -0.344 N 
ATOM      4  H1  UNL     1     -18.881  -3.988  13.006  1.00  0.00     0.167 HD
HETATM    5  C3  UNL     1     -19.397  -2.027  13.583  1.00  0.00     0.061 A 
HETATM    6  C4  UNL     1     -19.789  -1.937  14.895  1.00  0.00     0.033 A 
HETATM    7  C5  UNL     1     -20.160  -0.722  15.435  1.00  0.00     0.023 A 
HETATM    8  C6  UNL     1     -20.158   0.447  14.702  1.00  0.00     0.020 A 
HETATM    9  C15 UNL     1     -19.763   0.355  13.380  1.00  0.00     0.053 A 
HETATM   10  C16 UNL     1     -19.390  -0.861  12.836  1.00  0.00     0.086 A 
HETATM   11  N2  UNL     1     -18.982  -1.140  11.585  1.00  0.00    -0.134 N 
ENDROOT
BRANCH   8  12
HETATM   12  C7  UNL     1     -20.551   1.710  15.288  1.00  0.00    -0.064 C 
HETATM   13  C8  UNL     1     -20.898   2.758  15.773  1.00  0.00    -0.063 C 
BRANCH  13  14
HETATM   14  C9  UNL     1     -21.349   4.034  16.369  1.00  0.00     0.121 C 
HETATM   15  C10 UNL     1     -22.784   3.844  16.774  1.00  0.00     0.051 C 
HETATM   16  C11 UNL     1     -23.373   5.197  17.069  1.00  0.00     0.004 C 
HETATM   17  C12 UNL     1     -22.439   5.985  17.923  1.00  0.00     0.000 C 
HETATM   18  C13 UNL     1     -21.385   5.153  18.606  1.00  0.00     0.004 C 
HETATM   19  C14 UNL     1     -20.562   4.353  17.622  1.00  0.00     0.051 C 
BRANCH  14  20
HETATM   20  O1  UNL     1     -21.219   5.093  15.506  1.00  0.00    -0.378 OA
ATOM     21  H1  UNL     1     -20.790   5.839  15.907  1.00  0.00     0.211 HD
ENDBRANCH  14  20
ENDBRANCH  13  14
ENDBRANCH   8  12
BRANCH  11  22
HETATM   22  C17 UNL     1     -18.847  -0.196  10.527  1.00  0.00     0.694 A 
HETATM   23  N3  UNL     1     -19.896   0.409   9.963  1.00  0.00    -0.187 N 
HETATM   24  C18 UNL     1     -19.760   1.309   8.954  1.00  0.00     0.200 A 
ATOM     25  H3  UNL     1     -20.832   0.187  10.301  1.00  0.00     0.185 HD
HETATM   26  N4  UNL     1     -18.512   1.579   8.532  1.00  0.00    -0.326 N 
HETATM   27  C19 UNL     1     -17.406   0.999   9.063  1.00  0.00     0.207 A 
ATOM     28  H4  UNL     1     -18.392   2.252   7.776  1.00  0.00     0.169 HD
HETATM   29  N5  UNL     1     -16.105   1.309   8.591  1.00  0.00    -0.063 NA
HETATM   30  N6  UNL     1     -17.623   0.115  10.062  1.00  0.00    -0.163 N 
ATOM     31  H6  UNL     1     -16.815  -0.341  10.487  1.00  0.00     0.187 HD
ENDBRANCH  11  22
TORSDOF 4
ENDMDL
