MODEL 1
REMARK VINA RESULT: -10.251358323      0.000      0.000
REMARK  4 active torsions:
REMARK  status: ('A' for Active; 'I' for Inactive)
REMARK    1  A    between atoms: C6_8  and  C7_9 
REMARK    2  A    between atoms: C8_10  and  C9_11 
REMARK    3  A    between atoms: C9_11  and  O1_12 
REMARK    4  A    between atoms: N2_21  and  C17_22 
ROOT
HETATM    1  C1  UNL     1     -18.451  -4.239  13.081  1.00  0.00     0.090 C 
HETATM    2  C2  UNL     1     -18.565  -2.774  13.333  1.00  0.00     0.102 A 
HETATM    3  N1  UNL     1     -17.817  -1.773  12.810  1.00  0.00    -0.344 N 
ATOM      4  H1  UNL     1     -17.047  -1.886  12.151  1.00  0.00     0.167 HD
HETATM    5  C3  UNL     1     -18.260  -0.607  13.307  1.00  0.00     0.061 A 
HETATM    6  C4  UNL     1     -17.930   0.718  13.169  1.00  0.00     0.033 A 
HETATM    7  C5  UNL     1     -18.627   1.690  13.859  1.00  0.00     0.023 A 
HETATM    8  C6  UNL     1     -19.674   1.391  14.706  1.00  0.00     0.020 A 
HETATM    9  C15 UNL     1     -20.005   0.056  14.844  1.00  0.00     0.053 A 
HETATM   10  C16 UNL     1     -19.309  -0.921  14.155  1.00  0.00     0.086 A 
HETATM   11  N2  UNL     1     -19.488  -2.254  14.163  1.00  0.00    -0.134 N 
ENDROOT
BRANCH   8  12
HETATM   12  C7  UNL     1     -20.391   2.426  15.419  1.00  0.00    -0.064 C 
HETATM   13  C8  UNL     1     -20.984   3.303  15.997  1.00  0.00    -0.063 C 
BRANCH  13  14
HETATM   14  C9  UNL     1     -21.711   4.391  16.684  1.00  0.00     0.121 C 
HETATM   15  C10 UNL     1     -23.128   3.924  16.866  1.00  0.00     0.051 C 
HETATM   16  C11 UNL     1     -23.970   5.111  17.249  1.00  0.00     0.004 C 
HETATM   17  C12 UNL     1     -23.286   5.901  18.313  1.00  0.00     0.000 C 
HETATM   18  C13 UNL     1     -22.187   5.150  19.020  1.00  0.00     0.004 C 
HETATM   19  C14 UNL     1     -21.135   4.641  18.062  1.00  0.00     0.051 C 
BRANCH  14  20
HETATM   20  O1  UNL     1     -21.670   5.574  15.987  1.00  0.00    -0.378 OA
ATOM     21  H1  UNL     1     -22.521   5.992  15.930  1.00  0.00     0.211 HD
ENDBRANCH  14  20
ENDBRANCH  13  14
ENDBRANCH   8  12
BRANCH  11  22
HETATM   22  C17 UNL     1     -20.472  -2.953  14.916  1.00  0.00     0.694 A 
HETATM   23  N3  UNL     1     -20.807  -2.607  16.163  1.00  0.00    -0.187 N 
HETATM   24  C18 UNL     1     -21.748  -3.280  16.876  1.00  0.00     0.200 A 
ATOM     25  H3  UNL     1     -20.338  -1.810  16.594  1.00  0.00     0.185 HD
HETATM   26  N4  UNL     1     -22.345  -4.325  16.278  1.00  0.00    -0.326 N 
HETATM   27  C19 UNL     1     -22.051  -4.726  15.015  1.00  0.00     0.207 A 
ATOM     28  H4  UNL     1     -23.055  -4.841  16.799  1.00  0.00     0.169 HD
HETATM   29  N5  UNL     1     -22.704  -5.835  14.418  1.00  0.00    -0.063 NA
HETATM   30  N6  UNL     1     -21.106  -4.008  14.371  1.00  0.00    -0.163 N 
ATOM     31  H6  UNL     1     -20.858  -4.280  13.420  1.00  0.00     0.187 HD
ENDBRANCH  11  22
TORSDOF 4
ENDMDL
