MODEL 5
REMARK VINA RESULT: -9.139011289      4.503      9.708
REMARK  4 active torsions:
REMARK  status: ('A' for Active; 'I' for Inactive)
REMARK    1  A    between atoms: C6_8  and  C7_9 
REMARK    2  A    between atoms: C8_10  and  C9_11 
REMARK    3  A    between atoms: C9_11  and  O1_12 
REMARK    4  A    between atoms: N2_21  and  C17_22 
ROOT
HETATM    1  C1  UNL     1     -19.931   0.521  15.090  1.00  0.00     0.090 C 
HETATM    2  C2  UNL     1     -20.489  -0.828  15.389  1.00  0.00     0.102 A 
HETATM    3  N1  UNL     1     -21.354  -1.179  16.371  1.00  0.00    -0.344 N 
ATOM      4  H1  UNL     1     -21.757  -0.547  17.064  1.00  0.00     0.167 HD
HETATM    5  C3  UNL     1     -21.592  -2.497  16.278  1.00  0.00     0.061 A 
HETATM    6  C4  UNL     1     -22.352  -3.416  16.956  1.00  0.00     0.033 A 
HETATM    7  C5  UNL     1     -22.359  -4.742  16.570  1.00  0.00     0.023 A 
HETATM    8  C6  UNL     1     -21.620  -5.207  15.502  1.00  0.00     0.020 A 
HETATM    9  C15 UNL     1     -20.856  -4.279  14.820  1.00  0.00     0.053 A 
HETATM   10  C16 UNL     1     -20.846  -2.950  15.204  1.00  0.00     0.086 A 
HETATM   11  N2  UNL     1     -20.172  -1.918  14.665  1.00  0.00    -0.134 N 
ENDROOT
BRANCH   8  12
HETATM   12  C7  UNL     1     -21.642  -6.601  15.115  1.00  0.00    -0.064 C 
HETATM   13  C8  UNL     1     -21.641  -7.765  14.798  1.00  0.00    -0.063 C 
BRANCH  13  14
HETATM   14  C9  UNL     1     -21.618  -9.195  14.425  1.00  0.00     0.121 C 
HETATM   15  C10 UNL     1     -21.014  -9.279  13.051  1.00  0.00     0.051 C 
HETATM   16  C11 UNL     1     -21.278 -10.655  12.503  1.00  0.00     0.004 C 
HETATM   17  C12 UNL     1     -20.967 -11.684  13.536  1.00  0.00     0.000 C 
HETATM   18  C13 UNL     1     -20.111 -11.176  14.666  1.00  0.00     0.004 C 
HETATM   19  C14 UNL     1     -20.729  -9.985  15.361  1.00  0.00     0.051 C 
BRANCH  14  20
HETATM   20  O1  UNL     1     -22.867  -9.764  14.446  1.00  0.00    -0.378 OA
ATOM     21  H1  UNL     1     -22.837 -10.712  14.382  1.00  0.00     0.211 HD
ENDBRANCH  14  20
ENDBRANCH  13  14
ENDBRANCH   8  12
BRANCH  11  22
HETATM   22  C17 UNL     1     -19.298  -1.992  13.544  1.00  0.00     0.694 A 
HETATM   23  N3  UNL     1     -18.173  -2.714  13.555  1.00  0.00    -0.187 N 
HETATM   24  C18 UNL     1     -17.343  -2.781  12.481  1.00  0.00     0.200 A 
ATOM     25  H3  UNL     1     -17.929  -3.232  14.398  1.00  0.00     0.185 HD
HETATM   26  N4  UNL     1     -17.694  -2.086  11.385  1.00  0.00    -0.326 N 
HETATM   27  C19 UNL     1     -18.823  -1.335  11.311  1.00  0.00     0.207 A 
ATOM     28  H4  UNL     1     -17.083  -2.125  10.570  1.00  0.00     0.169 HD
HETATM   29  N5  UNL     1     -19.160  -0.615  10.136  1.00  0.00    -0.063 NA
HETATM   30  N6  UNL     1     -19.596  -1.319  12.418  1.00  0.00    -0.163 N 
ATOM     31  H6  UNL     1     -20.453  -0.765  12.400  1.00  0.00     0.187 HD
ENDBRANCH  11  22
TORSDOF 4
ENDMDL
