MODEL 3
REMARK VINA RESULT: -9.773198394      0.522      1.333
REMARK  4 active torsions:
REMARK  status: ('A' for Active; 'I' for Inactive)
REMARK    1  A    between atoms: C6_8  and  C7_9 
REMARK    2  A    between atoms: C8_10  and  C9_11 
REMARK    3  A    between atoms: C9_11  and  O1_12 
REMARK    4  A    between atoms: N2_21  and  C17_22 
ROOT
HETATM    1  C1  UNL     1     -18.528  -4.244  13.080  1.00  0.00     0.090 C 
HETATM    2  C2  UNL     1     -18.626  -2.778  13.331  1.00  0.00     0.102 A 
HETATM    3  N1  UNL     1     -17.871  -1.785  12.802  1.00  0.00    -0.344 N 
ATOM      4  H1  UNL     1     -17.107  -1.907  12.137  1.00  0.00     0.167 HD
HETATM    5  C3  UNL     1     -18.299  -0.614  13.300  1.00  0.00     0.061 A 
HETATM    6  C4  UNL     1     -17.956   0.707  13.158  1.00  0.00     0.033 A 
HETATM    7  C5  UNL     1     -18.638   1.688  13.851  1.00  0.00     0.023 A 
HETATM    8  C6  UNL     1     -19.682   1.400  14.707  1.00  0.00     0.020 A 
HETATM    9  C15 UNL     1     -20.026   0.069  14.848  1.00  0.00     0.053 A 
HETATM   10  C16 UNL     1     -19.345  -0.916  14.156  1.00  0.00     0.086 A 
HETATM   11  N2  UNL     1     -19.537  -2.247  14.167  1.00  0.00    -0.134 N 
ENDROOT
BRANCH   8  12
HETATM   12  C7  UNL     1     -20.383   2.444  15.423  1.00  0.00    -0.064 C 
HETATM   13  C8  UNL     1     -20.967   3.326  16.003  1.00  0.00    -0.063 C 
BRANCH  13  14
HETATM   14  C9  UNL     1     -21.688   4.418  16.690  1.00  0.00     0.121 C 
HETATM   15  C10 UNL     1     -23.104   3.953  16.885  1.00  0.00     0.051 C 
HETATM   16  C11 UNL     1     -23.942   5.142  17.268  1.00  0.00     0.004 C 
HETATM   17  C12 UNL     1     -23.250   5.936  18.324  1.00  0.00     0.000 C 
HETATM   18  C13 UNL     1     -22.146   5.188  19.025  1.00  0.00     0.004 C 
HETATM   19  C14 UNL     1     -21.101   4.674  18.062  1.00  0.00     0.051 C 
BRANCH  14  20
HETATM   20  O1  UNL     1     -21.652   5.597  15.987  1.00  0.00    -0.378 OA
ATOM     21  H1  UNL     1     -21.363   6.329  16.519  1.00  0.00     0.211 HD
ENDBRANCH  14  20
ENDBRANCH  13  14
ENDBRANCH   8  12
BRANCH  11  22
HETATM   22  C17 UNL     1     -20.523  -2.936  14.928  1.00  0.00     0.694 A 
HETATM   23  N3  UNL     1     -20.928  -4.174  14.632  1.00  0.00    -0.187 N 
HETATM   24  C18 UNL     1     -21.870  -4.825  15.364  1.00  0.00     0.200 A 
ATOM     25  H3  UNL     1     -20.516  -4.647  13.828  1.00  0.00     0.185 HD
HETATM   26  N4  UNL     1     -22.393  -4.174  16.417  1.00  0.00    -0.326 N 
HETATM   27  C19 UNL     1     -22.025  -2.916  16.770  1.00  0.00     0.207 A 
ATOM     28  H4  UNL     1     -23.101  -4.648  16.977  1.00  0.00     0.169 HD
HETATM   29  N5  UNL     1     -22.600  -2.260  17.889  1.00  0.00    -0.063 NA
HETATM   30  N6  UNL     1     -21.084  -2.335  15.994  1.00  0.00    -0.163 N 
ATOM     31  H6  UNL     1     -20.781  -1.389  16.229  1.00  0.00     0.187 HD
ENDBRANCH  11  22
TORSDOF 4
ENDMDL
