MODEL 4
REMARK VINA RESULT: -7.907502654      2.789      5.174
REMARK  6 active torsions:
REMARK  status: ('A' for Active; 'I' for Inactive)
REMARK    1  A    between atoms: C2_2  and  N1_3 
REMARK    2  A    between atoms: N1_3  and  C3_5 
REMARK    3  A    between atoms: C7_11  and  C8_12 
REMARK    4  A    between atoms: C9_13  and  C10_14 
REMARK    5  A    between atoms: C10_14  and  O1_17 
REMARK    6  A    between atoms: N3_21  and  C15_22 
ROOT
HETATM    1  C3  UNL     1      13.720 -34.240  13.506  1.00  0.00     0.700 A 
HETATM    2  N2  UNL     1      14.532 -33.297  12.930  1.00  0.00    -0.189 N 
ATOM      3  H2  UNL     1      15.281 -33.477  12.261  1.00  0.00     0.184 HD
HETATM    4  C4  UNL     1      14.165 -32.098  13.403  1.00  0.00     0.077 A 
HETATM    5  C5  UNL     1      14.634 -30.801  13.168  1.00  0.00     0.034 A 
HETATM    6  C6  UNL     1      14.028 -29.758  13.825  1.00  0.00     0.023 A 
HETATM    7  C7  UNL     1      12.988 -29.910  14.700  1.00  0.00     0.020 A 
HETATM    8  C13 UNL     1      12.532 -31.187  14.927  1.00  0.00     0.054 A 
HETATM    9  C14 UNL     1      13.116 -32.255  14.285  1.00  0.00     0.103 A 
HETATM   10  N3  UNL     1      12.870 -33.614  14.319  1.00  0.00     0.025 N 
ENDROOT
BRANCH  10  11
HETATM   11  C15 UNL     1      11.827 -34.091  15.160  1.00  0.00     0.707 A 
HETATM   12  N4  UNL     1      11.286 -35.293  14.800  1.00  0.00    -0.186 N 
HETATM   13  C16 UNL     1      10.287 -35.863  15.477  1.00  0.00     0.200 A 
ATOM     14  H4  UNL     1      11.661 -35.774  13.983  1.00  0.00     0.185 HD
HETATM   15  N5  UNL     1       9.798 -35.236  16.544  1.00  0.00    -0.326 N 
HETATM   16  C17 UNL     1      10.318 -34.035  16.927  1.00  0.00     0.207 A 
ATOM     17  H5  UNL     1       9.033 -35.653  17.075  1.00  0.00     0.169 HD
HETATM   18  N6  UNL     1       9.756 -33.417  18.070  1.00  0.00    -0.063 NA
HETATM   19  N7  UNL     1      11.325 -33.491  16.221  1.00  0.00    -0.162 N 
ATOM     20  H7  UNL     1      11.709 -32.593  16.513  1.00  0.00     0.187 HD
ENDBRANCH  10  11
BRANCH   1  21
HETATM   21  N1  UNL     1      13.804 -35.626  13.265  1.00  0.00    -0.225 N 
ATOM     22  H1  UNL     1      13.903 -36.206  14.098  1.00  0.00     0.177 HD
BRANCH  21  23
HETATM   23  C2  UNL     1      13.770 -36.332  12.038  1.00  0.00     0.133 C 
HETATM   24  C1  UNL     1      12.359 -36.688  11.672  1.00  0.00     0.027 C 
ENDBRANCH  21  23
ENDBRANCH   1  21
BRANCH   7  25
HETATM   25  C8  UNL     1      12.370 -28.789  15.379  1.00  0.00    -0.064 C 
HETATM   26  C9  UNL     1      11.858 -27.846  15.934  1.00  0.00    -0.064 C 
BRANCH  26  27
HETATM   27  C10 UNL     1      11.242 -26.701  16.609  1.00  0.00     0.114 C 
HETATM   28  C11 UNL     1      11.918 -26.440  17.957  1.00  0.00     0.060 C 
HETATM   29  C12 UNL     1       9.790 -26.976  16.901  1.00  0.00     0.060 C 
BRANCH  27  30
HETATM   30  O1  UNL     1      11.380 -25.548  15.856  1.00  0.00    -0.378 OA
ATOM     31  H1  UNL     1      10.531 -25.178  15.643  1.00  0.00     0.211 HD
ENDBRANCH  27  30
ENDBRANCH  26  27
ENDBRANCH   7  25
TORSDOF 6
ENDMDL
