MODEL 2
REMARK VINA RESULT: -7.933231456      4.527      7.382
REMARK  6 active torsions:
REMARK  status: ('A' for Active; 'I' for Inactive)
REMARK    1  A    between atoms: C2_2  and  N1_3 
REMARK    2  A    between atoms: N1_3  and  C3_5 
REMARK    3  A    between atoms: C7_11  and  C8_12 
REMARK    4  A    between atoms: C9_13  and  C10_14 
REMARK    5  A    between atoms: C10_14  and  O1_17 
REMARK    6  A    between atoms: N3_21  and  C15_22 
ROOT
HETATM    1  C3  UNL     1      12.609 -31.404  14.370  1.00  0.00     0.700 A 
HETATM    2  N2  UNL     1      11.940 -31.561  15.557  1.00  0.00    -0.189 N 
ATOM      3  H2  UNL     1      11.722 -30.823  16.227  1.00  0.00     0.184 HD
HETATM    4  C4  UNL     1      11.625 -32.858  15.680  1.00  0.00     0.077 A 
HETATM    5  C5  UNL     1      10.953 -33.582  16.670  1.00  0.00     0.034 A 
HETATM    6  C6  UNL     1      10.788 -34.934  16.493  1.00  0.00     0.023 A 
HETATM    7  C7  UNL     1      11.242 -35.621  15.402  1.00  0.00     0.020 A 
HETATM    8  C13 UNL     1      11.903 -34.904  14.431  1.00  0.00     0.054 A 
HETATM    9  C14 UNL     1      12.086 -33.547  14.577  1.00  0.00     0.103 A 
HETATM   10  N3  UNL     1      12.695 -32.597  13.782  1.00  0.00     0.025 N 
ENDROOT
BRANCH  10  11
HETATM   11  C15 UNL     1      13.280 -33.016  12.555  1.00  0.00     0.707 A 
HETATM   12  N4  UNL     1      12.487 -32.876  11.450  1.00  0.00    -0.186 N 
HETATM   13  C16 UNL     1      12.885 -33.242  10.230  1.00  0.00     0.200 A 
ATOM     14  H4  UNL     1      11.555 -32.477  11.562  1.00  0.00     0.185 HD
HETATM   15  N5  UNL     1      14.100 -33.764  10.083  1.00  0.00    -0.326 N 
HETATM   16  C17 UNL     1      14.913 -33.914  11.167  1.00  0.00     0.207 A 
ATOM     17  H5  UNL     1      14.423 -34.052   9.160  1.00  0.00     0.169 HD
HETATM   18  N6  UNL     1      16.194 -34.475  10.948  1.00  0.00    -0.063 NA
HETATM   19  N7  UNL     1      14.478 -33.534  12.381  1.00  0.00    -0.162 N 
ATOM     20  H7  UNL     1      15.092 -33.649  13.188  1.00  0.00     0.187 HD
ENDBRANCH  10  11
BRANCH   1  21
HETATM   21  N1  UNL     1      13.114 -30.179  13.890  1.00  0.00    -0.225 N 
ATOM     22  H1  UNL     1      12.916 -29.983  12.908  1.00  0.00     0.177 HD
BRANCH  21  23
HETATM   23  C2  UNL     1      13.854 -29.180  14.568  1.00  0.00     0.133 C 
HETATM   24  C1  UNL     1      12.941 -28.297  15.368  1.00  0.00     0.027 C 
ENDBRANCH  21  23
ENDBRANCH   1  21
BRANCH   7  25
HETATM   25  C8  UNL     1      11.053 -37.048  15.243  1.00  0.00    -0.064 C 
HETATM   26  C9  UNL     1      10.902 -38.241  15.123  1.00  0.00    -0.064 C 
BRANCH  26  27
HETATM   27  C10 UNL     1      10.725 -39.688  14.975  1.00  0.00     0.114 C 
HETATM   28  C11 UNL     1      11.548 -40.444  16.021  1.00  0.00     0.060 C 
HETATM   29  C12 UNL     1      11.216 -40.146  13.627  1.00  0.00     0.060 C 
BRANCH  27  30
HETATM   30  O1  UNL     1       9.402 -40.048  15.162  1.00  0.00    -0.378 OA
ATOM     31  H1  UNL     1       9.286 -40.984  15.056  1.00  0.00     0.211 HD
ENDBRANCH  27  30
ENDBRANCH  26  27
ENDBRANCH   7  25
TORSDOF 6
ENDMDL
