MODEL 3
REMARK VINA RESULT: -7.930592558      3.629      7.311
REMARK  6 active torsions:
REMARK  status: ('A' for Active; 'I' for Inactive)
REMARK    1  A    between atoms: C2_2  and  N1_3 
REMARK    2  A    between atoms: N1_3  and  C3_5 
REMARK    3  A    between atoms: C7_11  and  C8_12 
REMARK    4  A    between atoms: C9_13  and  C10_14 
REMARK    5  A    between atoms: C10_14  and  O1_17 
REMARK    6  A    between atoms: N3_21  and  C15_22 
ROOT
HETATM    1  C3  UNL     1      12.795 -30.863  13.898  1.00  0.00     0.700 A 
HETATM    2  N2  UNL     1      12.367 -31.769  14.833  1.00  0.00    -0.189 N 
ATOM      3  H2  UNL     1      12.102 -31.560  15.796  1.00  0.00     0.184 HD
HETATM    4  C4  UNL     1      12.358 -32.979  14.256  1.00  0.00     0.077 A 
HETATM    5  C5  UNL     1      12.016 -34.251  14.725  1.00  0.00     0.034 A 
HETATM    6  C6  UNL     1      12.117 -35.315  13.862  1.00  0.00     0.023 A 
HETATM    7  C7  UNL     1      12.534 -35.206  12.564  1.00  0.00     0.020 A 
HETATM    8  C13 UNL     1      12.868 -33.953  12.108  1.00  0.00     0.054 A 
HETATM    9  C14 UNL     1      12.778 -32.865  12.948  1.00  0.00     0.103 A 
HETATM   10  N3  UNL     1      13.042 -31.521  12.766  1.00  0.00     0.025 N 
ENDROOT
BRANCH  10  11
HETATM   11  C15 UNL     1      13.505 -31.090  11.492  1.00  0.00     0.707 A 
HETATM   12  N4  UNL     1      14.654 -31.686  11.053  1.00  0.00    -0.186 N 
HETATM   13  C16 UNL     1      15.225 -31.374   9.887  1.00  0.00     0.200 A 
ATOM     14  H4  UNL     1      15.092 -32.396  11.638  1.00  0.00     0.185 HD
HETATM   15  N5  UNL     1      14.653 -30.447   9.123  1.00  0.00    -0.326 N 
HETATM   16  C17 UNL     1      13.506 -29.836   9.535  1.00  0.00     0.207 A 
ATOM     17  H5  UNL     1      15.073 -30.192   8.229  1.00  0.00     0.169 HD
HETATM   18  N6  UNL     1      12.945 -28.858   8.679  1.00  0.00    -0.063 NA
HETATM   19  N7  UNL     1      12.959 -30.176  10.716  1.00  0.00    -0.162 N 
ATOM     20  H7  UNL     1      12.101 -29.715  11.018  1.00  0.00     0.187 HD
ENDBRANCH  10  11
BRANCH   1  21
HETATM   21  N1  UNL     1      12.947 -29.481  14.130  1.00  0.00    -0.225 N 
ATOM     22  H1  UNL     1      12.651 -28.877  13.363  1.00  0.00     0.177 HD
BRANCH  21  23
HETATM   23  C2  UNL     1      13.449 -28.808  15.270  1.00  0.00     0.133 C 
HETATM   24  C1  UNL     1      12.378 -27.966  15.900  1.00  0.00     0.027 C 
ENDBRANCH  21  23
ENDBRANCH   1  21
BRANCH   7  25
HETATM   25  C8  UNL     1      12.630 -36.348  11.677  1.00  0.00    -0.064 C 
HETATM   26  C9  UNL     1      12.717 -37.291  10.926  1.00  0.00    -0.064 C 
BRANCH  26  27
HETATM   27  C10 UNL     1      12.817 -38.433  10.015  1.00  0.00     0.114 C 
HETATM   28  C11 UNL     1      13.780 -39.485  10.569  1.00  0.00     0.060 C 
HETATM   29  C12 UNL     1      13.372 -38.000   8.682  1.00  0.00     0.060 C 
BRANCH  27  30
HETATM   30  O1  UNL     1      11.589 -39.050   9.856  1.00  0.00    -0.378 OA
ATOM     31  H1  UNL     1      11.695 -39.946   9.557  1.00  0.00     0.211 HD
ENDBRANCH  27  30
ENDBRANCH  26  27
ENDBRANCH   7  25
TORSDOF 6
ENDMDL
