MODEL 1
REMARK VINA RESULT: -8.248588013      0.000      0.000
REMARK  6 active torsions:
REMARK  status: ('A' for Active; 'I' for Inactive)
REMARK    1  A    between atoms: C2_2  and  N1_3 
REMARK    2  A    between atoms: N1_3  and  C3_5 
REMARK    3  A    between atoms: C7_11  and  C8_12 
REMARK    4  A    between atoms: C9_13  and  C10_14 
REMARK    5  A    between atoms: C10_14  and  O1_17 
REMARK    6  A    between atoms: N3_21  and  C15_22 
ROOT
HETATM    1  C3  UNL     1      13.940 -33.264  11.699  1.00  0.00     0.700 A 
HETATM    2  N2  UNL     1      13.573 -33.795  12.909  1.00  0.00    -0.189 N 
ATOM      3  H2  UNL     1      13.598 -34.782  13.164  1.00  0.00     0.184 HD
HETATM    4  C4  UNL     1      13.175 -32.785  13.694  1.00  0.00     0.077 A 
HETATM    5  C5  UNL     1      12.702 -32.735  15.010  1.00  0.00     0.034 A 
HETATM    6  C6  UNL     1      12.371 -31.512  15.539  1.00  0.00     0.023 A 
HETATM    7  C7  UNL     1      12.475 -30.332  14.855  1.00  0.00     0.020 A 
HETATM    8  C13 UNL     1      12.941 -30.387  13.563  1.00  0.00     0.054 A 
HETATM    9  C14 UNL     1      13.282 -31.597  13.001  1.00  0.00     0.103 A 
HETATM   10  N3  UNL     1      13.766 -31.945  11.755  1.00  0.00     0.025 N 
ENDROOT
BRANCH  10  11
HETATM   11  C15 UNL     1      13.979 -30.912  10.800  1.00  0.00     0.707 A 
HETATM   12  N4  UNL     1      12.850 -30.286  10.351  1.00  0.00    -0.186 N 
HETATM   13  C16 UNL     1      12.884 -29.311   9.440  1.00  0.00     0.200 A 
ATOM     14  H4  UNL     1      11.947 -30.575  10.725  1.00  0.00     0.185 HD
HETATM   15  N5  UNL     1      14.062 -28.933   8.951  1.00  0.00    -0.326 N 
HETATM   16  C17 UNL     1      15.205 -29.539   9.382  1.00  0.00     0.207 A 
ATOM     17  H5  UNL     1      14.111 -28.191   8.253  1.00  0.00     0.169 HD
HETATM   18  N6  UNL     1      16.428 -29.094   8.825  1.00  0.00    -0.063 NA
HETATM   19  N7  UNL     1      15.133 -30.518  10.301  1.00  0.00    -0.162 N 
ATOM     20  H7  UNL     1      15.992 -30.967  10.619  1.00  0.00     0.187 HD
ENDBRANCH  10  11
BRANCH   1  21
HETATM   21  N1  UNL     1      14.408 -34.016  10.602  1.00  0.00    -0.225 N 
ATOM     22  H1  UNL     1      15.405 -33.923  10.406  1.00  0.00     0.177 HD
BRANCH  21  23
HETATM   23  C2  UNL     1      13.700 -34.880   9.732  1.00  0.00     0.133 C 
HETATM   24  C1  UNL     1      13.609 -34.286   8.356  1.00  0.00     0.027 C 
ENDBRANCH  21  23
ENDBRANCH   1  21
BRANCH   7  25
HETATM   25  C8  UNL     1      12.118 -29.056  15.441  1.00  0.00    -0.064 C 
HETATM   26  C9  UNL     1      11.811 -27.999  15.940  1.00  0.00    -0.064 C 
BRANCH  26  27
HETATM   27  C10 UNL     1      11.435 -26.717  16.541  1.00  0.00     0.114 C 
HETATM   28  C11 UNL     1      12.234 -26.465  17.822  1.00  0.00     0.060 C 
HETATM   29  C12 UNL     1       9.980 -26.724  16.935  1.00  0.00     0.060 C 
BRANCH  27  30
HETATM   30  O1  UNL     1      11.704 -25.667  15.682  1.00  0.00    -0.378 OA
ATOM     31  H1  UNL     1      12.583 -25.334  15.817  1.00  0.00     0.211 HD
ENDBRANCH  27  30
ENDBRANCH  26  27
ENDBRANCH   7  25
TORSDOF 6
ENDMDL
