MODEL 1
REMARK VINA RESULT: -6.813468914      0.000      0.000
REMARK  5 active torsions:
REMARK  status: ('A' for Active; 'I' for Inactive)
REMARK    1  A    between atoms: O1_2  and  C2_3 
REMARK    2  A    between atoms: C6_7  and  O2_8 
REMARK    3  A    between atoms: C8_10  and  O3_11 
REMARK    4  A    between atoms: C13_16  and  O4_17 
REMARK    5  A    between atoms: C18_23  and  N1_24 
REMARK       I    between atoms: N1_24  and  C19_26 
ROOT
HETATM    1  C2  UNL     1      20.612  71.897  46.187  1.00  0.00     0.104 A 
HETATM    2  C3  UNL     1      20.858  70.626  45.731  1.00  0.00     0.047 A 
HETATM    3  C4  UNL     1      19.859  69.687  45.684  1.00  0.00    -0.041 A 
HETATM    4  C5  UNL     1      18.586  70.086  46.121  1.00  0.00     0.017 A 
HETATM    5  C6  UNL     1      18.315  71.344  46.571  1.00  0.00     0.116 A 
HETATM    6  C8  UNL     1      19.339  72.261  46.608  1.00  0.00     0.136 A 
HETATM    7  C10 UNL     1      17.412  69.243  46.247  1.00  0.00    -0.014 C 
HETATM    8  C11 UNL     1      16.826  69.728  47.390  1.00  0.00     0.016 C 
HETATM    9  C12 UNL     1      15.501  69.555  47.704  1.00  0.00     0.042 C 
HETATM   10  C13 UNL     1      14.522  68.827  47.014  1.00  0.00     0.118 C 
HETATM   11  C15 UNL     1      14.678  67.947  45.949  1.00  0.00     0.205 C 
HETATM   12  O5  UNL     1      13.663  67.317  45.583  1.00  0.00    -0.285 OA
HETATM   13  C16 UNL     1      15.842  67.664  45.214  1.00  0.00     0.068 C 
HETATM   14  C17 UNL     1      17.081  68.194  45.395  1.00  0.00    -0.020 C 
HETATM   15  C18 UNL     1      18.010  67.394  44.523  1.00  0.00     0.119 C 
HETATM   16  C21 UNL     1      19.342  67.259  45.250  1.00  0.00     0.034 C 
HETATM   17  C22 UNL     1      20.271  68.391  45.120  1.00  0.00     0.042 C 
ENDROOT
BRANCH  15  18
HETATM   18  N1  UNL     1      18.112  67.903  43.202  1.00  0.00    -0.353 N 
HETATM   19  C19 UNL     1      17.857  67.093  42.054  1.00  0.00     0.214 C 
HETATM   20  C20 UNL     1      17.949  67.576  40.675  1.00  0.00     0.117 C 
HETATM   21  O6  UNL     1      17.535  65.892  42.254  1.00  0.00    -0.274 OA
ATOM     22  H1  UNL     1      18.375  68.879  43.068  1.00  0.00     0.163 HD
ENDBRANCH  15  18
BRANCH   5  23
HETATM   23  O2  UNL     1      17.043  71.700  46.966  1.00  0.00    -0.352 OA
HETATM   24  C7  UNL     1      16.376  72.814  46.320  1.00  0.00     0.210 C 
ENDBRANCH   5  23
BRANCH  10  25
HETATM   25  O4  UNL     1      13.240  69.032  47.476  1.00  0.00    -0.352 OA
HETATM   26  C14 UNL     1      12.873  68.836  48.823  1.00  0.00     0.210 C 
ENDBRANCH  10  25
BRANCH   6  27
HETATM   27  O3  UNL     1      19.028  73.524  47.075  1.00  0.00    -0.351 OA
HETATM   28  C9  UNL     1      19.294  73.777  48.449  1.00  0.00     0.210 C 
ENDBRANCH   6  27
BRANCH   1  29
HETATM   29  O1  UNL     1      21.641  72.829  46.228  1.00  0.00    -0.353 OA
HETATM   30  C1  UNL     1      22.478  72.852  47.357  1.00  0.00     0.210 C 
ENDBRANCH   1  29
TORSDOF 5
ENDMDL
