MODEL 3
REMARK VINA RESULT: -5.550124881      2.501      5.688
REMARK  5 active torsions:
REMARK  status: ('A' for Active; 'I' for Inactive)
REMARK    1  A    between atoms: O1_2  and  C2_3 
REMARK    2  A    between atoms: C6_7  and  O2_8 
REMARK    3  A    between atoms: C8_10  and  O3_11 
REMARK    4  A    between atoms: C13_16  and  O4_17 
REMARK    5  A    between atoms: C18_23  and  N1_24 
REMARK       I    between atoms: N1_24  and  C19_26 
ROOT
HETATM    1  C2  UNL     1      18.897  69.118  47.231  1.00  0.00     0.104 A 
HETATM    2  C3  UNL     1      17.704  69.771  47.422  1.00  0.00     0.047 A 
HETATM    3  C4  UNL     1      16.584  69.416  46.714  1.00  0.00    -0.041 A 
HETATM    4  C5  UNL     1      16.717  68.364  45.794  1.00  0.00     0.017 A 
HETATM    5  C6  UNL     1      17.888  67.697  45.591  1.00  0.00     0.116 A 
HETATM    6  C8  UNL     1      18.993  68.078  46.315  1.00  0.00     0.136 A 
HETATM    7  C10 UNL     1      15.700  67.886  44.876  1.00  0.00    -0.014 C 
HETATM    8  C11 UNL     1      16.435  67.592  43.754  1.00  0.00     0.016 C 
HETATM    9  C12 UNL     1      16.017  66.734  42.768  1.00  0.00     0.042 C 
HETATM   10  C13 UNL     1      14.792  66.062  42.648  1.00  0.00     0.118 C 
HETATM   11  C15 UNL     1      13.627  66.233  43.387  1.00  0.00     0.205 C 
HETATM   12  O5  UNL     1      12.619  65.600  43.007  1.00  0.00    -0.285 OA
HETATM   13  C16 UNL     1      13.425  67.034  44.523  1.00  0.00     0.068 C 
HETATM   14  C17 UNL     1      14.337  67.828  45.147  1.00  0.00    -0.020 C 
HETATM   15  C18 UNL     1      13.566  68.645  46.148  1.00  0.00     0.119 C 
HETATM   16  C21 UNL     1      14.193  70.032  46.209  1.00  0.00     0.034 C 
HETATM   17  C22 UNL     1      15.374  70.173  47.073  1.00  0.00     0.042 C 
ENDROOT
BRANCH  15  18
HETATM   18  N1  UNL     1      13.434  68.004  47.407  1.00  0.00    -0.353 N 
HETATM   19  C19 UNL     1      12.630  68.547  48.455  1.00  0.00     0.214 C 
HETATM   20  C20 UNL     1      12.465  67.921  49.768  1.00  0.00     0.117 C 
HETATM   21  O6  UNL     1      12.032  69.630  48.222  1.00  0.00    -0.274 OA
ATOM     22  H1  UNL     1      13.930  67.128  47.570  1.00  0.00     0.163 HD
ENDBRANCH  15  18
BRANCH   5  23
HETATM   23  O2  UNL     1      17.966  66.652  44.695  1.00  0.00    -0.352 OA
HETATM   24  C7  UNL     1      18.064  65.291  45.186  1.00  0.00     0.210 C 
ENDBRANCH   5  23
BRANCH  10  25
HETATM   25  O4  UNL     1      14.771  65.106  41.656  1.00  0.00    -0.352 OA
HETATM   26  C14 UNL     1      14.771  65.430  40.284  1.00  0.00     0.210 C 
ENDBRANCH  10  25
BRANCH   6  27
HETATM   27  O3  UNL     1      20.163  67.382  46.079  1.00  0.00    -0.351 OA
HETATM   28  C9  UNL     1      20.811  67.629  44.837  1.00  0.00     0.210 C 
ENDBRANCH   6  27
BRANCH   1  29
HETATM   29  O1  UNL     1      20.018  69.499  47.959  1.00  0.00    -0.353 OA
HETATM   30  C1  UNL     1      20.511  70.805  47.793  1.00  0.00     0.210 C 
ENDBRANCH   1  29
TORSDOF 5
ENDMDL
