MODEL 4
REMARK VINA RESULT: -5.228110957      4.789      8.666
REMARK  5 active torsions:
REMARK  status: ('A' for Active; 'I' for Inactive)
REMARK    1  A    between atoms: O1_2  and  C2_3 
REMARK    2  A    between atoms: C6_7  and  O2_8 
REMARK    3  A    between atoms: C8_10  and  O3_11 
REMARK    4  A    between atoms: C13_16  and  O4_17 
REMARK    5  A    between atoms: C18_23  and  N1_24 
REMARK       I    between atoms: N1_24  and  C19_26 
ROOT
HETATM    1  C2  UNL     1      13.949  68.830  47.320  1.00  0.00     0.104 A 
HETATM    2  C3  UNL     1      13.679  68.039  48.409  1.00  0.00     0.047 A 
HETATM    3  C4  UNL     1      12.765  68.429  49.356  1.00  0.00    -0.041 A 
HETATM    4  C5  UNL     1      12.129  69.665  49.158  1.00  0.00     0.017 A 
HETATM    5  C6  UNL     1      12.376  70.464  48.082  1.00  0.00     0.116 A 
HETATM    6  C8  UNL     1      13.297  70.045  47.152  1.00  0.00     0.136 A 
HETATM    7  C10 UNL     1      11.207  70.316  50.068  1.00  0.00    -0.014 C 
HETATM    8  C11 UNL     1      11.553  71.639  49.936  1.00  0.00     0.016 C 
HETATM    9  C12 UNL     1      10.723  72.683  50.260  1.00  0.00     0.042 C 
HETATM   10  C13 UNL     1       9.443  72.645  50.832  1.00  0.00     0.118 C 
HETATM   11  C15 UNL     1       8.768  71.565  51.388  1.00  0.00     0.205 C 
HETATM   12  O5  UNL     1       7.681  71.808  51.953  1.00  0.00    -0.285 OA
HETATM   13  C16 UNL     1       9.148  70.212  51.401  1.00  0.00     0.068 C 
HETATM   14  C17 UNL     1      10.274  69.666  50.870  1.00  0.00    -0.020 C 
HETATM   15  C18 UNL     1      10.320  68.243  51.357  1.00  0.00     0.119 C 
HETATM   16  C21 UNL     1      11.777  67.875  51.606  1.00  0.00     0.034 C 
HETATM   17  C22 UNL     1      12.549  67.447  50.431  1.00  0.00     0.042 C 
ENDROOT
BRANCH  15  18
HETATM   18  N1  UNL     1       9.623  67.341  50.512  1.00  0.00    -0.353 N 
HETATM   19  C19 UNL     1       9.166  66.069  50.971  1.00  0.00     0.214 C 
HETATM   20  C20 UNL     1       8.444  65.108  50.134  1.00  0.00     0.117 C 
HETATM   21  O6  UNL     1       9.404  65.767  52.169  1.00  0.00    -0.274 OA
ATOM     22  H1  UNL     1       9.444  67.610  49.544  1.00  0.00     0.163 HD
ENDBRANCH  15  18
BRANCH   5  23
HETATM   23  O2  UNL     1      11.707  71.658  47.914  1.00  0.00    -0.352 OA
HETATM   24  C7  UNL     1      10.394  71.666  47.298  1.00  0.00     0.210 C 
ENDBRANCH   5  23
BRANCH  10  25
HETATM   25  O4  UNL     1       8.790  73.858  50.827  1.00  0.00    -0.352 OA
HETATM   26  C14 UNL     1       9.209  74.954  51.610  1.00  0.00     0.210 C 
ENDBRANCH  10  25
BRANCH   6  27
HETATM   27  O3  UNL     1      13.525  70.884  46.077  1.00  0.00    -0.351 OA
HETATM   28  C9  UNL     1      13.298  70.336  44.784  1.00  0.00     0.210 C 
ENDBRANCH   6  27
BRANCH   1  29
HETATM   29  O1  UNL     1      14.880  68.413  46.376  1.00  0.00    -0.353 OA
HETATM   30  C1  UNL     1      16.191  68.141  46.805  1.00  0.00     0.210 C 
ENDBRANCH   1  29
TORSDOF 5
ENDMDL
