MODEL 7
REMARK VINA RESULT: -9.309171763      3.172      3.956
REMARK  9 active torsions:
REMARK  status: ('A' for Active; 'I' for Inactive)
REMARK    1  A    between atoms: C1_2  and  C2_3 
REMARK    2  A    between atoms: C1_2  and  C20_33 
REMARK    3  A    between atoms: C2_3  and  N1_4 
REMARK    4  A    between atoms: C5_9  and  N3_10 
REMARK    5  A    between atoms: N3_10  and  C6_12 
REMARK    6  A    between atoms: C12_20  and  S1_21 
REMARK    7  A    between atoms: S1_21  and  C13_22 
REMARK    8  A    between atoms: C13_22  and  C14_23 
REMARK    9  A    between atoms: C14_23  and  N5_24 
ROOT
HETATM    1  N1  UNL     1      -2.814   5.198  29.970  1.00  0.00    -0.274 N 
HETATM    2  N2  UNL     1      -2.299   4.171  30.623  1.00  0.00    -0.307 N 
ATOM      3  H2  UNL     1      -1.347   3.824  30.513  1.00  0.00     0.186 HD
HETATM    4  C3  UNL     1      -3.234   3.645  31.463  1.00  0.00     0.126 A 
HETATM    5  C4  UNL     1      -4.389   4.385  31.325  1.00  0.00     0.070 A 
HETATM    6  C5  UNL     1      -5.655   4.306  31.927  1.00  0.00     0.123 A 
HETATM    7  N4  UNL     1      -6.529   5.217  31.525  1.00  0.00    -0.322 N 
ATOM      8  H4  UNL     1      -7.459   5.185  31.944  1.00  0.00     0.169 HD
HETATM    9  C12 UNL     1      -6.303   6.167  30.627  1.00  0.00     0.147 A 
HETATM   10  N6  UNL     1      -5.080   6.220  30.065  1.00  0.00    -0.321 N 
ATOM     11  H6  UNL     1      -4.888   6.944  29.372  1.00  0.00     0.169 HD
HETATM   12  C19 UNL     1      -4.102   5.351  30.386  1.00  0.00     0.139 A 
ENDROOT
BRANCH   1  13
HETATM   13  C2  UNL     1      -2.206   6.067  28.980  1.00  0.00     0.175 C 
BRANCH  13  14
HETATM   14  C1  UNL     1      -1.108   6.928  29.600  1.00  0.00     0.135 C 
HETATM   15 CL1  UNL     1      -1.703   7.557  31.138  1.00  0.00    -0.118 Cl
BRANCH  14  16
HETATM   16  C20 UNL     1      -0.752   7.987  28.642  1.00  0.00    -0.038 A 
HETATM   17  C21 UNL     1       0.503   8.029  28.064  1.00  0.00     0.009 A 
HETATM   18  C22 UNL     1       0.888   8.998  27.161  1.00  0.00     0.001 A 
HETATM   19  C23 UNL     1      -0.059   9.958  26.848  1.00  0.00     0.000 A 
HETATM   20  C24 UNL     1      -1.303   9.950  27.395  1.00  0.00     0.001 A 
HETATM   21  C25 UNL     1      -1.642   8.961  28.291  1.00  0.00     0.009 A 
ENDBRANCH  14  16
ENDBRANCH  13  14
ENDBRANCH   1  13
BRANCH   6  22
HETATM   22  N3  UNL     1      -5.900   3.301  32.893  1.00  0.00    -0.342 N 
ATOM     23  H3  UNL     1      -5.419   2.412  32.756  1.00  0.00     0.167 HD
BRANCH  22  24
HETATM   24  C6  UNL     1      -6.737   3.392  34.025  1.00  0.00     0.033 A 
HETATM   25  C7  UNL     1      -7.969   2.719  33.963  1.00  0.00     0.029 A 
HETATM   26  C8  UNL     1      -8.808   2.797  35.041  1.00  0.00     0.002 A 
HETATM   27  C9  UNL     1      -8.473   3.510  36.162  1.00  0.00     0.000 A 
HETATM   28  C10 UNL     1      -7.248   4.176  36.218  1.00  0.00     0.002 A 
HETATM   29  C11 UNL     1      -6.407   4.100  35.140  1.00  0.00     0.029 A 
ENDBRANCH  22  24
ENDBRANCH   6  22
BRANCH   9  30
HETATM   30  S1  UNL     1      -7.525   7.370  30.127  1.00  0.00    -0.092 SA
BRANCH  30  31
HETATM   31  C13 UNL     1      -6.671   8.681  29.212  1.00  0.00     0.112 C 
BRANCH  31  32
HETATM   32  C14 UNL     1      -7.210   8.696  27.797  1.00  0.00     0.283 C 
BRANCH  32  33
HETATM   33  N5  UNL     1      -6.442   7.805  26.968  1.00  0.00     0.093 N 
HETATM   34  C15 UNL     1      -7.003   7.813  25.636  1.00  0.00     0.298 C 
HETATM   35  C16 UNL     1      -6.634   9.030  24.850  1.00  0.00     0.198 C 
HETATM   36  O1  UNL     1      -5.446   9.613  25.219  1.00  0.00    -0.388 OA
HETATM   37  C17 UNL     1      -4.553   8.642  25.642  1.00  0.00     0.198 C 
HETATM   38  C18 UNL     1      -5.037   8.135  26.981  1.00  0.00     0.298 C 
ENDBRANCH  32  33
ENDBRANCH  31  32
ENDBRANCH  30  31
ENDBRANCH   9  30
TORSDOF 9
ENDMDL
