MODEL 10
REMARK VINA RESULT: -9.242836875      2.863      7.770
REMARK  9 active torsions:
REMARK  status: ('A' for Active; 'I' for Inactive)
REMARK    1  A    between atoms: C1_2  and  C2_3 
REMARK    2  A    between atoms: C1_2  and  C20_33 
REMARK    3  A    between atoms: C2_3  and  N1_4 
REMARK    4  A    between atoms: C5_9  and  N3_10 
REMARK    5  A    between atoms: N3_10  and  C6_12 
REMARK    6  A    between atoms: C12_20  and  S1_21 
REMARK    7  A    between atoms: S1_21  and  C13_22 
REMARK    8  A    between atoms: C13_22  and  C14_23 
REMARK    9  A    between atoms: C14_23  and  N5_24 
ROOT
HETATM    1  N1  UNL     1      -4.754   5.119  31.082  1.00  0.00    -0.274 N 
HETATM    2  N2  UNL     1      -3.578   4.742  31.553  1.00  0.00    -0.307 N 
ATOM      3  H2  UNL     1      -3.436   4.150  32.371  1.00  0.00     0.186 HD
HETATM    4  C3  UNL     1      -2.585   5.265  30.780  1.00  0.00     0.126 A 
HETATM    5  C4  UNL     1      -3.177   6.004  29.777  1.00  0.00     0.070 A 
HETATM    6  C5  UNL     1      -2.660   6.754  28.708  1.00  0.00     0.123 A 
HETATM    7  N4  UNL     1      -3.567   7.337  27.938  1.00  0.00    -0.322 N 
ATOM      8  H4  UNL     1      -3.223   7.891  27.153  1.00  0.00     0.169 HD
HETATM    9  C12 UNL     1      -4.882   7.265  28.096  1.00  0.00     0.147 A 
HETATM   10  N6  UNL     1      -5.351   6.539  29.129  1.00  0.00    -0.321 N 
ATOM     11  H6  UNL     1      -6.359   6.472  29.267  1.00  0.00     0.169 HD
HETATM   12  C19 UNL     1      -4.534   5.897  29.987  1.00  0.00     0.139 A 
ENDROOT
BRANCH   1  13
HETATM   13  C2  UNL     1      -6.088   4.813  31.566  1.00  0.00     0.175 C 
BRANCH  13  14
HETATM   14  C1  UNL     1      -6.132   3.441  32.235  1.00  0.00     0.135 C 
HETATM   15 CL1  UNL     1      -7.146   2.381  31.253  1.00  0.00    -0.118 Cl
BRANCH  14  16
HETATM   16  C20 UNL     1      -6.632   3.610  33.608  1.00  0.00    -0.038 A 
HETATM   17  C21 UNL     1      -7.858   3.095  33.987  1.00  0.00     0.009 A 
HETATM   18  C22 UNL     1      -8.373   3.225  35.260  1.00  0.00     0.001 A 
HETATM   19  C23 UNL     1      -7.592   3.913  36.172  1.00  0.00     0.000 A 
HETATM   20  C24 UNL     1      -6.382   4.433  35.838  1.00  0.00     0.001 A 
HETATM   21  C25 UNL     1      -5.908   4.278  34.554  1.00  0.00     0.009 A 
ENDBRANCH  14  16
ENDBRANCH  13  14
ENDBRANCH   1  13
BRANCH   6  22
HETATM   22  N3  UNL     1      -1.258   6.828  28.528  1.00  0.00    -0.342 N 
ATOM     23  H3  UNL     1      -0.727   5.984  28.747  1.00  0.00     0.167 HD
BRANCH  22  24
HETATM   24  C6  UNL     1      -0.513   7.938  28.079  1.00  0.00     0.033 A 
HETATM   25  C7  UNL     1       0.872   7.756  27.922  1.00  0.00     0.029 A 
HETATM   26  C8  UNL     1       1.623   8.817  27.498  1.00  0.00     0.002 A 
HETATM   27  C9  UNL     1       1.058  10.036  27.228  1.00  0.00     0.000 A 
HETATM   28  C10 UNL     1      -0.317  10.211  27.386  1.00  0.00     0.002 A 
HETATM   29  C11 UNL     1      -1.071   9.150  27.811  1.00  0.00     0.029 A 
ENDBRANCH  22  24
ENDBRANCH   6  22
BRANCH   9  30
HETATM   30  S1  UNL     1      -6.056   8.074  27.020  1.00  0.00    -0.092 SA
BRANCH  30  31
HETATM   31  C13 UNL     1      -7.102   6.793  26.277  1.00  0.00     0.112 C 
BRANCH  31  32
HETATM   32  C14 UNL     1      -8.381   6.704  27.083  1.00  0.00     0.283 C 
BRANCH  32  33
HETATM   33  N5  UNL     1      -8.778   5.328  27.227  1.00  0.00     0.093 N 
HETATM   34  C15 UNL     1      -8.211   4.808  28.450  1.00  0.00     0.298 C 
HETATM   35  C16 UNL     1      -8.944   5.257  29.675  1.00  0.00     0.198 C 
HETATM   36  O1  UNL     1     -10.270   5.554  29.472  1.00  0.00    -0.388 OA
HETATM   37  C17 UNL     1     -10.796   4.731  28.489  1.00  0.00     0.198 C 
HETATM   38  C18 UNL     1     -10.211   5.172  27.168  1.00  0.00     0.298 C 
ENDBRANCH  32  33
ENDBRANCH  31  32
ENDBRANCH  30  31
ENDBRANCH   9  30
TORSDOF 9
ENDMDL
