MODEL 9
REMARK VINA RESULT: -9.272873673      2.567      3.276
REMARK  9 active torsions:
REMARK  status: ('A' for Active; 'I' for Inactive)
REMARK    1  A    between atoms: C1_2  and  C2_3 
REMARK    2  A    between atoms: C1_2  and  C20_33 
REMARK    3  A    between atoms: C2_3  and  N1_4 
REMARK    4  A    between atoms: C5_9  and  N3_10 
REMARK    5  A    between atoms: N3_10  and  C6_12 
REMARK    6  A    between atoms: C12_20  and  S1_21 
REMARK    7  A    between atoms: S1_21  and  C13_22 
REMARK    8  A    between atoms: C13_22  and  C14_23 
REMARK    9  A    between atoms: C14_23  and  N5_24 
ROOT
HETATM    1  N1  UNL     1      -3.098   6.069  29.524  1.00  0.00    -0.274 N 
HETATM    2  N2  UNL     1      -2.378   5.160  30.158  1.00  0.00    -0.307 N 
ATOM      3  H2  UNL     1      -1.391   4.969  29.986  1.00  0.00     0.186 HD
HETATM    4  C3  UNL     1      -3.153   4.519  31.077  1.00  0.00     0.126 A 
HETATM    5  C4  UNL     1      -4.420   5.057  31.009  1.00  0.00     0.070 A 
HETATM    6  C5  UNL     1      -5.611   4.795  31.706  1.00  0.00     0.123 A 
HETATM    7  N4  UNL     1      -6.648   5.539  31.350  1.00  0.00    -0.322 N 
ATOM      8  H4  UNL     1      -7.529   5.372  31.837  1.00  0.00     0.169 HD
HETATM    9  C12 UNL     1      -6.644   6.482  30.417  1.00  0.00     0.147 A 
HETATM   10  N6  UNL     1      -5.488   6.714  29.764  1.00  0.00    -0.321 N 
ATOM     11  H6  UNL     1      -5.466   7.435  29.043  1.00  0.00     0.169 HD
HETATM   12  C19 UNL     1      -4.362   6.025  30.031  1.00  0.00     0.139 A 
ENDROOT
BRANCH   1  13
HETATM   13  C2  UNL     1      -2.711   6.990  28.472  1.00  0.00     0.175 C 
BRANCH  13  14
HETATM   14  C1  UNL     1      -2.155   8.289  29.053  1.00  0.00     0.135 C 
HETATM   15 CL1  UNL     1      -3.432   9.506  29.003  1.00  0.00    -0.118 Cl
BRANCH  14  16
HETATM   16  C20 UNL     1      -0.963   8.670  28.280  1.00  0.00    -0.038 A 
HETATM   17  C21 UNL     1       0.162   7.866  28.265  1.00  0.00     0.009 A 
HETATM   18  C22 UNL     1       1.305   8.177  27.558  1.00  0.00     0.001 A 
HETATM   19  C23 UNL     1       1.282   9.361  26.842  1.00  0.00     0.000 A 
HETATM   20  C24 UNL     1       0.196  10.177  26.831  1.00  0.00     0.001 A 
HETATM   21  C25 UNL     1      -0.923   9.825  27.552  1.00  0.00     0.009 A 
ENDBRANCH  14  16
ENDBRANCH  13  14
ENDBRANCH   1  13
BRANCH   6  22
HETATM   22  N3  UNL     1      -5.621   3.797  32.709  1.00  0.00    -0.342 N 
ATOM     23  H3  UNL     1      -4.914   3.065  32.628  1.00  0.00     0.167 HD
BRANCH  22  24
HETATM   24  C6  UNL     1      -6.499   3.701  33.808  1.00  0.00     0.033 A 
HETATM   25  C7  UNL     1      -6.086   4.300  35.010  1.00  0.00     0.029 A 
HETATM   26  C8  UNL     1      -6.912   4.215  36.097  1.00  0.00     0.002 A 
HETATM   27  C9  UNL     1      -8.117   3.565  36.035  1.00  0.00     0.000 A 
HETATM   28  C10 UNL     1      -8.522   2.971  34.839  1.00  0.00     0.002 A 
HETATM   29  C11 UNL     1      -7.697   3.055  33.750  1.00  0.00     0.029 A 
ENDBRANCH  22  24
ENDBRANCH   6  22
BRANCH   9  30
HETATM   30  S1  UNL     1      -8.078   7.455  29.983  1.00  0.00    -0.092 SA
BRANCH  30  31
HETATM   31  C13 UNL     1      -8.742   6.803  28.429  1.00  0.00     0.112 C 
BRANCH  31  32
HETATM   32  C14 UNL     1      -9.034   7.973  27.512  1.00  0.00     0.283 C 
BRANCH  32  33
HETATM   33  N5  UNL     1      -8.328   7.812  26.268  1.00  0.00     0.093 N 
HETATM   34  C15 UNL     1      -7.767   9.088  25.886  1.00  0.00     0.298 C 
HETATM   35  C16 UNL     1      -6.538   9.445  26.659  1.00  0.00     0.198 C 
HETATM   36  O1  UNL     1      -5.826   8.369  27.132  1.00  0.00    -0.388 OA
HETATM   37  C17 UNL     1      -5.926   7.308  26.247  1.00  0.00     0.198 C 
HETATM   38  C18 UNL     1      -7.334   6.768  26.345  1.00  0.00     0.298 C 
ENDBRANCH  32  33
ENDBRANCH  31  32
ENDBRANCH  30  31
ENDBRANCH   9  30
TORSDOF 9
ENDMDL
