MODEL 11
REMARK VINA RESULT: -9.238073689      2.782      7.730
REMARK  9 active torsions:
REMARK  status: ('A' for Active; 'I' for Inactive)
REMARK    1  A    between atoms: C1_2  and  C2_3 
REMARK    2  A    between atoms: C1_2  and  C20_33 
REMARK    3  A    between atoms: C2_3  and  N1_4 
REMARK    4  A    between atoms: C5_9  and  N3_10 
REMARK    5  A    between atoms: N3_10  and  C6_12 
REMARK    6  A    between atoms: C12_20  and  S1_21 
REMARK    7  A    between atoms: S1_21  and  C13_22 
REMARK    8  A    between atoms: C13_22  and  C14_23 
REMARK    9  A    between atoms: C14_23  and  N5_24 
ROOT
HETATM    1  N1  UNL     1      -4.936   5.097  31.054  1.00  0.00    -0.274 N 
HETATM    2  N2  UNL     1      -3.759   4.769  31.555  1.00  0.00    -0.307 N 
ATOM      3  H2  UNL     1      -3.613   4.176  32.372  1.00  0.00     0.186 HD
HETATM    4  C3  UNL     1      -2.768   5.345  30.817  1.00  0.00     0.126 A 
HETATM    5  C4  UNL     1      -3.363   6.066  29.804  1.00  0.00     0.070 A 
HETATM    6  C5  UNL     1      -2.851   6.850  28.758  1.00  0.00     0.123 A 
HETATM    7  N4  UNL     1      -3.760   7.400  27.967  1.00  0.00    -0.322 N 
ATOM      8  H4  UNL     1      -3.419   7.977  27.197  1.00  0.00     0.169 HD
HETATM    9  C12 UNL     1      -5.075   7.268  28.085  1.00  0.00     0.147 A 
HETATM   10  N6  UNL     1      -5.540   6.510  29.098  1.00  0.00    -0.321 N 
ATOM     11  H6  UNL     1      -6.548   6.396  29.205  1.00  0.00     0.169 HD
HETATM   12  C19 UNL     1      -4.720   5.897  29.973  1.00  0.00     0.139 A 
ENDROOT
BRANCH   1  13
HETATM   13  C2  UNL     1      -6.268   4.727  31.496  1.00  0.00     0.175 C 
BRANCH  13  14
HETATM   14  C1  UNL     1      -6.259   3.375  32.205  1.00  0.00     0.135 C 
HETATM   15 CL1  UNL     1      -7.285   2.266  31.292  1.00  0.00    -0.118 Cl
BRANCH  14  16
HETATM   16  C20 UNL     1      -6.712   3.574  33.590  1.00  0.00    -0.038 A 
HETATM   17  C21 UNL     1      -7.927   3.073  34.019  1.00  0.00     0.009 A 
HETATM   18  C22 UNL     1      -8.399   3.231  35.306  1.00  0.00     0.001 A 
HETATM   19  C23 UNL     1      -7.585   3.933  36.178  1.00  0.00     0.000 A 
HETATM   20  C24 UNL     1      -6.385   4.440  35.794  1.00  0.00     0.001 A 
HETATM   21  C25 UNL     1      -5.955   4.256  34.498  1.00  0.00     0.009 A 
ENDBRANCH  14  16
ENDBRANCH  13  14
ENDBRANCH   1  13
BRANCH   6  22
HETATM   22  N3  UNL     1      -1.448   6.989  28.619  1.00  0.00    -0.342 N 
ATOM     23  H3  UNL     1      -0.883   6.191  28.910  1.00  0.00     0.167 HD
BRANCH  22  24
HETATM   24  C6  UNL     1      -0.747   8.107  28.125  1.00  0.00     0.033 A 
HETATM   25  C7  UNL     1       0.639   7.963  27.942  1.00  0.00     0.029 A 
HETATM   26  C8  UNL     1       1.349   9.034  27.474  1.00  0.00     0.002 A 
HETATM   27  C9  UNL     1       0.742  10.228  27.185  1.00  0.00     0.000 A 
HETATM   28  C10 UNL     1      -0.634  10.366  27.368  1.00  0.00     0.002 A 
HETATM   29  C11 UNL     1      -1.347   9.296  27.838  1.00  0.00     0.029 A 
ENDBRANCH  22  24
ENDBRANCH   6  22
BRANCH   9  30
HETATM   30  S1  UNL     1      -6.253   8.034  26.983  1.00  0.00    -0.092 SA
BRANCH  30  31
HETATM   31  C13 UNL     1      -7.859   8.065  27.821  1.00  0.00     0.112 C 
BRANCH  31  32
HETATM   32  C14 UNL     1      -8.885   7.441  26.898  1.00  0.00     0.283 C 
BRANCH  32  33
HETATM   33  N5  UNL     1      -9.773   6.593  27.649  1.00  0.00     0.093 N 
HETATM   34  C15 UNL     1      -9.905   5.332  26.957  1.00  0.00     0.298 C 
HETATM   35  C16 UNL     1      -8.722   4.434  27.141  1.00  0.00     0.198 C 
HETATM   36  O1  UNL     1      -8.025   4.635  28.307  1.00  0.00    -0.388 OA
HETATM   37  C17 UNL     1      -8.892   5.022  29.317  1.00  0.00     0.198 C 
HETATM   38  C18 UNL     1      -9.336   6.435  29.016  1.00  0.00     0.298 C 
ENDBRANCH  32  33
ENDBRANCH  31  32
ENDBRANCH  30  31
ENDBRANCH   9  30
TORSDOF 9
ENDMDL
