MODEL 12
REMARK VINA RESULT: -9.225725106      2.924      3.912
REMARK  9 active torsions:
REMARK  status: ('A' for Active; 'I' for Inactive)
REMARK    1  A    between atoms: C1_2  and  C2_3 
REMARK    2  A    between atoms: C1_2  and  C20_33 
REMARK    3  A    between atoms: C2_3  and  N1_4 
REMARK    4  A    between atoms: C5_9  and  N3_10 
REMARK    5  A    between atoms: N3_10  and  C6_12 
REMARK    6  A    between atoms: C12_20  and  S1_21 
REMARK    7  A    between atoms: S1_21  and  C13_22 
REMARK    8  A    between atoms: C13_22  and  C14_23 
REMARK    9  A    between atoms: C14_23  and  N5_24 
ROOT
HETATM    1  N1  UNL     1      -2.990   5.821  29.621  1.00  0.00    -0.274 N 
HETATM    2  N2  UNL     1      -2.287   4.947  30.321  1.00  0.00    -0.307 N 
ATOM      3  H2  UNL     1      -1.289   4.773  30.209  1.00  0.00     0.186 HD
HETATM    4  C3  UNL     1      -3.100   4.313  31.213  1.00  0.00     0.126 A 
HETATM    5  C4  UNL     1      -4.372   4.821  31.058  1.00  0.00     0.070 A 
HETATM    6  C5  UNL     1      -5.595   4.552  31.694  1.00  0.00     0.123 A 
HETATM    7  N4  UNL     1      -6.626   5.262  31.260  1.00  0.00    -0.322 N 
ATOM      8  H4  UNL     1      -7.528   5.088  31.702  1.00  0.00     0.169 HD
HETATM    9  C12 UNL     1      -6.589   6.178  30.302  1.00  0.00     0.147 A 
HETATM   10  N6  UNL     1      -5.403   6.418  29.708  1.00  0.00    -0.321 N 
ATOM     11  H6  UNL     1      -5.354   7.119  28.969  1.00  0.00     0.169 HD
HETATM   12  C19 UNL     1      -4.279   5.763  30.057  1.00  0.00     0.139 A 
ENDROOT
BRANCH   1  13
HETATM   13  C2  UNL     1      -2.563   6.722  28.566  1.00  0.00     0.175 C 
BRANCH  13  14
HETATM   14  C1  UNL     1      -2.095   8.058  29.137  1.00  0.00     0.135 C 
HETATM   15 CL1  UNL     1      -3.451   9.187  29.082  1.00  0.00    -0.118 Cl
BRANCH  14  16
HETATM   16  C20 UNL     1      -0.933   8.514  28.360  1.00  0.00    -0.038 A 
HETATM   17  C21 UNL     1      -0.970   9.703  27.656  1.00  0.00     0.009 A 
HETATM   18  C22 UNL     1       0.092  10.175  26.911  1.00  0.00     0.001 A 
HETATM   19  C23 UNL     1       1.230   9.388  26.896  1.00  0.00     0.000 A 
HETATM   20  C24 UNL     1       1.305   8.215  27.575  1.00  0.00     0.001 A 
HETATM   21  C25 UNL     1       0.220   7.784  28.305  1.00  0.00     0.009 A 
ENDBRANCH  14  16
ENDBRANCH  13  14
ENDBRANCH   1  13
BRANCH   6  22
HETATM   22  N3  UNL     1      -5.640   3.581  32.724  1.00  0.00    -0.342 N 
ATOM     23  H3  UNL     1      -5.002   2.791  32.631  1.00  0.00     0.167 HD
BRANCH  22  24
HETATM   24  C6  UNL     1      -6.470   3.586  33.864  1.00  0.00     0.033 A 
HETATM   25  C7  UNL     1      -7.691   2.898  33.768  1.00  0.00     0.029 A 
HETATM   26  C8  UNL     1      -8.523   2.894  34.854  1.00  0.00     0.002 A 
HETATM   27  C9  UNL     1      -8.191   3.540  36.016  1.00  0.00     0.000 A 
HETATM   28  C10 UNL     1      -6.977   4.221  36.106  1.00  0.00     0.002 A 
HETATM   29  C11 UNL     1      -6.143   4.228  35.020  1.00  0.00     0.029 A 
ENDBRANCH  22  24
ENDBRANCH   6  22
BRANCH   9  30
HETATM   30  S1  UNL     1      -8.015   7.106  29.761  1.00  0.00    -0.092 SA
BRANCH  30  31
HETATM   31  C13 UNL     1      -8.153   6.916  27.964  1.00  0.00     0.112 C 
BRANCH  31  32
HETATM   32  C14 UNL     1      -7.495   8.114  27.311  1.00  0.00     0.283 C 
BRANCH  32  33
HETATM   33  N5  UNL     1      -6.828   7.712  26.101  1.00  0.00     0.093 N 
HETATM   34  C15 UNL     1      -7.164   8.649  25.053  1.00  0.00     0.298 C 
HETATM   35  C16 UNL     1      -6.418   9.941  25.159  1.00  0.00     0.198 C 
HETATM   36  O1  UNL     1      -5.200   9.850  25.789  1.00  0.00    -0.388 OA
HETATM   37  C17 UNL     1      -4.621   8.619  25.525  1.00  0.00     0.198 C 
HETATM   38  C18 UNL     1      -5.404   7.577  26.291  1.00  0.00     0.298 C 
ENDBRANCH  32  33
ENDBRANCH  31  32
ENDBRANCH  30  31
ENDBRANCH   9  30
TORSDOF 9
ENDMDL
