MODEL 6
REMARK VINA RESULT: -9.334444081      2.865      3.674
REMARK  9 active torsions:
REMARK  status: ('A' for Active; 'I' for Inactive)
REMARK    1  A    between atoms: C1_2  and  C2_3 
REMARK    2  A    between atoms: C1_2  and  C20_33 
REMARK    3  A    between atoms: C2_3  and  N1_4 
REMARK    4  A    between atoms: C5_9  and  N3_10 
REMARK    5  A    between atoms: N3_10  and  C6_12 
REMARK    6  A    between atoms: C12_20  and  S1_21 
REMARK    7  A    between atoms: S1_21  and  C13_22 
REMARK    8  A    between atoms: C13_22  and  C14_23 
REMARK    9  A    between atoms: C14_23  and  N5_24 
ROOT
HETATM    1  N1  UNL     1      -3.129   5.370  29.882  1.00  0.00    -0.274 N 
HETATM    2  N2  UNL     1      -2.641   4.348  30.563  1.00  0.00    -0.307 N 
ATOM      3  H2  UNL     1      -1.674   4.028  30.529  1.00  0.00     0.186 HD
HETATM    4  C3  UNL     1      -3.627   3.787  31.318  1.00  0.00     0.126 A 
HETATM    5  C4  UNL     1      -4.787   4.498  31.093  1.00  0.00     0.070 A 
HETATM    6  C5  UNL     1      -6.095   4.378  31.589  1.00  0.00     0.123 A 
HETATM    7  N4  UNL     1      -6.958   5.271  31.126  1.00  0.00    -0.322 N 
ATOM      8  H4  UNL     1      -7.917   5.209  31.466  1.00  0.00     0.169 HD
HETATM    9  C12 UNL     1      -6.685   6.238  30.260  1.00  0.00     0.147 A 
HETATM   10  N6  UNL     1      -5.422   6.331  29.800  1.00  0.00    -0.321 N 
ATOM     11  H6  UNL     1      -5.193   7.068  29.134  1.00  0.00     0.169 HD
HETATM   12  C19 UNL     1      -4.450   5.484  30.192  1.00  0.00     0.139 A 
ENDROOT
BRANCH   1  13
HETATM   13  C2  UNL     1      -2.466   6.267  28.954  1.00  0.00     0.175 C 
BRANCH  13  14
HETATM   14  C1  UNL     1      -1.250   6.928  29.598  1.00  0.00     0.135 C 
HETATM   15 CL1  UNL     1      -1.734   7.556  31.176  1.00  0.00    -0.118 Cl
BRANCH  14  16
HETATM   16  C20 UNL     1      -0.752   7.972  28.689  1.00  0.00    -0.038 A 
HETATM   17  C21 UNL     1      -1.566   9.018  28.295  1.00  0.00     0.009 A 
HETATM   18  C22 UNL     1      -1.149  10.022  27.445  1.00  0.00     0.001 A 
HETATM   19  C23 UNL     1       0.154   9.939  26.988  1.00  0.00     0.000 A 
HETATM   20  C24 UNL     1       0.984   8.928  27.353  1.00  0.00     0.001 A 
HETATM   21  C25 UNL     1       0.524   7.948  28.204  1.00  0.00     0.009 A 
ENDBRANCH  14  16
ENDBRANCH  13  14
ENDBRANCH   1  13
BRANCH   6  22
HETATM   22  N3  UNL     1      -6.391   3.354  32.521  1.00  0.00    -0.342 N 
ATOM     23  H3  UNL     1      -6.206   2.398  32.218  1.00  0.00     0.167 HD
BRANCH  22  24
HETATM   24  C6  UNL     1      -6.915   3.511  33.821  1.00  0.00     0.033 A 
HETATM   25  C7  UNL     1      -6.106   4.173  34.759  1.00  0.00     0.029 A 
HETATM   26  C8  UNL     1      -6.581   4.331  36.032  1.00  0.00     0.002 A 
HETATM   27  C9  UNL     1      -7.814   3.861  36.402  1.00  0.00     0.000 A 
HETATM   28  C10 UNL     1      -8.613   3.204  35.466  1.00  0.00     0.002 A 
HETATM   29  C11 UNL     1      -8.139   3.044  34.192  1.00  0.00     0.029 A 
ENDBRANCH  22  24
ENDBRANCH   6  22
BRANCH   9  30
HETATM   30  S1  UNL     1      -7.894   7.415  29.674  1.00  0.00    -0.092 SA
BRANCH  30  31
HETATM   31  C13 UNL     1      -8.168   7.099  27.911  1.00  0.00     0.112 C 
BRANCH  31  32
HETATM   32  C14 UNL     1      -8.173   8.430  27.188  1.00  0.00     0.283 C 
BRANCH  32  33
HETATM   33  N5  UNL     1      -7.222   8.409  26.109  1.00  0.00     0.093 N 
HETATM   34  C15 UNL     1      -6.449   9.628  26.148  1.00  0.00     0.298 C 
HETATM   35  C16 UNL     1      -5.398   9.624  27.213  1.00  0.00     0.198 C 
HETATM   36  O1  UNL     1      -4.940   8.377  27.562  1.00  0.00    -0.388 OA
HETATM   37  C17 UNL     1      -4.952   7.541  26.456  1.00  0.00     0.198 C 
HETATM   38  C18 UNL     1      -6.397   7.225  26.143  1.00  0.00     0.298 C 
ENDBRANCH  32  33
ENDBRANCH  31  32
ENDBRANCH  30  31
ENDBRANCH   9  30
TORSDOF 9
ENDMDL
