MODEL 18
REMARK VINA RESULT: -8.832674255      3.047      7.626
REMARK  9 active torsions:
REMARK  status: ('A' for Active; 'I' for Inactive)
REMARK    1  A    between atoms: C1_2  and  C2_3 
REMARK    2  A    between atoms: C1_2  and  C20_33 
REMARK    3  A    between atoms: C2_3  and  N1_4 
REMARK    4  A    between atoms: C5_9  and  N3_10 
REMARK    5  A    between atoms: N3_10  and  C6_12 
REMARK    6  A    between atoms: C12_20  and  S1_21 
REMARK    7  A    between atoms: S1_21  and  C13_22 
REMARK    8  A    between atoms: C13_22  and  C14_23 
REMARK    9  A    between atoms: C14_23  and  N5_24 
ROOT
HETATM    1  N1  UNL     1      -9.786   8.419  29.258  1.00  0.00    -0.274 N 
HETATM    2  N2  UNL     1     -10.353   7.238  29.431  1.00  0.00    -0.307 N 
ATOM      3  H2  UNL     1     -11.356   7.059  29.399  1.00  0.00     0.186 HD
HETATM    4  C3  UNL     1      -9.394   6.297  29.657  1.00  0.00     0.126 A 
HETATM    5  C4  UNL     1      -8.168   6.927  29.623  1.00  0.00     0.070 A 
HETATM    6  C5  UNL     1      -6.851   6.469  29.787  1.00  0.00     0.123 A 
HETATM    7  N4  UNL     1      -5.913   7.399  29.682  1.00  0.00    -0.322 N 
ATOM      8  H4  UNL     1      -4.945   7.098  29.797  1.00  0.00     0.169 HD
HETATM    9  C12 UNL     1      -6.120   8.687  29.440  1.00  0.00     0.147 A 
HETATM   10  N6  UNL     1      -7.394   9.100  29.287  1.00  0.00    -0.321 N 
ATOM     11  H6  UNL     1      -7.573  10.087  29.101  1.00  0.00     0.169 HD
HETATM   12  C19 UNL     1      -8.439   8.254  29.371  1.00  0.00     0.139 A 
ENDROOT
BRANCH   1  13
HETATM   13  C2  UNL     1     -10.393   9.710  28.990  1.00  0.00     0.175 C 
BRANCH  13  14
HETATM   14  C1  UNL     1     -11.741   9.842  29.695  1.00  0.00     0.135 C 
HETATM   15 CL1  UNL     1     -12.696  11.053  28.836  1.00  0.00    -0.118 Cl
BRANCH  14  16
HETATM   16  C20 UNL     1     -11.497  10.191  31.103  1.00  0.00    -0.038 A 
HETATM   17  C21 UNL     1     -11.899   9.351  32.124  1.00  0.00     0.009 A 
HETATM   18  C22 UNL     1     -11.694   9.630  33.460  1.00  0.00     0.001 A 
HETATM   19  C23 UNL     1     -11.052  10.823  33.747  1.00  0.00     0.000 A 
HETATM   20  C24 UNL     1     -10.642  11.674  32.771  1.00  0.00     0.001 A 
HETATM   21  C25 UNL     1     -10.868  11.352  31.452  1.00  0.00     0.009 A 
ENDBRANCH  14  16
ENDBRANCH  13  14
ENDBRANCH   1  13
BRANCH   6  22
HETATM   22  N3  UNL     1      -6.622   5.095  30.035  1.00  0.00    -0.342 N 
ATOM     23  H3  UNL     1      -6.372   4.523  29.228  1.00  0.00     0.167 HD
BRANCH  22  24
HETATM   24  C6  UNL     1      -6.700   4.428  31.275  1.00  0.00     0.033 A 
HETATM   25  C7  UNL     1      -6.395   5.178  32.424  1.00  0.00     0.029 A 
HETATM   26  C8  UNL     1      -6.453   4.557  33.641  1.00  0.00     0.002 A 
HETATM   27  C9  UNL     1      -6.797   3.235  33.758  1.00  0.00     0.000 A 
HETATM   28  C10 UNL     1      -7.098   2.496  32.615  1.00  0.00     0.002 A 
HETATM   29  C11 UNL     1      -7.041   3.115  31.395  1.00  0.00     0.029 A 
ENDBRANCH  22  24
ENDBRANCH   6  22
BRANCH   9  30
HETATM   30  S1  UNL     1      -4.811   9.895  29.307  1.00  0.00    -0.092 SA
BRANCH  30  31
HETATM   31  C13 UNL     1      -3.279   9.012  28.907  1.00  0.00     0.112 C 
BRANCH  31  32
HETATM   32  C14 UNL     1      -2.701   8.463  30.195  1.00  0.00     0.283 C 
BRANCH  32  33
HETATM   33  N5  UNL     1      -1.775   7.400  29.905  1.00  0.00     0.093 N 
HETATM   34  C15 UNL     1      -1.860   6.412  30.956  1.00  0.00     0.298 C 
HETATM   35  C16 UNL     1      -3.066   5.534  30.841  1.00  0.00     0.198 C 
HETATM   36  O1  UNL     1      -3.545   5.383  29.563  1.00  0.00    -0.388 OA
HETATM   37  C17 UNL     1      -2.497   5.414  28.657  1.00  0.00     0.198 C 
HETATM   38  C18 UNL     1      -1.994   6.838  28.594  1.00  0.00     0.298 C 
ENDBRANCH  32  33
ENDBRANCH  31  32
ENDBRANCH  30  31
ENDBRANCH   9  30
TORSDOF 9
ENDMDL
