MODEL 12
REMARK VINA RESULT: -6.657155335      4.354      5.787
REMARK  4 active torsions:
REMARK  status: ('A' for Active; 'I' for Inactive)
REMARK    1  A    between atoms: O1_2  and  C2_3 
REMARK    2  A    between atoms: C5_8  and  N2_9 
REMARK       I    between atoms: N3_12  and  C8_13 
REMARK    3  A    between atoms: C8_13  and  C9_15 
REMARK    4  A    between atoms: C18_28  and  O4_29 
ROOT
HETATM    1  C2  UNL     1      15.221  12.844  17.767  1.00  0.00     0.103 A 
HETATM    2  C3  UNL     1      14.596  11.964  18.638  1.00  0.00     0.070 A 
HETATM    3  C4  UNL     1      15.123  10.730  18.951  1.00  0.00     0.065 A 
HETATM    4  N1  UNL     1      14.558   9.852  19.784  1.00  0.00    -0.191 N 
ATOM      5  H1  UNL     1      13.673  10.106  20.222  1.00  0.00     0.184 HD
HETATM    6  C5  UNL     1      15.096   8.637  20.081  1.00  0.00     0.682 A 
HETATM    7  N4  UNL     1      16.266   8.314  19.494  1.00  0.00    -0.178 N 
ATOM      8  H4  UNL     1      16.691   7.410  19.699  1.00  0.00     0.185 HD
HETATM    9  C15 UNL     1      16.889   9.151  18.647  1.00  0.00     0.144 A 
HETATM   10  N5  UNL     1      18.123   8.827  18.019  1.00  0.00    -0.081 NA
HETATM   11  C16 UNL     1      16.330  10.378  18.357  1.00  0.00     0.036 A 
HETATM   12  C17 UNL     1      16.948  11.254  17.491  1.00  0.00     0.057 A 
HETATM   13  C18 UNL     1      16.421  12.486  17.179  1.00  0.00     0.102 A 
ENDROOT
BRANCH   6  14
HETATM   14  N2  UNL     1      14.442   7.752  20.976  1.00  0.00    -0.214 N 
HETATM   15  C6  UNL     1      13.330   8.219  21.771  1.00  0.00     0.161 C 
HETATM   16  C7  UNL     1      12.955   7.188  22.812  1.00  0.00     0.146 C 
HETATM   17  N3  UNL     1      12.682   5.941  22.117  1.00  0.00    -0.347 N 
HETATM   18  C8  UNL     1      11.488   5.265  22.394  1.00  0.00     0.248 C 
HETATM   19  C13 UNL     1      13.640   5.441  21.176  1.00  0.00     0.146 C 
HETATM   20  O2  UNL     1      10.693   5.782  23.249  1.00  0.00    -0.270 OA
HETATM   21  C14 UNL     1      14.862   6.381  21.115  1.00  0.00     0.161 C 
BRANCH  18  22
HETATM   22  C9  UNL     1      11.156   4.001  21.721  1.00  0.00     0.213 C 
HETATM   23  C10 UNL     1      10.369   3.054  22.606  1.00  0.00     0.043 C 
HETATM   24  C11 UNL     1       9.753   2.141  21.538  1.00  0.00     0.029 C 
HETATM   25  C12 UNL     1      10.218   2.757  20.246  1.00  0.00     0.168 C 
HETATM   26  O3  UNL     1      10.347   4.117  20.609  1.00  0.00    -0.376 OA
ENDBRANCH  18  22
ENDBRANCH   6  14
BRANCH   1  27
HETATM   27  O1  UNL     1      14.634  14.057  17.503  1.00  0.00    -0.353 OA
HETATM   28  C1  UNL     1      13.435  14.417  18.150  1.00  0.00     0.210 C 
ENDBRANCH   1  27
BRANCH  13  29
HETATM   29  O4  UNL     1      17.078  13.307  16.318  1.00  0.00    -0.353 OA
HETATM   30  C19 UNL     1      17.973  12.959  15.314  1.00  0.00     0.210 C 
ENDBRANCH  13  29
TORSDOF 4
ENDMDL
