MODEL 2
REMARK VINA RESULT: -7.563099954      2.204      3.139
REMARK  4 active torsions:
REMARK  status: ('A' for Active; 'I' for Inactive)
REMARK    1  A    between atoms: O1_2  and  C2_3 
REMARK    2  A    between atoms: C5_8  and  N2_9 
REMARK       I    between atoms: N3_12  and  C8_13 
REMARK    3  A    between atoms: C8_13  and  C9_15 
REMARK    4  A    between atoms: C18_28  and  O4_29 
ROOT
HETATM    1  C2  UNL     1      16.868  11.947  17.468  1.00  0.00     0.103 A 
HETATM    2  C3  UNL     1      17.459  10.695  17.542  1.00  0.00     0.070 A 
HETATM    3  C4  UNL     1      16.973   9.692  18.352  1.00  0.00     0.065 A 
HETATM    4  N1  UNL     1      17.508   8.472  18.455  1.00  0.00    -0.191 N 
ATOM      5  H1  UNL     1      18.336   8.262  17.898  1.00  0.00     0.184 HD
HETATM    6  C5  UNL     1      17.011   7.494  19.260  1.00  0.00     0.682 A 
HETATM    7  N4  UNL     1      15.916   7.785  19.992  1.00  0.00    -0.178 N 
ATOM      8  H4  UNL     1      15.524   7.070  20.604  1.00  0.00     0.185 HD
HETATM    9  C15 UNL     1      15.328   8.992  19.936  1.00  0.00     0.144 A 
HETATM   10  N5  UNL     1      14.173   9.317  20.699  1.00  0.00    -0.081 NA
HETATM   11  C16 UNL     1      15.844   9.972  19.114  1.00  0.00     0.036 A 
HETATM   12  C17 UNL     1      15.259  11.218  19.038  1.00  0.00     0.057 A 
HETATM   13  C18 UNL     1      15.745  12.218  18.230  1.00  0.00     0.102 A 
ENDROOT
BRANCH   6  14
HETATM   14  N2  UNL     1      17.629   6.219  19.322  1.00  0.00    -0.214 N 
HETATM   15  C6  UNL     1      18.743   5.913  18.453  1.00  0.00     0.161 C 
HETATM   16  C7  UNL     1      19.076   4.439  18.521  1.00  0.00     0.146 C 
HETATM   17  N3  UNL     1      19.325   4.109  19.914  1.00  0.00    -0.347 N 
HETATM   18  C8  UNL     1      20.497   3.417  20.241  1.00  0.00     0.248 C 
HETATM   19  C13 UNL     1      18.367   4.496  20.906  1.00  0.00     0.146 C 
HETATM   20  O2  UNL     1      21.294   3.109  19.293  1.00  0.00    -0.270 OA
HETATM   21  C14 UNL     1      17.171   5.206  20.238  1.00  0.00     0.161 C 
BRANCH  18  22
HETATM   22  C9  UNL     1      20.804   3.056  21.633  1.00  0.00     0.213 C 
HETATM   23  C10 UNL     1      20.519   1.598  21.938  1.00  0.00     0.043 C 
HETATM   24  C11 UNL     1      21.382   1.415  23.193  1.00  0.00     0.029 C 
HETATM   25  C12 UNL     1      22.063   2.749  23.342  1.00  0.00     0.168 C 
HETATM   26  O3  UNL     1      22.127   3.189  22.001  1.00  0.00    -0.376 OA
ENDBRANCH  18  22
ENDBRANCH   6  14
BRANCH   1  27
HETATM   27  O1  UNL     1      17.410  12.897  16.638  1.00  0.00    -0.353 OA
HETATM   28  C1  UNL     1      17.885  12.532  15.362  1.00  0.00     0.210 C 
ENDBRANCH   1  27
BRANCH  13  29
HETATM   29  O4  UNL     1      15.124  13.427  18.197  1.00  0.00    -0.353 OA
HETATM   30  C19 UNL     1      13.887  13.742  17.648  1.00  0.00     0.210 C 
ENDBRANCH  13  29
TORSDOF 4
ENDMDL
