MODEL 1
REMARK VINA RESULT: -8.414223377      0.000      0.000
REMARK  4 active torsions:
REMARK  status: ('A' for Active; 'I' for Inactive)
REMARK    1  A    between atoms: O1_2  and  C2_3 
REMARK    2  A    between atoms: C5_8  and  N2_9 
REMARK       I    between atoms: N3_12  and  C8_13 
REMARK    3  A    between atoms: C8_13  and  C9_15 
REMARK    4  A    between atoms: C18_28  and  O4_29 
ROOT
HETATM    1  C2  UNL     1      16.721  12.655  16.862  1.00  0.00     0.103 A 
HETATM    2  C3  UNL     1      17.402  11.461  17.049  1.00  0.00     0.070 A 
HETATM    3  C4  UNL     1      16.948  10.472  17.894  1.00  0.00     0.065 A 
HETATM    4  N1  UNL     1      17.569   9.308  18.104  1.00  0.00    -0.191 N 
ATOM      5  H1  UNL     1      18.442   9.133  17.607  1.00  0.00     0.184 HD
HETATM    6  C5  UNL     1      17.103   8.343  18.943  1.00  0.00     0.682 A 
HETATM    7  N4  UNL     1      15.948   8.588  19.594  1.00  0.00    -0.178 N 
ATOM      8  H4  UNL     1      15.576   7.882  20.230  1.00  0.00     0.185 HD
HETATM    9  C15 UNL     1      15.272   9.738  19.430  1.00  0.00     0.144 A 
HETATM   10  N5  UNL     1      14.053  10.014  20.107  1.00  0.00    -0.081 NA
HETATM   11  C16 UNL     1      15.758  10.706  18.575  1.00  0.00     0.036 A 
HETATM   12  C17 UNL     1      15.084  11.893  18.388  1.00  0.00     0.057 A 
HETATM   13  C18 UNL     1      15.538  12.879  17.544  1.00  0.00     0.102 A 
ENDROOT
BRANCH   6  14
HETATM   14  N2  UNL     1      17.813   7.128  19.120  1.00  0.00    -0.214 N 
HETATM   15  C6  UNL     1      17.387   6.183  20.128  1.00  0.00     0.161 C 
HETATM   16  C7  UNL     1      18.421   5.092  20.297  1.00  0.00     0.146 C 
HETATM   17  N3  UNL     1      18.640   4.486  18.995  1.00  0.00    -0.347 N 
HETATM   18  C8  UNL     1      18.573   3.092  18.883  1.00  0.00     0.248 C 
HETATM   19  C13 UNL     1      18.918   5.328  17.870  1.00  0.00     0.146 C 
HETATM   20  O2  UNL     1      18.323   2.419  19.938  1.00  0.00    -0.270 OA
HETATM   21  C14 UNL     1      18.961   6.806  18.313  1.00  0.00     0.161 C 
BRANCH  18  22
HETATM   22  C9  UNL     1      18.783   2.422  17.591  1.00  0.00     0.213 C 
HETATM   23  C10 UNL     1      19.214   0.976  17.743  1.00  0.00     0.043 C 
HETATM   24  C11 UNL     1      18.849   0.441  16.353  1.00  0.00     0.029 C 
HETATM   25  C12 UNL     1      18.210   1.628  15.683  1.00  0.00     0.168 C 
HETATM   26  O3  UNL     1      17.667   2.321  16.788  1.00  0.00    -0.376 OA
ENDBRANCH  18  22
ENDBRANCH   6  14
BRANCH   1  27
HETATM   27  O1  UNL     1      17.235  13.594  16.003  1.00  0.00    -0.353 OA
HETATM   28  C1  UNL     1      18.198  13.220  15.043  1.00  0.00     0.210 C 
ENDBRANCH   1  27
BRANCH  13  29
HETATM   29  O4  UNL     1      14.828  14.030  17.400  1.00  0.00    -0.353 OA
HETATM   30  C19 UNL     1      13.578  14.338  17.923  1.00  0.00     0.210 C 
ENDBRANCH  13  29
TORSDOF 4
ENDMDL
