MODEL 13
REMARK VINA RESULT: -6.614641982      3.874      6.215
REMARK  4 active torsions:
REMARK  status: ('A' for Active; 'I' for Inactive)
REMARK    1  A    between atoms: O1_2  and  C2_3 
REMARK    2  A    between atoms: C5_8  and  N2_9 
REMARK       I    between atoms: N3_12  and  C8_13 
REMARK    3  A    between atoms: C8_13  and  C9_15 
REMARK    4  A    between atoms: C18_28  and  O4_29 
ROOT
HETATM    1  C2  UNL     1      15.591  12.836  17.546  1.00  0.00     0.103 A 
HETATM    2  C3  UNL     1      15.054  11.881  18.396  1.00  0.00     0.070 A 
HETATM    3  C4  UNL     1      15.651  10.659  18.611  1.00  0.00     0.065 A 
HETATM    4  N1  UNL     1      15.171   9.711  19.421  1.00  0.00    -0.191 N 
ATOM      5  H1  UNL     1      14.300   9.899  19.917  1.00  0.00     0.184 HD
HETATM    6  C5  UNL     1      15.778   8.509  19.621  1.00  0.00     0.682 A 
HETATM    7  N4  UNL     1      16.928   8.274  18.958  1.00  0.00    -0.178 N 
ATOM      8  H4  UNL     1      17.403   7.381  19.090  1.00  0.00     0.185 HD
HETATM    9  C15 UNL     1      17.467   9.184  18.129  1.00  0.00     0.144 A 
HETATM   10  N5  UNL     1      18.679   8.954  17.422  1.00  0.00    -0.081 NA
HETATM   11  C16 UNL     1      16.839  10.398  17.937  1.00  0.00     0.036 A 
HETATM   12  C17 UNL     1      17.371  11.348  17.093  1.00  0.00     0.057 A 
HETATM   13  C18 UNL     1      16.773  12.568  16.879  1.00  0.00     0.102 A 
ENDROOT
BRANCH   6  14
HETATM   14  N2  UNL     1      15.213   7.546  20.496  1.00  0.00    -0.214 N 
HETATM   15  C6  UNL     1      16.018   6.444  20.973  1.00  0.00     0.161 C 
HETATM   16  C7  UNL     1      15.152   5.428  21.685  1.00  0.00     0.146 C 
HETATM   17  N3  UNL     1      14.439   6.122  22.743  1.00  0.00    -0.347 N 
HETATM   18  C8  UNL     1      14.473   5.588  24.038  1.00  0.00     0.248 C 
HETATM   19  C13 UNL     1      13.724   7.324  22.434  1.00  0.00     0.146 C 
HETATM   20  O2  UNL     1      15.133   4.511  24.223  1.00  0.00    -0.270 OA
HETATM   21  C14 UNL     1      13.843   7.636  20.927  1.00  0.00     0.161 C 
BRANCH  18  22
HETATM   22  C9  UNL     1      13.773   6.246  25.150  1.00  0.00     0.213 C 
HETATM   23  C10 UNL     1      13.293   5.266  26.203  1.00  0.00     0.043 C 
HETATM   24  C11 UNL     1      13.109   6.220  27.391  1.00  0.00     0.029 C 
HETATM   25  C12 UNL     1      13.582   7.542  26.849  1.00  0.00     0.168 C 
HETATM   26  O3  UNL     1      14.531   7.132  25.886  1.00  0.00    -0.376 OA
ENDBRANCH  18  22
ENDBRANCH   6  14
BRANCH   1  27
HETATM   27  O1  UNL     1      14.938  14.033  17.381  1.00  0.00    -0.353 OA
HETATM   28  C1  UNL     1      13.691  14.247  18.002  1.00  0.00     0.210 C 
ENDBRANCH   1  27
BRANCH  13  29
HETATM   29  O4  UNL     1      17.346  13.465  16.033  1.00  0.00    -0.353 OA
HETATM   30  C19 UNL     1      18.276  13.226  15.029  1.00  0.00     0.210 C 
ENDBRANCH  13  29
TORSDOF 4
ENDMDL
