MODEL 11
REMARK VINA RESULT: -6.684674543      5.032      7.909
REMARK  4 active torsions:
REMARK  status: ('A' for Active; 'I' for Inactive)
REMARK    1  A    between atoms: O1_2  and  C2_3 
REMARK    2  A    between atoms: C5_8  and  N2_9 
REMARK       I    between atoms: N3_12  and  C8_13 
REMARK    3  A    between atoms: C8_13  and  C9_15 
REMARK    4  A    between atoms: C18_28  and  O4_29 
ROOT
HETATM    1  C2  UNL     1      17.076  10.752  17.430  1.00  0.00     0.103 A 
HETATM    2  C3  UNL     1      16.110  10.314  18.324  1.00  0.00     0.070 A 
HETATM    3  C4  UNL     1      15.029  11.088  18.685  1.00  0.00     0.065 A 
HETATM    4  N1  UNL     1      14.075  10.709  19.540  1.00  0.00    -0.191 N 
ATOM      5  H1  UNL     1      14.147   9.781  19.959  1.00  0.00     0.184 HD
HETATM    6  C5  UNL     1      13.014  11.488  19.884  1.00  0.00     0.682 A 
HETATM    7  N4  UNL     1      12.932  12.711  19.323  1.00  0.00    -0.178 N 
ATOM      8  H4  UNL     1      12.147  13.316  19.564  1.00  0.00     0.185 HD
HETATM    9  C15 UNL     1      13.857  13.156  18.455  1.00  0.00     0.144 A 
HETATM   10  N5  UNL     1      13.787  14.443  17.853  1.00  0.00    -0.081 NA
HETATM   11  C16 UNL     1      14.926  12.353  18.117  1.00  0.00     0.036 A 
HETATM   12  C17 UNL     1      15.888  12.785  17.229  1.00  0.00     0.057 A 
HETATM   13  C18 UNL     1      16.967  12.012  16.869  1.00  0.00     0.102 A 
ENDROOT
BRANCH   6  14
HETATM   14  N2  UNL     1      12.036  11.022  20.799  1.00  0.00    -0.214 N 
HETATM   15  C6  UNL     1      10.635  11.288  20.557  1.00  0.00     0.161 C 
HETATM   16  C7  UNL     1       9.811  10.916  21.769  1.00  0.00     0.146 C 
HETATM   17  N3  UNL     1      10.088   9.524  22.079  1.00  0.00    -0.347 N 
HETATM   18  C8  UNL     1       9.010   8.648  22.259  1.00  0.00     0.248 C 
HETATM   19  C13 UNL     1      11.448   9.089  22.193  1.00  0.00     0.146 C 
HETATM   20  O2  UNL     1       7.830   9.122  22.142  1.00  0.00    -0.270 OA
HETATM   21  C14 UNL     1      12.403  10.283  21.978  1.00  0.00     0.161 C 
BRANCH  18  22
HETATM   22  C9  UNL     1       9.227   7.229  22.572  1.00  0.00     0.213 C 
HETATM   23  C10 UNL     1       8.102   6.630  23.394  1.00  0.00     0.043 C 
HETATM   24  C11 UNL     1       8.329   5.139  23.111  1.00  0.00     0.029 C 
HETATM   25  C12 UNL     1       9.472   5.144  22.131  1.00  0.00     0.168 C 
HETATM   26  O3  UNL     1       9.286   6.385  21.482  1.00  0.00    -0.376 OA
ENDBRANCH  18  22
ENDBRANCH   6  14
BRANCH   1  27
HETATM   27  O1  UNL     1      18.126   9.924  17.117  1.00  0.00    -0.353 OA
HETATM   28  C1  UNL     1      18.134   8.590  17.574  1.00  0.00     0.210 C 
ENDBRANCH   1  27
BRANCH  13  29
HETATM   29  O4  UNL     1      17.882  12.494  15.987  1.00  0.00    -0.353 OA
HETATM   30  C19 UNL     1      17.902  13.734  15.362  1.00  0.00     0.210 C 
ENDBRANCH  13  29
TORSDOF 4
ENDMDL
