MODEL 5
REMARK VINA RESULT: -7.132966216      1.226      1.431
REMARK  4 active torsions:
REMARK  status: ('A' for Active; 'I' for Inactive)
REMARK    1  A    between atoms: O1_2  and  C2_3 
REMARK    2  A    between atoms: C5_8  and  N2_9 
REMARK       I    between atoms: N3_12  and  C8_13 
REMARK    3  A    between atoms: C8_13  and  C9_15 
REMARK    4  A    between atoms: C18_28  and  O4_29 
ROOT
HETATM    1  C2  UNL     1      15.770  11.875  18.031  1.00  0.00     0.103 A 
HETATM    2  C3  UNL     1      16.610  10.777  18.143  1.00  0.00     0.070 A 
HETATM    3  C4  UNL     1      16.286   9.669  18.895  1.00  0.00     0.065 A 
HETATM    4  N1  UNL     1      17.062   8.590  19.030  1.00  0.00    -0.191 N 
ATOM      5  H1  UNL     1      17.959   8.579  18.546  1.00  0.00     0.184 HD
HETATM    6  C5  UNL     1      16.723   7.504  19.778  1.00  0.00     0.682 A 
HETATM    7  N4  UNL     1      15.535   7.532  20.414  1.00  0.00    -0.178 N 
ATOM      8  H4  UNL     1      15.256   6.731  20.981  1.00  0.00     0.185 HD
HETATM    9  C15 UNL     1      14.706   8.585  20.321  1.00  0.00     0.144 A 
HETATM   10  N5  UNL     1      13.449   8.632  20.984  1.00  0.00    -0.081 NA
HETATM   11  C16 UNL     1      15.064   9.678  19.558  1.00  0.00     0.036 A 
HETATM   12  C17 UNL     1      14.232  10.771  19.446  1.00  0.00     0.057 A 
HETATM   13  C18 UNL     1      14.556  11.876  18.694  1.00  0.00     0.102 A 
ENDROOT
BRANCH   6  14
HETATM   14  N2  UNL     1      17.595   6.390  19.879  1.00  0.00    -0.214 N 
HETATM   15  C6  UNL     1      17.267   5.294  20.762  1.00  0.00     0.161 C 
HETATM   16  C7  UNL     1      18.441   4.348  20.888  1.00  0.00     0.146 C 
HETATM   17  N3  UNL     1      18.806   3.919  19.549  1.00  0.00    -0.347 N 
HETATM   18  C8  UNL     1      18.950   2.549  19.298  1.00  0.00     0.248 C 
HETATM   19  C13 UNL     1      19.009   4.906  18.529  1.00  0.00     0.146 C 
HETATM   20  O2  UNL     1      18.753   1.741  20.266  1.00  0.00    -0.270 OA
HETATM   21  C14 UNL     1      18.814   6.320  19.116  1.00  0.00     0.161 C 
BRANCH  18  22
HETATM   22  C9  UNL     1      19.316   2.055  17.963  1.00  0.00     0.213 C 
HETATM   23  C10 UNL     1      20.618   1.277  17.961  1.00  0.00     0.043 C 
HETATM   24  C11 UNL     1      20.458   0.494  16.652  1.00  0.00     0.029 C 
HETATM   25  C12 UNL     1      19.085   0.888  16.178  1.00  0.00     0.168 C 
HETATM   26  O3  UNL     1      18.430   1.161  17.399  1.00  0.00    -0.376 OA
ENDBRANCH  18  22
ENDBRANCH   6  14
BRANCH   1  27
HETATM   27  O1  UNL     1      16.160  12.944  17.262  1.00  0.00    -0.353 OA
HETATM   28  C1  UNL     1      17.233  12.808  16.357  1.00  0.00     0.210 C 
ENDBRANCH   1  27
BRANCH  13  29
HETATM   29  O4  UNL     1      13.692  12.924  18.622  1.00  0.00    -0.353 OA
HETATM   30  C19 UNL     1      12.637  13.227  19.472  1.00  0.00     0.210 C 
ENDBRANCH  13  29
TORSDOF 4
ENDMDL
