MODEL 2
REMARK VINA RESULT: -7.550660323      1.970      2.921
REMARK  4 active torsions:
REMARK  status: ('A' for Active; 'I' for Inactive)
REMARK    1  A    between atoms: O1_2  and  C2_3 
REMARK    2  A    between atoms: C5_8  and  N2_9 
REMARK       I    between atoms: N3_12  and  C8_13 
REMARK    3  A    between atoms: C8_13  and  C9_15 
REMARK    4  A    between atoms: C18_28  and  O4_29 
ROOT
HETATM    1  C2  UNL     1     -17.011 -11.377 -28.677  1.00  0.00     0.103 A 
HETATM    2  C3  UNL     1     -17.619 -10.132 -28.615  1.00  0.00     0.070 A 
HETATM    3  C4  UNL     1     -17.075  -9.075 -27.920  1.00  0.00     0.065 A 
HETATM    4  N1  UNL     1     -17.624  -7.860 -27.834  1.00  0.00    -0.191 N 
ATOM      5  H1  UNL     1     -18.508  -7.697 -28.314  1.00  0.00     0.184 HD
HETATM    6  C5  UNL     1     -17.069  -6.827 -27.142  1.00  0.00     0.682 A 
HETATM    7  N4  UNL     1     -15.900  -7.057 -26.511  1.00  0.00    -0.178 N 
ATOM      8  H4  UNL     1     -15.463  -6.300 -25.985  1.00  0.00     0.185 HD
HETATM    9  C15 UNL     1     -15.293  -8.255 -26.557  1.00  0.00     0.144 A 
HETATM   10  N5  UNL     1     -14.060  -8.515 -25.899  1.00  0.00    -0.081 NA
HETATM   11  C16 UNL     1     -15.869  -9.291 -27.263  1.00  0.00     0.036 A 
HETATM   12  C17 UNL     1     -15.267 -10.529 -27.326  1.00  0.00     0.057 A 
HETATM   13  C18 UNL     1     -15.811 -11.584 -28.020  1.00  0.00     0.102 A 
ENDROOT
BRANCH   6  14
HETATM   14  N2  UNL     1     -17.705  -5.560 -27.092  1.00  0.00    -0.214 N 
HETATM   15  C6  UNL     1     -18.918  -5.331 -27.845  1.00  0.00     0.161 C 
HETATM   16  C7  UNL     1     -19.276  -3.861 -27.833  1.00  0.00     0.146 C 
HETATM   17  N3  UNL     1     -19.372  -3.443 -26.445  1.00  0.00    -0.347 N 
HETATM   18  C8  UNL     1     -20.515  -2.749 -26.030  1.00  0.00     0.248 C 
HETATM   19  C13 UNL     1     -18.298  -3.748 -25.547  1.00  0.00     0.146 C 
HETATM   20  O2  UNL     1     -21.422  -2.518 -26.898  1.00  0.00    -0.270 OA
HETATM   21  C14 UNL     1     -17.170  -4.483 -26.302  1.00  0.00     0.161 C 
BRANCH  18  22
HETATM   22  C9  UNL     1     -20.670  -2.302 -24.638  1.00  0.00     0.213 C 
HETATM   23  C10 UNL     1     -20.128  -0.905 -24.407  1.00  0.00     0.043 C 
HETATM   24  C11 UNL     1     -20.869  -0.542 -23.113  1.00  0.00     0.029 C 
HETATM   25  C12 UNL     1     -21.751  -1.739 -22.873  1.00  0.00     0.168 C 
HETATM   26  O3  UNL     1     -21.970  -2.200 -24.191  1.00  0.00    -0.376 OA
ENDBRANCH  18  22
ENDBRANCH   6  14
BRANCH   1  27
HETATM   27  O1  UNL     1     -17.614 -12.384 -29.390  1.00  0.00    -0.353 OA
HETATM   28  C1  UNL     1     -18.418 -12.075 -30.506  1.00  0.00     0.210 C 
ENDBRANCH   1  27
BRANCH  13  29
HETATM   29  O4  UNL     1     -15.170 -12.783 -28.046  1.00  0.00    -0.353 OA
HETATM   30  C19 UNL     1     -13.835 -13.036 -28.337  1.00  0.00     0.210 C 
ENDBRANCH  13  29
TORSDOF 4
ENDMDL
