MODEL 16
REMARK VINA RESULT: -6.829347715      4.283      5.785
REMARK  4 active torsions:
REMARK  status: ('A' for Active; 'I' for Inactive)
REMARK    1  A    between atoms: O1_2  and  C2_3 
REMARK    2  A    between atoms: C5_8  and  N2_9 
REMARK       I    between atoms: N3_12  and  C8_13 
REMARK    3  A    between atoms: C8_13  and  C9_15 
REMARK    4  A    between atoms: C18_28  and  O4_29 
ROOT
HETATM    1  C2  UNL     1     -16.979  -7.580 -27.309  1.00  0.00     0.103 A 
HETATM    2  C3  UNL     1     -18.006  -6.648 -27.294  1.00  0.00     0.070 A 
HETATM    3  C4  UNL     1     -17.951  -5.496 -26.540  1.00  0.00     0.065 A 
HETATM    4  N1  UNL     1     -18.914  -4.571 -26.496  1.00  0.00    -0.191 N 
ATOM      5  H1  UNL     1     -19.752  -4.723 -27.057  1.00  0.00     0.184 HD
HETATM    6  C5  UNL     1     -18.841  -3.439 -25.745  1.00  0.00     0.682 A 
HETATM    7  N4  UNL     1     -17.728  -3.252 -25.007  1.00  0.00    -0.178 N 
ATOM      8  H4  UNL     1     -17.647  -2.412 -24.434  1.00  0.00     0.185 HD
HETATM    9  C15 UNL     1     -16.721  -4.142 -25.005  1.00  0.00     0.144 A 
HETATM   10  N5  UNL     1     -15.540  -3.961 -24.234  1.00  0.00    -0.081 NA
HETATM   11  C16 UNL     1     -16.811  -5.284 -25.773  1.00  0.00     0.036 A 
HETATM   12  C17 UNL     1     -15.793  -6.213 -25.789  1.00  0.00     0.057 A 
HETATM   13  C18 UNL     1     -15.848  -7.362 -26.543  1.00  0.00     0.102 A 
ENDROOT
BRANCH   6  14
HETATM   14  N2  UNL     1     -19.901  -2.496 -25.744  1.00  0.00    -0.214 N 
HETATM   15  C6  UNL     1     -20.928  -2.564 -26.759  1.00  0.00     0.161 C 
HETATM   16  C7  UNL     1     -21.804  -1.332 -26.705  1.00  0.00     0.146 C 
HETATM   17  N3  UNL     1     -22.334  -1.227 -25.356  1.00  0.00    -0.347 N 
HETATM   18  C8  UNL     1     -23.713  -1.053 -25.187  1.00  0.00     0.248 C 
HETATM   19  C13 UNL     1     -21.434  -1.304 -24.243  1.00  0.00     0.146 C 
HETATM   20  O2  UNL     1     -24.440  -0.993 -26.234  1.00  0.00    -0.270 OA
HETATM   21  C14 UNL     1     -19.983  -1.461 -24.747  1.00  0.00     0.161 C 
BRANCH  18  22
HETATM   22  C9  UNL     1     -24.307  -0.942 -23.847  1.00  0.00     0.213 C 
HETATM   23  C10 UNL     1     -25.790  -0.627 -23.886  1.00  0.00     0.043 C 
HETATM   24  C11 UNL     1     -26.197  -1.083 -22.479  1.00  0.00     0.029 C 
HETATM   25  C12 UNL     1     -24.919  -1.644 -21.914  1.00  0.00     0.168 C 
HETATM   26  O3  UNL     1     -24.262  -2.090 -23.083  1.00  0.00    -0.376 OA
ENDBRANCH  18  22
ENDBRANCH   6  14
BRANCH   1  27
HETATM   27  O1  UNL     1     -17.105  -8.705 -28.086  1.00  0.00    -0.353 OA
HETATM   28  C1  UNL     1     -17.646  -8.610 -29.385  1.00  0.00     0.210 C 
ENDBRANCH   1  27
BRANCH  13  29
HETATM   29  O4  UNL     1     -14.811  -8.240 -26.518  1.00  0.00    -0.353 OA
HETATM   30  C19 UNL     1     -14.588  -9.281 -25.625  1.00  0.00     0.210 C 
ENDBRANCH  13  29
TORSDOF 4
ENDMDL
