MODEL 4
REMARK VINA RESULT: -7.362364707      2.713      3.615
REMARK  4 active torsions:
REMARK  status: ('A' for Active; 'I' for Inactive)
REMARK    1  A    between atoms: O1_2  and  C2_3 
REMARK    2  A    between atoms: C5_8  and  N2_9 
REMARK       I    between atoms: N3_12  and  C8_13 
REMARK    3  A    between atoms: C8_13  and  C9_15 
REMARK    4  A    between atoms: C18_28  and  O4_29 
ROOT
HETATM    1  C2  UNL     1     -17.129 -10.079 -28.900  1.00  0.00     0.103 A 
HETATM    2  C3  UNL     1     -17.792  -8.877 -28.701  1.00  0.00     0.070 A 
HETATM    3  C4  UNL     1     -17.346  -7.921 -27.815  1.00  0.00     0.065 A 
HETATM    4  N1  UNL     1     -17.950  -6.751 -27.592  1.00  0.00    -0.191 N 
ATOM      5  H1  UNL     1     -18.804  -6.544 -28.111  1.00  0.00     0.184 HD
HETATM    6  C5  UNL     1     -17.493  -5.819 -26.712  1.00  0.00     0.682 A 
HETATM    7  N4  UNL     1     -16.364  -6.106 -26.032  1.00  0.00    -0.178 N 
ATOM      8  H4  UNL     1     -16.000  -5.425 -25.365  1.00  0.00     0.185 HD
HETATM    9  C15 UNL     1     -15.706  -7.264 -26.207  1.00  0.00     0.144 A 
HETATM   10  N5  UNL     1     -14.515  -7.584 -25.500  1.00  0.00    -0.081 NA
HETATM   11  C16 UNL     1     -16.184  -8.198 -27.104  1.00  0.00     0.036 A 
HETATM   12  C17 UNL     1     -15.527  -9.393 -27.303  1.00  0.00     0.057 A 
HETATM   13  C18 UNL     1     -15.974 -10.346 -28.189  1.00  0.00     0.102 A 
ENDROOT
BRANCH   6  14
HETATM   14  N2  UNL     1     -18.184  -4.595 -26.523  1.00  0.00    -0.214 N 
HETATM   15  C6  UNL     1     -19.329  -4.278 -27.346  1.00  0.00     0.161 C 
HETATM   16  C7  UNL     1     -19.748  -2.840 -27.136  1.00  0.00     0.146 C 
HETATM   17  N3  UNL     1     -19.992  -2.656 -25.716  1.00  0.00    -0.347 N 
HETATM   18  C8  UNL     1     -21.198  -2.071 -25.310  1.00  0.00     0.248 C 
HETATM   19  C13 UNL     1     -18.995  -3.075 -24.775  1.00  0.00     0.146 C 
HETATM   20  O2  UNL     1     -22.027  -1.725 -26.217  1.00  0.00    -0.270 OA
HETATM   21  C14 UNL     1     -17.771  -3.647 -25.522  1.00  0.00     0.161 C 
BRANCH  18  22
HETATM   22  C9  UNL     1     -21.501  -1.861 -23.888  1.00  0.00     0.213 C 
HETATM   23  C10 UNL     1     -21.497  -0.395 -23.496  1.00  0.00     0.043 C 
HETATM   24  C11 UNL     1     -22.317  -0.463 -22.202  1.00  0.00     0.029 C 
HETATM   25  C12 UNL     1     -22.710  -1.914 -22.117  1.00  0.00     0.168 C 
HETATM   26  O3  UNL     1     -22.751  -2.278 -23.481  1.00  0.00    -0.376 OA
ENDBRANCH  18  22
ENDBRANCH   6  14
BRANCH   1  27
HETATM   27  O1  UNL     1     -17.635 -10.983 -29.801  1.00  0.00    -0.353 OA
HETATM   28  C1  UNL     1     -17.684 -12.354 -29.474  1.00  0.00     0.210 C 
ENDBRANCH   1  27
BRANCH  13  29
HETATM   29  O4  UNL     1     -15.282 -11.507 -28.342  1.00  0.00    -0.353 OA
HETATM   30  C19 UNL     1     -14.507 -12.175 -27.402  1.00  0.00     0.210 C 
ENDBRANCH  13  29
TORSDOF 4
ENDMDL
