MODEL 11
REMARK VINA RESULT: -7.009587599      4.871      9.819
REMARK  4 active torsions:
REMARK  status: ('A' for Active; 'I' for Inactive)
REMARK    1  A    between atoms: O1_2  and  C2_3 
REMARK    2  A    between atoms: C5_8  and  N2_9 
REMARK       I    between atoms: N3_12  and  C8_13 
REMARK    3  A    between atoms: C8_13  and  C9_15 
REMARK    4  A    between atoms: C18_28  and  O4_29 
ROOT
HETATM    1  C2  UNL     1     -17.319  -6.351 -27.174  1.00  0.00     0.103 A 
HETATM    2  C3  UNL     1     -16.299  -6.974 -26.470  1.00  0.00     0.070 A 
HETATM    3  C4  UNL     1     -15.898  -8.265 -26.732  1.00  0.00     0.065 A 
HETATM    4  N1  UNL     1     -14.922  -8.904 -26.082  1.00  0.00    -0.191 N 
ATOM      5  H1  UNL     1     -14.436  -8.407 -25.336  1.00  0.00     0.184 HD
HETATM    6  C5  UNL     1     -14.539 -10.181 -26.357  1.00  0.00     0.682 A 
HETATM    7  N4  UNL     1     -15.191 -10.827 -27.345  1.00  0.00    -0.178 N 
ATOM      8  H4  UNL     1     -14.925 -11.785 -27.572  1.00  0.00     0.185 HD
HETATM    9  C15 UNL     1     -16.183 -10.244 -28.040  1.00  0.00     0.144 A 
HETATM   10  N5  UNL     1     -16.881 -10.909 -29.085  1.00  0.00    -0.081 NA
HETATM   11  C16 UNL     1     -16.558  -8.949 -27.748  1.00  0.00     0.036 A 
HETATM   12  C17 UNL     1     -17.571  -8.327 -28.446  1.00  0.00     0.057 A 
HETATM   13  C18 UNL     1     -17.970  -7.038 -28.183  1.00  0.00     0.102 A 
ENDROOT
BRANCH   6  14
HETATM   14  N2  UNL     1     -13.493 -10.801 -25.627  1.00  0.00    -0.214 N 
HETATM   15  C6  UNL     1     -12.177 -10.204 -25.603  1.00  0.00     0.161 C 
HETATM   16  C7  UNL     1     -11.179 -11.151 -24.975  1.00  0.00     0.146 C 
HETATM   17  N3  UNL     1     -11.677 -11.502 -23.656  1.00  0.00    -0.347 N 
HETATM   18  C8  UNL     1     -10.815 -11.380 -22.558  1.00  0.00     0.248 C 
HETATM   19  C13 UNL     1     -13.026 -11.963 -23.516  1.00  0.00     0.146 C 
HETATM   20  O2  UNL     1      -9.628 -10.964 -22.775  1.00  0.00    -0.270 OA
HETATM   21  C14 UNL     1     -13.709 -12.024 -24.899  1.00  0.00     0.161 C 
BRANCH  18  22
HETATM   22  C9  UNL     1     -11.262 -11.718 -21.199  1.00  0.00     0.213 C 
HETATM   23  C10 UNL     1     -10.701 -13.039 -20.708  1.00  0.00     0.043 C 
HETATM   24  C11 UNL     1     -10.884 -12.860 -19.196  1.00  0.00     0.029 C 
HETATM   25  C12 UNL     1     -11.433 -11.464 -19.076  1.00  0.00     0.168 C 
HETATM   26  O3  UNL     1     -10.871 -10.839 -20.212  1.00  0.00    -0.376 OA
ENDBRANCH  18  22
ENDBRANCH   6  14
BRANCH   1  27
HETATM   27  O1  UNL     1     -17.664  -5.061 -26.855  1.00  0.00    -0.353 OA
HETATM   28  C1  UNL     1     -17.533  -4.602 -25.528  1.00  0.00     0.210 C 
ENDBRANCH   1  27
BRANCH  13  29
HETATM   29  O4  UNL     1     -18.976  -6.479 -28.906  1.00  0.00    -0.353 OA
HETATM   30  C19 UNL     1     -20.265  -6.960 -29.100  1.00  0.00     0.210 C 
ENDBRANCH  13  29
TORSDOF 4
ENDMDL
