MODEL 12
REMARK VINA RESULT: -7.000391861      3.685      5.393
REMARK  4 active torsions:
REMARK  status: ('A' for Active; 'I' for Inactive)
REMARK    1  A    between atoms: O1_2  and  C2_3 
REMARK    2  A    between atoms: C5_8  and  N2_9 
REMARK       I    between atoms: N3_12  and  C8_13 
REMARK    3  A    between atoms: C8_13  and  C9_15 
REMARK    4  A    between atoms: C18_28  and  O4_29 
ROOT
HETATM    1  C2  UNL     1     -15.840  -7.413 -26.447  1.00  0.00     0.103 A 
HETATM    2  C3  UNL     1     -16.415  -6.197 -26.108  1.00  0.00     0.070 A 
HETATM    3  C4  UNL     1     -17.571  -5.734 -26.695  1.00  0.00     0.065 A 
HETATM    4  N1  UNL     1     -18.161  -4.572 -26.400  1.00  0.00    -0.191 N 
ATOM      5  H1  UNL     1     -17.728  -3.981 -25.691  1.00  0.00     0.184 HD
HETATM    6  C5  UNL     1     -19.305  -4.133 -26.991  1.00  0.00     0.682 A 
HETATM    7  N4  UNL     1     -19.866  -4.925 -27.927  1.00  0.00    -0.178 N 
ATOM      8  H4  UNL     1     -20.724  -4.619 -28.386  1.00  0.00     0.185 HD
HETATM    9  C15 UNL     1     -19.326  -6.106 -28.272  1.00  0.00     0.144 A 
HETATM   10  N5  UNL     1     -19.904  -6.954 -29.256  1.00  0.00    -0.081 NA
HETATM   11  C16 UNL     1     -18.166  -6.537 -27.663  1.00  0.00     0.036 A 
HETATM   12  C17 UNL     1     -17.592  -7.744 -27.998  1.00  0.00     0.057 A 
HETATM   13  C18 UNL     1     -16.437  -8.205 -27.411  1.00  0.00     0.102 A 
ENDROOT
BRANCH   6  14
HETATM   14  N2  UNL     1     -19.879  -2.887 -26.630  1.00  0.00    -0.214 N 
HETATM   15  C6  UNL     1     -19.885  -1.793 -27.575  1.00  0.00     0.161 C 
HETATM   16  C7  UNL     1     -20.320  -0.513 -26.898  1.00  0.00     0.146 C 
HETATM   17  N3  UNL     1     -21.616  -0.756 -26.289  1.00  0.00    -0.347 N 
HETATM   18  C8  UNL     1     -22.658   0.145 -26.545  1.00  0.00     0.248 C 
HETATM   19  C13 UNL     1     -21.791  -1.902 -25.448  1.00  0.00     0.146 C 
HETATM   20  O2  UNL     1     -22.413   1.141 -27.305  1.00  0.00    -0.270 OA
HETATM   21  C14 UNL     1     -20.462  -2.678 -25.330  1.00  0.00     0.161 C 
BRANCH  18  22
HETATM   22  C9  UNL     1     -23.992  -0.049 -25.959  1.00  0.00     0.213 C 
HETATM   23  C10 UNL     1     -24.874   1.178 -26.089  1.00  0.00     0.043 C 
HETATM   24  C11 UNL     1     -26.254   0.535 -25.899  1.00  0.00     0.029 C 
HETATM   25  C12 UNL     1     -25.938  -0.932 -25.775  1.00  0.00     0.168 C 
HETATM   26  O3  UNL     1     -24.758  -1.035 -26.545  1.00  0.00    -0.376 OA
ENDBRANCH  18  22
ENDBRANCH   6  14
BRANCH   1  27
HETATM   27  O1  UNL     1     -14.685  -7.808 -25.818  1.00  0.00    -0.353 OA
HETATM   28  C1  UNL     1     -13.576  -6.939 -25.767  1.00  0.00     0.210 C 
ENDBRANCH   1  27
BRANCH  13  29
HETATM   29  O4  UNL     1     -15.920  -9.406 -27.784  1.00  0.00    -0.353 OA
HETATM   30  C19 UNL     1     -16.592 -10.512 -28.286  1.00  0.00     0.210 C 
ENDBRANCH  13  29
TORSDOF 4
ENDMDL
