MODEL 12
REMARK VINA RESULT: -5.466423378      1.661      3.451
REMARK  6 active torsions:
REMARK  status: ('A' for Active; 'I' for Inactive)
REMARK    1  A    between atoms: C1_2  and  C2_4 
REMARK    2  A    between atoms: C2_4  and  C3_5 
REMARK    3  A    between atoms: C3_5  and  O3_6 
REMARK    4  A    between atoms: C3_5  and  C4_8 
REMARK    5  A    between atoms: C3_5  and  C6_12 
REMARK    6  A    between atoms: C4_8  and  C5_9 
ROOT
HETATM    1  C3  UNL     1      14.976   4.731   3.429  1.00  0.00     0.164 C 
ENDROOT
BRANCH   1   2
HETATM    2  C2  UNL     1      15.444   3.553   2.664  1.00  0.00     0.163 C 
BRANCH   2   3
HETATM    3  C1  UNL     1      16.153   2.510   3.423  1.00  0.00     0.176 C 
HETATM    4  O1  UNL     1      17.337   2.242   3.113  1.00  0.00    -0.648 OA
HETATM    5  O2  UNL     1      15.611   1.785   4.473  1.00  0.00    -0.648 OA
ENDBRANCH   2   3
ENDBRANCH   1   2
BRANCH   1   6
HETATM    6  O3  UNL     1      15.333   4.548   4.769  1.00  0.00    -0.378 OA
ATOM      7  H3  UNL     1      16.181   4.954   4.907  1.00  0.00     0.211 HD
ENDBRANCH   1   6
BRANCH   1   8
HETATM    8  C4  UNL     1      13.537   5.089   3.328  1.00  0.00     0.163 C 
BRANCH   8   9
HETATM    9  C5  UNL     1      12.679   4.584   4.419  1.00  0.00     0.176 C 
HETATM   10  O4  UNL     1      12.709   3.375   4.720  1.00  0.00    -0.648 OA
HETATM   11  O5  UNL     1      11.864   5.495   5.073  1.00  0.00    -0.648 OA
ENDBRANCH   8   9
ENDBRANCH   1   8
BRANCH   1  12
HETATM   12  C6  UNL     1      15.737   5.904   2.920  1.00  0.00     0.210 C 
HETATM   13  O6  UNL     1      15.096   6.848   2.417  1.00  0.00    -0.646 OA
HETATM   14  O7  UNL     1      17.109   5.971   2.992  1.00  0.00    -0.646 OA
ENDBRANCH   1  12
TORSDOF 6
ENDMDL
