MODEL 11
REMARK VINA RESULT: -5.477561878      1.412      4.519
REMARK  6 active torsions:
REMARK  status: ('A' for Active; 'I' for Inactive)
REMARK    1  A    between atoms: C1_2  and  C2_4 
REMARK    2  A    between atoms: C2_4  and  C3_5 
REMARK    3  A    between atoms: C3_5  and  O3_6 
REMARK    4  A    between atoms: C3_5  and  C4_8 
REMARK    5  A    between atoms: C3_5  and  C6_12 
REMARK    6  A    between atoms: C4_8  and  C5_9 
ROOT
HETATM    1  C3  UNL     1      15.572   4.603   3.228  1.00  0.00     0.164 C 
ENDROOT
BRANCH   1   2
HETATM    2  C2  UNL     1      14.546   4.874   4.260  1.00  0.00     0.163 C 
BRANCH   2   3
HETATM    3  C1  UNL     1      13.139   4.760   3.841  1.00  0.00     0.176 C 
HETATM    4  O1  UNL     1      12.381   3.996   4.483  1.00  0.00    -0.648 OA
HETATM    5  O2  UNL     1      12.571   5.440   2.776  1.00  0.00    -0.648 OA
ENDBRANCH   2   3
ENDBRANCH   1   2
BRANCH   1   6
HETATM    6  O3  UNL     1      14.921   4.138   2.081  1.00  0.00    -0.378 OA
ATOM      7  H3  UNL     1      15.245   4.631   1.337  1.00  0.00     0.211 HD
ENDBRANCH   1   6
BRANCH   1   8
HETATM    8  C4  UNL     1      16.685   3.687   3.590  1.00  0.00     0.163 C 
BRANCH   8   9
HETATM    9  C5  UNL     1      16.277   2.354   4.079  1.00  0.00     0.176 C 
HETATM   10  O4  UNL     1      16.659   1.963   5.199  1.00  0.00    -0.648 OA
HETATM   11  O5  UNL     1      15.474   1.583   3.254  1.00  0.00    -0.648 OA
ENDBRANCH   8   9
ENDBRANCH   1   8
BRANCH   1  12
HETATM   12  C6  UNL     1      16.197   5.909   2.888  1.00  0.00     0.210 C 
HETATM   13  O6  UNL     1      17.433   6.021   3.014  1.00  0.00    -0.646 OA
HETATM   14  O7  UNL     1      15.456   6.980   2.446  1.00  0.00    -0.646 OA
ENDBRANCH   1  12
TORSDOF 6
ENDMDL
