MODEL 8
REMARK VINA RESULT: -5.502868083      6.241      8.566
REMARK  6 active torsions:
REMARK  status: ('A' for Active; 'I' for Inactive)
REMARK    1  A    between atoms: C1_2  and  C2_4 
REMARK    2  A    between atoms: C2_4  and  C3_5 
REMARK    3  A    between atoms: C3_5  and  O3_6 
REMARK    4  A    between atoms: C3_5  and  C4_8 
REMARK    5  A    between atoms: C3_5  and  C6_12 
REMARK    6  A    between atoms: C4_8  and  C5_9 
ROOT
HETATM    1  C3  UNL     1      21.443   6.320  -0.603  1.00  0.00     0.164 C 
ENDROOT
BRANCH   1   2
HETATM    2  C2  UNL     1      20.882   6.684  -1.924  1.00  0.00     0.163 C 
BRANCH   2   3
HETATM    3  C1  UNL     1      21.631   7.678  -2.710  1.00  0.00     0.176 C 
HETATM    4  O1  UNL     1      21.276   8.879  -2.656  1.00  0.00    -0.648 OA
HETATM    5  O2  UNL     1      22.719   7.393  -3.521  1.00  0.00    -0.648 OA
ENDBRANCH   2   3
ENDBRANCH   1   2
BRANCH   1   6
HETATM    6  O3  UNL     1      22.676   6.966  -0.462  1.00  0.00    -0.378 OA
ATOM      7  H3  UNL     1      22.660   7.459   0.350  1.00  0.00     0.211 HD
ENDBRANCH   1   6
BRANCH   1   8
HETATM    8  C4  UNL     1      21.585   4.874  -0.291  1.00  0.00     0.163 C 
BRANCH   8   9
HETATM    9  C5  UNL     1      22.935   4.445   0.129  1.00  0.00     0.176 C 
HETATM   10  O4  UNL     1      23.779   4.127  -0.731  1.00  0.00    -0.648 OA
HETATM   11  O5  UNL     1      23.208   4.415   1.488  1.00  0.00    -0.648 OA
ENDBRANCH   8   9
ENDBRANCH   1   8
BRANCH   1  12
HETATM   12  C6  UNL     1      20.525   6.883   0.424  1.00  0.00     0.210 C 
HETATM   13  O6  UNL     1      20.510   8.119   0.586  1.00  0.00    -0.646 OA
HETATM   14  O7  UNL     1      19.704   6.084   1.185  1.00  0.00    -0.646 OA
ENDBRANCH   1  12
TORSDOF 6
ENDMDL
