MODEL 6
REMARK VINA RESULT: -9.671119296      2.406      7.328
REMARK  11 active torsions:
REMARK  status: ('A' for Active; 'I' for Inactive)
REMARK    1  A    between atoms: C1_2  and  C2_6 
REMARK    2  A    between atoms: C6_10  and  C7_11 
REMARK    3  A    between atoms: C7_11  and  O1_12 
REMARK    4  A    between atoms: O1_12  and  C8_13 
REMARK    5  A    between atoms: C10_15  and  O2_16 
REMARK    6  A    between atoms: O2_16  and  C11_17 
REMARK    7  A    between atoms: C11_17  and  C12_18 
REMARK    8  A    between atoms: C16_22  and  C17_23 
REMARK    9  A    between atoms: C20_30  and  C21_31 
REMARK       I    between atoms: C21_31  and  N5_33 
REMARK   10  A    between atoms: N5_33  and  C22_35 
REMARK   11  A    between atoms: C25_38  and  N6_39 
ROOT
HETATM    1  C8  UNL     1      19.435   4.902  24.055  1.00  0.00     0.072 A 
HETATM    2  C9  UNL     1      18.498   5.643  23.335  1.00  0.00     0.073 A 
HETATM    3  C10 UNL     1      18.068   6.871  23.774  1.00  0.00     0.072 A 
HETATM    4  C19 UNL     1      18.571   7.384  24.948  1.00  0.00     0.054 A 
HETATM    5  C20 UNL     1      19.508   6.675  25.698  1.00  0.00     0.037 A 
HETATM    6  C28 UNL     1      19.910   5.463  25.231  1.00  0.00     0.054 A 
ENDROOT
BRANCH   5   7
HETATM    7  C21 UNL     1      20.025   7.244  26.932  1.00  0.00     0.252 C 
HETATM    8  O3  UNL     1      19.205   7.513  27.882  1.00  0.00    -0.268 OA
HETATM    9  N5  UNL     1      21.407   7.518  27.136  1.00  0.00    -0.352 N 
ATOM     10  H5  UNL     1      22.086   7.309  26.404  1.00  0.00     0.163 HD
BRANCH   9  11
HETATM   11  C22 UNL     1      21.834   8.089  28.377  1.00  0.00     0.084 C 
HETATM   12  C23 UNL     1      22.549   7.029  29.209  1.00  0.00     0.027 C 
HETATM   13  C24 UNL     1      23.120   7.649  30.437  1.00  0.00     0.035 C 
HETATM   14  C25 UNL     1      22.654   9.038  30.739  1.00  0.00     0.183 C 
HETATM   15  C26 UNL     1      22.869   9.940  29.565  1.00  0.00     0.035 C 
HETATM   16  C27 UNL     1      22.786   9.229  28.230  1.00  0.00     0.027 C 
BRANCH  14  17
HETATM   17  N6  UNL     1      21.322   9.116  31.291  1.00  0.00    -0.075 N 
ATOM     18  H63 UNL     1      21.001   8.191  31.577  1.00  0.00     0.274 HD
ATOM     19  H62 UNL     1      21.339   9.583  32.197  1.00  0.00     0.274 HD
ATOM     20  H61 UNL     1      20.636   9.556  30.678  1.00  0.00     0.274 HD
ENDBRANCH  14  17
ENDBRANCH   9  11
ENDBRANCH   5   7
BRANCH   3  21
HETATM   21  O2  UNL     1      17.140   7.600  23.062  1.00  0.00    -0.347 OA
BRANCH  21  22
HETATM   22  C11 UNL     1      15.791   7.186  23.066  1.00  0.00     0.214 C 
BRANCH  22  23
HETATM   23  C12 UNL     1      15.117   7.954  24.133  1.00  0.00    -0.033 A 
HETATM   24  C13 UNL     1      14.636   7.356  25.276  1.00  0.00     0.009 A 
HETATM   25  C14 UNL     1      14.016   8.074  26.271  1.00  0.00     0.002 A 
HETATM   26  C15 UNL     1      13.871   9.429  26.120  1.00  0.00     0.015 A 
HETATM   27  C16 UNL     1      14.336  10.089  24.986  1.00  0.00     0.005 A 
HETATM   28  C18 UNL     1      14.946   9.334  24.025  1.00  0.00     0.024 A 
BRANCH  27  29
HETATM   29  C17 UNL     1      14.169  11.518  24.866  1.00  0.00     0.120 C 
HETATM   30  N3  UNL     1      14.906  12.196  23.839  1.00  0.00    -0.082 NA
HETATM   31  N4  UNL     1      13.392  12.157  25.650  1.00  0.00    -0.387 N 
ATOM     32  H42 UNL     1      12.868  11.675  26.380  1.00  0.00     0.157 HD
ATOM     33  H41 UNL     1      13.274  13.167  25.565  1.00  0.00     0.157 HD
ENDBRANCH  27  29
ENDBRANCH  22  23
ENDBRANCH  21  22
ENDBRANCH   3  21
BRANCH   1  34
HETATM   34  O1  UNL     1      19.844   3.667  23.578  1.00  0.00    -0.347 OA
BRANCH  34  35
HETATM   35  C7  UNL     1      20.455   3.467  22.321  1.00  0.00     0.214 C 
BRANCH  35  36
HETATM   36  C6  UNL     1      21.928   3.572  22.499  1.00  0.00    -0.033 A 
HETATM   37  C5  UNL     1      22.723   3.992  21.458  1.00  0.00     0.009 A 
HETATM   38  C4  UNL     1      24.101   4.093  21.585  1.00  0.00     0.002 A 
HETATM   39  C3  UNL     1      24.666   3.758  22.797  1.00  0.00     0.015 A 
HETATM   40  C2  UNL     1      23.896   3.326  23.883  1.00  0.00     0.005 A 
HETATM   41  C29 UNL     1      22.535   3.245  23.703  1.00  0.00     0.024 A 
BRANCH  40  42
HETATM   42  C1  UNL     1      24.535   2.982  25.120  1.00  0.00     0.120 C 
HETATM   43  N1  UNL     1      24.948   1.635  25.351  1.00  0.00    -0.082 NA
HETATM   44  N2  UNL     1      24.756   3.834  26.053  1.00  0.00    -0.387 N 
ATOM     45  H22 UNL     1      25.211   3.589  26.933  1.00  0.00     0.157 HD
ATOM     46  H21 UNL     1      24.461   4.796  25.888  1.00  0.00     0.157 HD
ENDBRANCH  40  42
ENDBRANCH  35  36
ENDBRANCH  34  35
ENDBRANCH   1  34
TORSDOF 11
ENDMDL
