MODEL 3
REMARK VINA RESULT: -9.751795251      6.222     13.028
REMARK  11 active torsions:
REMARK  status: ('A' for Active; 'I' for Inactive)
REMARK    1  A    between atoms: C1_2  and  C2_6 
REMARK    2  A    between atoms: C6_10  and  C7_11 
REMARK    3  A    between atoms: C7_11  and  O1_12 
REMARK    4  A    between atoms: O1_12  and  C8_13 
REMARK    5  A    between atoms: C10_15  and  O2_16 
REMARK    6  A    between atoms: O2_16  and  C11_17 
REMARK    7  A    between atoms: C11_17  and  C12_18 
REMARK    8  A    between atoms: C16_22  and  C17_23 
REMARK    9  A    between atoms: C20_30  and  C21_31 
REMARK       I    between atoms: C21_31  and  N5_33 
REMARK   10  A    between atoms: N5_33  and  C22_35 
REMARK   11  A    between atoms: C25_38  and  N6_39 
ROOT
HETATM    1  C8  UNL     1      14.154   2.661  18.005  1.00  0.00     0.072 A 
HETATM    2  C9  UNL     1      15.005   1.560  18.114  1.00  0.00     0.073 A 
HETATM    3  C10 UNL     1      16.061   1.556  18.991  1.00  0.00     0.072 A 
HETATM    4  C19 UNL     1      16.288   2.661  19.780  1.00  0.00     0.054 A 
HETATM    5  C20 UNL     1      15.463   3.781  19.701  1.00  0.00     0.037 A 
HETATM    6  C28 UNL     1      14.427   3.747  18.822  1.00  0.00     0.054 A 
ENDROOT
BRANCH   5   7
HETATM    7  C21 UNL     1      15.724   4.932  20.551  1.00  0.00     0.252 C 
HETATM    8  O3  UNL     1      15.367   6.096  20.145  1.00  0.00    -0.268 OA
HETATM    9  N5  UNL     1      16.361   4.826  21.819  1.00  0.00    -0.352 N 
ATOM     10  H5  UNL     1      16.651   3.915  22.175  1.00  0.00     0.163 HD
BRANCH   9  11
HETATM   11  C22 UNL     1      16.591   6.009  22.590  1.00  0.00     0.084 C 
HETATM   12  C23 UNL     1      15.581   6.082  23.731  1.00  0.00     0.027 C 
HETATM   13  C24 UNL     1      15.902   7.234  24.620  1.00  0.00     0.035 C 
HETATM   14  C25 UNL     1      16.909   8.203  24.088  1.00  0.00     0.183 C 
HETATM   15  C26 UNL     1      18.168   7.500  23.688  1.00  0.00     0.035 C 
HETATM   16  C27 UNL     1      17.945   6.077  23.216  1.00  0.00     0.027 C 
BRANCH  14  17
HETATM   17  N6  UNL     1      16.401   9.097  23.074  1.00  0.00    -0.075 N 
ATOM     18  H63 UNL     1      16.578   8.718  22.144  1.00  0.00     0.274 HD
ATOM     19  H62 UNL     1      15.380   9.091  23.074  1.00  0.00     0.274 HD
ATOM     20  H61 UNL     1      16.749  10.053  23.140  1.00  0.00     0.274 HD
ENDBRANCH  14  17
ENDBRANCH   9  11
ENDBRANCH   5   7
BRANCH   3  21
HETATM   21  O2  UNL     1      16.901   0.468  19.095  1.00  0.00    -0.347 OA
BRANCH  21  22
HETATM   22  C11 UNL     1      17.527  -0.029  17.934  1.00  0.00     0.214 C 
BRANCH  22  23
HETATM   23  C12 UNL     1      18.914   0.481  17.950  1.00  0.00    -0.033 A 
HETATM   24  C13 UNL     1      19.295   1.594  17.234  1.00  0.00     0.009 A 
HETATM   25  C14 UNL     1      20.584   2.071  17.256  1.00  0.00     0.002 A 
HETATM   26  C15 UNL     1      21.520   1.419  18.017  1.00  0.00     0.015 A 
HETATM   27  C16 UNL     1      21.194   0.289  18.760  1.00  0.00     0.005 A 
HETATM   28  C18 UNL     1      19.902  -0.148  18.707  1.00  0.00     0.024 A 
BRANCH  27  29
HETATM   29  C17 UNL     1      22.207  -0.368  19.552  1.00  0.00     0.120 C 
HETATM   30  N3  UNL     1      21.775  -1.215  20.626  1.00  0.00    -0.082 NA
HETATM   31  N4  UNL     1      23.447  -0.199  19.305  1.00  0.00    -0.387 N 
ATOM     32  H42 UNL     1      23.754   0.403  18.542  1.00  0.00     0.157 HD
ATOM     33  H41 UNL     1      24.163  -0.663  19.864  1.00  0.00     0.157 HD
ENDBRANCH  27  29
ENDBRANCH  22  23
ENDBRANCH  21  22
ENDBRANCH   3  21
BRANCH   1  34
HETATM   34  O1  UNL     1      13.099   2.624  17.109  1.00  0.00    -0.347 OA
BRANCH  34  35
HETATM   35  C7  UNL     1      11.898   1.914  17.328  1.00  0.00     0.214 C 
BRANCH  35  36
HETATM   36  C6  UNL     1      10.773   2.887  17.295  1.00  0.00    -0.033 A 
HETATM   37  C5  UNL     1      10.555   3.731  18.359  1.00  0.00     0.009 A 
HETATM   38  C4  UNL     1       9.511   4.644  18.367  1.00  0.00     0.002 A 
HETATM   39  C3  UNL     1       8.679   4.687  17.268  1.00  0.00     0.015 A 
HETATM   40  C2  UNL     1       8.863   3.846  16.163  1.00  0.00     0.005 A 
HETATM   41  C29 UNL     1       9.915   2.961  16.207  1.00  0.00     0.024 A 
BRANCH  40  42
HETATM   42  C1  UNL     1       7.965   3.926  15.048  1.00  0.00     0.120 C 
HETATM   43  N1  UNL     1       7.639   2.744  14.317  1.00  0.00    -0.082 NA
HETATM   44  N2  UNL     1       7.430   5.025  14.659  1.00  0.00    -0.387 N 
ATOM     45  H22 UNL     1       6.791   5.082  13.866  1.00  0.00     0.157 HD
ATOM     46  H21 UNL     1       7.662   5.869  15.181  1.00  0.00     0.157 HD
ENDBRANCH  40  42
ENDBRANCH  35  36
ENDBRANCH  34  35
ENDBRANCH   1  34
TORSDOF 11
ENDMDL
