MODEL 10
REMARK VINA RESULT: -9.636580615      1.632      2.173
REMARK  11 active torsions:
REMARK  status: ('A' for Active; 'I' for Inactive)
REMARK    1  A    between atoms: C1_2  and  C2_6 
REMARK    2  A    between atoms: C6_10  and  C7_11 
REMARK    3  A    between atoms: C7_11  and  O1_12 
REMARK    4  A    between atoms: O1_12  and  C8_13 
REMARK    5  A    between atoms: C10_15  and  O2_16 
REMARK    6  A    between atoms: O2_16  and  C11_17 
REMARK    7  A    between atoms: C11_17  and  C12_18 
REMARK    8  A    between atoms: C16_22  and  C17_23 
REMARK    9  A    between atoms: C20_30  and  C21_31 
REMARK       I    between atoms: C21_31  and  N5_33 
REMARK   10  A    between atoms: N5_33  and  C22_35 
REMARK   11  A    between atoms: C25_38  and  N6_39 
ROOT
HETATM    1  C8  UNL     1      18.735   5.977  26.384  1.00  0.00     0.072 A 
HETATM    2  C9  UNL     1      17.450   6.392  26.031  1.00  0.00     0.073 A 
HETATM    3  C10 UNL     1      16.939   6.151  24.781  1.00  0.00     0.072 A 
HETATM    4  C19 UNL     1      17.707   5.485  23.853  1.00  0.00     0.054 A 
HETATM    5  C20 UNL     1      18.996   5.054  24.165  1.00  0.00     0.037 A 
HETATM    6  C28 UNL     1      19.467   5.311  25.413  1.00  0.00     0.054 A 
ENDROOT
BRANCH   5   7
HETATM    7  C21 UNL     1      19.783   4.349  23.166  1.00  0.00     0.252 C 
HETATM    8  O3  UNL     1      19.264   4.123  22.014  1.00  0.00    -0.268 OA
HETATM    9  N5  UNL     1      21.109   3.893  23.409  1.00  0.00    -0.352 N 
ATOM     10  H5  UNL     1      21.553   4.062  24.312  1.00  0.00     0.163 HD
BRANCH   9  11
HETATM   11  C22 UNL     1      21.813   3.197  22.376  1.00  0.00     0.084 C 
HETATM   12  C23 UNL     1      23.180   3.839  22.164  1.00  0.00     0.027 C 
HETATM   13  C24 UNL     1      23.973   3.036  21.192  1.00  0.00     0.035 C 
HETATM   14  C25 UNL     1      23.212   1.991  20.440  1.00  0.00     0.183 C 
HETATM   15  C26 UNL     1      22.482   1.082  21.379  1.00  0.00     0.035 C 
HETATM   16  C27 UNL     1      22.062   1.755  22.670  1.00  0.00     0.027 C 
BRANCH  14  17
HETATM   17  N6  UNL     1      22.383   2.506  19.375  1.00  0.00    -0.075 N 
ATOM     18  H63 UNL     1      22.759   3.387  19.026  1.00  0.00     0.274 HD
ATOM     19  H62 UNL     1      22.481   1.929  18.539  1.00  0.00     0.274 HD
ATOM     20  H61 UNL     1      21.398   2.612  19.619  1.00  0.00     0.274 HD
ENDBRANCH  14  17
ENDBRANCH   9  11
ENDBRANCH   5   7
BRANCH   3  21
HETATM   21  O2  UNL     1      15.670   6.564  24.434  1.00  0.00    -0.347 OA
BRANCH  21  22
HETATM   22  C11 UNL     1      14.905   7.291  25.370  1.00  0.00     0.214 C 
BRANCH  22  23
HETATM   23  C12 UNL     1      14.752   8.655  24.823  1.00  0.00    -0.033 A 
HETATM   24  C13 UNL     1      15.117   8.975  23.535  1.00  0.00     0.009 A 
HETATM   25  C14 UNL     1      14.967  10.243  23.026  1.00  0.00     0.002 A 
HETATM   26  C15 UNL     1      14.436  11.221  23.828  1.00  0.00     0.015 A 
HETATM   27  C16 UNL     1      14.049  10.957  25.138  1.00  0.00     0.005 A 
HETATM   28  C18 UNL     1      14.217   9.683  25.599  1.00  0.00     0.024 A 
BRANCH  27  29
HETATM   29  C17 UNL     1      13.490  12.013  25.949  1.00  0.00     0.120 C 
HETATM   30  N3  UNL     1      13.911  13.359  25.683  1.00  0.00    -0.082 NA
HETATM   31  N4  UNL     1      12.649  11.757  26.873  1.00  0.00    -0.387 N 
ATOM     32  H42 UNL     1      12.350  10.801  27.061  1.00  0.00     0.157 HD
ATOM     33  H41 UNL     1      12.254  12.503  27.446  1.00  0.00     0.157 HD
ENDBRANCH  27  29
ENDBRANCH  22  23
ENDBRANCH  21  22
ENDBRANCH   3  21
BRANCH   1  34
HETATM   34  O1  UNL     1      19.213   6.239  27.657  1.00  0.00    -0.347 OA
BRANCH  34  35
HETATM   35  C7  UNL     1      19.134   7.499  28.289  1.00  0.00     0.214 C 
BRANCH  35  36
HETATM   36  C6  UNL     1      20.516   8.026  28.447  1.00  0.00    -0.033 A 
HETATM   37  C5  UNL     1      21.440   7.859  27.442  1.00  0.00     0.009 A 
HETATM   38  C4  UNL     1      22.740   8.330  27.558  1.00  0.00     0.002 A 
HETATM   39  C3  UNL     1      23.093   8.978  28.723  1.00  0.00     0.015 A 
HETATM   40  C2  UNL     1      22.186   9.170  29.772  1.00  0.00     0.005 A 
HETATM   41  C29 UNL     1      20.910   8.685  29.604  1.00  0.00     0.024 A 
BRANCH  40  42
HETATM   42  C1  UNL     1      22.606   9.844  30.966  1.00  0.00     0.120 C 
HETATM   43  N1  UNL     1      23.748  10.699  30.929  1.00  0.00    -0.082 NA
HETATM   44  N2  UNL     1      22.003   9.715  32.090  1.00  0.00    -0.387 N 
ATOM     45  H22 UNL     1      22.302  10.195  32.940  1.00  0.00     0.157 HD
ATOM     46  H21 UNL     1      21.187   9.105  32.116  1.00  0.00     0.157 HD
ENDBRANCH  40  42
ENDBRANCH  35  36
ENDBRANCH  34  35
ENDBRANCH   1  34
TORSDOF 11
ENDMDL
