MODEL 7
REMARK VINA RESULT: -9.661933745      1.473      8.536
REMARK  11 active torsions:
REMARK  status: ('A' for Active; 'I' for Inactive)
REMARK    1  A    between atoms: C1_2  and  C2_6 
REMARK    2  A    between atoms: C6_10  and  C7_11 
REMARK    3  A    between atoms: C7_11  and  O1_12 
REMARK    4  A    between atoms: O1_12  and  C8_13 
REMARK    5  A    between atoms: C10_15  and  O2_16 
REMARK    6  A    between atoms: O2_16  and  C11_17 
REMARK    7  A    between atoms: C11_17  and  C12_18 
REMARK    8  A    between atoms: C16_22  and  C17_23 
REMARK    9  A    between atoms: C20_30  and  C21_31 
REMARK       I    between atoms: C21_31  and  N5_33 
REMARK   10  A    between atoms: N5_33  and  C22_35 
REMARK   11  A    between atoms: C25_38  and  N6_39 
ROOT
HETATM    1  C8  UNL     1      19.376   4.845  24.122  1.00  0.00     0.072 A 
HETATM    2  C9  UNL     1      18.451   5.582  23.382  1.00  0.00     0.073 A 
HETATM    3  C10 UNL     1      18.046   6.831  23.784  1.00  0.00     0.072 A 
HETATM    4  C19 UNL     1      18.563   7.369  24.941  1.00  0.00     0.054 A 
HETATM    5  C20 UNL     1      19.489   6.665  25.709  1.00  0.00     0.037 A 
HETATM    6  C28 UNL     1      19.866   5.432  25.279  1.00  0.00     0.054 A 
ENDROOT
BRANCH   5   7
HETATM    7  C21 UNL     1      20.022   7.261  26.924  1.00  0.00     0.252 C 
HETATM    8  O3  UNL     1      19.205   7.630  27.843  1.00  0.00    -0.268 OA
HETATM    9  N5  UNL     1      21.414   7.455  27.142  1.00  0.00    -0.352 N 
ATOM     10  H5  UNL     1      22.091   7.166  26.435  1.00  0.00     0.163 HD
BRANCH   9  11
HETATM   11  C22 UNL     1      21.857   8.059  28.361  1.00  0.00     0.084 C 
HETATM   12  C23 UNL     1      22.604   7.028  29.202  1.00  0.00     0.027 C 
HETATM   13  C24 UNL     1      23.189   7.684  30.405  1.00  0.00     0.035 C 
HETATM   14  C25 UNL     1      22.709   9.071  30.687  1.00  0.00     0.183 C 
HETATM   15  C26 UNL     1      22.887   9.951  29.489  1.00  0.00     0.035 C 
HETATM   16  C27 UNL     1      22.789   9.209  28.171  1.00  0.00     0.027 C 
BRANCH  14  17
HETATM   17  N6  UNL     1      21.386   9.142  31.262  1.00  0.00    -0.075 N 
ATOM     18  H63 UNL     1      20.686   8.851  30.580  1.00  0.00     0.274 HD
ATOM     19  H62 UNL     1      21.264   8.409  31.962  1.00  0.00     0.274 HD
ATOM     20  H61 UNL     1      21.144  10.051  31.655  1.00  0.00     0.274 HD
ENDBRANCH  14  17
ENDBRANCH   9  11
ENDBRANCH   5   7
BRANCH   3  21
HETATM   21  O2  UNL     1      17.130   7.556  23.053  1.00  0.00    -0.347 OA
BRANCH  21  22
HETATM   22  C11 UNL     1      15.781   7.145  23.042  1.00  0.00     0.214 C 
BRANCH  22  23
HETATM   23  C12 UNL     1      15.096   7.912  24.103  1.00  0.00    -0.033 A 
HETATM   24  C13 UNL     1      14.593   7.310  25.235  1.00  0.00     0.009 A 
HETATM   25  C14 UNL     1      13.963   8.027  26.225  1.00  0.00     0.002 A 
HETATM   26  C15 UNL     1      13.832   9.384  26.080  1.00  0.00     0.015 A 
HETATM   27  C16 UNL     1      14.320  10.047  24.959  1.00  0.00     0.005 A 
HETATM   28  C18 UNL     1      14.939   9.294  24.002  1.00  0.00     0.024 A 
BRANCH  27  29
HETATM   29  C17 UNL     1      14.167  11.478  24.846  1.00  0.00     0.120 C 
HETATM   30  N3  UNL     1      14.892  12.151  23.806  1.00  0.00    -0.082 NA
HETATM   31  N4  UNL     1      13.413  12.124  25.646  1.00  0.00    -0.387 N 
ATOM     32  H42 UNL     1      12.898  11.646  26.385  1.00  0.00     0.157 HD
ATOM     33  H41 UNL     1      13.305  13.135  25.566  1.00  0.00     0.157 HD
ENDBRANCH  27  29
ENDBRANCH  22  23
ENDBRANCH  21  22
ENDBRANCH   3  21
BRANCH   1  34
HETATM   34  O1  UNL     1      19.760   3.589  23.681  1.00  0.00    -0.347 OA
BRANCH  34  35
HETATM   35  C7  UNL     1      19.316   3.004  22.475  1.00  0.00     0.214 C 
BRANCH  35  36
HETATM   36  C6  UNL     1      20.511   2.677  21.651  1.00  0.00    -0.033 A 
HETATM   37  C5  UNL     1      21.758   2.628  22.228  1.00  0.00     0.009 A 
HETATM   38  C4  UNL     1      22.895   2.335  21.490  1.00  0.00     0.002 A 
HETATM   39  C3  UNL     1      22.747   2.092  20.141  1.00  0.00     0.015 A 
HETATM   40  C2  UNL     1      21.497   2.131  19.511  1.00  0.00     0.005 A 
HETATM   41  C29 UNL     1      20.403   2.425  20.290  1.00  0.00     0.024 A 
BRANCH  40  42
HETATM   42  C1  UNL     1      21.398   1.878  18.103  1.00  0.00     0.120 C 
HETATM   43  N1  UNL     1      20.191   1.339  17.565  1.00  0.00    -0.082 NA
HETATM   44  N2  UNL     1      22.357   2.109  17.283  1.00  0.00    -0.387 N 
ATOM     45  H22 UNL     1      22.287   1.928  16.281  1.00  0.00     0.157 HD
ATOM     46  H21 UNL     1      23.220   2.493  17.667  1.00  0.00     0.157 HD
ENDBRANCH  40  42
ENDBRANCH  35  36
ENDBRANCH  34  35
ENDBRANCH   1  34
TORSDOF 11
ENDMDL
