MODEL 4
REMARK VINA RESULT: -7.860816652      3.996      9.004
REMARK  4 active torsions:
REMARK  status: ('A' for Active; 'I' for Inactive)
REMARK    1  A    between atoms: C1_2  and  C2_3 
REMARK       I    between atoms: C1_2  and  N1_14 
REMARK    2  A    between atoms: C2_3  and  C3_4 
REMARK    3  A    between atoms: C8_9  and  C9_10 
REMARK    4  A    between atoms: N2_17  and  C12_18 
ROOT
HETATM    1  O1  UNL     1     -17.457  15.932 -12.807  1.00  0.00    -0.273 OA
HETATM    2  C1  UNL     1     -17.548  16.324 -13.995  1.00  0.00     0.224 C 
HETATM    3  N1  UNL     1     -17.283  15.395 -15.027  1.00  0.00    -0.349 N 
HETATM    4  C10 UNL     1     -17.359  15.740 -16.436  1.00  0.00     0.145 C 
HETATM    5  C11 UNL     1     -16.111  15.180 -17.149  1.00  0.00     0.144 C 
HETATM    6  N2  UNL     1     -15.119  14.834 -16.127  1.00  0.00    -0.363 N 
HETATM    7  C21 UNL     1     -15.479  13.823 -15.149  1.00  0.00     0.144 C 
HETATM    8  C22 UNL     1     -16.918  14.034 -14.689  1.00  0.00     0.145 C 
ENDROOT
BRANCH   6   9
HETATM    9  C12 UNL     1     -13.864  15.487 -16.098  1.00  0.00     0.118 A 
HETATM   10  N3  UNL     1     -13.709  16.574 -15.301  1.00  0.00    -0.338 N 
HETATM   11  C13 UNL     1     -12.610  17.310 -15.186  1.00  0.00     0.182 A 
ATOM     12  H3  UNL     1     -14.512  16.852 -14.736  1.00  0.00     0.168 HD
HETATM   13  N4  UNL     1     -11.566  16.932 -15.934  1.00  0.00    -0.346 N 
HETATM   14  C14 UNL     1     -11.650  15.839 -16.765  1.00  0.00     0.089 A 
ATOM     15  H4  UNL     1     -10.696  17.463 -15.887  1.00  0.00     0.167 HD
HETATM   16  S1  UNL     1     -10.539  15.093 -17.828  1.00  0.00    -0.075 SA
HETATM   17  C17 UNL     1     -12.773  15.074 -16.891  1.00  0.00     0.049 A 
HETATM   18  C15 UNL     1     -11.518  13.827 -18.408  1.00  0.00    -0.008 A 
HETATM   19  C16 UNL     1     -12.698  14.015 -17.757  1.00  0.00    -0.028 A 
HETATM   20  C20 UNL     1     -11.584  12.617 -19.327  1.00  0.00     0.047 C 
HETATM   21  C18 UNL     1     -13.614  12.892 -18.235  1.00  0.00     0.041 C 
HETATM   22  C19 UNL     1     -12.669  11.818 -18.638  1.00  0.00     0.010 C 
ENDBRANCH   6   9
BRANCH   2  23
HETATM   23  C2  UNL     1     -17.924  17.722 -14.303  1.00  0.00     0.142 C 
BRANCH  23  24
HETATM   24  C3  UNL     1     -19.166  18.179 -13.668  1.00  0.00    -0.034 A 
HETATM   25  C4  UNL     1     -19.143  18.465 -12.329  1.00  0.00     0.008 A 
HETATM   26  C5  UNL     1     -20.278  18.866 -11.691  1.00  0.00     0.001 A 
HETATM   27  C6  UNL     1     -21.491  19.002 -12.363  1.00  0.00     0.001 A 
HETATM   28  C7  UNL     1     -21.474  18.707 -13.705  1.00  0.00     0.017 A 
HETATM   29  C8  UNL     1     -20.340  18.295 -14.393  1.00  0.00     0.054 A 
BRANCH  29  30
HETATM   30  C9  UNL     1     -20.414  18.023 -15.865  1.00  0.00     0.418 C 
HETATM   31  F1  UNL     1     -19.468  18.787 -16.565  1.00  0.00    -0.166 F 
HETATM   32  F2  UNL     1     -21.639  18.569 -16.297  1.00  0.00    -0.166 F 
HETATM   33  F3  UNL     1     -20.364  16.699 -16.166  1.00  0.00    -0.166 F 
ENDBRANCH  29  30
ENDBRANCH  23  24
ENDBRANCH   2  23
TORSDOF 4
ENDMDL
