MODEL 5
REMARK VINA RESULT: -7.285725036      6.744      9.091
REMARK  4 active torsions:
REMARK  status: ('A' for Active; 'I' for Inactive)
REMARK    1  A    between atoms: C1_2  and  C2_3 
REMARK       I    between atoms: C1_2  and  N1_14 
REMARK    2  A    between atoms: C2_3  and  C3_4 
REMARK    3  A    between atoms: C8_9  and  C9_10 
REMARK    4  A    between atoms: N2_17  and  C12_18 
ROOT
HETATM    1  O1  UNL     1     -12.457  12.771 -18.504  1.00  0.00    -0.273 OA
HETATM    2  C1  UNL     1     -13.614  12.811 -18.022  1.00  0.00     0.224 C 
HETATM    3  N1  UNL     1     -14.237  11.590 -17.676  1.00  0.00    -0.349 N 
HETATM    4  C10 UNL     1     -15.574  11.520 -17.111  1.00  0.00     0.145 C 
HETATM    5  C11 UNL     1     -16.361  10.415 -17.844  1.00  0.00     0.144 C 
HETATM    6  N2  UNL     1     -15.641  10.083 -19.078  1.00  0.00    -0.363 N 
HETATM    7  C21 UNL     1     -14.291   9.564 -18.955  1.00  0.00     0.144 C 
HETATM    8  C22 UNL     1     -13.531  10.342 -17.885  1.00  0.00     0.145 C 
ENDROOT
BRANCH   6   9
HETATM    9  C12 UNL     1     -16.252  10.285 -20.338  1.00  0.00     0.118 A 
HETATM   10  N3  UNL     1     -15.612  11.048 -21.261  1.00  0.00    -0.338 N 
HETATM   11  C13 UNL     1     -16.063  11.355 -22.471  1.00  0.00     0.182 A 
ATOM     12  H3  UNL     1     -14.699  11.420 -21.001  1.00  0.00     0.168 HD
HETATM   13  N4  UNL     1     -17.263  10.859 -22.796  1.00  0.00    -0.346 N 
HETATM   14  C14 UNL     1     -17.969  10.077 -21.912  1.00  0.00     0.089 A 
ATOM     15  H4  UNL     1     -17.660  11.065 -23.714  1.00  0.00     0.167 HD
HETATM   16  S1  UNL     1     -19.486   9.296 -21.999  1.00  0.00    -0.075 SA
HETATM   17  C17 UNL     1     -17.516   9.753 -20.666  1.00  0.00     0.049 A 
HETATM   18  C15 UNL     1     -19.515   8.574 -20.457  1.00  0.00    -0.008 A 
HETATM   19  C16 UNL     1     -18.333   8.961 -19.904  1.00  0.00    -0.028 A 
HETATM   20  C20 UNL     1     -20.310   7.699 -19.500  1.00  0.00     0.047 C 
HETATM   21  C18 UNL     1     -18.302   8.327 -18.516  1.00  0.00     0.041 C 
HETATM   22  C19 UNL     1     -19.186   7.140 -18.654  1.00  0.00     0.010 C 
ENDBRANCH   6   9
BRANCH   2  23
HETATM   23  C2  UNL     1     -14.305  14.104 -17.823  1.00  0.00     0.142 C 
BRANCH  23  24
HETATM   24  C3  UNL     1     -13.579  15.067 -16.985  1.00  0.00    -0.034 A 
HETATM   25  C4  UNL     1     -12.556  15.778 -17.552  1.00  0.00     0.008 A 
HETATM   26  C5  UNL     1     -11.836  16.663 -16.806  1.00  0.00     0.001 A 
HETATM   27  C6  UNL     1     -12.106  16.879 -15.457  1.00  0.00     0.001 A 
HETATM   28  C7  UNL     1     -13.141  16.147 -14.924  1.00  0.00     0.017 A 
HETATM   29  C8  UNL     1     -13.899  15.236 -15.648  1.00  0.00     0.054 A 
BRANCH  29  30
HETATM   30  C9  UNL     1     -15.026  14.505 -14.986  1.00  0.00     0.418 C 
HETATM   31  F1  UNL     1     -16.212  14.634 -15.725  1.00  0.00    -0.166 F 
HETATM   32  F2  UNL     1     -15.313  15.224 -13.808  1.00  0.00    -0.166 F 
HETATM   33  F3  UNL     1     -14.721  13.217 -14.680  1.00  0.00    -0.166 F 
ENDBRANCH  29  30
ENDBRANCH  23  24
ENDBRANCH   2  23
TORSDOF 4
ENDMDL
