MODEL 3
REMARK VINA RESULT: -8.259608761      4.762      9.690
REMARK  4 active torsions:
REMARK  status: ('A' for Active; 'I' for Inactive)
REMARK    1  A    between atoms: C1_2  and  C2_3 
REMARK       I    between atoms: C1_2  and  N1_14 
REMARK    2  A    between atoms: C2_3  and  C3_4 
REMARK    3  A    between atoms: C8_9  and  C9_10 
REMARK    4  A    between atoms: N2_17  and  C12_18 
ROOT
HETATM    1  O1  UNL     1     -14.928  15.116 -13.573  1.00  0.00    -0.273 OA
HETATM    2  C1  UNL     1     -15.315  15.313 -14.749  1.00  0.00     0.224 C 
HETATM    3  N1  UNL     1     -14.909  14.399 -15.749  1.00  0.00    -0.349 N 
HETATM    4  C10 UNL     1     -15.299  14.532 -17.142  1.00  0.00     0.145 C 
HETATM    5  C11 UNL     1     -14.053  14.316 -18.025  1.00  0.00     0.144 C 
HETATM    6  N2  UNL     1     -12.865  14.427 -17.174  1.00  0.00    -0.363 N 
HETATM    7  C21 UNL     1     -12.723  13.478 -16.084  1.00  0.00     0.144 C 
HETATM    8  C22 UNL     1     -14.067  13.276 -15.392  1.00  0.00     0.145 C 
ENDROOT
BRANCH   6   9
HETATM    9  C12 UNL     1     -11.908  15.442 -17.410  1.00  0.00     0.118 A 
HETATM   10  N3  UNL     1     -12.039  16.629 -16.763  1.00  0.00    -0.338 N 
HETATM   11  C13 UNL     1     -11.247  17.685 -16.898  1.00  0.00     0.182 A 
ATOM     12  H3  UNL     1     -12.819  16.717 -16.112  1.00  0.00     0.168 HD
HETATM   13  N4  UNL     1     -10.229  17.552 -17.757  1.00  0.00    -0.346 N 
HETATM   14  C14 UNL     1     -10.033  16.379 -18.448  1.00  0.00     0.089 A 
ATOM     15  H4  UNL     1      -9.588  18.334 -17.902  1.00  0.00     0.167 HD
HETATM   16  S1  UNL     1      -8.864  15.876 -19.588  1.00  0.00    -0.075 SA
HETATM   17  C17 UNL     1     -10.839  15.285 -18.317  1.00  0.00     0.049 A 
HETATM   18  C15 UNL     1      -9.419  14.292 -19.873  1.00  0.00    -0.008 A 
HETATM   19  C16 UNL     1     -10.511  14.189 -19.069  1.00  0.00    -0.028 A 
HETATM   20  C20 UNL     1      -9.177  13.001 -20.640  1.00  0.00     0.047 C 
HETATM   21  C18 UNL     1     -11.044  12.774 -19.279  1.00  0.00     0.041 C 
HETATM   22  C19 UNL     1      -9.845  12.010 -19.712  1.00  0.00     0.010 C 
ENDBRANCH   6   9
BRANCH   2  23
HETATM   23  C2  UNL     1     -16.175  16.472 -15.078  1.00  0.00     0.142 C 
BRANCH  23  24
HETATM   24  C3  UNL     1     -17.617  16.221 -14.958  1.00  0.00    -0.034 A 
HETATM   25  C4  UNL     1     -18.072  14.947 -15.167  1.00  0.00     0.008 A 
HETATM   26  C5  UNL     1     -19.405  14.673 -15.093  1.00  0.00     0.001 A 
HETATM   27  C6  UNL     1     -20.346  15.660 -14.805  1.00  0.00     0.001 A 
HETATM   28  C7  UNL     1     -19.849  16.925 -14.601  1.00  0.00     0.017 A 
HETATM   29  C8  UNL     1     -18.500  17.247 -14.666  1.00  0.00     0.054 A 
BRANCH  29  30
HETATM   30  C9  UNL     1     -18.051  18.652 -14.401  1.00  0.00     0.418 C 
HETATM   31  F1  UNL     1     -18.592  19.133 -13.198  1.00  0.00    -0.166 F 
HETATM   32  F2  UNL     1     -18.688  19.450 -15.371  1.00  0.00    -0.166 F 
HETATM   33  F3  UNL     1     -16.703  18.806 -14.483  1.00  0.00    -0.166 F 
ENDBRANCH  29  30
ENDBRANCH  23  24
ENDBRANCH   2  23
TORSDOF 4
ENDMDL
