MODEL 1
REMARK VINA RESULT: -10.214058490      0.000      0.000
REMARK  9 active torsions:
REMARK  status: ('A' for Active; 'I' for Inactive)
REMARK    1  A    between atoms: C1_2  and  C2_6 
REMARK    2  A    between atoms: C5_9  and  O1_10 
REMARK    3  A    between atoms: O1_10  and  C6_11 
REMARK    4  A    between atoms: C8_13  and  O2_14 
REMARK    5  A    between atoms: O2_14  and  C9_15 
REMARK    6  A    between atoms: C12_18  and  C13_19 
REMARK    7  A    between atoms: C17_27  and  C18_28 
REMARK       I    between atoms: C18_28  and  N5_30 
REMARK    8  A    between atoms: N5_30  and  C19_32 
REMARK    9  A    between atoms: C22_35  and  N6_36 
ROOT
HETATM    1  C6  UNL     1      17.725   5.005  23.247  1.00  0.00     0.079 A 
HETATM    2  C7  UNL     1      16.995   6.065  22.751  1.00  0.00     0.074 A 
HETATM    3  C8  UNL     1      17.091   7.296  23.359  1.00  0.00     0.079 A 
HETATM    4  C16 UNL     1      17.914   7.504  24.475  1.00  0.00     0.054 A 
HETATM    5  C17 UNL     1      18.646   6.451  24.977  1.00  0.00     0.037 A 
HETATM    6  C25 UNL     1      18.536   5.227  24.355  1.00  0.00     0.054 A 
ENDROOT
BRANCH   5   7
HETATM    7  C18 UNL     1      19.515   6.644  26.135  1.00  0.00     0.252 C 
HETATM    8  O3  UNL     1      20.391   5.785  26.430  1.00  0.00    -0.268 OA
HETATM    9  N5  UNL     1      19.441   7.771  26.980  1.00  0.00    -0.352 N 
ATOM     10  H5  UNL     1      18.750   8.496  26.785  1.00  0.00     0.163 HD
BRANCH   9  11
HETATM   11  C19 UNL     1      20.320   7.923  28.113  1.00  0.00     0.084 C 
HETATM   12  C20 UNL     1      21.522   8.790  27.809  1.00  0.00     0.027 C 
HETATM   13  C21 UNL     1      22.515   8.561  28.951  1.00  0.00     0.035 C 
HETATM   14  C22 UNL     1      21.929   8.943  30.271  1.00  0.00     0.183 C 
HETATM   15  C23 UNL     1      20.566   8.377  30.510  1.00  0.00     0.035 C 
HETATM   16  C24 UNL     1      19.639   8.506  29.331  1.00  0.00     0.027 C 
BRANCH  14  17
HETATM   17  N6  UNL     1      22.798   8.462  31.326  1.00  0.00    -0.075 N 
ATOM     18  H63 UNL     1      22.313   7.844  31.977  1.00  0.00     0.274 HD
ATOM     19  H62 UNL     1      23.491   7.795  30.986  1.00  0.00     0.274 HD
ATOM     20  H61 UNL     1      23.224   9.262  31.793  1.00  0.00     0.274 HD
ENDBRANCH  14  17
ENDBRANCH   9  11
ENDBRANCH   5   7
BRANCH   3  21
HETATM   21  O2  UNL     1      16.331   8.338  22.817  1.00  0.00    -0.311 OA
BRANCH  21  22
HETATM   22  C9  UNL     1      15.611   9.213  23.589  1.00  0.00     0.076 A 
HETATM   23  C10 UNL     1      15.485  10.518  23.170  1.00  0.00     0.038 A 
HETATM   24  C11 UNL     1      14.777  11.443  23.897  1.00  0.00     0.017 A 
HETATM   25  C12 UNL     1      14.147  11.109  25.099  1.00  0.00     0.005 A 
HETATM   26  C14 UNL     1      14.277   9.808  25.508  1.00  0.00     0.017 A 
HETATM   27  C15 UNL     1      15.002   8.866  24.762  1.00  0.00     0.038 A 
BRANCH  25  28
HETATM   28  C13 UNL     1      13.411  12.112  25.834  1.00  0.00     0.120 C 
HETATM   29  N3  UNL     1      13.574  13.490  25.469  1.00  0.00    -0.082 NA
HETATM   30  N4  UNL     1      12.631  11.772  26.791  1.00  0.00    -0.387 N 
ATOM     31  H42 UNL     1      12.515  10.792  27.051  1.00  0.00     0.157 HD
ATOM     32  H41 UNL     1      12.112  12.480  27.310  1.00  0.00     0.157 HD
ENDBRANCH  25  28
ENDBRANCH  21  22
ENDBRANCH   3  21
BRANCH   1  33
HETATM   33  O1  UNL     1      17.647   3.771  22.660  1.00  0.00    -0.311 OA
BRANCH  33  34
HETATM   34  C5  UNL     1      18.307   3.392  21.500  1.00  0.00     0.076 A 
HETATM   35  C4  UNL     1      17.682   3.338  20.274  1.00  0.00     0.038 A 
HETATM   36  C3  UNL     1      18.360   2.959  19.138  1.00  0.00     0.017 A 
HETATM   37  C2  UNL     1      19.719   2.607  19.159  1.00  0.00     0.005 A 
HETATM   38  C27 UNL     1      20.337   2.664  20.387  1.00  0.00     0.017 A 
HETATM   39  C26 UNL     1      19.640   3.052  21.543  1.00  0.00     0.038 A 
BRANCH  37  40
HETATM   40  C1  UNL     1      20.396   2.214  17.940  1.00  0.00     0.120 C 
HETATM   41  N1  UNL     1      19.632   1.690  16.871  1.00  0.00    -0.082 NA
HETATM   42  N2  UNL     1      21.651   2.330  17.822  1.00  0.00    -0.387 N 
ATOM     43  H22 UNL     1      22.128   2.053  16.964  1.00  0.00     0.157 HD
ATOM     44  H21 UNL     1      22.201   2.708  18.594  1.00  0.00     0.157 HD
ENDBRANCH  37  40
ENDBRANCH  33  34
ENDBRANCH   1  33
TORSDOF 9
ENDMDL
