MODEL 4
REMARK VINA RESULT: -10.177951617      2.517      3.021
REMARK  9 active torsions:
REMARK  status: ('A' for Active; 'I' for Inactive)
REMARK    1  A    between atoms: C1_2  and  C2_6 
REMARK    2  A    between atoms: C5_9  and  O1_10 
REMARK    3  A    between atoms: O1_10  and  C6_11 
REMARK    4  A    between atoms: C8_13  and  O2_14 
REMARK    5  A    between atoms: O2_14  and  C9_15 
REMARK    6  A    between atoms: C12_18  and  C13_19 
REMARK    7  A    between atoms: C17_27  and  C18_28 
REMARK       I    between atoms: C18_28  and  N5_30 
REMARK    8  A    between atoms: N5_30  and  C19_32 
REMARK    9  A    between atoms: C22_35  and  N6_36 
ROOT
HETATM    1  C6  UNL     1      18.731   5.519  23.565  1.00  0.00     0.079 A 
HETATM    2  C7  UNL     1      17.575   6.135  23.132  1.00  0.00     0.074 A 
HETATM    3  C8  UNL     1      17.036   7.161  23.876  1.00  0.00     0.079 A 
HETATM    4  C16 UNL     1      17.632   7.600  25.066  1.00  0.00     0.054 A 
HETATM    5  C17 UNL     1      18.786   6.990  25.506  1.00  0.00     0.037 A 
HETATM    6  C25 UNL     1      19.309   5.966  24.749  1.00  0.00     0.054 A 
ENDROOT
BRANCH   5   7
HETATM    7  C18 UNL     1      19.429   7.434  26.740  1.00  0.00     0.252 C 
HETATM    8  O3  UNL     1      18.736   7.776  27.737  1.00  0.00    -0.268 OA
HETATM    9  N5  UNL     1      20.829   7.507  26.902  1.00  0.00    -0.352 N 
ATOM     10  H5  UNL     1      21.435   7.240  26.125  1.00  0.00     0.163 HD
BRANCH   9  11
HETATM   11  C19 UNL     1      21.423   7.950  28.139  1.00  0.00     0.084 C 
HETATM   12  C20 UNL     1      22.277   6.885  28.791  1.00  0.00     0.027 C 
HETATM   13  C21 UNL     1      22.527   7.356  30.225  1.00  0.00     0.035 C 
HETATM   14  C22 UNL     1      23.237   8.670  30.254  1.00  0.00     0.183 C 
HETATM   15  C23 UNL     1      22.629   9.702  29.359  1.00  0.00     0.035 C 
HETATM   16  C24 UNL     1      22.280   9.186  27.988  1.00  0.00     0.027 C 
BRANCH  14  17
HETATM   17  N6  UNL     1      23.208   9.189  31.607  1.00  0.00    -0.075 N 
ATOM     18  H63 UNL     1      23.667  10.097  31.685  1.00  0.00     0.274 HD
ATOM     19  H62 UNL     1      22.273   9.477  31.894  1.00  0.00     0.274 HD
ATOM     20  H61 UNL     1      23.611   8.493  32.236  1.00  0.00     0.274 HD
ENDBRANCH  14  17
ENDBRANCH   9  11
ENDBRANCH   5   7
BRANCH   3  21
HETATM   21  O2  UNL     1      15.863   7.752  23.393  1.00  0.00    -0.311 OA
BRANCH  21  22
HETATM   22  C9  UNL     1      15.238   8.793  24.030  1.00  0.00     0.076 A 
HETATM   23  C10 UNL     1      15.362  10.060  23.510  1.00  0.00     0.038 A 
HETATM   24  C11 UNL     1      14.760  11.144  24.100  1.00  0.00     0.017 A 
HETATM   25  C12 UNL     1      13.990  11.018  25.260  1.00  0.00     0.005 A 
HETATM   26  C14 UNL     1      13.872   9.752  25.772  1.00  0.00     0.017 A 
HETATM   27  C15 UNL     1      14.489   8.647  25.164  1.00  0.00     0.038 A 
BRANCH  25  28
HETATM   28  C13 UNL     1      13.373  12.183  25.850  1.00  0.00     0.120 C 
HETATM   29  N3  UNL     1      13.679  13.475  25.305  1.00  0.00    -0.082 NA
HETATM   30  N4  UNL     1      12.571  12.060  26.841  1.00  0.00    -0.387 N 
ATOM     31  H42 UNL     1      12.353  11.142  27.229  1.00  0.00     0.157 HD
ATOM     32  H41 UNL     1      12.136  12.883  27.257  1.00  0.00     0.157 HD
ENDBRANCH  25  28
ENDBRANCH  21  22
ENDBRANCH   3  21
BRANCH   1  33
HETATM   33  O1  UNL     1      19.287   4.497  22.845  1.00  0.00    -0.311 OA
BRANCH  33  34
HETATM   34  C5  UNL     1      20.608   4.084  22.931  1.00  0.00     0.076 A 
HETATM   35  C4  UNL     1      21.043   3.171  23.867  1.00  0.00     0.038 A 
HETATM   36  C3  UNL     1      22.359   2.778  23.930  1.00  0.00     0.017 A 
HETATM   37  C2  UNL     1      23.333   3.278  23.053  1.00  0.00     0.005 A 
HETATM   38  C27 UNL     1      22.894   4.188  22.120  1.00  0.00     0.017 A 
HETATM   39  C26 UNL     1      21.548   4.586  22.060  1.00  0.00     0.038 A 
BRANCH  37  40
HETATM   40  C1  UNL     1      24.710   2.837  23.153  1.00  0.00     0.120 C 
HETATM   41  N1  UNL     1      25.112   1.680  22.446  1.00  0.00    -0.082 NA
HETATM   42  N2  UNL     1      25.549   3.468  23.860  1.00  0.00    -0.387 N 
ATOM     43  H22 UNL     1      26.518   3.158  23.931  1.00  0.00     0.157 HD
ATOM     44  H21 UNL     1      25.259   4.303  24.370  1.00  0.00     0.157 HD
ENDBRANCH  37  40
ENDBRANCH  33  34
ENDBRANCH   1  33
TORSDOF 9
ENDMDL
