MODEL 3
REMARK VINA RESULT: -10.188838806      0.267      8.379
REMARK  9 active torsions:
REMARK  status: ('A' for Active; 'I' for Inactive)
REMARK    1  A    between atoms: C1_2  and  C2_6 
REMARK    2  A    between atoms: C5_9  and  O1_10 
REMARK    3  A    between atoms: O1_10  and  C6_11 
REMARK    4  A    between atoms: C8_13  and  O2_14 
REMARK    5  A    between atoms: O2_14  and  C9_15 
REMARK    6  A    between atoms: C12_18  and  C13_19 
REMARK    7  A    between atoms: C17_27  and  C18_28 
REMARK       I    between atoms: C18_28  and  N5_30 
REMARK    8  A    between atoms: N5_30  and  C19_32 
REMARK    9  A    between atoms: C22_35  and  N6_36 
ROOT
HETATM    1  C6  UNL     1      17.311   7.092  23.287  1.00  0.00     0.079 A 
HETATM    2  C7  UNL     1      17.233   5.826  22.744  1.00  0.00     0.074 A 
HETATM    3  C8  UNL     1      17.960   4.802  23.309  1.00  0.00     0.079 A 
HETATM    4  C16 UNL     1      18.782   5.011  24.425  1.00  0.00     0.054 A 
HETATM    5  C17 UNL     1      18.866   6.272  24.972  1.00  0.00     0.037 A 
HETATM    6  C25 UNL     1      18.131   7.283  24.394  1.00  0.00     0.054 A 
ENDROOT
BRANCH   5   7
HETATM    7  C18 UNL     1      19.711   6.514  26.139  1.00  0.00     0.252 C 
HETATM    8  O3  UNL     1      20.557   5.653  26.508  1.00  0.00    -0.268 OA
HETATM    9  N5  UNL     1      19.645   7.691  26.914  1.00  0.00    -0.352 N 
ATOM     10  H5  UNL     1      18.977   8.419  26.658  1.00  0.00     0.163 HD
BRANCH   9  11
HETATM   11  C19 UNL     1      20.499   7.890  28.059  1.00  0.00     0.084 C 
HETATM   12  C20 UNL     1      21.671   8.800  27.763  1.00  0.00     0.027 C 
HETATM   13  C21 UNL     1      22.654   8.623  28.922  1.00  0.00     0.035 C 
HETATM   14  C22 UNL     1      22.032   8.996  30.229  1.00  0.00     0.183 C 
HETATM   15  C23 UNL     1      20.689   8.380  30.454  1.00  0.00     0.035 C 
HETATM   16  C24 UNL     1      19.777   8.459  29.259  1.00  0.00     0.027 C 
BRANCH  14  17
HETATM   17  N6  UNL     1      22.903   8.561  31.302  1.00  0.00    -0.075 N 
ATOM     18  H63 UNL     1      23.300   7.637  31.131  1.00  0.00     0.274 HD
ATOM     19  H62 UNL     1      23.775   9.087  31.334  1.00  0.00     0.274 HD
ATOM     20  H61 UNL     1      22.389   8.607  32.183  1.00  0.00     0.274 HD
ENDBRANCH  14  17
ENDBRANCH   9  11
ENDBRANCH   5   7
BRANCH   3  21
HETATM   21  O2  UNL     1      17.846   3.538  22.721  1.00  0.00    -0.311 OA
BRANCH  21  22
HETATM   22  C9  UNL     1      18.410   3.226  21.511  1.00  0.00     0.076 A 
HETATM   23  C10 UNL     1      19.772   3.038  21.444  1.00  0.00     0.038 A 
HETATM   24  C11 UNL     1      20.398   2.724  20.262  1.00  0.00     0.017 A 
HETATM   25  C12 UNL     1      19.687   2.578  19.068  1.00  0.00     0.005 A 
HETATM   26  C14 UNL     1      18.332   2.767  19.145  1.00  0.00     0.017 A 
HETATM   27  C15 UNL     1      17.696   3.088  20.354  1.00  0.00     0.038 A 
BRANCH  25  28
HETATM   28  C13 UNL     1      20.384   2.247  17.846  1.00  0.00     0.120 C 
HETATM   29  N3  UNL     1      21.799   2.016  17.902  1.00  0.00    -0.082 NA
HETATM   30  N4  UNL     1      19.746   2.163  16.739  1.00  0.00    -0.387 N 
ATOM     31  H42 UNL     1      18.740   2.327  16.699  1.00  0.00     0.157 HD
ATOM     32  H41 UNL     1      20.238   1.929  15.877  1.00  0.00     0.157 HD
ENDBRANCH  25  28
ENDBRANCH  21  22
ENDBRANCH   3  21
BRANCH   1  33
HETATM   33  O1  UNL     1      16.597   8.127  22.746  1.00  0.00    -0.311 OA
BRANCH  33  34
HETATM   34  C5  UNL     1      15.846   9.045  23.465  1.00  0.00     0.076 A 
HETATM   35  C4  UNL     1      15.245   8.735  24.665  1.00  0.00     0.038 A 
HETATM   36  C3  UNL     1      14.504   9.665  25.358  1.00  0.00     0.017 A 
HETATM   37  C2  UNL     1      14.317  10.974  24.889  1.00  0.00     0.005 A 
HETATM   38  C27 UNL     1      14.920  11.277  23.691  1.00  0.00     0.017 A 
HETATM   39  C26 UNL     1      15.675  10.324  22.988  1.00  0.00     0.038 A 
BRANCH  37  40
HETATM   40  C1  UNL     1      13.530  11.923  25.651  1.00  0.00     0.120 C 
HETATM   41  N1  UNL     1      13.645  13.302  25.356  1.00  0.00    -0.082 NA
HETATM   42  N2  UNL     1      12.748  11.537  26.569  1.00  0.00    -0.387 N 
ATOM     43  H22 UNL     1      12.194  12.205  27.105  1.00  0.00     0.157 HD
ATOM     44  H21 UNL     1      12.665  10.542  26.781  1.00  0.00     0.157 HD
ENDBRANCH  37  40
ENDBRANCH  33  34
ENDBRANCH   1  33
TORSDOF 9
ENDMDL
