MODEL 5
REMARK VINA RESULT: -10.126357088      2.493      8.641
REMARK  9 active torsions:
REMARK  status: ('A' for Active; 'I' for Inactive)
REMARK    1  A    between atoms: C1_2  and  C2_6 
REMARK    2  A    between atoms: C5_9  and  O1_10 
REMARK    3  A    between atoms: O1_10  and  C6_11 
REMARK    4  A    between atoms: C8_13  and  O2_14 
REMARK    5  A    between atoms: O2_14  and  C9_15 
REMARK    6  A    between atoms: C12_18  and  C13_19 
REMARK    7  A    between atoms: C17_27  and  C18_28 
REMARK       I    between atoms: C18_28  and  N5_30 
REMARK    8  A    between atoms: N5_30  and  C19_32 
REMARK    9  A    between atoms: C22_35  and  N6_36 
ROOT
HETATM    1  C6  UNL     1      16.987   7.091  23.811  1.00  0.00     0.079 A 
HETATM    2  C7  UNL     1      17.547   6.054  23.094  1.00  0.00     0.074 A 
HETATM    3  C8  UNL     1      18.703   5.461  23.552  1.00  0.00     0.079 A 
HETATM    4  C16 UNL     1      19.329   5.884  24.733  1.00  0.00     0.054 A 
HETATM    5  C17 UNL     1      18.777   6.919  25.455  1.00  0.00     0.037 A 
HETATM    6  C25 UNL     1      17.621   7.499  24.980  1.00  0.00     0.054 A 
ENDROOT
BRANCH   5   7
HETATM    7  C18 UNL     1      19.408   7.373  26.692  1.00  0.00     0.252 C 
HETATM    8  O3  UNL     1      18.706   7.780  27.657  1.00  0.00    -0.268 OA
HETATM    9  N5  UNL     1      20.805   7.388  26.889  1.00  0.00    -0.352 N 
ATOM     10  H5  UNL     1      21.418   7.068  26.138  1.00  0.00     0.163 HD
BRANCH   9  11
HETATM   11  C19 UNL     1      21.387   7.844  28.126  1.00  0.00     0.084 C 
HETATM   12  C20 UNL     1      22.260   6.797  28.782  1.00  0.00     0.027 C 
HETATM   13  C21 UNL     1      22.497   7.275  30.217  1.00  0.00     0.035 C 
HETATM   14  C22 UNL     1      23.180   8.603  30.246  1.00  0.00     0.183 C 
HETATM   15  C23 UNL     1      22.554   9.621  29.348  1.00  0.00     0.035 C 
HETATM   16  C24 UNL     1      22.219   9.097  27.977  1.00  0.00     0.027 C 
BRANCH  14  17
HETATM   17  N6  UNL     1      23.138   9.123  31.598  1.00  0.00    -0.075 N 
ATOM     18  H63 UNL     1      22.201   9.086  31.999  1.00  0.00     0.274 HD
ATOM     19  H62 UNL     1      23.602   8.508  32.266  1.00  0.00     0.274 HD
ATOM     20  H61 UNL     1      23.527  10.066  31.601  1.00  0.00     0.274 HD
ENDBRANCH  14  17
ENDBRANCH   9  11
ENDBRANCH   5   7
BRANCH   3  21
HETATM   21  O2  UNL     1      19.230   4.415  22.788  1.00  0.00    -0.311 OA
BRANCH  21  22
HETATM   22  C9  UNL     1      20.529   3.991  22.902  1.00  0.00     0.076 A 
HETATM   23  C10 UNL     1      21.485   4.561  22.093  1.00  0.00     0.038 A 
HETATM   24  C11 UNL     1      22.804   4.182  22.159  1.00  0.00     0.017 A 
HETATM   25  C12 UNL     1      23.244   3.199  23.049  1.00  0.00     0.005 A 
HETATM   26  C14 UNL     1      22.285   2.637  23.851  1.00  0.00     0.017 A 
HETATM   27  C15 UNL     1      20.939   3.028  23.780  1.00  0.00     0.038 A 
BRANCH  25  28
HETATM   28  C13 UNL     1      24.640   2.828  23.087  1.00  0.00     0.120 C 
HETATM   29  N3  UNL     1      25.036   1.578  22.505  1.00  0.00    -0.082 NA
HETATM   30  N4  UNL     1      25.502   3.604  23.630  1.00  0.00    -0.387 N 
ATOM     31  H42 UNL     1      25.221   4.493  24.043  1.00  0.00     0.157 HD
ATOM     32  H41 UNL     1      26.487   3.342  23.656  1.00  0.00     0.157 HD
ENDBRANCH  25  28
ENDBRANCH  21  22
ENDBRANCH   3  21
BRANCH   1  33
HETATM   33  O1  UNL     1      15.839   7.697  23.378  1.00  0.00    -0.311 OA
BRANCH  33  34
HETATM   34  C5  UNL     1      15.245   8.803  23.968  1.00  0.00     0.076 A 
HETATM   35  C4  UNL     1      15.352  10.072  23.443  1.00  0.00     0.038 A 
HETATM   36  C3  UNL     1      14.753  11.153  24.049  1.00  0.00     0.017 A 
HETATM   37  C2  UNL     1      14.003  11.030  25.228  1.00  0.00     0.005 A 
HETATM   38  C27 UNL     1      13.899   9.760  25.747  1.00  0.00     0.017 A 
HETATM   39  C26 UNL     1      14.513   8.660  25.124  1.00  0.00     0.038 A 
BRANCH  37  40
HETATM   40  C1  UNL     1      13.388  12.193  25.834  1.00  0.00     0.120 C 
HETATM   41  N1  UNL     1      13.668  13.473  25.299  1.00  0.00    -0.082 NA
HETATM   42  N2  UNL     1      12.612  12.081  26.828  1.00  0.00    -0.387 N 
ATOM     43  H22 UNL     1      12.179  12.900  27.254  1.00  0.00     0.157 HD
ATOM     44  H21 UNL     1      12.410  11.158  27.213  1.00  0.00     0.157 HD
ENDBRANCH  37  40
ENDBRANCH  33  34
ENDBRANCH   1  33
TORSDOF 9
ENDMDL
