MODEL 11
REMARK VINA RESULT: -9.809082137      1.084      8.312
REMARK  9 active torsions:
REMARK  status: ('A' for Active; 'I' for Inactive)
REMARK    1  A    between atoms: C1_2  and  C2_6 
REMARK    2  A    between atoms: C5_9  and  O1_10 
REMARK    3  A    between atoms: O1_10  and  C6_11 
REMARK    4  A    between atoms: C8_13  and  O2_14 
REMARK    5  A    between atoms: O2_14  and  C9_15 
REMARK    6  A    between atoms: C12_18  and  C13_19 
REMARK    7  A    between atoms: C17_27  and  C18_28 
REMARK       I    between atoms: C18_28  and  N5_30 
REMARK    8  A    between atoms: N5_30  and  C19_32 
REMARK    9  A    between atoms: C22_35  and  N6_36 
ROOT
HETATM    1  C6  UNL     1      16.995   7.135  23.957  1.00  0.00     0.079 A 
HETATM    2  C7  UNL     1      17.242   5.859  23.493  1.00  0.00     0.074 A 
HETATM    3  C8  UNL     1      18.166   5.071  24.142  1.00  0.00     0.079 A 
HETATM    4  C16 UNL     1      18.868   5.531  25.265  1.00  0.00     0.054 A 
HETATM    5  C17 UNL     1      18.627   6.803  25.734  1.00  0.00     0.037 A 
HETATM    6  C25 UNL     1      17.700   7.576  25.072  1.00  0.00     0.054 A 
ENDROOT
BRANCH   5   7
HETATM    7  C18 UNL     1      19.341   7.303  26.906  1.00  0.00     0.252 C 
HETATM    8  O3  UNL     1      18.707   7.733  27.908  1.00  0.00    -0.268 OA
HETATM    9  N5  UNL     1      20.749   7.338  27.000  1.00  0.00    -0.352 N 
ATOM     10  H5  UNL     1      21.309   7.001  26.216  1.00  0.00     0.163 HD
BRANCH   9  11
HETATM   11  C19 UNL     1      21.414   7.839  28.177  1.00  0.00     0.084 C 
HETATM   12  C20 UNL     1      22.359   6.828  28.789  1.00  0.00     0.027 C 
HETATM   13  C21 UNL     1      22.695   7.349  30.188  1.00  0.00     0.035 C 
HETATM   14  C22 UNL     1      23.348   8.692  30.131  1.00  0.00     0.183 C 
HETATM   15  C23 UNL     1      22.631   9.672  29.259  1.00  0.00     0.035 C 
HETATM   16  C24 UNL     1      22.204   9.105  27.932  1.00  0.00     0.027 C 
BRANCH  14  17
HETATM   17  N6  UNL     1      23.398   9.246  31.469  1.00  0.00    -0.075 N 
ATOM     18  H63 UNL     1      22.770   8.765  32.113  1.00  0.00     0.274 HD
ATOM     19  H62 UNL     1      24.276   9.037  31.944  1.00  0.00     0.274 HD
ATOM     20  H61 UNL     1      23.212  10.248  31.418  1.00  0.00     0.274 HD
ENDBRANCH  14  17
ENDBRANCH   9  11
ENDBRANCH   5   7
BRANCH   3  21
HETATM   21  O2  UNL     1      18.379   3.786  23.632  1.00  0.00    -0.311 OA
BRANCH  21  22
HETATM   22  C9  UNL     1      18.709   3.550  22.323  1.00  0.00     0.076 A 
HETATM   23  C10 UNL     1      19.987   3.834  21.900  1.00  0.00     0.038 A 
HETATM   24  C11 UNL     1      20.381   3.620  20.601  1.00  0.00     0.017 A 
HETATM   25  C12 UNL     1      19.506   3.103  19.643  1.00  0.00     0.005 A 
HETATM   26  C14 UNL     1      18.235   2.823  20.072  1.00  0.00     0.017 A 
HETATM   27  C15 UNL     1      17.838   3.044  21.400  1.00  0.00     0.038 A 
BRANCH  25  28
HETATM   28  C13 UNL     1      19.960   2.893  18.287  1.00  0.00     0.120 C 
HETATM   29  N3  UNL     1      19.020   3.052  17.214  1.00  0.00    -0.082 NA
HETATM   30  N4  UNL     1      21.177   2.571  18.053  1.00  0.00    -0.387 N 
ATOM     31  H42 UNL     1      21.845   2.458  18.815  1.00  0.00     0.157 HD
ATOM     32  H41 UNL     1      21.497   2.423  17.096  1.00  0.00     0.157 HD
ENDBRANCH  25  28
ENDBRANCH  21  22
ENDBRANCH   3  21
BRANCH   1  33
HETATM   33  O1  UNL     1      16.081   7.939  23.331  1.00  0.00    -0.311 OA
BRANCH  33  34
HETATM   34  C5  UNL     1      15.413   9.002  23.920  1.00  0.00     0.076 A 
HETATM   35  C4  UNL     1      15.411  10.270  23.381  1.00  0.00     0.038 A 
HETATM   36  C3  UNL     1      14.740  11.307  23.987  1.00  0.00     0.017 A 
HETATM   37  C2  UNL     1      14.022  11.139  25.181  1.00  0.00     0.005 A 
HETATM   38  C27 UNL     1      14.026   9.870  25.714  1.00  0.00     0.017 A 
HETATM   39  C26 UNL     1      14.713   8.815  25.091  1.00  0.00     0.038 A 
BRANCH  37  40
HETATM   40  C1  UNL     1      13.328  12.258  25.786  1.00  0.00     0.120 C 
HETATM   41  N1  UNL     1      13.573  13.562  25.296  1.00  0.00    -0.082 NA
HETATM   42  N2  UNL     1      12.514  12.084  26.740  1.00  0.00    -0.387 N 
ATOM     43  H22 UNL     1      12.025  12.872  27.166  1.00  0.00     0.157 HD
ATOM     44  H21 UNL     1      12.337  11.143  27.093  1.00  0.00     0.157 HD
ENDBRANCH  37  40
ENDBRANCH  33  34
ENDBRANCH   1  33
TORSDOF 9
ENDMDL
