MODEL 7
REMARK VINA RESULT: -10.061254492      1.552      8.146
REMARK  9 active torsions:
REMARK  status: ('A' for Active; 'I' for Inactive)
REMARK    1  A    between atoms: C1_2  and  C2_6 
REMARK    2  A    between atoms: C5_9  and  O1_10 
REMARK    3  A    between atoms: O1_10  and  C6_11 
REMARK    4  A    between atoms: C8_13  and  O2_14 
REMARK    5  A    between atoms: O2_14  and  C9_15 
REMARK    6  A    between atoms: C12_18  and  C13_19 
REMARK    7  A    between atoms: C17_27  and  C18_28 
REMARK       I    between atoms: C18_28  and  N5_30 
REMARK    8  A    between atoms: N5_30  and  C19_32 
REMARK    9  A    between atoms: C22_35  and  N6_36 
ROOT
HETATM    1  C6  UNL     1      17.964   5.913  25.871  1.00  0.00     0.079 A 
HETATM    2  C7  UNL     1      16.739   6.459  25.548  1.00  0.00     0.074 A 
HETATM    3  C8  UNL     1      16.322   6.454  24.236  1.00  0.00     0.079 A 
HETATM    4  C16 UNL     1      17.110   5.907  23.214  1.00  0.00     0.054 A 
HETATM    5  C17 UNL     1      18.335   5.360  23.529  1.00  0.00     0.037 A 
HETATM    6  C25 UNL     1      18.735   5.374  24.846  1.00  0.00     0.054 A 
ENDROOT
BRANCH   5   7
HETATM    7  C18 UNL     1      19.172   4.778  22.482  1.00  0.00     0.252 C 
HETATM    8  O3  UNL     1      20.428   4.882  22.534  1.00  0.00    -0.268 OA
HETATM    9  N5  UNL     1      18.651   4.078  21.373  1.00  0.00    -0.352 N 
ATOM     10  H5  UNL     1      17.641   3.965  21.284  1.00  0.00     0.163 HD
BRANCH   9  11
HETATM   11  C19 UNL     1      19.514   3.518  20.362  1.00  0.00     0.084 C 
HETATM   12  C20 UNL     1      20.096   2.181  20.766  1.00  0.00     0.027 C 
HETATM   13  C21 UNL     1      21.240   1.900  19.790  1.00  0.00     0.035 C 
HETATM   14  C22 UNL     1      20.754   1.842  18.378  1.00  0.00     0.183 C 
HETATM   15  C23 UNL     1      19.880   2.993  17.995  1.00  0.00     0.035 C 
HETATM   16  C24 UNL     1      18.834   3.330  19.025  1.00  0.00     0.027 C 
BRANCH  14  17
HETATM   17  N6  UNL     1      21.897   1.842  17.488  1.00  0.00    -0.075 N 
ATOM     18  H63 UNL     1      22.338   2.760  17.422  1.00  0.00     0.274 HD
ATOM     19  H62 UNL     1      22.691   1.331  17.873  1.00  0.00     0.274 HD
ATOM     20  H61 UNL     1      21.607   1.483  16.578  1.00  0.00     0.274 HD
ENDBRANCH  14  17
ENDBRANCH   9  11
ENDBRANCH   5   7
BRANCH   3  21
HETATM   21  O2  UNL     1      15.072   7.020  23.961  1.00  0.00    -0.311 OA
BRANCH  21  22
HETATM   22  C9  UNL     1      14.728   8.288  24.350  1.00  0.00     0.076 A 
HETATM   23  C10 UNL     1      14.000   8.452  25.507  1.00  0.00     0.038 A 
HETATM   24  C11 UNL     1      13.624   9.696  25.952  1.00  0.00     0.017 A 
HETATM   25  C12 UNL     1      13.960  10.859  25.255  1.00  0.00     0.005 A 
HETATM   26  C14 UNL     1      14.685  10.687  24.104  1.00  0.00     0.017 A 
HETATM   27  C15 UNL     1      15.067   9.414  23.654  1.00  0.00     0.038 A 
BRANCH  25  28
HETATM   28  C13 UNL     1      13.545  12.150  25.757  1.00  0.00     0.120 C 
HETATM   29  N3  UNL     1      13.948  13.327  25.043  1.00  0.00    -0.082 NA
HETATM   30  N4  UNL     1      12.832  12.234  26.817  1.00  0.00    -0.387 N 
ATOM     31  H42 UNL     1      12.545  11.397  27.324  1.00  0.00     0.157 HD
ATOM     32  H41 UNL     1      12.539  13.144  27.171  1.00  0.00     0.157 HD
ENDBRANCH  25  28
ENDBRANCH  21  22
ENDBRANCH   3  21
BRANCH   1  33
HETATM   33  O1  UNL     1      18.402   5.905  27.168  1.00  0.00    -0.311 OA
BRANCH  33  34
HETATM   34  C5  UNL     1      19.337   6.779  27.703  1.00  0.00     0.076 A 
HETATM   35  C4  UNL     1      20.542   7.046  27.089  1.00  0.00     0.038 A 
HETATM   36  C3  UNL     1      21.452   7.917  27.642  1.00  0.00     0.017 A 
HETATM   37  C2  UNL     1      21.212   8.582  28.855  1.00  0.00     0.005 A 
HETATM   38  C27 UNL     1      20.008   8.311  29.462  1.00  0.00     0.017 A 
HETATM   39  C26 UNL     1      19.082   7.421  28.893  1.00  0.00     0.038 A 
BRANCH  37  40
HETATM   40  C1  UNL     1      22.197   9.492  29.402  1.00  0.00     0.120 C 
HETATM   41  N1  UNL     1      23.089  10.148  28.521  1.00  0.00    -0.082 NA
HETATM   42  N2  UNL     1      22.270   9.704  30.648  1.00  0.00    -0.387 N 
ATOM     43  H22 UNL     1      22.964  10.345  31.034  1.00  0.00     0.157 HD
ATOM     44  H21 UNL     1      21.627   9.231  31.283  1.00  0.00     0.157 HD
ENDBRANCH  37  40
ENDBRANCH  33  34
ENDBRANCH   1  33
TORSDOF 9
ENDMDL
