MODEL 2
REMARK VINA RESULT: -10.208208725      1.702      8.182
REMARK  9 active torsions:
REMARK  status: ('A' for Active; 'I' for Inactive)
REMARK    1  A    between atoms: C1_2  and  C2_6 
REMARK    2  A    between atoms: C5_9  and  O1_10 
REMARK    3  A    between atoms: O1_10  and  C6_11 
REMARK    4  A    between atoms: C8_13  and  O2_14 
REMARK    5  A    between atoms: O2_14  and  C9_15 
REMARK    6  A    between atoms: C12_18  and  C13_19 
REMARK    7  A    between atoms: C17_27  and  C18_28 
REMARK       I    between atoms: C18_28  and  N5_30 
REMARK    8  A    between atoms: N5_30  and  C19_32 
REMARK    9  A    between atoms: C22_35  and  N6_36 
ROOT
HETATM    1  C6  UNL     1      17.730   5.994  26.088  1.00  0.00     0.079 A 
HETATM    2  C7  UNL     1      16.504   6.610  25.944  1.00  0.00     0.074 A 
HETATM    3  C8  UNL     1      15.909   6.648  24.703  1.00  0.00     0.079 A 
HETATM    4  C16 UNL     1      16.516   6.077  23.576  1.00  0.00     0.054 A 
HETATM    5  C17 UNL     1      17.740   5.460  23.712  1.00  0.00     0.037 A 
HETATM    6  C25 UNL     1      18.320   5.432  24.960  1.00  0.00     0.054 A 
ENDROOT
BRANCH   5   7
HETATM    7  C18 UNL     1      18.391   4.852  22.554  1.00  0.00     0.252 C 
HETATM    8  O3  UNL     1      19.633   4.632  22.558  1.00  0.00    -0.268 OA
HETATM    9  N5  UNL     1      17.697   4.478  21.383  1.00  0.00    -0.352 N 
ATOM     10  H5  UNL     1      16.690   4.635  21.328  1.00  0.00     0.163 HD
BRANCH   9  11
HETATM   11  C19 UNL     1      18.378   3.879  20.262  1.00  0.00     0.084 C 
HETATM   12  C20 UNL     1      18.219   2.375  20.217  1.00  0.00     0.027 C 
HETATM   13  C21 UNL     1      19.266   1.863  19.225  1.00  0.00     0.035 C 
HETATM   14  C22 UNL     1      19.058   2.442  17.863  1.00  0.00     0.183 C 
HETATM   15  C23 UNL     1      18.874   3.926  17.861  1.00  0.00     0.035 C 
HETATM   16  C24 UNL     1      17.930   4.421  18.924  1.00  0.00     0.027 C 
BRANCH  14  17
HETATM   17  N6  UNL     1      20.216   2.141  17.044  1.00  0.00    -0.075 N 
ATOM     18  H63 UNL     1      20.854   2.933  16.967  1.00  0.00     0.274 HD
ATOM     19  H62 UNL     1      20.854   1.488  17.498  1.00  0.00     0.274 HD
ATOM     20  H61 UNL     1      19.898   1.806  16.134  1.00  0.00     0.274 HD
ENDBRANCH  14  17
ENDBRANCH   9  11
ENDBRANCH   5   7
BRANCH   3  21
HETATM   21  O2  UNL     1      14.666   7.284  24.610  1.00  0.00    -0.311 OA
BRANCH  21  22
HETATM   22  C9  UNL     1      14.520   8.645  24.678  1.00  0.00     0.076 A 
HETATM   23  C10 UNL     1      13.802   9.184  25.721  1.00  0.00     0.038 A 
HETATM   24  C11 UNL     1      13.619  10.540  25.846  1.00  0.00     0.017 A 
HETATM   25  C12 UNL     1      14.152  11.442  24.923  1.00  0.00     0.005 A 
HETATM   26  C14 UNL     1      14.866  10.897  23.887  1.00  0.00     0.017 A 
HETATM   27  C15 UNL     1      15.049   9.511  23.764  1.00  0.00     0.038 A 
BRANCH  25  28
HETATM   28  C13 UNL     1      13.938  12.862  25.090  1.00  0.00     0.120 C 
HETATM   29  N3  UNL     1      14.768  13.774  24.358  1.00  0.00    -0.082 NA
HETATM   30  N4  UNL     1      13.023  13.290  25.877  1.00  0.00    -0.387 N 
ATOM     31  H42 UNL     1      12.432  12.642  26.398  1.00  0.00     0.157 HD
ATOM     32  H41 UNL     1      12.871  14.291  25.995  1.00  0.00     0.157 HD
ENDBRANCH  25  28
ENDBRANCH  21  22
ENDBRANCH   3  21
BRANCH   1  33
HETATM   33  O1  UNL     1      18.343   5.941  27.311  1.00  0.00    -0.311 OA
BRANCH  33  34
HETATM   34  C5  UNL     1      19.400   6.744  27.712  1.00  0.00     0.076 A 
HETATM   35  C4  UNL     1      20.660   6.645  27.163  1.00  0.00     0.038 A 
HETATM   36  C3  UNL     1      21.691   7.455  27.580  1.00  0.00     0.017 A 
HETATM   37  C2  UNL     1      21.526   8.423  28.581  1.00  0.00     0.005 A 
HETATM   38  C27 UNL     1      20.266   8.518  29.125  1.00  0.00     0.017 A 
HETATM   39  C26 UNL     1      19.216   7.689  28.696  1.00  0.00     0.038 A 
BRANCH  37  40
HETATM   40  C1  UNL     1      22.638   9.256  28.991  1.00  0.00     0.120 C 
HETATM   41  N1  UNL     1      22.487  10.095  30.120  1.00  0.00    -0.082 NA
HETATM   42  N2  UNL     1      23.734   9.243  28.356  1.00  0.00    -0.387 N 
ATOM     43  H22 UNL     1      24.517   9.829  28.644  1.00  0.00     0.157 HD
ATOM     44  H21 UNL     1      23.842   8.638  27.542  1.00  0.00     0.157 HD
ENDBRANCH  37  40
ENDBRANCH  33  34
ENDBRANCH   1  33
TORSDOF 9
ENDMDL
