MODEL 6
REMARK VINA RESULT: -10.063493022      1.670      9.467
REMARK  9 active torsions:
REMARK  status: ('A' for Active; 'I' for Inactive)
REMARK    1  A    between atoms: C1_2  and  C2_6 
REMARK    2  A    between atoms: C5_9  and  O1_10 
REMARK    3  A    between atoms: O1_10  and  C6_11 
REMARK    4  A    between atoms: C8_13  and  O2_14 
REMARK    5  A    between atoms: O2_14  and  C9_15 
REMARK    6  A    between atoms: C12_18  and  C13_19 
REMARK    7  A    between atoms: C17_27  and  C18_28 
REMARK       I    between atoms: C18_28  and  N5_30 
REMARK    8  A    between atoms: N5_30  and  C19_32 
REMARK    9  A    between atoms: C22_35  and  N6_36 
ROOT
HETATM    1  C6  UNL     1      16.026   6.651  24.605  1.00  0.00     0.079 A 
HETATM    2  C7  UNL     1      16.604   6.597  25.857  1.00  0.00     0.074 A 
HETATM    3  C8  UNL     1      17.810   5.953  26.017  1.00  0.00     0.079 A 
HETATM    4  C16 UNL     1      18.470   5.346  24.940  1.00  0.00     0.054 A 
HETATM    5  C17 UNL     1      17.899   5.394  23.687  1.00  0.00     0.037 A 
HETATM    6  C25 UNL     1      16.693   6.044  23.547  1.00  0.00     0.054 A 
ENDROOT
BRANCH   5   7
HETATM    7  C18 UNL     1      18.571   4.775  22.547  1.00  0.00     0.252 C 
HETATM    8  O3  UNL     1      19.815   4.569  22.571  1.00  0.00    -0.268 OA
HETATM    9  N5  UNL     1      17.896   4.374  21.375  1.00  0.00    -0.352 N 
ATOM     10  H5  UNL     1      16.888   4.518  21.305  1.00  0.00     0.163 HD
BRANCH   9  11
HETATM   11  C19 UNL     1      18.597   3.764  20.272  1.00  0.00     0.084 C 
HETATM   12  C20 UNL     1      18.560   2.252  20.319  1.00  0.00     0.027 C 
HETATM   13  C21 UNL     1      19.622   1.767  19.330  1.00  0.00     0.035 C 
HETATM   14  C22 UNL     1      19.337   2.243  17.943  1.00  0.00     0.183 C 
HETATM   15  C23 UNL     1      19.033   3.705  17.860  1.00  0.00     0.035 C 
HETATM   16  C24 UNL     1      18.076   4.187  18.918  1.00  0.00     0.027 C 
BRANCH  14  17
HETATM   17  N6  UNL     1      20.496   1.986  17.112  1.00  0.00    -0.075 N 
ATOM     18  H63 UNL     1      20.430   2.443  16.202  1.00  0.00     0.274 HD
ATOM     19  H62 UNL     1      21.331   2.463  17.451  1.00  0.00     0.274 HD
ATOM     20  H61 UNL     1      20.628   0.978  17.033  1.00  0.00     0.274 HD
ENDBRANCH  14  17
ENDBRANCH   9  11
ENDBRANCH   5   7
BRANCH   3  21
HETATM   21  O2  UNL     1      18.354   5.927  27.306  1.00  0.00    -0.311 OA
BRANCH  21  22
HETATM   22  C9  UNL     1      19.427   6.695  27.676  1.00  0.00     0.076 A 
HETATM   23  C10 UNL     1      19.238   7.696  28.602  1.00  0.00     0.038 A 
HETATM   24  C11 UNL     1      20.273   8.500  29.014  1.00  0.00     0.017 A 
HETATM   25  C12 UNL     1      21.569   8.345  28.517  1.00  0.00     0.005 A 
HETATM   26  C14 UNL     1      21.748   7.346  27.596  1.00  0.00     0.017 A 
HETATM   27  C15 UNL     1      20.688   6.527  27.178  1.00  0.00     0.038 A 
BRANCH  25  28
HETATM   28  C13 UNL     1      22.630   9.212  28.977  1.00  0.00     0.120 C 
HETATM   29  N3  UNL     1      22.405  10.013  30.147  1.00  0.00    -0.082 NA
HETATM   30  N4  UNL     1      23.745   9.261  28.350  1.00  0.00    -0.387 N 
ATOM     31  H42 UNL     1      23.904   8.692  27.519  1.00  0.00     0.157 HD
ATOM     32  H41 UNL     1      24.493   9.873  28.675  1.00  0.00     0.157 HD
ENDBRANCH  25  28
ENDBRANCH  21  22
ENDBRANCH   3  21
BRANCH   1  33
HETATM   33  O1  UNL     1      14.828   7.286  24.418  1.00  0.00    -0.311 OA
BRANCH  33  34
HETATM   34  C5  UNL     1      14.609   8.646  24.578  1.00  0.00     0.076 A 
HETATM   35  C4  UNL     1      15.085   9.585  23.688  1.00  0.00     0.038 A 
HETATM   36  C3  UNL     1      14.854  10.929  23.870  1.00  0.00     0.017 A 
HETATM   37  C2  UNL     1      14.125  11.423  24.963  1.00  0.00     0.005 A 
HETATM   38  C27 UNL     1      13.652  10.481  25.847  1.00  0.00     0.017 A 
HETATM   39  C26 UNL     1      13.891   9.110  25.656  1.00  0.00     0.038 A 
BRANCH  37  40
HETATM   40  C1  UNL     1      13.904  12.846  25.118  1.00  0.00     0.120 C 
HETATM   41  N1  UNL     1      14.735  13.749  24.414  1.00  0.00    -0.082 NA
HETATM   42  N2  UNL     1      12.986  13.288  25.869  1.00  0.00    -0.387 N 
ATOM     43  H22 UNL     1      12.830  14.290  25.978  1.00  0.00     0.157 HD
ATOM     44  H21 UNL     1      12.386  12.637  26.376  1.00  0.00     0.157 HD
ENDBRANCH  37  40
ENDBRANCH  33  34
ENDBRANCH   1  33
TORSDOF 9
ENDMDL
