MODEL 2
REMARK VINA RESULT: -7.791764848      2.036      3.696
REMARK  8 active torsions:
REMARK  status: ('A' for Active; 'I' for Inactive)
REMARK    1  A    between atoms: N5_13  and  C6_14 
REMARK    2  A    between atoms: C7_16  and  C8_17 
REMARK    3  A    between atoms: C8_17  and  O2_18 
REMARK    4  A    between atoms: O2_18  and  P1_19 
REMARK    5  A    between atoms: P1_19  and  O5_22 
REMARK    6  A    between atoms: O5_22  and  P2_23 
REMARK    7  A    between atoms: C9_27  and  O9_28 
REMARK    8  A    between atoms: C10_30  and  O10_31 
ROOT
HETATM    1  C6  UNL     1      78.349 -12.640   5.278  1.00  0.00     0.262 C 
HETATM    2  O1  UNL     1      79.417 -13.480   5.594  1.00  0.00    -0.353 OA
HETATM    3  C7  UNL     1      79.248 -13.606   6.973  1.00  0.00     0.180 C 
HETATM    4  C9  UNL     1      77.783 -13.867   7.195  1.00  0.00     0.182 C 
HETATM    5  C10 UNL     1      77.183 -13.403   5.861  1.00  0.00     0.198 C 
ENDROOT
BRANCH   1   6
HETATM    6  N5  UNL     1      78.221 -12.405   3.868  1.00  0.00    -0.297 N 
HETATM    7  C3  UNL     1      77.451 -11.427   3.346  1.00  0.00     0.142 A 
HETATM    8  N3  UNL     1      76.665 -10.492   3.934  1.00  0.00    -0.336 N 
HETATM    9  C4  UNL     1      77.539 -11.459   1.971  1.00  0.00     0.119 A 
HETATM   10  C2  UNL     1      75.963  -9.588   3.225  1.00  0.00     0.183 A 
ATOM     11  H3  UNL     1      76.604 -10.472   4.952  1.00  0.00     0.168 HD
HETATM   12  N2  UNL     1      76.049  -9.621   1.900  1.00  0.00    -0.339 N 
HETATM   13  C1  UNL     1      76.819 -10.533   1.259  1.00  0.00     0.148 A 
ATOM     14  H2  UNL     1      75.522  -8.943   1.349  1.00  0.00     0.167 HD
HETATM   15  N1  UNL     1      76.880 -10.529  -0.138  1.00  0.00    -0.080 NA
HETATM   16  N4  UNL     1      78.376 -12.474   1.691  1.00  0.00    -0.346 N 
HETATM   17  C5  UNL     1      78.781 -13.037   2.844  1.00  0.00     0.188 A 
ATOM     18  H4  UNL     1      78.659 -12.768   0.756  1.00  0.00     0.167 HD
ENDBRANCH   1   6
BRANCH   5  19
HETATM   19  O10 UNL     1      76.063 -12.629   6.056  1.00  0.00    -0.388 OA
ATOM     20  H10 UNL     1      75.456 -12.650   5.326  1.00  0.00     0.210 HD
ENDBRANCH   5  19
BRANCH   3  21
HETATM   21  C8  UNL     1      80.125 -14.692   7.553  1.00  0.00     0.216 C 
BRANCH  21  22
HETATM   22  O2  UNL     1      81.340 -14.622   6.947  1.00  0.00    -0.287 OA
BRANCH  22  23
HETATM   23  P1  UNL     1      82.364 -15.889   7.111  1.00  0.00     0.418 P 
HETATM   24  O3  UNL     1      81.498 -16.836   6.283  1.00  0.00    -0.624 OA
HETATM   25  O4  UNL     1      83.589 -16.061   5.919  1.00  0.00    -0.624 OA
BRANCH  23  26
HETATM   26  O5  UNL     1      82.384 -16.821   8.422  1.00  0.00    -0.173 OA
BRANCH  26  27
HETATM   27  P2  UNL     1      83.621 -16.675   9.497  1.00  0.00     0.431 P 
HETATM   28  O6  UNL     1      83.455 -17.190  11.020  1.00  0.00    -0.616 OA
HETATM   29  O7  UNL     1      84.975 -15.769   9.047  1.00  0.00    -0.616 OA
HETATM   30  O8  UNL     1      84.308 -17.916   8.924  1.00  0.00    -0.616 OA
ENDBRANCH  26  27
ENDBRANCH  23  26
ENDBRANCH  22  23
ENDBRANCH  21  22
ENDBRANCH   3  21
BRANCH   4  31
HETATM   31  O9  UNL     1      77.266 -12.995   8.164  1.00  0.00    -0.390 OA
ATOM     32  H9  UNL     1      77.632 -13.188   9.019  1.00  0.00     0.210 HD
ENDBRANCH   4  31
TORSDOF 8
ENDMDL
