MODEL 1
REMARK VINA RESULT: -8.058415596      0.000      0.000
REMARK  8 active torsions:
REMARK  status: ('A' for Active; 'I' for Inactive)
REMARK    1  A    between atoms: N5_13  and  C6_14 
REMARK    2  A    between atoms: C7_16  and  C8_17 
REMARK    3  A    between atoms: C8_17  and  O2_18 
REMARK    4  A    between atoms: O2_18  and  P1_19 
REMARK    5  A    between atoms: P1_19  and  O5_22 
REMARK    6  A    between atoms: O5_22  and  P2_23 
REMARK    7  A    between atoms: C9_27  and  O9_28 
REMARK    8  A    between atoms: C10_30  and  O10_31 
ROOT
HETATM    1  C6  UNL     1      79.041 -14.815   7.266  1.00  0.00     0.262 C 
HETATM    2  O1  UNL     1      80.399 -14.546   7.092  1.00  0.00    -0.353 OA
HETATM    3  C7  UNL     1      80.962 -15.719   7.593  1.00  0.00     0.180 C 
HETATM    4  C9  UNL     1      80.172 -16.853   6.998  1.00  0.00     0.182 C 
HETATM    5  C10 UNL     1      78.899 -16.130   6.535  1.00  0.00     0.198 C 
ENDROOT
BRANCH   1   6
HETATM    6  N5  UNL     1      78.195 -13.783   6.740  1.00  0.00    -0.297 N 
HETATM    7  C3  UNL     1      78.409 -13.183   5.550  1.00  0.00     0.142 A 
HETATM    8  N3  UNL     1      79.375 -13.359   4.616  1.00  0.00    -0.336 N 
HETATM    9  C4  UNL     1      77.428 -12.241   5.329  1.00  0.00     0.119 A 
HETATM   10  C2  UNL     1      79.416 -12.648   3.474  1.00  0.00     0.183 A 
ATOM     11  H3  UNL     1      80.099 -14.058   4.785  1.00  0.00     0.168 HD
HETATM   12  N2  UNL     1      78.469 -11.740   3.263  1.00  0.00    -0.339 N 
HETATM   13  C1  UNL     1      77.479 -11.522   4.161  1.00  0.00     0.148 A 
ATOM     14  H2  UNL     1      78.488 -11.192   2.402  1.00  0.00     0.167 HD
HETATM   15  N1  UNL     1      76.503 -10.556   3.895  1.00  0.00    -0.080 NA
HETATM   16  N4  UNL     1      76.630 -12.297   6.409  1.00  0.00    -0.346 N 
HETATM   17  C5  UNL     1      77.103 -13.231   7.254  1.00  0.00     0.188 A 
ATOM     18  H4  UNL     1      75.800 -11.723   6.564  1.00  0.00     0.167 HD
ENDBRANCH   1   6
BRANCH   5  19
HETATM   19  O10 UNL     1      77.769 -16.832   6.883  1.00  0.00    -0.388 OA
ATOM     20  H10 UNL     1      76.973 -16.484   6.497  1.00  0.00     0.210 HD
ENDBRANCH   5  19
BRANCH   3  21
HETATM   21  C8  UNL     1      82.438 -15.817   7.282  1.00  0.00     0.216 C 
BRANCH  21  22
HETATM   22  O2  UNL     1      82.939 -16.893   7.945  1.00  0.00    -0.287 OA
BRANCH  22  23
HETATM   23  P1  UNL     1      83.866 -16.629   9.268  1.00  0.00     0.418 P 
HETATM   24  O3  UNL     1      84.687 -17.903   9.081  1.00  0.00    -0.624 OA
HETATM   25  O4  UNL     1      85.314 -15.733   9.040  1.00  0.00    -0.624 OA
BRANCH  23  26
HETATM   26  O5  UNL     1      83.373 -16.992  10.755  1.00  0.00    -0.173 OA
BRANCH  26  27
HETATM   27  P2  UNL     1      82.077 -17.985  10.956  1.00  0.00     0.431 P 
HETATM   28  O6  UNL     1      82.279 -19.579  11.134  1.00  0.00    -0.616 OA
HETATM   29  O7  UNL     1      80.529 -17.342  10.736  1.00  0.00    -0.616 OA
HETATM   30  O8  UNL     1      81.981 -17.614  12.437  1.00  0.00    -0.616 OA
ENDBRANCH  26  27
ENDBRANCH  23  26
ENDBRANCH  22  23
ENDBRANCH  21  22
ENDBRANCH   3  21
BRANCH   4  31
HETATM   31  O9  UNL     1      79.756 -17.745   7.996  1.00  0.00    -0.390 OA
ATOM     32  H9  UNL     1      80.151 -18.600   7.869  1.00  0.00     0.210 HD
ENDBRANCH   4  31
TORSDOF 8
ENDMDL
