MODEL 4
REMARK VINA RESULT: -7.706614002      1.699      2.689
REMARK  8 active torsions:
REMARK  status: ('A' for Active; 'I' for Inactive)
REMARK    1  A    between atoms: N5_13  and  C6_14 
REMARK    2  A    between atoms: C7_16  and  C8_17 
REMARK    3  A    between atoms: C8_17  and  O2_18 
REMARK    4  A    between atoms: O2_18  and  P1_19 
REMARK    5  A    between atoms: P1_19  and  O5_22 
REMARK    6  A    between atoms: O5_22  and  P2_23 
REMARK    7  A    between atoms: C9_27  and  O9_28 
REMARK    8  A    between atoms: C10_30  and  O10_31 
ROOT
HETATM    1  C6  UNL     1      79.258 -15.085   7.104  1.00  0.00     0.262 C 
HETATM    2  O1  UNL     1      78.718 -15.777   8.189  1.00  0.00    -0.353 OA
HETATM    3  C7  UNL     1      79.738 -16.692   8.447  1.00  0.00     0.180 C 
HETATM    4  C9  UNL     1      81.024 -15.912   8.409  1.00  0.00     0.182 C 
HETATM    5  C10 UNL     1      80.590 -14.642   7.663  1.00  0.00     0.198 C 
ENDROOT
BRANCH   1   6
HETATM    6  N5  UNL     1      78.435 -13.991   6.673  1.00  0.00    -0.297 N 
HETATM    7  C3  UNL     1      78.585 -13.375   5.482  1.00  0.00     0.142 A 
HETATM    8  N3  UNL     1      79.456 -13.585   4.465  1.00  0.00    -0.336 N 
HETATM    9  C4  UNL     1      77.648 -12.371   5.364  1.00  0.00     0.119 A 
HETATM   10  C2  UNL     1      79.443 -12.849   3.338  1.00  0.00     0.183 A 
ATOM     11  H3  UNL     1      80.147 -14.330   4.557  1.00  0.00     0.168 HD
HETATM   12  N2  UNL     1      78.540 -11.881   3.227  1.00  0.00    -0.339 N 
HETATM   13  C1  UNL     1      77.645 -11.627   4.211  1.00  0.00     0.148 A 
ATOM     14  H2  UNL     1      78.519 -11.314   2.379  1.00  0.00     0.167 HD
HETATM   15  N1  UNL     1      76.711 -10.599   4.050  1.00  0.00    -0.080 NA
HETATM   16  N4  UNL     1      76.942 -12.407   6.508  1.00  0.00    -0.346 N 
HETATM   17  C5  UNL     1      77.426 -13.389   7.290  1.00  0.00     0.188 A 
ATOM     18  H4  UNL     1      76.165 -11.789   6.745  1.00  0.00     0.167 HD
ENDBRANCH   1   6
BRANCH   5  19
HETATM   19  O10 UNL     1      81.502 -14.292   6.695  1.00  0.00    -0.388 OA
ATOM     20  H10 UNL     1      81.851 -13.415   6.803  1.00  0.00     0.210 HD
ENDBRANCH   5  19
BRANCH   3  21
HETATM   21  C8  UNL     1      79.535 -17.411   9.760  1.00  0.00     0.216 C 
BRANCH  21  22
HETATM   22  O2  UNL     1      80.575 -18.270   9.936  1.00  0.00    -0.287 OA
BRANCH  22  23
HETATM   23  P1  UNL     1      81.189 -18.449  11.443  1.00  0.00     0.418 P 
HETATM   24  O3  UNL     1      82.221 -19.491  11.017  1.00  0.00    -0.624 OA
HETATM   25  O4  UNL     1      82.495 -17.421  11.881  1.00  0.00    -0.624 OA
BRANCH  23  26
HETATM   26  O5  UNL     1      80.494 -19.380  12.555  1.00  0.00    -0.173 OA
BRANCH  26  27
HETATM   27  P2  UNL     1      79.156 -18.835  13.342  1.00  0.00     0.431 P 
HETATM   28  O6  UNL     1      78.842 -19.305  14.856  1.00  0.00    -0.616 OA
HETATM   29  O7  UNL     1      78.000 -17.971  12.462  1.00  0.00    -0.616 OA
HETATM   30  O8  UNL     1      79.846 -17.510  13.667  1.00  0.00    -0.616 OA
ENDBRANCH  26  27
ENDBRANCH  23  26
ENDBRANCH  22  23
ENDBRANCH  21  22
ENDBRANCH   3  21
BRANCH   4  31
HETATM   31  O9  UNL     1      81.960 -16.537   7.573  1.00  0.00    -0.390 OA
ATOM     32  H9  UNL     1      82.559 -17.071   8.081  1.00  0.00     0.210 HD
ENDBRANCH   4  31
TORSDOF 8
ENDMDL
