MODEL 6
REMARK VINA RESULT: -7.635797341      5.127      8.125
REMARK  8 active torsions:
REMARK  status: ('A' for Active; 'I' for Inactive)
REMARK    1  A    between atoms: N5_13  and  C6_14 
REMARK    2  A    between atoms: C7_16  and  C8_17 
REMARK    3  A    between atoms: C8_17  and  O2_18 
REMARK    4  A    between atoms: O2_18  and  P1_19 
REMARK    5  A    between atoms: P1_19  and  O5_22 
REMARK    6  A    between atoms: O5_22  and  P2_23 
REMARK    7  A    between atoms: C9_27  and  O9_28 
REMARK    8  A    between atoms: C10_30  and  O10_31 
ROOT
HETATM    1  C6  UNL     1      78.858 -16.772   8.118  1.00  0.00     0.262 C 
HETATM    2  O1  UNL     1      78.192 -15.647   7.631  1.00  0.00    -0.353 OA
HETATM    3  C7  UNL     1      78.484 -15.742   6.271  1.00  0.00     0.180 C 
HETATM    4  C9  UNL     1      78.250 -17.178   5.889  1.00  0.00     0.182 C 
HETATM    5  C10 UNL     1      78.265 -17.867   7.261  1.00  0.00     0.198 C 
ENDROOT
BRANCH   1   6
HETATM    6  N5  UNL     1      78.649 -16.981   9.523  1.00  0.00    -0.297 N 
HETATM    7  C3  UNL     1      79.637 -17.326  10.376  1.00  0.00     0.142 A 
HETATM    8  N3  UNL     1      80.958 -17.550  10.176  1.00  0.00    -0.336 N 
HETATM    9  C4  UNL     1      79.121 -17.449  11.648  1.00  0.00     0.119 A 
HETATM   10  C2  UNL     1      81.794 -17.891  11.176  1.00  0.00     0.183 A 
ATOM     11  H3  UNL     1      81.335 -17.456   9.233  1.00  0.00     0.168 HD
HETATM   12  N2  UNL     1      81.294 -18.010  12.401  1.00  0.00    -0.339 N 
HETATM   13  C1  UNL     1      79.981 -17.797  12.658  1.00  0.00     0.148 A 
ATOM     14  H2  UNL     1      81.914 -18.269  13.169  1.00  0.00     0.167 HD
HETATM   15  N1  UNL     1      79.500 -17.933  13.964  1.00  0.00    -0.080 NA
HETATM   16  N4  UNL     1      77.811 -17.171  11.530  1.00  0.00    -0.346 N 
HETATM   17  C5  UNL     1      77.538 -16.889  10.242  1.00  0.00     0.188 A 
ATOM     18  H4  UNL     1      77.134 -17.172  12.293  1.00  0.00     0.167 HD
ENDBRANCH   1   6
BRANCH   5  19
HETATM   19  O10 UNL     1      79.020 -19.015   7.238  1.00  0.00    -0.388 OA
ATOM     20  H10 UNL     1      78.544 -19.776   6.925  1.00  0.00     0.210 HD
ENDBRANCH   5  19
BRANCH   3  21
HETATM   21  C8  UNL     1      77.658 -14.781   5.446  1.00  0.00     0.216 C 
BRANCH  21  22
HETATM   22  O2  UNL     1      78.369 -13.632   5.299  1.00  0.00    -0.287 OA
BRANCH  22  23
HETATM   23  P1  UNL     1      77.829 -12.282   6.050  1.00  0.00     0.418 P 
HETATM   24  O3  UNL     1      76.365 -12.716   6.013  1.00  0.00    -0.624 OA
HETATM   25  O4  UNL     1      77.737 -12.327   7.765  1.00  0.00    -0.624 OA
BRANCH  23  26
HETATM   26  O5  UNL     1      77.588 -10.896   5.270  1.00  0.00    -0.173 OA
BRANCH  26  27
HETATM   27  P2  UNL     1      77.393 -10.912   3.637  1.00  0.00     0.431 P 
HETATM   28  O6  UNL     1      77.027 -12.284   2.864  1.00  0.00    -0.616 OA
HETATM   29  O7  UNL     1      77.812  -9.528   2.762  1.00  0.00    -0.616 OA
HETATM   30  O8  UNL     1      75.974 -10.355   3.768  1.00  0.00    -0.616 OA
ENDBRANCH  26  27
ENDBRANCH  23  26
ENDBRANCH  22  23
ENDBRANCH  21  22
ENDBRANCH   3  21
BRANCH   4  31
HETATM   31  O9  UNL     1      79.354 -17.694   5.197  1.00  0.00    -0.390 OA
ATOM     32  H9  UNL     1      79.275 -18.634   5.090  1.00  0.00     0.210 HD
ENDBRANCH   4  31
TORSDOF 8
ENDMDL
