MODEL 5
REMARK VINA RESULT: -6.013933045      1.851      4.681
REMARK  4 active torsions:
REMARK  status: ('A' for Active; 'I' for Inactive)
REMARK    1  A    between atoms: C2_2  and  N1_3 
REMARK    2  A    between atoms: C2_2  and  C3_7 
REMARK       I    between atoms: C3_7  and  N2_9 
REMARK    3  A    between atoms: N2_9  and  C4_11 
REMARK    4  A    between atoms: C4_11  and  C6_13 
ROOT
HETATM    1  C3  UNL     1     -45.275   4.480 -31.435  1.00  0.00     0.248 C 
HETATM    2  O1  UNL     1     -44.332   3.667 -31.313  1.00  0.00    -0.271 OA
HETATM    3  N2  UNL     1     -45.873   4.576 -32.729  1.00  0.00    -0.345 N 
ATOM      4  H2  UNL     1     -46.646   5.227 -32.866  1.00  0.00     0.163 HD
ENDROOT
BRANCH   1   5
HETATM    5  C2  UNL     1     -45.695   5.263 -30.270  1.00  0.00     0.270 C 
HETATM    6  C1  UNL     1     -44.796   6.445 -29.986  1.00  0.00     0.050 C 
BRANCH   5   7
HETATM    7  N1  UNL     1     -47.056   5.766 -30.407  1.00  0.00    -0.067 N 
ATOM      8  H13 UNL     1     -47.675   5.111 -30.886  1.00  0.00     0.275 HD
ATOM      9  H12 UNL     1     -47.558   5.800 -29.520  1.00  0.00     0.275 HD
ATOM     10  H11 UNL     1     -47.006   6.674 -30.869  1.00  0.00     0.275 HD
ENDBRANCH   5   7
ENDBRANCH   1   5
BRANCH   3  11
HETATM   11  C4  UNL     1     -45.423   3.780 -33.852  1.00  0.00     0.181 C 
HETATM   12  C5  UNL     1     -45.310   4.558 -35.125  1.00  0.00     0.043 C 
BRANCH  11  13
HETATM   13  C6  UNL     1     -46.333   2.628 -34.003  1.00  0.00     0.196 C 
HETATM   14  O2  UNL     1     -47.483   2.614 -33.451  1.00  0.00    -0.646 OA
HETATM   15  O3  UNL     1     -45.993   1.509 -34.747  1.00  0.00    -0.646 OA
ENDBRANCH  11  13
ENDBRANCH   3  11
TORSDOF 4
ENDMDL
