MODEL 8
REMARK VINA RESULT: -5.732585054      3.042      4.351
REMARK  4 active torsions:
REMARK  status: ('A' for Active; 'I' for Inactive)
REMARK    1  A    between atoms: C2_2  and  N1_3 
REMARK    2  A    between atoms: C2_2  and  C3_7 
REMARK       I    between atoms: C3_7  and  N2_9 
REMARK    3  A    between atoms: N2_9  and  C4_11 
REMARK    4  A    between atoms: C4_11  and  C6_13 
ROOT
HETATM    1  C3  UNL     1     -45.242   1.060 -35.609  1.00  0.00     0.248 C 
HETATM    2  O1  UNL     1     -46.095   0.274 -35.140  1.00  0.00    -0.271 OA
HETATM    3  N2  UNL     1     -45.008   2.263 -34.875  1.00  0.00    -0.345 N 
ATOM      4  H2  UNL     1     -44.318   2.926 -35.226  1.00  0.00     0.163 HD
ENDROOT
BRANCH   1   5
HETATM    5  C2  UNL     1     -44.554   0.702 -36.852  1.00  0.00     0.270 C 
HETATM    6  C1  UNL     1     -43.051   0.846 -36.769  1.00  0.00     0.050 C 
BRANCH   5   7
HETATM    7  N1  UNL     1     -44.844  -0.665 -37.268  1.00  0.00    -0.067 N 
ATOM      8  H13 UNL     1     -45.116  -0.733 -38.249  1.00  0.00     0.275 HD
ATOM      9  H12 UNL     1     -44.010  -1.250 -37.319  1.00  0.00     0.275 HD
ATOM     10  H11 UNL     1     -45.552  -1.038 -36.634  1.00  0.00     0.275 HD
ENDBRANCH   5   7
ENDBRANCH   1   5
BRANCH   3  11
HETATM   11  C4  UNL     1     -45.714   2.573 -33.649  1.00  0.00     0.181 C 
HETATM   12  C5  UNL     1     -47.075   3.149 -33.877  1.00  0.00     0.043 C 
BRANCH  11  13
HETATM   13  C6  UNL     1     -44.873   3.479 -32.842  1.00  0.00     0.196 C 
HETATM   14  O2  UNL     1     -44.048   4.282 -33.391  1.00  0.00    -0.646 OA
HETATM   15  O3  UNL     1     -44.934   3.507 -31.458  1.00  0.00    -0.646 OA
ENDBRANCH  11  13
ENDBRANCH   3  11
TORSDOF 4
ENDMDL
