MODEL 4
REMARK VINA RESULT: -6.110909079      1.331      1.484
REMARK  4 active torsions:
REMARK  status: ('A' for Active; 'I' for Inactive)
REMARK    1  A    between atoms: C2_2  and  N1_3 
REMARK    2  A    between atoms: C2_2  and  C3_7 
REMARK       I    between atoms: C3_7  and  N2_9 
REMARK    3  A    between atoms: N2_9  and  C4_11 
REMARK    4  A    between atoms: C4_11  and  C6_13 
ROOT
HETATM    1  C3  UNL     1     -45.269   3.424 -32.547  1.00  0.00     0.248 C 
HETATM    2  O1  UNL     1     -44.025   3.293 -32.519  1.00  0.00    -0.271 OA
HETATM    3  N2  UNL     1     -45.818   4.484 -31.761  1.00  0.00    -0.345 N 
ATOM      4  H2  UNL     1     -46.829   4.622 -31.761  1.00  0.00     0.163 HD
ENDROOT
BRANCH   1   5
HETATM    5  C2  UNL     1     -46.062   2.504 -33.366  1.00  0.00     0.270 C 
HETATM    6  C1  UNL     1     -47.405   3.069 -33.773  1.00  0.00     0.050 C 
BRANCH   5   7
HETATM    7  N1  UNL     1     -45.362   2.107 -34.582  1.00  0.00    -0.067 N 
ATOM      8  H13 UNL     1     -45.884   1.428 -35.136  1.00  0.00     0.275 HD
ATOM      9  H12 UNL     1     -45.326   2.851 -35.279  1.00  0.00     0.275 HD
ATOM     10  H11 UNL     1     -44.438   1.772 -34.311  1.00  0.00     0.275 HD
ENDBRANCH   5   7
ENDBRANCH   1   5
BRANCH   3  11
HETATM   11  C4  UNL     1     -44.993   5.368 -30.966  1.00  0.00     0.181 C 
HETATM   12  C5  UNL     1     -45.780   6.307 -30.109  1.00  0.00     0.043 C 
BRANCH  11  13
HETATM   13  C6  UNL     1     -44.084   6.099 -31.872  1.00  0.00     0.196 C 
HETATM   14  O2  UNL     1     -42.852   6.265 -31.583  1.00  0.00    -0.646 OA
HETATM   15  O3  UNL     1     -44.513   6.637 -33.074  1.00  0.00    -0.646 OA
ENDBRANCH  11  13
ENDBRANCH   3  11
TORSDOF 4
ENDMDL
