MODEL 1
REMARK VINA RESULT: -6.616812619      0.000      0.000
REMARK  4 active torsions:
REMARK  status: ('A' for Active; 'I' for Inactive)
REMARK    1  A    between atoms: C2_2  and  N1_3 
REMARK    2  A    between atoms: C2_2  and  C3_7 
REMARK       I    between atoms: C3_7  and  N2_9 
REMARK    3  A    between atoms: N2_9  and  C4_11 
REMARK    4  A    between atoms: C4_11  and  C6_13 
ROOT
HETATM    1  C3  UNL     1     -45.678   3.965 -32.476  1.00  0.00     0.248 C 
HETATM    2  O1  UNL     1     -45.519   3.073 -31.614  1.00  0.00    -0.271 OA
HETATM    3  N2  UNL     1     -45.534   5.316 -32.032  1.00  0.00    -0.345 N 
ATOM      4  H2  UNL     1     -45.655   6.071 -32.708  1.00  0.00     0.163 HD
ENDROOT
BRANCH   1   5
HETATM    5  C2  UNL     1     -45.994   3.576 -33.853  1.00  0.00     0.270 C 
HETATM    6  C1  UNL     1     -45.376   4.486 -34.890  1.00  0.00     0.050 C 
BRANCH   5   7
HETATM    7  N1  UNL     1     -45.568   2.213 -34.150  1.00  0.00    -0.067 N 
ATOM      8  H13 UNL     1     -46.227   1.713 -34.746  1.00  0.00     0.275 HD
ATOM      9  H12 UNL     1     -44.765   2.177 -34.777  1.00  0.00     0.275 HD
ATOM     10  H11 UNL     1     -45.399   1.741 -33.261  1.00  0.00     0.275 HD
ENDBRANCH   5   7
ENDBRANCH   1   5
BRANCH   3  11
HETATM   11  C4  UNL     1     -45.222   5.652 -30.659  1.00  0.00     0.181 C 
HETATM   12  C5  UNL     1     -46.188   6.617 -30.048  1.00  0.00     0.043 C 
BRANCH  11  13
HETATM   13  C6  UNL     1     -43.839   6.167 -30.607  1.00  0.00     0.196 C 
HETATM   14  O2  UNL     1     -43.309   6.534 -29.506  1.00  0.00    -0.646 OA
HETATM   15  O3  UNL     1     -43.049   6.279 -31.739  1.00  0.00    -0.646 OA
ENDBRANCH  11  13
ENDBRANCH   3  11
TORSDOF 4
ENDMDL
