MODEL 3
REMARK VINA RESULT: -8.650005388      1.092      1.232
REMARK  5 active torsions:
REMARK  status: ('A' for Active; 'I' for Inactive)
REMARK    1  A    between atoms: C2_2  and  O2_4 
REMARK    2  A    between atoms: O2_4  and  C3_5 
REMARK    3  A    between atoms: C3_5  and  C4_6 
REMARK    4  A    between atoms: C19_23  and  C20_24 
REMARK    5  A    between atoms: C23_27  and  N1_28 
ROOT
HETATM    1  C3  UNL     1      16.576  21.702  12.296  1.00  0.00     0.138 C 
HETATM    2  C6  UNL     1      17.776  22.653  12.029  1.00  0.00     0.048 C 
HETATM    3  C7  UNL     1      17.004  23.965  11.769  1.00  0.00     0.009 C 
HETATM    4  C8  UNL     1      16.201  23.932  12.989  1.00  0.00     0.005 C 
HETATM    5  C9  UNL     1      15.147  24.938  13.240  1.00  0.00     0.021 C 
HETATM    6  C10 UNL     1      15.672  26.314  12.933  1.00  0.00     0.014 C 
HETATM    7  C11 UNL     1      14.520  27.240  13.380  1.00  0.00     0.040 C 
HETATM    8  C12 UNL     1      14.621  27.150  14.854  1.00  0.00    -0.048 C 
HETATM    9  C13 UNL     1      14.738  28.253  15.544  1.00  0.00     0.057 C 
HETATM   10  C14 UNL     1      14.837  28.156  16.988  1.00  0.00     0.150 C 
HETATM   11  O4  UNL     1      15.360  29.074  17.654  1.00  0.00    -0.293 OA
HETATM   12  C15 UNL     1      14.317  26.969  17.644  1.00  0.00     0.087 C 
HETATM   13  C16 UNL     1      14.283  25.708  16.865  1.00  0.00     0.047 C 
HETATM   14  C17 UNL     1      14.593  25.793  15.433  1.00  0.00    -0.048 C 
HETATM   15  C18 UNL     1      14.838  24.736  14.709  1.00  0.00    -0.060 C 
HETATM   16  C19 UNL     1      14.849  23.390  15.261  1.00  0.00     0.049 C 
HETATM   17  C28 UNL     1      15.140  22.262  14.320  1.00  0.00     0.026 C 
HETATM   18  C29 UNL     1      15.548  22.570  12.938  1.00  0.00     0.000 C 
HETATM   19  C30 UNL     1      14.301  22.574  12.074  1.00  0.00     0.019 C 
ENDROOT
BRANCH  16  20
HETATM   20  C20 UNL     1      13.636  22.977  16.009  1.00  0.00    -0.050 A 
HETATM   21  C21 UNL     1      13.755  22.111  17.056  1.00  0.00     0.010 A 
HETATM   22  C22 UNL     1      12.654  21.712  17.754  1.00  0.00     0.030 A 
HETATM   23  C23 UNL     1      11.378  22.152  17.451  1.00  0.00     0.029 A 
HETATM   24  C26 UNL     1      11.271  23.024  16.395  1.00  0.00     0.030 A 
HETATM   25  C27 UNL     1      12.380  23.426  15.691  1.00  0.00     0.010 A 
BRANCH  23  26
HETATM   26  N1  UNL     1      10.222  21.758  18.154  1.00  0.00    -0.390 N 
HETATM   27  C24 UNL     1       9.000  22.511  17.916  1.00  0.00     0.149 C 
HETATM   28  C25 UNL     1      10.245  20.644  19.081  1.00  0.00     0.149 C 
ENDBRANCH  23  26
ENDBRANCH  16  20
BRANCH   1  29
HETATM   29  O2  UNL     1      17.090  20.727  13.144  1.00  0.00    -0.302 OA
BRANCH  29  30
HETATM   30  C2  UNL     1      16.624  19.461  13.330  1.00  0.00     0.256 C 
HETATM   31  C1  UNL     1      17.351  18.412  14.103  1.00  0.00     0.126 C 
HETATM   32  O1  UNL     1      15.537  19.129  12.841  1.00  0.00    -0.266 OA
ENDBRANCH  29  30
ENDBRANCH   1  29
BRANCH   1  33
HETATM   33  C4  UNL     1      16.232  21.196  10.945  1.00  0.00     0.158 C 
HETATM   34  C5  UNL     1      17.275  20.801   9.957  1.00  0.00     0.094 C 
HETATM   35  O3  UNL     1      15.078  21.071  10.549  1.00  0.00    -0.295 OA
ENDBRANCH   1  33
TORSDOF 5
ENDMDL
