MODEL 5
REMARK VINA RESULT: -8.257420986      2.276      6.295
REMARK  5 active torsions:
REMARK  status: ('A' for Active; 'I' for Inactive)
REMARK    1  A    between atoms: C2_2  and  O2_4 
REMARK    2  A    between atoms: O2_4  and  C3_5 
REMARK    3  A    between atoms: C3_5  and  C4_6 
REMARK    4  A    between atoms: C19_23  and  C20_24 
REMARK    5  A    between atoms: C23_27  and  N1_28 
ROOT
HETATM    1  C3  UNL     1      15.032  24.933  13.134  1.00  0.00     0.138 C 
HETATM    2  C6  UNL     1      15.824  24.567  11.847  1.00  0.00     0.048 C 
HETATM    3  C7  UNL     1      16.841  23.576  12.452  1.00  0.00     0.009 C 
HETATM    4  C8  UNL     1      15.864  22.720  13.122  1.00  0.00     0.005 C 
HETATM    5  C9  UNL     1      16.293  21.606  13.994  1.00  0.00     0.021 C 
HETATM    6  C10 UNL     1      17.381  20.818  13.318  1.00  0.00     0.014 C 
HETATM    7  C11 UNL     1      17.607  19.629  14.278  1.00  0.00     0.040 C 
HETATM    8  C12 UNL     1      16.390  18.820  14.039  1.00  0.00    -0.048 C 
HETATM    9  C13 UNL     1      16.528  17.565  13.700  1.00  0.00     0.057 C 
HETATM   10  C14 UNL     1      15.331  16.779  13.467  1.00  0.00     0.150 C 
HETATM   11  O4  UNL     1      15.371  15.754  12.756  1.00  0.00    -0.293 OA
HETATM   12  C15 UNL     1      14.085  17.210  14.076  1.00  0.00     0.087 C 
HETATM   13  C16 UNL     1      13.920  18.654  14.365  1.00  0.00     0.047 C 
HETATM   14  C17 UNL     1      15.097  19.513  14.195  1.00  0.00    -0.048 C 
HETATM   15  C18 UNL     1      15.014  20.815  14.175  1.00  0.00    -0.060 C 
HETATM   16  C19 UNL     1      13.749  21.524  14.294  1.00  0.00     0.049 C 
HETATM   17  C28 UNL     1      13.792  23.020  14.261  1.00  0.00     0.026 C 
HETATM   18  C29 UNL     1      15.068  23.693  13.959  1.00  0.00     0.000 C 
HETATM   19  C30 UNL     1      15.755  24.000  15.276  1.00  0.00     0.019 C 
ENDROOT
BRANCH  16  20
HETATM   20  C20 UNL     1      12.911  21.179  15.469  1.00  0.00    -0.050 A 
HETATM   21  C21 UNL     1      11.611  20.810  15.283  1.00  0.00     0.010 A 
HETATM   22  C22 UNL     1      10.821  20.495  16.348  1.00  0.00     0.030 A 
HETATM   23  C23 UNL     1      11.278  20.528  17.652  1.00  0.00     0.029 A 
HETATM   24  C26 UNL     1      12.588  20.900  17.828  1.00  0.00     0.030 A 
HETATM   25  C27 UNL     1      13.385  21.218  16.756  1.00  0.00     0.010 A 
BRANCH  23  26
HETATM   26  N1  UNL     1      10.484  20.208  18.773  1.00  0.00    -0.390 N 
HETATM   27  C24 UNL     1      10.665  18.895  19.373  1.00  0.00     0.149 C 
HETATM   28  C25 UNL     1       9.523  21.149  19.311  1.00  0.00     0.149 C 
ENDBRANCH  23  26
ENDBRANCH  16  20
BRANCH   1  29
HETATM   29  O2  UNL     1      13.761  25.262  12.675  1.00  0.00    -0.302 OA
BRANCH  29  30
HETATM   30  C2  UNL     1      13.061  26.404  12.921  1.00  0.00     0.256 C 
HETATM   31  C1  UNL     1      13.160  27.636  12.086  1.00  0.00     0.126 C 
HETATM   32  O1  UNL     1      12.289  26.455  13.887  1.00  0.00    -0.266 OA
ENDBRANCH  29  30
ENDBRANCH   1  29
BRANCH   1  33
HETATM   33  C4  UNL     1      15.785  26.088  13.682  1.00  0.00     0.158 C 
HETATM   34  C5  UNL     1      15.506  26.646  15.035  1.00  0.00     0.094 C 
HETATM   35  O3  UNL     1      16.678  26.659  13.067  1.00  0.00    -0.295 OA
ENDBRANCH   1  33
TORSDOF 5
ENDMDL
