MODEL 2
REMARK VINA RESULT: -9.053631102      3.127      6.553
REMARK  5 active torsions:
REMARK  status: ('A' for Active; 'I' for Inactive)
REMARK    1  A    between atoms: C2_2  and  O2_4 
REMARK    2  A    between atoms: O2_4  and  C3_5 
REMARK    3  A    between atoms: C3_5  and  C4_6 
REMARK    4  A    between atoms: C19_23  and  C20_24 
REMARK    5  A    between atoms: C23_27  and  N1_28 
ROOT
HETATM    1  C3  UNL     1      12.660  19.758  16.335  1.00  0.00     0.138 C 
HETATM    2  C6  UNL     1      13.480  18.444  16.198  1.00  0.00     0.048 C 
HETATM    3  C7  UNL     1      13.749  18.473  14.678  1.00  0.00     0.009 C 
HETATM    4  C8  UNL     1      14.297  19.826  14.630  1.00  0.00     0.005 C 
HETATM    5  C9  UNL     1      14.649  20.464  13.343  1.00  0.00     0.021 C 
HETATM    6  C10 UNL     1      15.423  19.498  12.489  1.00  0.00     0.014 C 
HETATM    7  C11 UNL     1      15.832  20.353  11.269  1.00  0.00     0.040 C 
HETATM    8  C12 UNL     1      16.881  21.220  11.853  1.00  0.00    -0.048 C 
HETATM    9  C13 UNL     1      18.058  21.248  11.286  1.00  0.00     0.057 C 
HETATM   10  C14 UNL     1      19.081  22.099  11.864  1.00  0.00     0.150 C 
HETATM   11  O4  UNL     1      20.291  21.869  11.662  1.00  0.00    -0.293 OA
HETATM   12  C15 UNL     1      18.669  23.224  12.685  1.00  0.00     0.087 C 
HETATM   13  C16 UNL     1      17.369  23.125  13.391  1.00  0.00     0.047 C 
HETATM   14  C17 UNL     1      16.507  21.987  13.056  1.00  0.00    -0.048 C 
HETATM   15  C18 UNL     1      15.472  21.660  13.780  1.00  0.00    -0.060 C 
HETATM   16  C19 UNL     1      15.099  22.378  14.989  1.00  0.00     0.049 C 
HETATM   17  C28 UNL     1      13.885  21.902  15.725  1.00  0.00     0.026 C 
HETATM   18  C29 UNL     1      13.224  20.660  15.290  1.00  0.00     0.000 C 
HETATM   19  C30 UNL     1      12.121  21.034  14.318  1.00  0.00     0.019 C 
ENDROOT
BRANCH  16  20
HETATM   20  C20 UNL     1      14.930  23.845  14.855  1.00  0.00    -0.050 A 
HETATM   21  C21 UNL     1      14.041  24.340  13.946  1.00  0.00     0.010 A 
HETATM   22  C22 UNL     1      13.873  25.685  13.801  1.00  0.00     0.030 A 
HETATM   23  C23 UNL     1      14.578  26.610  14.550  1.00  0.00     0.029 A 
HETATM   24  C26 UNL     1      15.470  26.101  15.461  1.00  0.00     0.030 A 
HETATM   25  C27 UNL     1      15.640  24.746  15.608  1.00  0.00     0.010 A 
BRANCH  23  26
HETATM   26  N1  UNL     1      14.426  28.005  14.422  1.00  0.00    -0.390 N 
HETATM   27  C24 UNL     1      14.575  28.812  15.624  1.00  0.00     0.149 C 
HETATM   28  C25 UNL     1      14.133  28.619  13.142  1.00  0.00     0.149 C 
ENDBRANCH  23  26
ENDBRANCH  16  20
BRANCH   1  29
HETATM   29  O2  UNL     1      12.909  20.186  17.635  1.00  0.00    -0.302 OA
BRANCH  29  30
HETATM   30  C2  UNL     1      12.145  19.965  18.740  1.00  0.00     0.256 C 
HETATM   31  C1  UNL     1      12.090  18.663  19.466  1.00  0.00     0.126 C 
HETATM   32  O1  UNL     1      11.443  20.877  19.194  1.00  0.00    -0.266 OA
ENDBRANCH  29  30
ENDBRANCH   1  29
BRANCH   1  33
HETATM   33  C4  UNL     1      11.262  19.315  16.110  1.00  0.00     0.158 C 
HETATM   34  C5  UNL     1      10.912  17.886  15.873  1.00  0.00     0.094 C 
HETATM   35  O3  UNL     1      10.309  20.084  16.102  1.00  0.00    -0.295 OA
ENDBRANCH   1  33
TORSDOF 5
ENDMDL
