MODEL 4
REMARK VINA RESULT: -8.304882744      3.679      6.462
REMARK  5 active torsions:
REMARK  status: ('A' for Active; 'I' for Inactive)
REMARK    1  A    between atoms: C2_2  and  O2_4 
REMARK    2  A    between atoms: O2_4  and  C3_5 
REMARK    3  A    between atoms: C3_5  and  C4_6 
REMARK    4  A    between atoms: C19_23  and  C20_24 
REMARK    5  A    between atoms: C23_27  and  N1_28 
ROOT
HETATM    1  C3  UNL     1      14.360  21.790  14.239  1.00  0.00     0.138 C 
HETATM    2  C6  UNL     1      14.787  22.729  15.402  1.00  0.00     0.048 C 
HETATM    3  C7  UNL     1      13.401  23.278  15.803  1.00  0.00     0.009 C 
HETATM    4  C8  UNL     1      12.744  21.981  15.954  1.00  0.00     0.005 C 
HETATM    5  C9  UNL     1      11.296  21.886  16.239  1.00  0.00     0.021 C 
HETATM    6  C10 UNL     1      10.927  22.849  17.334  1.00  0.00     0.014 C 
HETATM    7  C11 UNL     1       9.443  22.523  17.608  1.00  0.00     0.040 C 
HETATM    8  C12 UNL     1       9.549  21.223  18.309  1.00  0.00    -0.048 C 
HETATM    9  C13 UNL     1       8.987  21.095  19.482  1.00  0.00     0.057 C 
HETATM   10  C14 UNL     1       9.096  19.818  20.163  1.00  0.00     0.150 C 
HETATM   11  O4  UNL     1       8.974  19.745  21.403  1.00  0.00    -0.293 OA
HETATM   12  C15 UNL     1       9.352  18.627  19.372  1.00  0.00     0.087 C 
HETATM   13  C16 UNL     1      10.074  18.792  18.088  1.00  0.00     0.047 C 
HETATM   14  C17 UNL     1      10.305  20.162  17.617  1.00  0.00    -0.048 C 
HETATM   15  C18 UNL     1      11.134  20.435  16.647  1.00  0.00    -0.060 C 
HETATM   16  C19 UNL     1      11.916  19.413  15.969  1.00  0.00     0.049 C 
HETATM   17  C28 UNL     1      12.828  19.861  14.869  1.00  0.00     0.026 C 
HETATM   18  C29 UNL     1      13.007  21.303  14.630  1.00  0.00     0.000 C 
HETATM   19  C30 UNL     1      12.008  21.727  13.569  1.00  0.00     0.019 C 
ENDROOT
BRANCH  16  20
HETATM   20  C20 UNL     1      11.156  18.268  15.411  1.00  0.00    -0.050 A 
HETATM   21  C21 UNL     1      11.646  17.002  15.556  1.00  0.00     0.010 A 
HETATM   22  C22 UNL     1      10.968  15.935  15.045  1.00  0.00     0.030 A 
HETATM   23  C23 UNL     1       9.770  16.066  14.367  1.00  0.00     0.029 A 
HETATM   24  C26 UNL     1       9.287  17.344  14.229  1.00  0.00     0.030 A 
HETATM   25  C27 UNL     1       9.969  18.420  14.742  1.00  0.00     0.010 A 
BRANCH  23  26
HETATM   26  N1  UNL     1       9.047  14.982  13.830  1.00  0.00    -0.390 N 
HETATM   27  C24 UNL     1       9.798  13.799  13.438  1.00  0.00     0.149 C 
HETATM   28  C25 UNL     1       7.608  15.039  13.671  1.00  0.00     0.149 C 
ENDBRANCH  23  26
ENDBRANCH  16  20
BRANCH   1  29
HETATM   29  O2  UNL     1      15.330  20.793  14.226  1.00  0.00    -0.302 OA
BRANCH  29  30
HETATM   30  C2  UNL     1      16.565  20.846  13.656  1.00  0.00     0.256 C 
HETATM   31  C1  UNL     1      17.742  21.516  14.281  1.00  0.00     0.126 C 
HETATM   32  O1  UNL     1      16.756  20.317  12.553  1.00  0.00    -0.266 OA
ENDBRANCH  29  30
ENDBRANCH   1  29
BRANCH   1  33
HETATM   33  C4  UNL     1      14.402  22.677  13.050  1.00  0.00     0.158 C 
HETATM   34  C5  UNL     1      14.840  24.099  13.137  1.00  0.00     0.094 C 
HETATM   35  O3  UNL     1      14.080  22.308  11.927  1.00  0.00    -0.295 OA
ENDBRANCH   1  33
TORSDOF 5
ENDMDL
