MODEL 6
REMARK VINA RESULT: -7.285507093      2.422      6.293
REMARK  9 active torsions:
REMARK  status: ('A' for Active; 'I' for Inactive)
REMARK    1  A    between atoms: C2_2  and  C3_3 
REMARK    2  A    between atoms: C3_3  and  C4_4 
REMARK    3  A    between atoms: C3_3  and  N1_12 
REMARK    4  A    between atoms: C4_4  and  S1_5 
REMARK    5  A    between atoms: S1_5  and  C5_8 
REMARK    6  A    between atoms: C10_15  and  C12_17 
REMARK    7  A    between atoms: C12_17  and  C13_18 
REMARK    8  A    between atoms: C15_22  and  C16_23 
REMARK    9  A    between atoms: C22_30  and  C23_31 
ROOT
HETATM    1  N1  UNL     1     -35.572  11.451 -51.693  1.00  0.00    -0.336 N 
HETATM    2  C9  UNL     1     -35.845  11.211 -50.320  1.00  0.00     0.229 C 
HETATM    3  O3  UNL     1     -36.367  10.162 -49.927  1.00  0.00    -0.272 OA
HETATM    4  C10 UNL     1     -35.493  12.256 -49.326  1.00  0.00     0.047 C 
HETATM    5  C11 UNL     1     -36.776  12.729 -48.655  1.00  0.00     0.026 C 
HETATM    6  C14 UNL     1     -34.866  13.457 -49.968  1.00  0.00     0.031 C 
HETATM    7  C15 UNL     1     -33.925  13.159 -51.067  1.00  0.00     0.047 C 
HETATM    8  C22 UNL     1     -34.429  12.189 -52.103  1.00  0.00     0.129 C 
ENDROOT
BRANCH   1   9
HETATM    9  C3  UNL     1     -36.508  10.963 -52.704  1.00  0.00     0.101 C 
BRANCH   9  10
HETATM   10  C2  UNL     1     -37.131  12.011 -53.540  1.00  0.00     0.022 C 
HETATM   11  C1  UNL     1     -37.966  13.022 -52.752  1.00  0.00     0.007 C 
ENDBRANCH   9  10
BRANCH   9  12
HETATM   12  C4  UNL     1     -35.821   9.942 -53.584  1.00  0.00     0.166 C 
BRANCH  12  13
HETATM   13  S1  UNL     1     -36.414   8.315 -53.394  1.00  0.00     0.153 S 
HETATM   14  O1  UNL     1     -37.509   8.251 -52.371  1.00  0.00    -0.227 OA
HETATM   15  O2  UNL     1     -36.946   7.688 -54.658  1.00  0.00    -0.227 OA
BRANCH  13  16
HETATM   16  C5  UNL     1     -35.111   7.211 -52.826  1.00  0.00     0.053 C 
HETATM   17  C6  UNL     1     -35.662   5.794 -52.944  1.00  0.00     0.031 C 
HETATM   18  C7  UNL     1     -33.890   7.301 -53.680  1.00  0.00     0.031 C 
HETATM   19  C8  UNL     1     -34.833   7.444 -51.360  1.00  0.00     0.031 C 
ENDBRANCH  13  16
ENDBRANCH  12  13
ENDBRANCH   9  12
ENDBRANCH   1   9
BRANCH   8  20
HETATM   20  C23 UNL     1     -33.263  11.377 -52.506  1.00  0.00    -0.035 A 
HETATM   21  C24 UNL     1     -32.729  10.480 -51.610  1.00  0.00     0.011 A 
HETATM   22  C25 UNL     1     -31.653   9.675 -51.919  1.00  0.00     0.024 A 
HETATM   23  C26 UNL     1     -31.140   9.825 -53.191  1.00  0.00     0.034 A 
HETATM   24 CL2  UNL     1     -29.772   8.848 -53.681  1.00  0.00    -0.084 Cl
HETATM   25  C27 UNL     1     -31.648  10.712 -54.114  1.00  0.00     0.024 A 
HETATM   26  C28 UNL     1     -32.719  11.487 -53.753  1.00  0.00     0.011 A 
ENDBRANCH   8  20
BRANCH   4  27
HETATM   27  C12 UNL     1     -34.656  11.617 -48.249  1.00  0.00     0.132 C 
BRANCH  27  28
HETATM   28  C13 UNL     1     -35.329  11.549 -46.932  1.00  0.00     0.173 C 
HETATM   29  O4  UNL     1     -35.252  12.522 -46.141  1.00  0.00    -0.648 OA
HETATM   30  O5  UNL     1     -36.054  10.438 -46.528  1.00  0.00    -0.648 OA
ENDBRANCH  27  28
ENDBRANCH   4  27
BRANCH   7  31
HETATM   31  C16 UNL     1     -33.583  14.421 -51.764  1.00  0.00    -0.050 A 
HETATM   32  C17 UNL     1     -34.509  14.941 -52.641  1.00  0.00     0.007 A 
HETATM   33  C18 UNL     1     -34.275  16.122 -53.344  1.00  0.00     0.002 A 
HETATM   34  C19 UNL     1     -33.089  16.793 -53.163  1.00  0.00     0.024 A 
HETATM   35  C20 UNL     1     -32.169  16.262 -52.281  1.00  0.00     0.034 A 
HETATM   36 CL1  UNL     1     -30.658  17.132 -52.061  1.00  0.00    -0.084 Cl
HETATM   37  C21 UNL     1     -32.401  15.093 -51.586  1.00  0.00     0.031 A 
ENDBRANCH   7  31
TORSDOF 9
ENDMDL
