MODEL 5
REMARK VINA RESULT: -7.512446896      2.683      6.375
REMARK  9 active torsions:
REMARK  status: ('A' for Active; 'I' for Inactive)
REMARK    1  A    between atoms: C2_2  and  C3_3 
REMARK    2  A    between atoms: C3_3  and  C4_4 
REMARK    3  A    between atoms: C3_3  and  N1_12 
REMARK    4  A    between atoms: C4_4  and  S1_5 
REMARK    5  A    between atoms: S1_5  and  C5_8 
REMARK    6  A    between atoms: C10_15  and  C12_17 
REMARK    7  A    between atoms: C12_17  and  C13_18 
REMARK    8  A    between atoms: C15_22  and  C16_23 
REMARK    9  A    between atoms: C22_30  and  C23_31 
ROOT
HETATM    1  N1  UNL     1     -35.973  10.779 -51.815  1.00  0.00    -0.336 N 
HETATM    2  C9  UNL     1     -36.914  10.147 -52.671  1.00  0.00     0.229 C 
HETATM    3  O3  UNL     1     -37.038   8.919 -52.718  1.00  0.00    -0.272 OA
HETATM    4  C10 UNL     1     -37.774  10.991 -53.539  1.00  0.00     0.047 C 
HETATM    5  C11 UNL     1     -37.459  10.660 -54.991  1.00  0.00     0.026 C 
HETATM    6  C14 UNL     1     -37.498  12.454 -53.353  1.00  0.00     0.031 C 
HETATM    7  C15 UNL     1     -37.247  12.871 -51.959  1.00  0.00     0.047 C 
HETATM    8  C22 UNL     1     -36.251  12.031 -51.203  1.00  0.00     0.129 C 
ENDROOT
BRANCH   1   9
HETATM    9  C3  UNL     1     -34.674  10.148 -51.591  1.00  0.00     0.101 C 
BRANCH   9  10
HETATM   10  C2  UNL     1     -34.692   8.971 -50.697  1.00  0.00     0.022 C 
HETATM   11  C1  UNL     1     -34.185   9.255 -49.282  1.00  0.00     0.007 C 
ENDBRANCH   9  10
BRANCH   9  12
HETATM   12  C4  UNL     1     -34.052   9.777 -52.920  1.00  0.00     0.166 C 
BRANCH  12  13
HETATM   13  S1  UNL     1     -32.429  10.369 -53.143  1.00  0.00     0.153 S 
HETATM   14  O1  UNL     1     -31.611  10.200 -51.897  1.00  0.00    -0.227 OA
HETATM   15  O2  UNL     1     -31.670   9.712 -54.269  1.00  0.00    -0.227 OA
BRANCH  13  16
HETATM   16  C5  UNL     1     -32.426  12.127 -53.529  1.00  0.00     0.053 C 
HETATM   17  C6  UNL     1     -33.770  12.429 -54.185  1.00  0.00     0.031 C 
HETATM   18  C7  UNL     1     -32.315  12.969 -52.302  1.00  0.00     0.031 C 
HETATM   19  C8  UNL     1     -31.366  12.433 -54.561  1.00  0.00     0.031 C 
ENDBRANCH  13  16
ENDBRANCH  12  13
ENDBRANCH   9  12
ENDBRANCH   1   9
BRANCH   8  20
HETATM   20  C23 UNL     1     -36.748  11.959 -49.814  1.00  0.00    -0.035 A 
HETATM   21  C24 UNL     1     -35.972  12.467 -48.798  1.00  0.00     0.011 A 
HETATM   22  C25 UNL     1     -36.376  12.453 -47.479  1.00  0.00     0.024 A 
HETATM   23  C26 UNL     1     -37.613  11.893 -47.239  1.00  0.00     0.034 A 
HETATM   24 CL2  UNL     1     -38.217  11.827 -45.596  1.00  0.00    -0.084 Cl
HETATM   25  C27 UNL     1     -38.417  11.375 -48.230  1.00  0.00     0.024 A 
HETATM   26  C28 UNL     1     -37.966  11.416 -49.524  1.00  0.00     0.011 A 
ENDBRANCH   8  20
BRANCH   4  27
HETATM   27  C12 UNL     1     -39.208  10.594 -53.307  1.00  0.00     0.132 C 
BRANCH  27  28
HETATM   28  C13 UNL     1     -40.175  11.339 -54.145  1.00  0.00     0.173 C 
HETATM   29  O4  UNL     1     -40.510  10.885 -55.266  1.00  0.00    -0.648 OA
HETATM   30  O5  UNL     1     -40.737  12.539 -53.735  1.00  0.00    -0.648 OA
ENDBRANCH  27  28
ENDBRANCH   4  27
BRANCH   7  31
HETATM   31  C16 UNL     1     -36.747  14.267 -51.957  1.00  0.00    -0.050 A 
HETATM   32  C17 UNL     1     -37.533  15.229 -51.364  1.00  0.00     0.007 A 
HETATM   33  C18 UNL     1     -37.147  16.568 -51.315  1.00  0.00     0.002 A 
HETATM   34  C19 UNL     1     -35.950  16.947 -51.874  1.00  0.00     0.024 A 
HETATM   35  C20 UNL     1     -35.170  15.973 -52.466  1.00  0.00     0.034 A 
HETATM   36 CL1  UNL     1     -33.643  16.475 -53.176  1.00  0.00    -0.084 Cl
HETATM   37  C21 UNL     1     -35.553  14.648 -52.513  1.00  0.00     0.031 A 
ENDBRANCH   7  31
TORSDOF 9
ENDMDL
