MODEL 2
REMARK VINA RESULT: -7.705842735      2.824      5.365
REMARK  9 active torsions:
REMARK  status: ('A' for Active; 'I' for Inactive)
REMARK    1  A    between atoms: C2_2  and  C3_3 
REMARK    2  A    between atoms: C3_3  and  C4_4 
REMARK    3  A    between atoms: C3_3  and  N1_12 
REMARK    4  A    between atoms: C4_4  and  S1_5 
REMARK    5  A    between atoms: S1_5  and  C5_8 
REMARK    6  A    between atoms: C10_15  and  C12_17 
REMARK    7  A    between atoms: C12_17  and  C13_18 
REMARK    8  A    between atoms: C15_22  and  C16_23 
REMARK    9  A    between atoms: C22_30  and  C23_31 
ROOT
HETATM    1  N1  UNL     1     -35.246  13.116 -52.315  1.00  0.00    -0.336 N 
HETATM    2  C9  UNL     1     -35.077  14.500 -52.043  1.00  0.00     0.229 C 
HETATM    3  O3  UNL     1     -35.980  15.188 -51.556  1.00  0.00    -0.272 OA
HETATM    4  C10 UNL     1     -33.774  15.138 -52.356  1.00  0.00     0.047 C 
HETATM    5  C11 UNL     1     -34.008  16.211 -53.411  1.00  0.00     0.026 C 
HETATM    6  C14 UNL     1     -32.792  14.162 -52.934  1.00  0.00     0.031 C 
HETATM    7  C15 UNL     1     -32.810  12.819 -52.320  1.00  0.00     0.047 C 
HETATM    8  C22 UNL     1     -34.174  12.195 -52.170  1.00  0.00     0.129 C 
ENDROOT
BRANCH   1   9
HETATM    9  C3  UNL     1     -36.540  12.634 -52.795  1.00  0.00     0.101 C 
BRANCH   9  10
HETATM   10  C2  UNL     1     -36.501  11.895 -54.074  1.00  0.00     0.022 C 
HETATM   11  C1  UNL     1     -37.873  11.430 -54.567  1.00  0.00     0.007 C 
ENDBRANCH   9  10
BRANCH   9  12
HETATM   12  C4  UNL     1     -37.195  11.785 -51.728  1.00  0.00     0.166 C 
BRANCH  12  13
HETATM   13  S1  UNL     1     -38.506  12.568 -50.891  1.00  0.00     0.153 S 
HETATM   14  O1  UNL     1     -38.674  13.986 -51.347  1.00  0.00    -0.227 OA
HETATM   15  O2  UNL     1     -39.844  11.888 -51.042  1.00  0.00    -0.227 OA
BRANCH  13  16
HETATM   16  C5  UNL     1     -38.201  12.628 -49.118  1.00  0.00     0.053 C 
HETATM   17  C6  UNL     1     -37.621  11.272 -48.731  1.00  0.00     0.031 C 
HETATM   18  C7  UNL     1     -37.200  13.675 -48.758  1.00  0.00     0.031 C 
HETATM   19  C8  UNL     1     -39.506  12.768 -48.369  1.00  0.00     0.031 C 
ENDBRANCH  13  16
ENDBRANCH  12  13
ENDBRANCH   9  12
ENDBRANCH   1   9
BRANCH   8  20
HETATM   20  C23 UNL     1     -34.146  11.452 -50.895  1.00  0.00    -0.035 A 
HETATM   21  C24 UNL     1     -34.367  10.094 -50.906  1.00  0.00     0.011 A 
HETATM   22  C25 UNL     1     -34.339   9.330 -49.758  1.00  0.00     0.024 A 
HETATM   23  C26 UNL     1     -34.075  10.014 -48.590  1.00  0.00     0.034 A 
HETATM   24 CL2  UNL     1     -34.018   9.133 -47.078  1.00  0.00    -0.084 Cl
HETATM   25  C27 UNL     1     -33.848  11.371 -48.541  1.00  0.00     0.024 A 
HETATM   26  C28 UNL     1     -33.887  12.083 -49.712  1.00  0.00     0.011 A 
ENDBRANCH   8  20
BRANCH   4  27
HETATM   27  C12 UNL     1     -33.290  15.849 -51.120  1.00  0.00     0.132 C 
BRANCH  27  28
HETATM   28  C13 UNL     1     -31.857  16.218 -51.167  1.00  0.00     0.173 C 
HETATM   29  O4  UNL     1     -30.997  15.443 -50.677  1.00  0.00    -0.648 OA
HETATM   30  O5  UNL     1     -31.416  17.401 -51.738  1.00  0.00    -0.648 OA
ENDBRANCH  27  28
ENDBRANCH   4  27
BRANCH   7  31
HETATM   31  C16 UNL     1     -31.986  11.902 -53.143  1.00  0.00    -0.050 A 
HETATM   32  C17 UNL     1     -31.496  12.379 -54.338  1.00  0.00     0.007 A 
HETATM   33  C18 UNL     1     -30.714  11.589 -55.180  1.00  0.00     0.002 A 
HETATM   34  C19 UNL     1     -30.420  10.297 -54.815  1.00  0.00     0.024 A 
HETATM   35  C20 UNL     1     -30.916   9.831 -53.614  1.00  0.00     0.034 A 
HETATM   36 CL1  UNL     1     -30.530   8.178 -53.161  1.00  0.00    -0.084 Cl
HETATM   37  C21 UNL     1     -31.690  10.613 -52.781  1.00  0.00     0.031 A 
ENDBRANCH   7  31
TORSDOF 9
ENDMDL
