MODEL 3
REMARK VINA RESULT: -7.682398942      1.468      1.920
REMARK  9 active torsions:
REMARK  status: ('A' for Active; 'I' for Inactive)
REMARK    1  A    between atoms: C2_2  and  C3_3 
REMARK    2  A    between atoms: C3_3  and  C4_4 
REMARK    3  A    between atoms: C3_3  and  N1_12 
REMARK    4  A    between atoms: C4_4  and  S1_5 
REMARK    5  A    between atoms: S1_5  and  C5_8 
REMARK    6  A    between atoms: C10_15  and  C12_17 
REMARK    7  A    between atoms: C12_17  and  C13_18 
REMARK    8  A    between atoms: C15_22  and  C16_23 
REMARK    9  A    between atoms: C22_30  and  C23_31 
ROOT
HETATM    1  N1  UNL     1     -36.124  12.942 -50.944  1.00  0.00    -0.336 N 
HETATM    2  C9  UNL     1     -37.233  12.691 -51.796  1.00  0.00     0.229 C 
HETATM    3  O3  UNL     1     -38.260  13.377 -51.756  1.00  0.00    -0.272 OA
HETATM    4  C10 UNL     1     -37.155  11.568 -52.763  1.00  0.00     0.047 C 
HETATM    5  C11 UNL     1     -38.240  10.558 -52.413  1.00  0.00     0.026 C 
HETATM    6  C14 UNL     1     -35.843  10.846 -52.684  1.00  0.00     0.031 C 
HETATM    7  C15 UNL     1     -34.663  11.713 -52.486  1.00  0.00     0.047 C 
HETATM    8  C22 UNL     1     -34.789  12.733 -51.385  1.00  0.00     0.129 C 
ENDROOT
BRANCH   1   9
HETATM    9  C3  UNL     1     -36.362  13.385 -49.572  1.00  0.00     0.101 C 
BRANCH   9  10
HETATM   10  C2  UNL     1     -37.342  14.482 -49.426  1.00  0.00     0.022 C 
HETATM   11  C1  UNL     1     -36.843  15.835 -49.938  1.00  0.00     0.007 C 
ENDBRANCH   9  10
BRANCH   9  12
HETATM   12  C4  UNL     1     -36.778  12.205 -48.721  1.00  0.00     0.166 C 
BRANCH  12  13
HETATM   13  S1  UNL     1     -35.594  11.719 -47.540  1.00  0.00     0.153 S 
HETATM   14  O1  UNL     1     -34.218  12.170 -47.930  1.00  0.00    -0.227 OA
HETATM   15  O2  UNL     1     -35.853  12.228 -46.144  1.00  0.00    -0.227 OA
BRANCH  13  16
HETATM   16  C5  UNL     1     -35.527   9.927 -47.387  1.00  0.00     0.053 C 
HETATM   17  C6  UNL     1     -36.159   9.360 -48.654  1.00  0.00     0.031 C 
HETATM   18  C7  UNL     1     -34.123   9.425 -47.311  1.00  0.00     0.031 C 
HETATM   19  C8  UNL     1     -36.388   9.469 -46.234  1.00  0.00     0.031 C 
ENDBRANCH  13  16
ENDBRANCH  12  13
ENDBRANCH   9  12
ENDBRANCH   1   9
BRANCH   8  20
HETATM   20  C23 UNL     1     -34.085  13.940 -51.863  1.00  0.00    -0.035 A 
HETATM   21  C24 UNL     1     -32.865  14.264 -51.317  1.00  0.00     0.011 A 
HETATM   22  C25 UNL     1     -32.139  15.363 -51.724  1.00  0.00     0.024 A 
HETATM   23  C26 UNL     1     -32.715  16.126 -52.719  1.00  0.00     0.034 A 
HETATM   24 CL2  UNL     1     -31.873  17.545 -53.305  1.00  0.00    -0.084 Cl
HETATM   25  C27 UNL     1     -33.935  15.833 -53.288  1.00  0.00     0.024 A 
HETATM   26  C28 UNL     1     -34.613  14.726 -52.846  1.00  0.00     0.011 A 
ENDBRANCH   8  20
BRANCH   4  27
HETATM   27  C12 UNL     1     -37.490  12.102 -54.131  1.00  0.00     0.132 C 
BRANCH  27  28
HETATM   28  C13 UNL     1     -37.949  11.063 -55.080  1.00  0.00     0.173 C 
HETATM   29  O4  UNL     1     -37.123  10.246 -55.559  1.00  0.00    -0.648 OA
HETATM   30  O5  UNL     1     -39.275  10.950 -55.470  1.00  0.00    -0.648 OA
ENDBRANCH  27  28
ENDBRANCH   4  27
BRANCH   7  31
HETATM   31  C16 UNL     1     -33.488  10.863 -52.176  1.00  0.00    -0.050 A 
HETATM   32  C17 UNL     1     -33.322  10.449 -50.874  1.00  0.00     0.007 A 
HETATM   33  C18 UNL     1     -32.247   9.650 -50.487  1.00  0.00     0.002 A 
HETATM   34  C19 UNL     1     -31.321   9.261 -51.427  1.00  0.00     0.024 A 
HETATM   35  C20 UNL     1     -31.500   9.682 -52.729  1.00  0.00     0.034 A 
HETATM   36 CL1  UNL     1     -30.308   9.176 -53.917  1.00  0.00    -0.084 Cl
HETATM   37  C21 UNL     1     -32.564  10.473 -53.111  1.00  0.00     0.031 A 
ENDBRANCH   7  31
TORSDOF 9
ENDMDL
