MODEL 1
REMARK VINA RESULT: -7.790352701      0.000      0.000
REMARK  9 active torsions:
REMARK  status: ('A' for Active; 'I' for Inactive)
REMARK    1  A    between atoms: C2_2  and  C3_3 
REMARK    2  A    between atoms: C3_3  and  C4_4 
REMARK    3  A    between atoms: C3_3  and  N1_12 
REMARK    4  A    between atoms: C4_4  and  S1_5 
REMARK    5  A    between atoms: S1_5  and  C5_8 
REMARK    6  A    between atoms: C10_15  and  C12_17 
REMARK    7  A    between atoms: C12_17  and  C13_18 
REMARK    8  A    between atoms: C15_22  and  C16_23 
REMARK    9  A    between atoms: C22_30  and  C23_31 
ROOT
HETATM    1  N1  UNL     1     -36.350  13.107 -50.992  1.00  0.00    -0.336 N 
HETATM    2  C9  UNL     1     -37.333  12.783 -51.965  1.00  0.00     0.229 C 
HETATM    3  O3  UNL     1     -38.347  13.469 -52.128  1.00  0.00    -0.272 OA
HETATM    4  C10 UNL     1     -37.133  11.581 -52.813  1.00  0.00     0.047 C 
HETATM    5  C11 UNL     1     -38.268  10.604 -52.532  1.00  0.00     0.026 C 
HETATM    6  C14 UNL     1     -35.853  10.869 -52.490  1.00  0.00     0.031 C 
HETATM    7  C15 UNL     1     -34.703  11.750 -52.203  1.00  0.00     0.047 C 
HETATM    8  C22 UNL     1     -34.970  12.862 -51.222  1.00  0.00     0.129 C 
ENDROOT
BRANCH   1   9
HETATM    9  C3  UNL     1     -36.772  13.666 -49.709  1.00  0.00     0.101 C 
BRANCH   9  10
HETATM   10  C2  UNL     1     -37.582  14.900 -49.797  1.00  0.00     0.022 C 
HETATM   11  C1  UNL     1     -36.798  16.128 -50.263  1.00  0.00     0.007 C 
ENDBRANCH   9  10
BRANCH   9  12
HETATM   12  C4  UNL     1     -37.517  12.616 -48.915  1.00  0.00     0.166 C 
BRANCH  12  13
HETATM   13  S1  UNL     1     -36.513  11.679 -47.844  1.00  0.00     0.153 S 
HETATM   14  O1  UNL     1     -36.511  10.230 -48.228  1.00  0.00    -0.227 OA
HETATM   15  O2  UNL     1     -35.074  12.127 -47.780  1.00  0.00    -0.227 OA
BRANCH  13  16
HETATM   16  C5  UNL     1     -37.114  11.764 -46.150  1.00  0.00     0.053 C 
HETATM   17  C6  UNL     1     -36.122  12.629 -45.380  1.00  0.00     0.031 C 
HETATM   18  C7  UNL     1     -38.454  12.415 -46.064  1.00  0.00     0.031 C 
HETATM   19  C8  UNL     1     -37.074  10.394 -45.513  1.00  0.00     0.031 C 
ENDBRANCH  13  16
ENDBRANCH  12  13
ENDBRANCH   9  12
ENDBRANCH   1   9
BRANCH   8  20
HETATM   20  C23 UNL     1     -34.192  14.024 -51.698  1.00  0.00    -0.035 A 
HETATM   21  C24 UNL     1     -33.061  14.399 -51.011  1.00  0.00     0.011 A 
HETATM   22  C25 UNL     1     -32.273  15.461 -51.405  1.00  0.00     0.024 A 
HETATM   23  C26 UNL     1     -32.692  16.128 -52.538  1.00  0.00     0.034 A 
HETATM   24 CL2  UNL     1     -31.760  17.491 -53.120  1.00  0.00    -0.084 Cl
HETATM   25  C27 UNL     1     -33.818  15.780 -53.251  1.00  0.00     0.024 A 
HETATM   26  C28 UNL     1     -34.564  14.716 -52.814  1.00  0.00     0.011 A 
ENDBRANCH   8  20
BRANCH   4  27
HETATM   27  C12 UNL     1     -37.269  11.994 -54.254  1.00  0.00     0.132 C 
BRANCH  27  28
HETATM   28  C13 UNL     1     -37.828  10.937 -55.128  1.00  0.00     0.173 C 
HETATM   29  O4  UNL     1     -37.095   9.991 -55.509  1.00  0.00    -0.648 OA
HETATM   30  O5  UNL     1     -39.148  10.948 -55.550  1.00  0.00    -0.648 OA
ENDBRANCH  27  28
ENDBRANCH   4  27
BRANCH   7  31
HETATM   31  C16 UNL     1     -33.593  10.931 -51.661  1.00  0.00    -0.050 A 
HETATM   32  C17 UNL     1     -32.609  10.526 -52.535  1.00  0.00     0.007 A 
HETATM   33  C18 UNL     1     -31.527   9.752 -52.117  1.00  0.00     0.002 A 
HETATM   34  C19 UNL     1     -31.433   9.377 -50.798  1.00  0.00     0.024 A 
HETATM   35  C20 UNL     1     -32.426   9.790 -49.932  1.00  0.00     0.034 A 
HETATM   36 CL1  UNL     1     -32.291   9.302 -48.249  1.00  0.00    -0.084 Cl
HETATM   37  C21 UNL     1     -33.496  10.556 -50.345  1.00  0.00     0.031 A 
ENDBRANCH   7  31
TORSDOF 9
ENDMDL
