MODEL 4
REMARK VINA RESULT: -9.333280758      1.168      1.490
REMARK  10 active torsions:
REMARK  status: ('A' for Active; 'I' for Inactive)
REMARK       I    between atoms: C1_2  and  N1_3 
REMARK       I    between atoms: C1_2  and  N3_24 
REMARK    1  A    between atoms: N1_3  and  C2_5 
REMARK    2  A    between atoms: C2_5  and  C3_6 
REMARK    3  A    between atoms: C2_5  and  C14_21 
REMARK    4  A    between atoms: C3_6  and  C4_7 
REMARK    5  A    between atoms: C4_7  and  C5_8 
REMARK    6  A    between atoms: C5_8  and  C6_9 
REMARK    7  A    between atoms: C6_9  and  N2_10 
REMARK       I    between atoms: N2_10  and  C7_12 
REMARK    8  A    between atoms: C7_12  and  C8_14 
REMARK    9  A    between atoms: N3_24  and  C15_26 
REMARK   10  A    between atoms: C15_26  and  C16_27 
ROOT
HETATM    1  C2  UNL     1      19.773  44.691  43.898  1.00  0.00     0.187 C 
ENDROOT
BRANCH   1   2
HETATM    2  N1  UNL     1      18.335  44.850  43.806  1.00  0.00    -0.329 N 
HETATM    3  C1  UNL     1      17.666  44.940  42.555  1.00  0.00     0.317 C 
HETATM    4  O1  UNL     1      18.368  44.877  41.533  1.00  0.00    -0.247 OA
HETATM    5  N3  UNL     1      16.268  45.094  42.433  1.00  0.00    -0.324 N 
ATOM      6  H3  UNL     1      15.721  45.144  43.292  1.00  0.00     0.165 HD
ATOM      7  H1  UNL     1      17.787  44.898  44.666  1.00  0.00     0.165 HD
BRANCH   5   8
HETATM    8  C15 UNL     1      15.553  45.187  41.169  1.00  0.00     0.123 A 
HETATM    9  C17 UNL     1      14.503  44.186  40.835  1.00  0.00     0.045 A 
HETATM   10  C18 UNL     1      15.796  44.135  40.133  1.00  0.00     0.045 A 
BRANCH   8  11
HETATM   11  C16 UNL     1      15.425  46.566  40.631  1.00  0.00     0.202 C 
HETATM   12  O5  UNL     1      14.342  47.183  40.595  1.00  0.00    -0.646 OA
HETATM   13  O6  UNL     1      16.554  47.202  40.144  1.00  0.00    -0.646 OA
ENDBRANCH   8  11
ENDBRANCH   5   8
ENDBRANCH   1   2
BRANCH   1  14
HETATM   14  C3  UNL     1      20.507  45.982  43.608  1.00  0.00     0.036 C 
BRANCH  14  15
HETATM   15  C4  UNL     1      21.980  45.688  43.494  1.00  0.00     0.004 C 
BRANCH  15  16
HETATM   16  C5  UNL     1      22.529  46.134  42.153  1.00  0.00     0.020 C 
BRANCH  16  17
HETATM   17  C6  UNL     1      23.439  47.299  42.422  1.00  0.00     0.123 C 
BRANCH  17  18
HETATM   18  N2  UNL     1      23.498  47.568  43.839  1.00  0.00    -0.357 N 
HETATM   19  C7  UNL     1      23.262  48.848  44.364  1.00  0.00     0.251 C 
HETATM   20  O2  UNL     1      22.985  49.799  43.605  1.00  0.00    -0.268 OA
ATOM     21  H2  UNL     1      23.717  46.804  44.478  1.00  0.00     0.162 HD
BRANCH  19  22
HETATM   22  C8  UNL     1      23.335  49.088  45.792  1.00  0.00     0.032 A 
HETATM   23  C9  UNL     1      23.159  50.397  46.270  1.00  0.00     0.018 A 
HETATM   24  C10 UNL     1      23.229  50.651  47.617  1.00  0.00     0.019 A 
HETATM   25  C11 UNL     1      23.469  49.640  48.514  1.00  0.00     0.006 A 
HETATM   26  I1  UNL     1      23.565  50.084  50.553  1.00  0.00    -0.045 I 
HETATM   27  C12 UNL     1      23.639  48.363  48.030  1.00  0.00     0.019 A 
HETATM   28  C13 UNL     1      23.575  48.068  46.669  1.00  0.00     0.018 A 
ENDBRANCH  19  22
ENDBRANCH  17  18
ENDBRANCH  16  17
ENDBRANCH  15  16
ENDBRANCH  14  15
ENDBRANCH   1  14
BRANCH   1  29
HETATM   29  C14 UNL     1      20.162  44.210  45.245  1.00  0.00     0.196 C 
HETATM   30  O3  UNL     1      20.633  43.070  45.375  1.00  0.00    -0.646 OA
HETATM   31  O4  UNL     1      20.004  45.019  46.356  1.00  0.00    -0.646 OA
ENDBRANCH   1  29
TORSDOF 10
ENDMDL
