MODEL 10
REMARK VINA RESULT: -8.873007268      3.623      8.848
REMARK  10 active torsions:
REMARK  status: ('A' for Active; 'I' for Inactive)
REMARK       I    between atoms: C1_2  and  N1_3 
REMARK       I    between atoms: C1_2  and  N3_24 
REMARK    1  A    between atoms: N1_3  and  C2_5 
REMARK    2  A    between atoms: C2_5  and  C3_6 
REMARK    3  A    between atoms: C2_5  and  C14_21 
REMARK    4  A    between atoms: C3_6  and  C4_7 
REMARK    5  A    between atoms: C4_7  and  C5_8 
REMARK    6  A    between atoms: C5_8  and  C6_9 
REMARK    7  A    between atoms: C6_9  and  N2_10 
REMARK       I    between atoms: N2_10  and  C7_12 
REMARK    8  A    between atoms: C7_12  and  C8_14 
REMARK    9  A    between atoms: N3_24  and  C15_26 
REMARK   10  A    between atoms: C15_26  and  C16_27 
ROOT
HETATM    1  C2  UNL     1      22.281  45.153  44.708  1.00  0.00     0.187 C 
ENDROOT
BRANCH   1   2
HETATM    2  N1  UNL     1      23.139  46.319  44.751  1.00  0.00    -0.329 N 
HETATM    3  C1  UNL     1      22.750  47.518  45.410  1.00  0.00     0.317 C 
HETATM    4  O1  UNL     1      21.634  47.527  45.954  1.00  0.00    -0.247 OA
HETATM    5  N3  UNL     1      23.564  48.669  45.471  1.00  0.00    -0.324 N 
ATOM      6  H3  UNL     1      24.475  48.629  45.013  1.00  0.00     0.165 HD
ATOM      7  H1  UNL     1      24.051  46.279  44.295  1.00  0.00     0.165 HD
BRANCH   5   8
HETATM    8  C15 UNL     1      23.197  49.909  46.138  1.00  0.00     0.123 A 
HETATM    9  C17 UNL     1      22.161  50.795  45.541  1.00  0.00     0.045 A 
HETATM   10  C18 UNL     1      23.573  51.205  45.490  1.00  0.00     0.045 A 
BRANCH   8  11
HETATM   11  C16 UNL     1      23.357  49.888  47.615  1.00  0.00     0.202 C 
HETATM   12  O5  UNL     1      22.787  50.699  48.371  1.00  0.00    -0.646 OA
HETATM   13  O6  UNL     1      24.173  48.928  48.187  1.00  0.00    -0.646 OA
ENDBRANCH   8  11
ENDBRANCH   5   8
ENDBRANCH   1   2
BRANCH   1  14
HETATM   14  C3  UNL     1      21.520  45.055  43.404  1.00  0.00     0.036 C 
BRANCH  14  15
HETATM   15  C4  UNL     1      20.069  45.362  43.664  1.00  0.00     0.004 C 
BRANCH  15  16
HETATM   16  C5  UNL     1      19.564  44.640  44.898  1.00  0.00     0.020 C 
BRANCH  16  17
HETATM   17  C6  UNL     1      18.386  43.813  44.467  1.00  0.00     0.123 C 
BRANCH  17  18
HETATM   18  N2  UNL     1      17.486  44.608  43.666  1.00  0.00    -0.357 N 
HETATM   19  C7  UNL     1      17.212  44.299  42.324  1.00  0.00     0.251 C 
HETATM   20  O2  UNL     1      17.744  43.307  41.785  1.00  0.00    -0.268 OA
ATOM     21  H2  UNL     1      17.035  45.420  44.088  1.00  0.00     0.162 HD
BRANCH  19  22
HETATM   22  C8  UNL     1      16.307  45.121  41.545  1.00  0.00     0.032 A 
HETATM   23  C9  UNL     1      14.948  44.769  41.490  1.00  0.00     0.018 A 
HETATM   24  C10 UNL     1      14.072  45.528  40.754  1.00  0.00     0.019 A 
HETATM   25  C11 UNL     1      14.504  46.634  40.064  1.00  0.00     0.006 A 
HETATM   26  I1  UNL     1      13.127  47.751  38.961  1.00  0.00    -0.045 I 
HETATM   27  C12 UNL     1      15.838  46.965  40.128  1.00  0.00     0.019 A 
HETATM   28  C13 UNL     1      16.756  46.217  40.865  1.00  0.00     0.018 A 
ENDBRANCH  19  22
ENDBRANCH  17  18
ENDBRANCH  16  17
ENDBRANCH  15  16
ENDBRANCH  14  15
ENDBRANCH   1  14
BRANCH   1  29
HETATM   29  C14 UNL     1      23.070  43.913  44.899  1.00  0.00     0.196 C 
HETATM   30  O3  UNL     1      24.056  43.698  44.178  1.00  0.00    -0.646 OA
HETATM   31  O4  UNL     1      22.717  42.996  45.872  1.00  0.00    -0.646 OA
ENDBRANCH   1  29
TORSDOF 10
ENDMDL
