MODEL 2
REMARK VINA RESULT: -9.824550891      1.017      1.682
REMARK  10 active torsions:
REMARK  status: ('A' for Active; 'I' for Inactive)
REMARK       I    between atoms: C1_2  and  N1_3 
REMARK       I    between atoms: C1_2  and  N3_24 
REMARK    1  A    between atoms: N1_3  and  C2_5 
REMARK    2  A    between atoms: C2_5  and  C3_6 
REMARK    3  A    between atoms: C2_5  and  C14_21 
REMARK    4  A    between atoms: C3_6  and  C4_7 
REMARK    5  A    between atoms: C4_7  and  C5_8 
REMARK    6  A    between atoms: C5_8  and  C6_9 
REMARK    7  A    between atoms: C6_9  and  N2_10 
REMARK       I    between atoms: N2_10  and  C7_12 
REMARK    8  A    between atoms: C7_12  and  C8_14 
REMARK    9  A    between atoms: N3_24  and  C15_26 
REMARK   10  A    between atoms: C15_26  and  C16_27 
ROOT
HETATM    1  C2  UNL     1      20.147  44.214  44.566  1.00  0.00     0.187 C 
ENDROOT
BRANCH   1   2
HETATM    2  N1  UNL     1      19.271  45.139  43.876  1.00  0.00    -0.329 N 
HETATM    3  C1  UNL     1      18.407  44.720  42.827  1.00  0.00     0.317 C 
HETATM    4  O1  UNL     1      18.433  43.516  42.522  1.00  0.00    -0.247 OA
HETATM    5  N3  UNL     1      17.542  45.596  42.138  1.00  0.00    -0.324 N 
ATOM      6  H3  UNL     1      17.547  46.578  42.412  1.00  0.00     0.165 HD
ATOM      7  H1  UNL     1      19.274  46.122  44.151  1.00  0.00     0.165 HD
BRANCH   5   8
HETATM    8  C15 UNL     1      16.645  45.199  41.063  1.00  0.00     0.123 A 
HETATM    9  C17 UNL     1      17.117  44.256  40.012  1.00  0.00     0.045 A 
HETATM   10  C18 UNL     1      16.939  45.677  39.676  1.00  0.00     0.045 A 
BRANCH   8  11
HETATM   11  C16 UNL     1      15.204  45.204  41.426  1.00  0.00     0.202 C 
HETATM   12  O5  UNL     1      14.491  44.182  41.389  1.00  0.00    -0.646 OA
HETATM   13  O6  UNL     1      14.619  46.393  41.825  1.00  0.00    -0.646 OA
ENDBRANCH   8  11
ENDBRANCH   5   8
ENDBRANCH   1   2
BRANCH   1  14
HETATM   14  C3  UNL     1      21.560  44.260  44.027  1.00  0.00     0.036 C 
BRANCH  14  15
HETATM   15  C4  UNL     1      21.712  45.483  43.162  1.00  0.00     0.004 C 
BRANCH  15  16
HETATM   16  C5  UNL     1      22.985  45.425  42.341  1.00  0.00     0.020 C 
BRANCH  16  17
HETATM   17  C6  UNL     1      23.628  46.779  42.438  1.00  0.00     0.123 C 
BRANCH  17  18
HETATM   18  N2  UNL     1      23.664  47.215  43.814  1.00  0.00    -0.357 N 
HETATM   19  C7  UNL     1      23.294  48.516  44.193  1.00  0.00     0.251 C 
HETATM   20  O2  UNL     1      22.913  49.337  43.334  1.00  0.00    -0.268 OA
ATOM     21  H2  UNL     1      23.967  46.558  44.533  1.00  0.00     0.162 HD
BRANCH  19  22
HETATM   22  C8  UNL     1      23.347  48.925  45.583  1.00  0.00     0.032 A 
HETATM   23  C9  UNL     1      23.592  47.953  46.567  1.00  0.00     0.018 A 
HETATM   24  C10 UNL     1      23.641  48.314  47.890  1.00  0.00     0.019 A 
HETATM   25  C11 UNL     1      23.454  49.619  48.273  1.00  0.00     0.006 A 
HETATM   26  I1  UNL     1      23.539  50.111  50.301  1.00  0.00    -0.045 I 
HETATM   27  C12 UNL     1      23.215  50.559  47.296  1.00  0.00     0.019 A 
HETATM   28  C13 UNL     1      23.158  50.229  45.943  1.00  0.00     0.018 A 
ENDBRANCH  19  22
ENDBRANCH  17  18
ENDBRANCH  16  17
ENDBRANCH  15  16
ENDBRANCH  14  15
ENDBRANCH   1  14
BRANCH   1  29
HETATM   29  C14 UNL     1      20.178  44.506  46.019  1.00  0.00     0.196 C 
HETATM   30  O3  UNL     1      19.862  45.634  46.424  1.00  0.00    -0.646 OA
HETATM   31  O4  UNL     1      20.556  43.531  46.925  1.00  0.00    -0.646 OA
ENDBRANCH   1  29
TORSDOF 10
ENDMDL
