MODEL 13
REMARK VINA RESULT: -8.608334176      3.598      8.076
REMARK  10 active torsions:
REMARK  status: ('A' for Active; 'I' for Inactive)
REMARK       I    between atoms: C1_2  and  N1_3 
REMARK       I    between atoms: C1_2  and  N3_24 
REMARK    1  A    between atoms: N1_3  and  C2_5 
REMARK    2  A    between atoms: C2_5  and  C3_6 
REMARK    3  A    between atoms: C2_5  and  C14_21 
REMARK    4  A    between atoms: C3_6  and  C4_7 
REMARK    5  A    between atoms: C4_7  and  C5_8 
REMARK    6  A    between atoms: C5_8  and  C6_9 
REMARK    7  A    between atoms: C6_9  and  N2_10 
REMARK       I    between atoms: N2_10  and  C7_12 
REMARK    8  A    between atoms: C7_12  and  C8_14 
REMARK    9  A    between atoms: N3_24  and  C15_26 
REMARK   10  A    between atoms: C15_26  and  C16_27 
ROOT
HETATM    1  C2  UNL     1      23.458  45.240  43.398  1.00  0.00     0.187 C 
ENDROOT
BRANCH   1   2
HETATM    2  N1  UNL     1      22.676  46.081  44.280  1.00  0.00    -0.329 N 
HETATM    3  C1  UNL     1      23.113  47.377  44.670  1.00  0.00     0.317 C 
HETATM    4  O1  UNL     1      24.203  47.765  44.219  1.00  0.00    -0.247 OA
HETATM    5  N3  UNL     1      22.373  48.220  45.526  1.00  0.00    -0.324 N 
ATOM      6  H3  UNL     1      21.482  47.872  45.880  1.00  0.00     0.165 HD
ATOM      7  H1  UNL     1      21.784  45.734  44.633  1.00  0.00     0.165 HD
BRANCH   5   8
HETATM    8  C15 UNL     1      22.791  49.551  45.942  1.00  0.00     0.123 A 
HETATM    9  C17 UNL     1      22.114  50.751  45.378  1.00  0.00     0.045 A 
HETATM   10  C18 UNL     1      23.482  50.426  44.943  1.00  0.00     0.045 A 
BRANCH   8  11
HETATM   11  C16 UNL     1      23.350  49.623  47.317  1.00  0.00     0.202 C 
HETATM   12  O5  UNL     1      23.070  50.539  48.115  1.00  0.00    -0.646 OA
HETATM   13  O6  UNL     1      24.220  48.634  47.738  1.00  0.00    -0.646 OA
ENDBRANCH   8  11
ENDBRANCH   5   8
ENDBRANCH   1   2
BRANCH   1  14
HETATM   14  C3  UNL     1      23.456  43.794  43.841  1.00  0.00     0.036 C 
BRANCH  14  15
HETATM   15  C4  UNL     1      23.100  43.734  45.303  1.00  0.00     0.004 C 
BRANCH  15  16
HETATM   16  C5  UNL     1      22.282  42.498  45.622  1.00  0.00     0.020 C 
BRANCH  16  17
HETATM   17  C6  UNL     1      20.952  42.976  46.131  1.00  0.00     0.123 C 
BRANCH  17  18
HETATM   18  N2  UNL     1      20.032  43.150  45.032  1.00  0.00    -0.357 N 
HETATM   19  C7  UNL     1      19.507  44.406  44.692  1.00  0.00     0.251 C 
HETATM   20  O2  UNL     1      19.835  45.422  45.339  1.00  0.00    -0.268 OA
ATOM     21  H2  UNL     1      19.754  42.334  44.486  1.00  0.00     0.162 HD
BRANCH  19  22
HETATM   22  C8  UNL     1      18.579  44.547  43.586  1.00  0.00     0.032 A 
HETATM   23  C9  UNL     1      18.748  45.618  42.692  1.00  0.00     0.018 A 
HETATM   24  C10 UNL     1      17.879  45.776  41.641  1.00  0.00     0.019 A 
HETATM   25  C11 UNL     1      16.841  44.900  41.445  1.00  0.00     0.006 A 
HETATM   26  I1  UNL     1      15.551  45.190  39.829  1.00  0.00    -0.045 I 
HETATM   27  C12 UNL     1      16.690  43.856  42.330  1.00  0.00     0.019 A 
HETATM   28  C13 UNL     1      17.552  43.664  43.409  1.00  0.00     0.018 A 
ENDBRANCH  19  22
ENDBRANCH  17  18
ENDBRANCH  16  17
ENDBRANCH  15  16
ENDBRANCH  14  15
ENDBRANCH   1  14
BRANCH   1  29
HETATM   29  C14 UNL     1      22.947  45.318  42.009  1.00  0.00     0.196 C 
HETATM   30  O3  UNL     1      21.733  45.479  41.812  1.00  0.00    -0.646 OA
HETATM   31  O4  UNL     1      23.810  45.213  40.933  1.00  0.00    -0.646 OA
ENDBRANCH   1  29
TORSDOF 10
ENDMDL
