MODEL 6
REMARK VINA RESULT: -9.027046206      3.620      8.300
REMARK  10 active torsions:
REMARK  status: ('A' for Active; 'I' for Inactive)
REMARK       I    between atoms: C1_2  and  N1_3 
REMARK       I    between atoms: C1_2  and  N3_24 
REMARK    1  A    between atoms: N1_3  and  C2_5 
REMARK    2  A    between atoms: C2_5  and  C3_6 
REMARK    3  A    between atoms: C2_5  and  C14_21 
REMARK    4  A    between atoms: C3_6  and  C4_7 
REMARK    5  A    between atoms: C4_7  and  C5_8 
REMARK    6  A    between atoms: C5_8  and  C6_9 
REMARK    7  A    between atoms: C6_9  and  N2_10 
REMARK       I    between atoms: N2_10  and  C7_12 
REMARK    8  A    between atoms: C7_12  and  C8_14 
REMARK    9  A    between atoms: N3_24  and  C15_26 
REMARK   10  A    between atoms: C15_26  and  C16_27 
ROOT
HETATM    1  C2  UNL     1      23.356  45.693  43.824  1.00  0.00     0.187 C 
ENDROOT
BRANCH   1   2
HETATM    2  N1  UNL     1      22.657  46.337  44.917  1.00  0.00    -0.329 N 
HETATM    3  C1  UNL     1      23.284  47.310  45.744  1.00  0.00     0.317 C 
HETATM    4  O1  UNL     1      24.467  47.589  45.490  1.00  0.00    -0.247 OA
HETATM    5  N3  UNL     1      22.629  47.955  46.815  1.00  0.00    -0.324 N 
ATOM      6  H3  UNL     1      21.658  47.702  46.997  1.00  0.00     0.165 HD
ATOM      7  H1  UNL     1      21.685  46.086  45.099  1.00  0.00     0.165 HD
BRANCH   5   8
HETATM    8  C15 UNL     1      23.241  48.955  47.678  1.00  0.00     0.123 A 
HETATM    9  C17 UNL     1      24.307  48.556  48.637  1.00  0.00     0.045 A 
HETATM   10  C18 UNL     1      22.968  48.890  49.148  1.00  0.00     0.045 A 
BRANCH   8  11
HETATM   11  C16 UNL     1      23.263  50.329  47.113  1.00  0.00     0.202 C 
HETATM   12  O5  UNL     1      22.529  50.688  46.171  1.00  0.00    -0.646 OA
HETATM   13  O6  UNL     1      24.135  51.260  47.651  1.00  0.00    -0.646 OA
ENDBRANCH   8  11
ENDBRANCH   5   8
ENDBRANCH   1   2
BRANCH   1  14
HETATM   14  C3  UNL     1      23.184  44.191  43.846  1.00  0.00     0.036 C 
BRANCH  14  15
HETATM   15  C4  UNL     1      23.309  43.708  45.267  1.00  0.00     0.004 C 
BRANCH  15  16
HETATM   16  C5  UNL     1      22.454  42.479  45.509  1.00  0.00     0.020 C 
BRANCH  16  17
HETATM   17  C6  UNL     1      21.136  42.965  46.042  1.00  0.00     0.123 C 
BRANCH  17  18
HETATM   18  N2  UNL     1      20.198  43.147  44.960  1.00  0.00    -0.357 N 
HETATM   19  C7  UNL     1      19.585  44.384  44.706  1.00  0.00     0.251 C 
HETATM   20  O2  UNL     1      19.847  45.375  45.418  1.00  0.00    -0.268 OA
ATOM     21  H2  UNL     1      19.973  42.352  44.362  1.00  0.00     0.162 HD
BRANCH  19  22
HETATM   22  C8  UNL     1      18.642  44.533  43.615  1.00  0.00     0.032 A 
HETATM   23  C9  UNL     1      18.822  45.586  42.702  1.00  0.00     0.018 A 
HETATM   24  C10 UNL     1      17.940  45.752  41.664  1.00  0.00     0.019 A 
HETATM   25  C11 UNL     1      16.875  44.901  41.500  1.00  0.00     0.006 A 
HETATM   26  I1  UNL     1      15.565  45.202  39.902  1.00  0.00    -0.045 I 
HETATM   27  C12 UNL     1      16.713  43.875  42.402  1.00  0.00     0.019 A 
HETATM   28  C13 UNL     1      17.589  43.676  43.469  1.00  0.00     0.018 A 
ENDBRANCH  19  22
ENDBRANCH  17  18
ENDBRANCH  16  17
ENDBRANCH  15  16
ENDBRANCH  14  15
ENDBRANCH   1  14
BRANCH   1  29
HETATM   29  C14 UNL     1      22.881  46.212  42.519  1.00  0.00     0.196 C 
HETATM   30  O3  UNL     1      22.188  45.489  41.788  1.00  0.00    -0.646 OA
HETATM   31  O4  UNL     1      23.202  47.494  42.111  1.00  0.00    -0.646 OA
ENDBRANCH   1  29
TORSDOF 10
ENDMDL
