MODEL 1
REMARK VINA RESULT: -10.363592835      0.000      0.000
REMARK  10 active torsions:
REMARK  status: ('A' for Active; 'I' for Inactive)
REMARK       I    between atoms: C1_2  and  N1_3 
REMARK       I    between atoms: C1_2  and  N3_24 
REMARK    1  A    between atoms: N1_3  and  C2_5 
REMARK    2  A    between atoms: C2_5  and  C3_6 
REMARK    3  A    between atoms: C2_5  and  C14_21 
REMARK    4  A    between atoms: C3_6  and  C4_7 
REMARK    5  A    between atoms: C4_7  and  C5_8 
REMARK    6  A    between atoms: C5_8  and  C6_9 
REMARK    7  A    between atoms: C6_9  and  N2_10 
REMARK       I    between atoms: N2_10  and  C7_12 
REMARK    8  A    between atoms: C7_12  and  C8_14 
REMARK    9  A    between atoms: N3_24  and  C15_26 
REMARK   10  A    between atoms: C15_26  and  C16_27 
ROOT
HETATM    1  C2  UNL     1      20.232  44.545  44.260  1.00  0.00     0.187 C 
ENDROOT
BRANCH   1   2
HETATM    2  N1  UNL     1      19.273  45.383  43.568  1.00  0.00    -0.329 N 
HETATM    3  C1  UNL     1      18.297  44.843  42.687  1.00  0.00     0.317 C 
HETATM    4  O1  UNL     1      18.296  43.611  42.532  1.00  0.00    -0.247 OA
HETATM    5  N3  UNL     1      17.350  45.632  42.000  1.00  0.00    -0.324 N 
ATOM      6  H3  UNL     1      17.378  46.641  42.149  1.00  0.00     0.165 HD
ATOM      7  H1  UNL     1      19.300  46.393  43.717  1.00  0.00     0.165 HD
BRANCH   5   8
HETATM    8  C15 UNL     1      16.337  45.111  41.095  1.00  0.00     0.123 A 
HETATM    9  C17 UNL     1      14.906  45.470  41.295  1.00  0.00     0.045 A 
HETATM   10  C18 UNL     1      15.358  44.108  41.622  1.00  0.00     0.045 A 
BRANCH   8  11
HETATM   11  C16 UNL     1      16.821  44.837  39.717  1.00  0.00     0.202 C 
HETATM   12  O5  UNL     1      18.021  44.633  39.447  1.00  0.00    -0.646 OA
HETATM   13  O6  UNL     1      15.905  44.804  38.680  1.00  0.00    -0.646 OA
ENDBRANCH   8  11
ENDBRANCH   5   8
ENDBRANCH   1   2
BRANCH   1  14
HETATM   14  C3  UNL     1      21.643  44.764  43.761  1.00  0.00     0.036 C 
BRANCH  14  15
HETATM   15  C4  UNL     1      21.656  45.963  42.849  1.00  0.00     0.004 C 
BRANCH  15  16
HETATM   16  C5  UNL     1      22.954  46.050  42.070  1.00  0.00     0.020 C 
BRANCH  16  17
HETATM   17  C6  UNL     1      23.525  47.415  42.328  1.00  0.00     0.123 C 
BRANCH  17  18
HETATM   18  N2  UNL     1      23.595  47.665  43.749  1.00  0.00    -0.357 N 
HETATM   19  C7  UNL     1      23.209  48.893  44.308  1.00  0.00     0.251 C 
HETATM   20  O2  UNL     1      22.783  49.811  43.579  1.00  0.00    -0.268 OA
ATOM     21  H2  UNL     1      23.936  46.926  44.364  1.00  0.00     0.162 HD
BRANCH  19  22
HETATM   22  C8  UNL     1      23.297  49.115  45.738  1.00  0.00     0.032 A 
HETATM   23  C9  UNL     1      23.143  50.422  46.232  1.00  0.00     0.018 A 
HETATM   24  C10 UNL     1      23.227  50.659  47.581  1.00  0.00     0.019 A 
HETATM   25  C11 UNL     1      23.462  49.635  48.465  1.00  0.00     0.006 A 
HETATM   26  I1  UNL     1      23.581  50.055  50.508  1.00  0.00    -0.045 I 
HETATM   27  C12 UNL     1      23.611  48.361  47.965  1.00  0.00     0.019 A 
HETATM   28  C13 UNL     1      23.531  48.083  46.601  1.00  0.00     0.018 A 
ENDBRANCH  19  22
ENDBRANCH  17  18
ENDBRANCH  16  17
ENDBRANCH  15  16
ENDBRANCH  14  15
ENDBRANCH   1  14
BRANCH   1  29
HETATM   29  C14 UNL     1      20.193  44.799  45.719  1.00  0.00     0.196 C 
HETATM   30  O3  UNL     1      19.838  45.911  46.138  1.00  0.00    -0.646 OA
HETATM   31  O4  UNL     1      20.550  43.809  46.617  1.00  0.00    -0.646 OA
ENDBRANCH   1  29
TORSDOF 10
ENDMDL
