MODEL 8
REMARK VINA RESULT: -8.354656831      3.679      8.124
REMARK  11 active torsions:
REMARK  status: ('A' for Active; 'I' for Inactive)
REMARK    1  A    between atoms: C3_3  and  C4_4 
REMARK    2  A    between atoms: C4_4  and  N1_5 
REMARK    3  A    between atoms: C4_4  and  C19_30 
REMARK       I    between atoms: N1_5  and  C5_7 
REMARK       I    between atoms: C5_7  and  N2_9 
REMARK    4  A    between atoms: N2_9  and  C6_11 
REMARK    5  A    between atoms: C6_11  and  C7_12 
REMARK    6  A    between atoms: C6_11  and  C18_27 
REMARK    7  A    between atoms: C7_12  and  C8_13 
REMARK    8  A    between atoms: C8_13  and  C9_14 
REMARK    9  A    between atoms: C9_14  and  C10_15 
REMARK   10  A    between atoms: C10_15  and  N3_16 
REMARK       I    between atoms: N3_16  and  C11_18 
REMARK   11  A    between atoms: C11_18  and  C12_20 
ROOT
HETATM    1  C1  UNL     1      20.783  49.671  44.389  1.00  0.00     0.012 C 
HETATM    2  C2  UNL     1      21.746  50.020  45.037  1.00  0.00    -0.115 C 
HETATM    3  C3  UNL     1      22.920  50.458  45.808  1.00  0.00     0.129 C 
ENDROOT
BRANCH   3   4
HETATM    4  C4  UNL     1      23.382  49.270  46.621  1.00  0.00     0.198 C 
BRANCH   4   5
HETATM    5  N1  UNL     1      22.793  48.036  46.151  1.00  0.00    -0.328 N 
HETATM    6  C5  UNL     1      23.472  47.240  45.200  1.00  0.00     0.317 C 
HETATM    7  O1  UNL     1      24.597  47.569  44.733  1.00  0.00    -0.247 OA
HETATM    8  N2  UNL     1      22.928  46.003  44.702  1.00  0.00    -0.329 N 
ATOM      9  H2  UNL     1      22.021  45.683  45.042  1.00  0.00     0.165 HD
ATOM     10  H1  UNL     1      21.884  47.739  46.505  1.00  0.00     0.165 HD
BRANCH   8  11
HETATM   11  C6  UNL     1      23.640  45.202  43.728  1.00  0.00     0.187 C 
BRANCH  11  12
HETATM   12  C7  UNL     1      23.485  43.738  44.162  1.00  0.00     0.036 C 
BRANCH  12  13
HETATM   13  C8  UNL     1      23.343  43.632  45.652  1.00  0.00     0.004 C 
BRANCH  13  14
HETATM   14  C9  UNL     1      22.394  42.518  45.991  1.00  0.00     0.020 C 
BRANCH  14  15
HETATM   15  C10 UNL     1      21.081  43.071  46.431  1.00  0.00     0.123 C 
BRANCH  15  16
HETATM   16  N3  UNL     1      20.161  43.262  45.320  1.00  0.00    -0.357 N 
HETATM   17  C11 UNL     1      19.628  44.522  44.955  1.00  0.00     0.251 C 
HETATM   18  O2  UNL     1      19.961  45.558  45.630  1.00  0.00    -0.268 OA
ATOM     19  H3  UNL     1      19.886  42.445  44.774  1.00  0.00     0.162 HD
BRANCH  17  20
HETATM   20  C12 UNL     1      18.719  44.712  43.857  1.00  0.00     0.032 A 
HETATM   21  C13 UNL     1      17.659  43.842  43.646  1.00  0.00     0.018 A 
HETATM   22  C14 UNL     1      16.767  43.991  42.605  1.00  0.00     0.019 A 
HETATM   23  C15 UNL     1      16.911  45.033  41.729  1.00  0.00     0.006 A 
HETATM   24  I1  UNL     1      15.607  45.348  40.112  1.00  0.00    -0.045 I 
HETATM   25  C16 UNL     1      17.963  45.915  41.922  1.00  0.00     0.019 A 
HETATM   26  C17 UNL     1      18.853  45.759  42.966  1.00  0.00     0.018 A 
ENDBRANCH  17  20
ENDBRANCH  15  16
ENDBRANCH  14  15
ENDBRANCH  13  14
ENDBRANCH  12  13
ENDBRANCH  11  12
BRANCH  11  27
HETATM   27  C18 UNL     1      23.056  45.345  42.373  1.00  0.00     0.196 C 
HETATM   28  O3  UNL     1      21.803  45.535  42.200  1.00  0.00    -0.646 OA
HETATM   29  O4  UNL     1      23.815  45.283  41.224  1.00  0.00    -0.646 OA
ENDBRANCH  11  27
ENDBRANCH   8  11
ENDBRANCH   4   5
BRANCH   4  30
HETATM   30  C19 UNL     1      23.056  49.435  48.052  1.00  0.00     0.197 C 
HETATM   31  O5  UNL     1      23.020  50.583  48.544  1.00  0.00    -0.646 OA
HETATM   32  O6  UNL     1      22.794  48.293  48.824  1.00  0.00    -0.646 OA
ENDBRANCH   4  30
ENDBRANCH   3   4
TORSDOF 11
ENDMDL
