MODEL 1
REMARK VINA RESULT: -11.270717322      0.000      0.000
REMARK  11 active torsions:
REMARK  status: ('A' for Active; 'I' for Inactive)
REMARK    1  A    between atoms: C3_3  and  C4_4 
REMARK    2  A    between atoms: C4_4  and  N1_5 
REMARK    3  A    between atoms: C4_4  and  C19_30 
REMARK       I    between atoms: N1_5  and  C5_7 
REMARK       I    between atoms: C5_7  and  N2_9 
REMARK    4  A    between atoms: N2_9  and  C6_11 
REMARK    5  A    between atoms: C6_11  and  C7_12 
REMARK    6  A    between atoms: C6_11  and  C18_27 
REMARK    7  A    between atoms: C7_12  and  C8_13 
REMARK    8  A    between atoms: C8_13  and  C9_14 
REMARK    9  A    between atoms: C9_14  and  C10_15 
REMARK   10  A    between atoms: C10_15  and  N3_16 
REMARK       I    between atoms: N3_16  and  C11_18 
REMARK   11  A    between atoms: C11_18  and  C12_20 
ROOT
HETATM    1  C1  UNL     1      15.399  47.588  40.296  1.00  0.00     0.012 C 
HETATM    2  C2  UNL     1      15.261  46.551  40.911  1.00  0.00    -0.115 C 
HETATM    3  C3  UNL     1      15.080  45.304  41.669  1.00  0.00     0.129 C 
ENDROOT
BRANCH   3   4
HETATM    4  C4  UNL     1      16.389  44.551  41.599  1.00  0.00     0.198 C 
BRANCH   4   5
HETATM    5  N1  UNL     1      17.468  45.293  42.213  1.00  0.00    -0.328 N 
HETATM    6  C5  UNL     1      18.443  44.622  42.986  1.00  0.00     0.317 C 
HETATM    7  O1  UNL     1      18.411  43.373  43.167  1.00  0.00    -0.247 OA
HETATM    8  N2  UNL     1      19.537  45.314  43.617  1.00  0.00    -0.329 N 
ATOM      9  H2  UNL     1      19.618  46.325  43.506  1.00  0.00     0.165 HD
ATOM     10  H1  UNL     1      17.526  46.304  42.089  1.00  0.00     0.165 HD
BRANCH   8  11
HETATM   11  C6  UNL     1      20.525  44.608  44.404  1.00  0.00     0.187 C 
BRANCH  11  12
HETATM   12  C7  UNL     1      21.900  45.122  43.954  1.00  0.00     0.036 C 
BRANCH  12  13
HETATM   13  C8  UNL     1      21.755  46.264  42.990  1.00  0.00     0.004 C 
BRANCH  13  14
HETATM   14  C9  UNL     1      23.101  46.622  42.425  1.00  0.00     0.020 C 
BRANCH  14  15
HETATM   15  C10 UNL     1      23.454  48.026  42.779  1.00  0.00     0.123 C 
BRANCH  15  16
HETATM   16  N3  UNL     1      23.590  48.218  44.215  1.00  0.00    -0.357 N 
HETATM   17  C11 UNL     1      23.000  49.296  44.918  1.00  0.00     0.251 C 
HETATM   18  O2  UNL     1      22.308  50.157  44.271  1.00  0.00    -0.268 OA
ATOM     19  H3  UNL     1      24.140  47.540  44.743  1.00  0.00     0.162 HD
BRANCH  17  20
HETATM   20  C12 UNL     1      23.134  49.486  46.337  1.00  0.00     0.032 A 
HETATM   21  C13 UNL     1      23.073  50.753  46.900  1.00  0.00     0.018 A 
HETATM   22  C14 UNL     1      23.197  50.975  48.255  1.00  0.00     0.019 A 
HETATM   23  C15 UNL     1      23.387  49.919  49.103  1.00  0.00     0.006 A 
HETATM   24  I1  UNL     1      23.586  50.150  51.182  1.00  0.00    -0.045 I 
HETATM   25  C16 UNL     1      23.449  48.643  48.563  1.00  0.00     0.019 A 
HETATM   26  C17 UNL     1      23.326  48.428  47.205  1.00  0.00     0.018 A 
ENDBRANCH  17  20
ENDBRANCH  15  16
ENDBRANCH  14  15
ENDBRANCH  13  14
ENDBRANCH  12  13
ENDBRANCH  11  12
BRANCH  11  27
HETATM   27  C18 UNL     1      20.377  44.898  45.851  1.00  0.00     0.196 C 
HETATM   28  O3  UNL     1      20.568  43.997  46.738  1.00  0.00    -0.646 OA
HETATM   29  O4  UNL     1      20.028  46.144  46.329  1.00  0.00    -0.646 OA
ENDBRANCH  11  27
ENDBRANCH   8  11
ENDBRANCH   4   5
BRANCH   4  30
HETATM   30  C19 UNL     1      16.761  44.242  40.204  1.00  0.00     0.197 C 
HETATM   31  O5  UNL     1      17.857  44.642  39.759  1.00  0.00    -0.646 OA
HETATM   32  O6  UNL     1      15.869  43.503  39.411  1.00  0.00    -0.646 OA
ENDBRANCH   4  30
ENDBRANCH   3   4
TORSDOF 11
ENDMDL
