MODEL 11
REMARK VINA RESULT: -7.895889707      3.605      8.211
REMARK  11 active torsions:
REMARK  status: ('A' for Active; 'I' for Inactive)
REMARK    1  A    between atoms: C3_3  and  C4_4 
REMARK    2  A    between atoms: C4_4  and  N1_5 
REMARK    3  A    between atoms: C4_4  and  C19_30 
REMARK       I    between atoms: N1_5  and  C5_7 
REMARK       I    between atoms: C5_7  and  N2_9 
REMARK    4  A    between atoms: N2_9  and  C6_11 
REMARK    5  A    between atoms: C6_11  and  C7_12 
REMARK    6  A    between atoms: C6_11  and  C18_27 
REMARK    7  A    between atoms: C7_12  and  C8_13 
REMARK    8  A    between atoms: C8_13  and  C9_14 
REMARK    9  A    between atoms: C9_14  and  C10_15 
REMARK   10  A    between atoms: C10_15  and  N3_16 
REMARK       I    between atoms: N3_16  and  C11_18 
REMARK   11  A    between atoms: C11_18  and  C12_20 
ROOT
HETATM    1  C1  UNL     1      23.297  50.306  49.907  1.00  0.00     0.012 C 
HETATM    2  C2  UNL     1      23.469  49.705  48.867  1.00  0.00    -0.115 C 
HETATM    3  C3  UNL     1      23.699  48.982  47.607  1.00  0.00     0.129 C 
ENDROOT
BRANCH   3   4
HETATM    4  C4  UNL     1      22.440  49.123  46.782  1.00  0.00     0.198 C 
BRANCH   4   5
HETATM    5  N1  UNL     1      22.062  47.872  46.161  1.00  0.00    -0.328 N 
HETATM    6  C5  UNL     1      22.943  47.230  45.260  1.00  0.00     0.317 C 
HETATM    7  O1  UNL     1      24.071  47.715  44.968  1.00  0.00    -0.247 OA
HETATM    8  N2  UNL     1      22.615  45.985  44.617  1.00  0.00    -0.329 N 
ATOM      9  H2  UNL     1      21.716  45.543  44.814  1.00  0.00     0.165 HD
ATOM     10  H1  UNL     1      21.158  47.451  46.373  1.00  0.00     0.165 HD
BRANCH   8  11
HETATM   11  C6  UNL     1      23.531  45.344  43.697  1.00  0.00     0.187 C 
BRANCH  11  12
HETATM   12  C7  UNL     1      23.577  43.859  44.081  1.00  0.00     0.036 C 
BRANCH  12  13
HETATM   13  C8  UNL     1      23.391  43.681  45.560  1.00  0.00     0.004 C 
BRANCH  13  14
HETATM   14  C9  UNL     1      22.475  42.519  45.819  1.00  0.00     0.020 C 
BRANCH  14  15
HETATM   15  C10 UNL     1      21.149  43.002  46.301  1.00  0.00     0.123 C 
BRANCH  15  16
HETATM   16  N3  UNL     1      20.205  43.206  45.212  1.00  0.00    -0.357 N 
HETATM   17  C11 UNL     1      19.594  44.452  44.932  1.00  0.00     0.251 C 
HETATM   18  O2  UNL     1      19.875  45.462  45.666  1.00  0.00    -0.268 OA
ATOM     19  H3  UNL     1      19.971  42.409  44.620  1.00  0.00     0.162 HD
BRANCH  17  20
HETATM   20  C12 UNL     1      18.662  44.654  43.856  1.00  0.00     0.032 A 
HETATM   21  C13 UNL     1      18.814  45.707  42.965  1.00  0.00     0.018 A 
HETATM   22  C14 UNL     1      17.941  45.934  41.921  1.00  0.00     0.019 A 
HETATM   23  C15 UNL     1      16.873  45.101  41.734  1.00  0.00     0.006 A 
HETATM   24  I1  UNL     1      15.487  45.360  40.177  1.00  0.00    -0.045 I 
HETATM   25  C16 UNL     1      16.702  44.042  42.612  1.00  0.00     0.019 A 
HETATM   26  C17 UNL     1      17.579  43.821  43.655  1.00  0.00     0.018 A 
ENDBRANCH  17  20
ENDBRANCH  15  16
ENDBRANCH  14  15
ENDBRANCH  13  14
ENDBRANCH  12  13
ENDBRANCH  11  12
BRANCH  11  27
HETATM   27  C18 UNL     1      23.055  45.442  42.296  1.00  0.00     0.196 C 
HETATM   28  O3  UNL     1      23.867  45.417  41.309  1.00  0.00    -0.646 OA
HETATM   29  O4  UNL     1      21.720  45.566  41.971  1.00  0.00    -0.646 OA
ENDBRANCH  11  27
ENDBRANCH   8  11
ENDBRANCH   4   5
BRANCH   4  30
HETATM   30  C19 UNL     1      22.596  50.146  45.729  1.00  0.00     0.197 C 
HETATM   31  O5  UNL     1      23.695  50.723  45.592  1.00  0.00    -0.646 OA
HETATM   32  O6  UNL     1      21.500  50.443  44.903  1.00  0.00    -0.646 OA
ENDBRANCH   4  30
ENDBRANCH   3   4
TORSDOF 11
ENDMDL
