MODEL 9
REMARK VINA RESULT: -8.254924266      3.694      7.892
REMARK  11 active torsions:
REMARK  status: ('A' for Active; 'I' for Inactive)
REMARK    1  A    between atoms: C3_3  and  C4_4 
REMARK    2  A    between atoms: C4_4  and  N1_5 
REMARK    3  A    between atoms: C4_4  and  C19_30 
REMARK       I    between atoms: N1_5  and  C5_7 
REMARK       I    between atoms: C5_7  and  N2_9 
REMARK    4  A    between atoms: N2_9  and  C6_11 
REMARK    5  A    between atoms: C6_11  and  C7_12 
REMARK    6  A    between atoms: C6_11  and  C18_27 
REMARK    7  A    between atoms: C7_12  and  C8_13 
REMARK    8  A    between atoms: C8_13  and  C9_14 
REMARK    9  A    between atoms: C9_14  and  C10_15 
REMARK   10  A    between atoms: C10_15  and  N3_16 
REMARK       I    between atoms: N3_16  and  C11_18 
REMARK   11  A    between atoms: C11_18  and  C12_20 
ROOT
HETATM    1  C1  UNL     1      19.783  48.794  44.744  1.00  0.00     0.012 C 
HETATM    2  C2  UNL     1      20.713  49.565  44.645  1.00  0.00    -0.115 C 
HETATM    3  C3  UNL     1      21.833  50.508  44.505  1.00  0.00     0.129 C 
ENDROOT
BRANCH   3   4
HETATM    4  C4  UNL     1      23.011  49.903  45.236  1.00  0.00     0.198 C 
BRANCH   4   5
HETATM    5  N1  UNL     1      22.875  48.470  45.380  1.00  0.00    -0.328 N 
HETATM    6  C5  UNL     1      23.427  47.602  44.411  1.00  0.00     0.317 C 
HETATM    7  O1  UNL     1      24.047  48.034  43.400  1.00  0.00    -0.247 OA
HETATM    8  N2  UNL     1      23.320  46.169  44.510  1.00  0.00    -0.329 N 
ATOM      9  H2  UNL     1      22.830  45.759  45.305  1.00  0.00     0.165 HD
ATOM     10  H1  UNL     1      22.380  48.085  46.184  1.00  0.00     0.165 HD
BRANCH   8  11
HETATM   11  C6  UNL     1      23.892  45.298  43.505  1.00  0.00     0.187 C 
BRANCH  11  12
HETATM   12  C7  UNL     1      23.811  43.869  44.062  1.00  0.00     0.036 C 
BRANCH  12  13
HETATM   13  C8  UNL     1      23.343  43.875  45.488  1.00  0.00     0.004 C 
BRANCH  13  14
HETATM   14  C9  UNL     1      22.653  42.577  45.799  1.00  0.00     0.020 C 
BRANCH  14  15
HETATM   15  C10 UNL     1      21.263  42.831  46.274  1.00  0.00     0.123 C 
BRANCH  15  16
HETATM   16  N3  UNL     1      20.343  43.093  45.178  1.00  0.00    -0.357 N 
HETATM   17  C11 UNL     1      19.641  44.314  45.023  1.00  0.00     0.251 C 
HETATM   18  O2  UNL     1      19.814  45.245  45.884  1.00  0.00    -0.268 OA
ATOM     19  H3  UNL     1      20.195  42.360  44.484  1.00  0.00     0.162 HD
BRANCH  17  20
HETATM   20  C12 UNL     1      18.732  44.575  43.940  1.00  0.00     0.032 A 
HETATM   21  C13 UNL     1      18.909  45.668  43.103  1.00  0.00     0.018 A 
HETATM   22  C14 UNL     1      18.060  45.951  42.054  1.00  0.00     0.019 A 
HETATM   23  C15 UNL     1      16.990  45.135  41.806  1.00  0.00     0.006 A 
HETATM   24  I1  UNL     1      15.637  45.479  40.236  1.00  0.00    -0.045 I 
HETATM   25  C16 UNL     1      16.794  44.037  42.629  1.00  0.00     0.019 A 
HETATM   26  C17 UNL     1      17.649  43.760  43.678  1.00  0.00     0.018 A 
ENDBRANCH  17  20
ENDBRANCH  15  16
ENDBRANCH  14  15
ENDBRANCH  13  14
ENDBRANCH  12  13
ENDBRANCH  11  12
BRANCH  11  27
HETATM   27  C18 UNL     1      23.119  45.343  42.240  1.00  0.00     0.196 C 
HETATM   28  O3  UNL     1      21.844  45.437  42.237  1.00  0.00    -0.646 OA
HETATM   29  O4  UNL     1      23.719  45.287  40.999  1.00  0.00    -0.646 OA
ENDBRANCH  11  27
ENDBRANCH   8  11
ENDBRANCH   4   5
BRANCH   4  30
HETATM   30  C19 UNL     1      23.180  50.500  46.576  1.00  0.00     0.197 C 
HETATM   31  O5  UNL     1      23.653  51.651  46.679  1.00  0.00    -0.646 OA
HETATM   32  O6  UNL     1      22.802  49.755  47.704  1.00  0.00    -0.646 OA
ENDBRANCH   4  30
ENDBRANCH   3   4
TORSDOF 11
ENDMDL
