MODEL 7
REMARK VINA RESULT: -9.201741839      1.314      2.139
REMARK  11 active torsions:
REMARK  status: ('A' for Active; 'I' for Inactive)
REMARK    1  A    between atoms: C3_3  and  C4_4 
REMARK    2  A    between atoms: C4_4  and  N1_5 
REMARK    3  A    between atoms: C4_4  and  C19_30 
REMARK       I    between atoms: N1_5  and  C5_7 
REMARK       I    between atoms: C5_7  and  N2_9 
REMARK    4  A    between atoms: N2_9  and  C6_11 
REMARK    5  A    between atoms: C6_11  and  C7_12 
REMARK    6  A    between atoms: C6_11  and  C18_27 
REMARK    7  A    between atoms: C7_12  and  C8_13 
REMARK    8  A    between atoms: C8_13  and  C9_14 
REMARK    9  A    between atoms: C9_14  and  C10_15 
REMARK   10  A    between atoms: C10_15  and  N3_16 
REMARK       I    between atoms: N3_16  and  C11_18 
REMARK   11  A    between atoms: C11_18  and  C12_20 
ROOT
HETATM    1  C1  UNL     1      15.920  42.464  39.198  1.00  0.00     0.012 C 
HETATM    2  C2  UNL     1      15.499  43.219  40.048  1.00  0.00    -0.115 C 
HETATM    3  C3  UNL     1      14.968  44.129  41.074  1.00  0.00     0.129 C 
ENDROOT
BRANCH   3   4
HETATM    4  C4  UNL     1      15.971  45.249  41.233  1.00  0.00     0.198 C 
BRANCH   4   5
HETATM    5  N1  UNL     1      16.508  45.303  42.575  1.00  0.00    -0.328 N 
HETATM    6  C5  UNL     1      17.899  45.169  42.792  1.00  0.00     0.317 C 
HETATM    7  O1  UNL     1      18.711  45.001  41.840  1.00  0.00    -0.247 OA
HETATM    8  N2  UNL     1      18.482  45.217  44.107  1.00  0.00    -0.329 N 
ATOM      9  H2  UNL     1      17.876  45.352  44.917  1.00  0.00     0.165 HD
ATOM     10  H1  UNL     1      15.881  45.437  43.369  1.00  0.00     0.165 HD
BRANCH   8  11
HETATM   11  C6  UNL     1      19.909  45.078  44.307  1.00  0.00     0.187 C 
BRANCH  11  12
HETATM   12  C7  UNL     1      20.566  46.312  43.673  1.00  0.00     0.036 C 
BRANCH  12  13
HETATM   13  C8  UNL     1      22.063  46.216  43.738  1.00  0.00     0.004 C 
BRANCH  13  14
HETATM   14  C9  UNL     1      22.664  46.873  42.528  1.00  0.00     0.020 C 
BRANCH  14  15
HETATM   15  C10 UNL     1      23.335  48.148  42.912  1.00  0.00     0.123 C 
BRANCH  15  16
HETATM   16  N3  UNL     1      23.452  48.299  44.355  1.00  0.00    -0.357 N 
HETATM   17  C11 UNL     1      23.069  49.472  45.050  1.00  0.00     0.251 C 
HETATM   18  O2  UNL     1      22.595  50.461  44.389  1.00  0.00    -0.268 OA
ATOM     19  H3  UNL     1      23.829  47.520  44.894  1.00  0.00     0.162 HD
BRANCH  17  20
HETATM   20  C12 UNL     1      23.183  49.623  46.475  1.00  0.00     0.032 A 
HETATM   21  C13 UNL     1      23.410  48.527  47.296  1.00  0.00     0.018 A 
HETATM   22  C14 UNL     1      23.525  48.632  48.666  1.00  0.00     0.019 A 
HETATM   23  C15 UNL     1      23.416  49.856  49.267  1.00  0.00     0.006 A 
HETATM   24  I1  UNL     1      23.577  50.122  51.344  1.00  0.00    -0.045 I 
HETATM   25  C16 UNL     1      23.190  50.965  48.466  1.00  0.00     0.019 A 
HETATM   26  C17 UNL     1      23.075  50.853  47.094  1.00  0.00     0.018 A 
ENDBRANCH  17  20
ENDBRANCH  15  16
ENDBRANCH  14  15
ENDBRANCH  13  14
ENDBRANCH  12  13
ENDBRANCH  11  12
BRANCH  11  27
HETATM   27  C18 UNL     1      20.259  45.061  45.748  1.00  0.00     0.196 C 
HETATM   28  O3  UNL     1      20.059  46.076  46.498  1.00  0.00    -0.646 OA
HETATM   29  O4  UNL     1      20.815  43.961  46.366  1.00  0.00    -0.646 OA
ENDBRANCH  11  27
ENDBRANCH   8  11
ENDBRANCH   4   5
BRANCH   4  30
HETATM   30  C19 UNL     1      15.374  46.560  40.909  1.00  0.00     0.197 C 
HETATM   31  O5  UNL     1      14.163  46.757  41.145  1.00  0.00    -0.646 OA
HETATM   32  O6  UNL     1      16.187  47.555  40.344  1.00  0.00    -0.646 OA
ENDBRANCH   4  30
ENDBRANCH   3   4
TORSDOF 11
ENDMDL
