MODEL 8
REMARK VINA RESULT: -9.038828763      3.640      9.140
REMARK  12 active torsions:
REMARK  status: ('A' for Active; 'I' for Inactive)
REMARK       I    between atoms: C1_2  and  N1_3 
REMARK       I    between atoms: C1_2  and  N3_24 
REMARK    1  A    between atoms: N1_3  and  C2_5 
REMARK    2  A    between atoms: C2_5  and  C3_6 
REMARK    3  A    between atoms: C2_5  and  C14_21 
REMARK    4  A    between atoms: C3_6  and  C4_7 
REMARK    5  A    between atoms: C4_7  and  C5_8 
REMARK    6  A    between atoms: C5_8  and  C6_9 
REMARK    7  A    between atoms: C6_9  and  N2_10 
REMARK       I    between atoms: N2_10  and  C7_12 
REMARK    8  A    between atoms: C7_12  and  C8_14 
REMARK    9  A    between atoms: N3_24  and  C15_26 
REMARK   10  A    between atoms: C15_26  and  C16_27 
REMARK   11  A    between atoms: C15_26  and  C21_33 
REMARK   12  A    between atoms: C16_27  and  C17_28 
ROOT
HETATM    1  C2  UNL     1      23.231  45.700  44.528  1.00  0.00     0.187 C 
ENDROOT
BRANCH   1   2
HETATM    2  N1  UNL     1      22.595  46.616  45.458  1.00  0.00    -0.329 N 
HETATM    3  C1  UNL     1      23.312  47.554  46.224  1.00  0.00     0.317 C 
HETATM    4  O1  UNL     1      24.560  47.626  46.115  1.00  0.00    -0.247 OA
HETATM    5  N3  UNL     1      22.696  48.464  47.150  1.00  0.00    -0.328 N 
ATOM      6  H3  UNL     1      21.685  48.453  47.283  1.00  0.00     0.165 HD
ATOM      7  H1  UNL     1      21.581  46.577  45.561  1.00  0.00     0.165 HD
BRANCH   5   8
HETATM    8  C15 UNL     1      23.519  49.397  47.896  1.00  0.00     0.193 C 
BRANCH   8   9
HETATM    9  C16 UNL     1      23.268  50.777  47.335  1.00  0.00     0.101 C 
BRANCH   9  10
HETATM   10  C17 UNL     1      22.689  50.619  45.976  1.00  0.00     0.055 A 
HETATM   11  C18 UNL     1      23.410  50.547  44.781  1.00  0.00     0.035 A 
HETATM   12  C19 UNL     1      22.501  50.403  43.762  1.00  0.00     0.027 A 
HETATM   13  C20 UNL     1      21.263  50.390  44.349  1.00  0.00     0.142 A 
HETATM   14  O5  UNL     1      21.432  50.519  45.642  1.00  0.00    -0.327 OA
ENDBRANCH   9  10
ENDBRANCH   8   9
BRANCH   8  15
HETATM   15  C21 UNL     1      23.205  49.319  49.341  1.00  0.00     0.197 C 
HETATM   16  O6  UNL     1      23.837  50.068  50.134  1.00  0.00    -0.646 OA
HETATM   17  O7  UNL     1      22.268  48.482  49.886  1.00  0.00    -0.646 OA
ENDBRANCH   8  15
ENDBRANCH   5   8
ENDBRANCH   1   2
BRANCH   1  18
HETATM   18  C3  UNL     1      22.576  44.349  44.567  1.00  0.00     0.036 C 
BRANCH  18  19
HETATM   19  C4  UNL     1      21.185  44.425  45.220  1.00  0.00     0.004 C 
BRANCH  19  20
HETATM   20  C5  UNL     1      20.118  44.145  44.245  1.00  0.00     0.020 C 
BRANCH  20  21
HETATM   21  C6  UNL     1      18.733  44.406  44.693  1.00  0.00     0.123 C 
BRANCH  21  22
HETATM   22  N2  UNL     1      17.817  45.045  43.796  1.00  0.00    -0.357 N 
HETATM   23  C7  UNL     1      17.387  44.611  42.542  1.00  0.00     0.251 C 
HETATM   24  O2  UNL     1      17.805  43.554  42.027  1.00  0.00    -0.268 OA
ATOM     25  H2  UNL     1      17.429  45.932  44.115  1.00  0.00     0.162 HD
BRANCH  23  26
HETATM   26  C8  UNL     1      16.415  45.386  41.773  1.00  0.00     0.032 A 
HETATM   27  C9  UNL     1      16.847  46.429  40.946  1.00  0.00     0.018 A 
HETATM   28  C10 UNL     1      15.979  47.183  40.215  1.00  0.00     0.019 A 
HETATM   29  C11 UNL     1      14.628  46.953  40.257  1.00  0.00     0.006 A 
HETATM   30  I1  UNL     1      13.310  48.127  39.123  1.00  0.00    -0.045 I 
HETATM   31  C12 UNL     1      14.169  45.935  41.062  1.00  0.00     0.019 A 
HETATM   32  C13 UNL     1      15.062  45.161  41.813  1.00  0.00     0.018 A 
ENDBRANCH  23  26
ENDBRANCH  21  22
ENDBRANCH  20  21
ENDBRANCH  19  20
ENDBRANCH  18  19
ENDBRANCH   1  18
BRANCH   1  33
HETATM   33  C14 UNL     1      23.048  46.198  43.118  1.00  0.00     0.196 C 
HETATM   34  O3  UNL     1      22.090  46.982  42.915  1.00  0.00    -0.646 OA
HETATM   35  O4  UNL     1      23.878  45.823  42.100  1.00  0.00    -0.646 OA
ENDBRANCH   1  33
TORSDOF 12
ENDMDL
