MODEL 2
REMARK VINA RESULT: -10.847818859      0.824      1.102
REMARK  12 active torsions:
REMARK  status: ('A' for Active; 'I' for Inactive)
REMARK       I    between atoms: C1_2  and  N1_3 
REMARK       I    between atoms: C1_2  and  N3_24 
REMARK    1  A    between atoms: N1_3  and  C2_5 
REMARK    2  A    between atoms: C2_5  and  C3_6 
REMARK    3  A    between atoms: C2_5  and  C14_21 
REMARK    4  A    between atoms: C3_6  and  C4_7 
REMARK    5  A    between atoms: C4_7  and  C5_8 
REMARK    6  A    between atoms: C5_8  and  C6_9 
REMARK    7  A    between atoms: C6_9  and  N2_10 
REMARK       I    between atoms: N2_10  and  C7_12 
REMARK    8  A    between atoms: C7_12  and  C8_14 
REMARK    9  A    between atoms: N3_24  and  C15_26 
REMARK   10  A    between atoms: C15_26  and  C16_27 
REMARK   11  A    between atoms: C15_26  and  C21_33 
REMARK   12  A    between atoms: C16_27  and  C17_28 
ROOT
HETATM    1  C2  UNL     1      20.295  44.493  44.495  1.00  0.00     0.187 C 
ENDROOT
BRANCH   1   2
HETATM    2  N1  UNL     1      19.276  45.231  43.769  1.00  0.00    -0.329 N 
HETATM    3  C1  UNL     1      18.293  44.607  42.977  1.00  0.00     0.317 C 
HETATM    4  O1  UNL     1      18.273  43.356  42.878  1.00  0.00    -0.247 OA
HETATM    5  N3  UNL     1      17.282  45.325  42.251  1.00  0.00    -0.328 N 
ATOM      6  H3  UNL     1      17.247  46.343  42.292  1.00  0.00     0.165 HD
ATOM      7  H1  UNL     1      19.272  46.249  43.837  1.00  0.00     0.165 HD
BRANCH   5   8
HETATM    8  C15 UNL     1      16.310  44.595  41.460  1.00  0.00     0.193 C 
BRANCH   8   9
HETATM    9  C16 UNL     1      14.959  45.226  41.700  1.00  0.00     0.101 C 
BRANCH   9  10
HETATM   10  C17 UNL     1      14.852  46.422  40.826  1.00  0.00     0.055 A 
HETATM   11  C18 UNL     1      15.730  47.510  40.814  1.00  0.00     0.035 A 
HETATM   12  C19 UNL     1      15.275  48.394  39.867  1.00  0.00     0.027 A 
HETATM   13  C20 UNL     1      14.146  47.834  39.329  1.00  0.00     0.142 A 
HETATM   14  O5  UNL     1      13.946  46.684  39.925  1.00  0.00    -0.327 OA
ENDBRANCH   9  10
ENDBRANCH   8   9
BRANCH   8  15
HETATM   15  C21 UNL     1      16.689  44.618  40.028  1.00  0.00     0.197 C 
HETATM   16  O6  UNL     1      17.824  45.069  39.715  1.00  0.00    -0.646 OA
HETATM   17  O7  UNL     1      15.886  44.181  39.009  1.00  0.00    -0.646 OA
ENDBRANCH   8  15
ENDBRANCH   5   8
ENDBRANCH   1   2
BRANCH   1  18
HETATM   18  C3  UNL     1      21.672  44.950  44.107  1.00  0.00     0.036 C 
BRANCH  18  19
HETATM   19  C4  UNL     1      21.612  45.993  42.976  1.00  0.00     0.004 C 
BRANCH  19  20
HETATM   20  C5  UNL     1      22.821  45.944  42.136  1.00  0.00     0.020 C 
BRANCH  20  21
HETATM   21  C6  UNL     1      23.984  46.725  42.611  1.00  0.00     0.123 C 
BRANCH  21  22
HETATM   22  N2  UNL     1      23.931  47.344  43.901  1.00  0.00    -0.357 N 
HETATM   23  C7  UNL     1      23.518  48.636  44.227  1.00  0.00     0.251 C 
HETATM   24  O2  UNL     1      23.147  49.452  43.359  1.00  0.00    -0.268 OA
ATOM     25  H2  UNL     1      24.234  46.765  44.684  1.00  0.00     0.162 HD
BRANCH  23  26
HETATM   26  C8  UNL     1      23.503  49.090  45.616  1.00  0.00     0.032 A 
HETATM   27  C9  UNL     1      23.816  48.200  46.649  1.00  0.00     0.018 A 
HETATM   28  C10 UNL     1      23.810  48.574  47.959  1.00  0.00     0.019 A 
HETATM   29  C11 UNL     1      23.493  49.856  48.330  1.00  0.00     0.006 A 
HETATM   30  I1  UNL     1      23.490  50.410  50.353  1.00  0.00    -0.045 I 
HETATM   31  C12 UNL     1      23.179  50.758  47.339  1.00  0.00     0.019 A 
HETATM   32  C13 UNL     1      23.185  50.371  45.993  1.00  0.00     0.018 A 
ENDBRANCH  23  26
ENDBRANCH  21  22
ENDBRANCH  20  21
ENDBRANCH  19  20
ENDBRANCH  18  19
ENDBRANCH   1  18
BRANCH   1  33
HETATM   33  C14 UNL     1      20.174  44.775  45.969  1.00  0.00     0.196 C 
HETATM   34  O3  UNL     1      19.869  45.946  46.298  1.00  0.00    -0.646 OA
HETATM   35  O4  UNL     1      20.384  43.811  46.914  1.00  0.00    -0.646 OA
ENDBRANCH   1  33
TORSDOF 12
ENDMDL
