MODEL 1
REMARK VINA RESULT: -11.444421113      0.000      0.000
REMARK  12 active torsions:
REMARK  status: ('A' for Active; 'I' for Inactive)
REMARK       I    between atoms: C1_2  and  N1_3 
REMARK       I    between atoms: C1_2  and  N3_24 
REMARK    1  A    between atoms: N1_3  and  C2_5 
REMARK    2  A    between atoms: C2_5  and  C3_6 
REMARK    3  A    between atoms: C2_5  and  C14_21 
REMARK    4  A    between atoms: C3_6  and  C4_7 
REMARK    5  A    between atoms: C4_7  and  C5_8 
REMARK    6  A    between atoms: C5_8  and  C6_9 
REMARK    7  A    between atoms: C6_9  and  N2_10 
REMARK       I    between atoms: N2_10  and  C7_12 
REMARK    8  A    between atoms: C7_12  and  C8_14 
REMARK    9  A    between atoms: N3_24  and  C15_26 
REMARK   10  A    between atoms: C15_26  and  C16_27 
REMARK   11  A    between atoms: C15_26  and  C21_33 
REMARK   12  A    between atoms: C16_27  and  C17_28 
ROOT
HETATM    1  C2  UNL     1      20.568  44.793  44.318  1.00  0.00     0.187 C 
ENDROOT
BRANCH   1   2
HETATM    2  N1  UNL     1      19.543  45.457  43.533  1.00  0.00    -0.329 N 
HETATM    3  C1  UNL     1      18.509  44.764  42.875  1.00  0.00     0.317 C 
HETATM    4  O1  UNL     1      18.446  43.513  42.957  1.00  0.00    -0.247 OA
HETATM    5  N3  UNL     1      17.491  45.408  42.093  1.00  0.00    -0.328 N 
ATOM      6  H3  UNL     1      17.489  46.422  41.989  1.00  0.00     0.165 HD
ATOM      7  H1  UNL     1      19.573  46.474  43.455  1.00  0.00     0.165 HD
BRANCH   5   8
HETATM    8  C15 UNL     1      16.464  44.609  41.451  1.00  0.00     0.193 C 
BRANCH   8   9
HETATM    9  C16 UNL     1      15.141  45.304  41.668  1.00  0.00     0.101 C 
BRANCH   9  10
HETATM   10  C17 UNL     1      15.166  46.580  40.908  1.00  0.00     0.055 A 
HETATM   11  C18 UNL     1      14.072  47.184  40.282  1.00  0.00     0.035 A 
HETATM   12  C19 UNL     1      14.521  48.341  39.696  1.00  0.00     0.027 A 
HETATM   13  C20 UNL     1      15.862  48.418  39.973  1.00  0.00     0.142 A 
HETATM   14  O5  UNL     1      16.184  47.364  40.683  1.00  0.00    -0.327 OA
ENDBRANCH   9  10
ENDBRANCH   8   9
BRANCH   8  15
HETATM   15  C21 UNL     1      16.772  44.434  40.013  1.00  0.00     0.197 C 
HETATM   16  O6  UNL     1      17.915  44.766  39.598  1.00  0.00    -0.646 OA
HETATM   17  O7  UNL     1      15.895  43.931  39.089  1.00  0.00    -0.646 OA
ENDBRANCH   8  15
ENDBRANCH   5   8
ENDBRANCH   1   2
BRANCH   1  18
HETATM   18  C3  UNL     1      21.938  45.282  43.943  1.00  0.00     0.036 C 
BRANCH  18  19
HETATM   19  C4  UNL     1      21.861  46.351  42.838  1.00  0.00     0.004 C 
BRANCH  19  20
HETATM   20  C5  UNL     1      23.203  46.746  42.379  1.00  0.00     0.020 C 
BRANCH  20  21
HETATM   21  C6  UNL     1      23.663  48.095  42.775  1.00  0.00     0.123 C 
BRANCH  21  22
HETATM   22  N2  UNL     1      23.695  48.443  44.164  1.00  0.00    -0.357 N 
HETATM   23  C7  UNL     1      23.068  49.513  44.804  1.00  0.00     0.251 C 
HETATM   24  O2  UNL     1      22.383  50.349  44.181  1.00  0.00    -0.268 OA
ATOM     25  H2  UNL     1      24.247  47.830  44.763  1.00  0.00     0.162 HD
BRANCH  23  26
HETATM   26  C8  UNL     1      23.190  49.696  46.249  1.00  0.00     0.032 A 
HETATM   27  C9  UNL     1      23.231  48.584  47.096  1.00  0.00     0.018 A 
HETATM   28  C10 UNL     1      23.338  48.704  48.449  1.00  0.00     0.019 A 
HETATM   29  C11 UNL     1      23.410  49.935  49.050  1.00  0.00     0.006 A 
HETATM   30  I1  UNL     1      23.574  50.095  51.135  1.00  0.00    -0.045 I 
HETATM   31  C12 UNL     1      23.372  51.051  48.245  1.00  0.00     0.019 A 
HETATM   32  C13 UNL     1      23.261  50.926  46.855  1.00  0.00     0.018 A 
ENDBRANCH  23  26
ENDBRANCH  21  22
ENDBRANCH  20  21
ENDBRANCH  19  20
ENDBRANCH  18  19
ENDBRANCH   1  18
BRANCH   1  33
HETATM   33  C14 UNL     1      20.399  45.140  45.774  1.00  0.00     0.196 C 
HETATM   34  O3  UNL     1      20.528  44.203  46.598  1.00  0.00    -0.646 OA
HETATM   35  O4  UNL     1      20.118  46.410  46.192  1.00  0.00    -0.646 OA
ENDBRANCH   1  33
TORSDOF 12
ENDMDL
