MODEL 7
REMARK VINA RESULT: -9.367038806      3.436      9.714
REMARK  12 active torsions:
REMARK  status: ('A' for Active; 'I' for Inactive)
REMARK       I    between atoms: C1_2  and  N1_3 
REMARK       I    between atoms: C1_2  and  N3_24 
REMARK    1  A    between atoms: N1_3  and  C2_5 
REMARK    2  A    between atoms: C2_5  and  C3_6 
REMARK    3  A    between atoms: C2_5  and  C14_21 
REMARK    4  A    between atoms: C3_6  and  C4_7 
REMARK    5  A    between atoms: C4_7  and  C5_8 
REMARK    6  A    between atoms: C5_8  and  C6_9 
REMARK    7  A    between atoms: C6_9  and  N2_10 
REMARK       I    between atoms: N2_10  and  C7_12 
REMARK    8  A    between atoms: C7_12  and  C8_14 
REMARK    9  A    between atoms: N3_24  and  C15_26 
REMARK   10  A    between atoms: C15_26  and  C16_27 
REMARK   11  A    between atoms: C15_26  and  C21_33 
REMARK   12  A    between atoms: C16_27  and  C17_28 
ROOT
HETATM    1  C2  UNL     1      22.272  46.160  44.632  1.00  0.00     0.187 C 
ENDROOT
BRANCH   1   2
HETATM    2  N1  UNL     1      23.109  47.057  45.409  1.00  0.00    -0.329 N 
HETATM    3  C1  UNL     1      22.634  48.258  45.970  1.00  0.00     0.317 C 
HETATM    4  O1  UNL     1      21.435  48.591  45.809  1.00  0.00    -0.247 OA
HETATM    5  N3  UNL     1      23.451  49.156  46.739  1.00  0.00    -0.328 N 
ATOM      6  H3  UNL     1      24.434  48.940  46.904  1.00  0.00     0.165 HD
ATOM      7  H1  UNL     1      24.087  46.805  45.555  1.00  0.00     0.165 HD
BRANCH   5   8
HETATM    8  C15 UNL     1      22.873  50.371  47.278  1.00  0.00     0.193 C 
BRANCH   8   9
HETATM    9  C16 UNL     1      23.762  50.840  48.405  1.00  0.00     0.101 C 
BRANCH   9  10
HETATM   10  C17 UNL     1      23.335  50.142  49.644  1.00  0.00     0.055 A 
HETATM   11  C18 UNL     1      23.727  50.468  50.946  1.00  0.00     0.035 A 
HETATM   12  C19 UNL     1      23.111  49.581  51.794  1.00  0.00     0.027 A 
HETATM   13  C20 UNL     1      22.367  48.745  51.003  1.00  0.00     0.142 A 
HETATM   14  O5  UNL     1      22.535  49.117  49.758  1.00  0.00    -0.327 OA
ENDBRANCH   9  10
ENDBRANCH   8   9
BRANCH   8  15
HETATM   15  C21 UNL     1      22.737  51.393  46.215  1.00  0.00     0.197 C 
HETATM   16  O6  UNL     1      23.709  51.581  45.434  1.00  0.00    -0.646 OA
HETATM   17  O7  UNL     1      21.619  52.159  46.015  1.00  0.00    -0.646 OA
ENDBRANCH   8  15
ENDBRANCH   5   8
ENDBRANCH   1   2
BRANCH   1  18
HETATM   18  C3  UNL     1      20.836  46.257  45.059  1.00  0.00     0.036 C 
BRANCH  18  19
HETATM   19  C4  UNL     1      20.374  44.961  45.749  1.00  0.00     0.004 C 
BRANCH  19  20
HETATM   20  C5  UNL     1      19.748  44.035  44.789  1.00  0.00     0.020 C 
BRANCH  20  21
HETATM   21  C6  UNL     1      18.272  43.945  44.829  1.00  0.00     0.123 C 
BRANCH  21  22
HETATM   22  N2  UNL     1      17.500  44.715  43.901  1.00  0.00    -0.357 N 
HETATM   23  C7  UNL     1      17.274  44.470  42.547  1.00  0.00     0.251 C 
HETATM   24  O2  UNL     1      17.779  43.493  41.957  1.00  0.00    -0.268 OA
ATOM     25  H2  UNL     1      17.057  45.552  44.280  1.00  0.00     0.162 HD
BRANCH  23  26
HETATM   26  C8  UNL     1      16.425  45.358  41.755  1.00  0.00     0.032 A 
HETATM   27  C9  UNL     1      15.035  45.203  41.778  1.00  0.00     0.018 A 
HETATM   28  C10 UNL     1      14.202  46.002  41.054  1.00  0.00     0.019 A 
HETATM   29  C11 UNL     1      14.695  47.006  40.260  1.00  0.00     0.006 A 
HETATM   30  I1  UNL     1      13.394  48.225  39.153  1.00  0.00    -0.045 I 
HETATM   31  C12 UNL     1      16.058  47.186  40.214  1.00  0.00     0.019 A 
HETATM   32  C13 UNL     1      16.912  46.364  40.958  1.00  0.00     0.018 A 
ENDBRANCH  23  26
ENDBRANCH  21  22
ENDBRANCH  20  21
ENDBRANCH  19  20
ENDBRANCH  18  19
ENDBRANCH   1  18
BRANCH   1  33
HETATM   33  C14 UNL     1      22.293  46.573  43.183  1.00  0.00     0.196 C 
HETATM   34  O3  UNL     1      21.931  45.714  42.345  1.00  0.00    -0.646 OA
HETATM   35  O4  UNL     1      22.685  47.821  42.788  1.00  0.00    -0.646 OA
ENDBRANCH   1  33
TORSDOF 12
ENDMDL
