MODEL 6
REMARK VINA RESULT: -9.828965809      3.461      9.692
REMARK  12 active torsions:
REMARK  status: ('A' for Active; 'I' for Inactive)
REMARK       I    between atoms: C1_2  and  N1_3 
REMARK       I    between atoms: C1_2  and  N3_24 
REMARK    1  A    between atoms: N1_3  and  C2_5 
REMARK    2  A    between atoms: C2_5  and  C3_6 
REMARK    3  A    between atoms: C2_5  and  C14_21 
REMARK    4  A    between atoms: C3_6  and  C4_7 
REMARK    5  A    between atoms: C4_7  and  C5_8 
REMARK    6  A    between atoms: C5_8  and  C6_9 
REMARK    7  A    between atoms: C6_9  and  N2_10 
REMARK       I    between atoms: N2_10  and  C7_12 
REMARK    8  A    between atoms: C7_12  and  C8_14 
REMARK    9  A    between atoms: N3_24  and  C15_26 
REMARK   10  A    between atoms: C15_26  and  C16_27 
REMARK   11  A    between atoms: C15_26  and  C21_33 
REMARK   12  A    between atoms: C16_27  and  C17_28 
ROOT
HETATM    1  C2  UNL     1      22.477  45.803  44.963  1.00  0.00     0.187 C 
ENDROOT
BRANCH   1   2
HETATM    2  N1  UNL     1      23.302  46.880  45.483  1.00  0.00    -0.329 N 
HETATM    3  C1  UNL     1      22.767  48.045  46.065  1.00  0.00     0.317 C 
HETATM    4  O1  UNL     1      21.522  48.184  46.154  1.00  0.00    -0.247 OA
HETATM    5  N3  UNL     1      23.570  49.118  46.581  1.00  0.00    -0.328 N 
ATOM      6  H3  UNL     1      24.587  49.064  46.537  1.00  0.00     0.165 HD
ATOM      7  H1  UNL     1      24.316  46.787  45.423  1.00  0.00     0.165 HD
BRANCH   5   8
HETATM    8  C15 UNL     1      22.929  50.281  47.164  1.00  0.00     0.193 C 
BRANCH   8   9
HETATM    9  C16 UNL     1      23.813  50.779  48.282  1.00  0.00     0.101 C 
BRANCH   9  10
HETATM   10  C17 UNL     1      23.374  50.121  49.539  1.00  0.00     0.055 A 
HETATM   11  C18 UNL     1      23.726  50.511  50.835  1.00  0.00     0.035 A 
HETATM   12  C19 UNL     1      23.113  49.644  51.704  1.00  0.00     0.027 A 
HETATM   13  C20 UNL     1      22.409  48.756  50.932  1.00  0.00     0.142 A 
HETATM   14  O5  UNL     1      22.598  49.082  49.676  1.00  0.00    -0.327 OA
ENDBRANCH   9  10
ENDBRANCH   8   9
BRANCH   8  15
HETATM   15  C21 UNL     1      22.702  51.317  46.130  1.00  0.00     0.197 C 
HETATM   16  O6  UNL     1      23.639  52.119  45.868  1.00  0.00    -0.646 OA
HETATM   17  O7  UNL     1      21.535  51.470  45.430  1.00  0.00    -0.646 OA
ENDBRANCH   8  15
ENDBRANCH   5   8
ENDBRANCH   1   2
BRANCH   1  18
HETATM   18  C3  UNL     1      21.888  46.170  43.631  1.00  0.00     0.036 C 
BRANCH  18  19
HETATM   19  C4  UNL     1      20.377  45.881  43.594  1.00  0.00     0.004 C 
BRANCH  19  20
HETATM   20  C5  UNL     1      20.019  44.776  44.500  1.00  0.00     0.020 C 
BRANCH  20  21
HETATM   21  C6  UNL     1      18.592  44.387  44.531  1.00  0.00     0.123 C 
BRANCH  21  22
HETATM   22  N2  UNL     1      17.669  45.044  43.656  1.00  0.00    -0.357 N 
HETATM   23  C7  UNL     1      17.246  44.650  42.387  1.00  0.00     0.251 C 
HETATM   24  O2  UNL     1      17.679  43.618  41.834  1.00  0.00    -0.268 OA
ATOM     25  H2  UNL     1      17.268  45.914  44.007  1.00  0.00     0.162 HD
BRANCH  23  26
HETATM   26  C8  UNL     1      16.264  45.439  41.645  1.00  0.00     0.032 A 
HETATM   27  C9  UNL     1      16.676  46.544  40.893  1.00  0.00     0.018 A 
HETATM   28  C10 UNL     1      15.799  47.313  40.190  1.00  0.00     0.019 A 
HETATM   29  C11 UNL     1      14.455  47.037  40.188  1.00  0.00     0.006 A 
HETATM   30  I1  UNL     1      13.122  48.235  39.098  1.00  0.00    -0.045 I 
HETATM   31  C12 UNL     1      14.015  45.956  40.918  1.00  0.00     0.019 A 
HETATM   32  C13 UNL     1      14.918  45.167  41.640  1.00  0.00     0.018 A 
ENDBRANCH  23  26
ENDBRANCH  21  22
ENDBRANCH  20  21
ENDBRANCH  19  20
ENDBRANCH  18  19
ENDBRANCH   1  18
BRANCH   1  33
HETATM   33  C14 UNL     1      23.328  44.587  44.709  1.00  0.00     0.196 C 
HETATM   34  O3  UNL     1      23.857  44.493  43.576  1.00  0.00    -0.646 OA
HETATM   35  O4  UNL     1      23.524  43.625  45.658  1.00  0.00    -0.646 OA
ENDBRANCH   1  33
TORSDOF 12
ENDMDL
