MODEL 1
REMARK VINA RESULT: -11.860132514      0.000      0.000
REMARK  12 active torsions:
REMARK  status: ('A' for Active; 'I' for Inactive)
REMARK       I    between atoms: C1_2  and  N1_3 
REMARK       I    between atoms: C1_2  and  N3_24 
REMARK    1  A    between atoms: N1_3  and  C2_5 
REMARK    2  A    between atoms: C2_5  and  C3_6 
REMARK    3  A    between atoms: C2_5  and  C14_21 
REMARK    4  A    between atoms: C3_6  and  C4_7 
REMARK    5  A    between atoms: C4_7  and  C5_8 
REMARK    6  A    between atoms: C5_8  and  C6_9 
REMARK    7  A    between atoms: C6_9  and  N2_10 
REMARK       I    between atoms: N2_10  and  C7_12 
REMARK    8  A    between atoms: C7_12  and  C8_14 
REMARK    9  A    between atoms: N3_24  and  C15_26 
REMARK   10  A    between atoms: C15_26  and  C16_27 
REMARK   11  A    between atoms: C15_26  and  C17_30 
REMARK   12  A    between atoms: C20_33  and  O7_34 
ROOT
HETATM    1  C2  UNL     1      20.350  44.751  44.559  1.00  0.00     0.187 C 
ENDROOT
BRANCH   1   2
HETATM    2  N1  UNL     1      19.460  45.571  43.797  1.00  0.00    -0.329 N 
HETATM    3  C1  UNL     1      18.497  44.966  42.893  1.00  0.00     0.317 C 
HETATM    4  O1  UNL     1      18.529  43.717  42.853  1.00  0.00    -0.247 OA
HETATM    5  N3  UNL     1      17.618  45.782  42.143  1.00  0.00    -0.324 N 
ATOM      6  H3  UNL     1      17.690  46.795  42.236  1.00  0.00     0.165 HD
ATOM      7  H1  UNL     1      19.503  46.586  43.888  1.00  0.00     0.165 HD
BRANCH   5   8
HETATM    8  C15 UNL     1      16.640  45.247  41.263  1.00  0.00     0.220 C 
BRANCH   8   9
HETATM    9  C16 UNL     1      17.186  44.622  40.033  1.00  0.00     0.201 C 
HETATM   10  O5  UNL     1      18.284  44.802  39.509  1.00  0.00    -0.646 OA
HETATM   11  O6  UNL     1      16.324  43.704  39.390  1.00  0.00    -0.646 OA
ENDBRANCH   8   9
BRANCH   8  12
HETATM   12  C17 UNL     1      15.521  46.123  40.914  1.00  0.00    -0.025 A 
HETATM   13  C18 UNL     1      15.647  47.274  40.174  1.00  0.00     0.012 A 
HETATM   14  C19 UNL     1      14.531  48.021  39.899  1.00  0.00     0.037 A 
HETATM   15  C20 UNL     1      13.253  47.693  40.320  1.00  0.00     0.065 A 
HETATM   16  C21 UNL     1      13.156  46.530  41.062  1.00  0.00     0.037 A 
HETATM   17  C22 UNL     1      14.260  45.767  41.351  1.00  0.00     0.012 A 
BRANCH  15  18
HETATM   18  O7  UNL     1      12.140  48.460  40.031  1.00  0.00    -0.361 OA
ATOM     19  H7  UNL     1      11.458  48.648  40.665  1.00  0.00     0.217 HD
ENDBRANCH  15  18
ENDBRANCH   8  12
ENDBRANCH   5   8
ENDBRANCH   1   2
BRANCH   1  20
HETATM   20  C3  UNL     1      21.714  44.537  44.063  1.00  0.00     0.036 C 
BRANCH  20  21
HETATM   21  C4  UNL     1      22.685  45.604  43.889  1.00  0.00     0.004 C 
BRANCH  21  22
HETATM   22  C5  UNL     1      22.774  46.329  42.596  1.00  0.00     0.020 C 
BRANCH  22  23
HETATM   23  C6  UNL     1      23.394  47.729  42.814  1.00  0.00     0.123 C 
BRANCH  23  24
HETATM   24  N2  UNL     1      23.528  48.038  44.218  1.00  0.00    -0.357 N 
HETATM   25  C7  UNL     1      23.113  49.266  44.785  1.00  0.00     0.251 C 
HETATM   26  O2  UNL     1      22.585  50.174  44.034  1.00  0.00    -0.268 OA
ATOM     27  H2  UNL     1      23.943  47.336  44.831  1.00  0.00     0.162 HD
BRANCH  25  28
HETATM   28  C8  UNL     1      23.257  49.545  46.196  1.00  0.00     0.032 A 
HETATM   29  C9  UNL     1      23.313  48.538  47.112  1.00  0.00     0.018 A 
HETATM   30  C10 UNL     1      23.456  48.797  48.484  1.00  0.00     0.019 A 
HETATM   31  C11 UNL     1      23.541  50.106  48.917  1.00  0.00     0.006 A 
HETATM   32  I1  UNL     1      23.754  50.493  50.961  1.00  0.00    -0.045 I 
HETATM   33  C12 UNL     1      23.486  51.119  47.998  1.00  0.00     0.019 A 
HETATM   34  C13 UNL     1      23.344  50.846  46.644  1.00  0.00     0.018 A 
ENDBRANCH  25  28
ENDBRANCH  23  24
ENDBRANCH  22  23
ENDBRANCH  21  22
ENDBRANCH  20  21
ENDBRANCH   1  20
BRANCH   1  35
HETATM   35  C14 UNL     1      20.273  45.095  46.009  1.00  0.00     0.196 C 
HETATM   36  O3  UNL     1      19.918  46.182  46.473  1.00  0.00    -0.646 OA
HETATM   37  O4  UNL     1      20.638  44.092  46.900  1.00  0.00    -0.646 OA
ENDBRANCH   1  35
TORSDOF 12
ENDMDL
