MODEL 8
REMARK VINA RESULT: -8.604940502      4.133      9.014
REMARK  12 active torsions:
REMARK  status: ('A' for Active; 'I' for Inactive)
REMARK       I    between atoms: C1_2  and  N1_3 
REMARK       I    between atoms: C1_2  and  N3_24 
REMARK    1  A    between atoms: N1_3  and  C2_5 
REMARK    2  A    between atoms: C2_5  and  C3_6 
REMARK    3  A    between atoms: C2_5  and  C14_21 
REMARK    4  A    between atoms: C3_6  and  C4_7 
REMARK    5  A    between atoms: C4_7  and  C5_8 
REMARK    6  A    between atoms: C5_8  and  C6_9 
REMARK    7  A    between atoms: C6_9  and  N2_10 
REMARK       I    between atoms: N2_10  and  C7_12 
REMARK    8  A    between atoms: C7_12  and  C8_14 
REMARK    9  A    between atoms: N3_24  and  C15_26 
REMARK   10  A    between atoms: C15_26  and  C16_27 
REMARK   11  A    between atoms: C15_26  and  C17_30 
REMARK   12  A    between atoms: C20_33  and  O7_34 
ROOT
HETATM    1  C2  UNL     1      23.550  45.839  43.842  1.00  0.00     0.187 C 
ENDROOT
BRANCH   1   2
HETATM    2  N1  UNL     1      22.839  46.803  44.622  1.00  0.00    -0.329 N 
HETATM    3  C1  UNL     1      23.555  47.863  45.311  1.00  0.00     0.317 C 
HETATM    4  O1  UNL     1      24.796  47.840  45.160  1.00  0.00    -0.247 OA
HETATM    5  N3  UNL     1      22.846  48.815  46.080  1.00  0.00    -0.324 N 
ATOM      6  H3  UNL     1      21.832  48.729  46.153  1.00  0.00     0.165 HD
ATOM      7  H1  UNL     1      21.822  46.747  44.694  1.00  0.00     0.165 HD
BRANCH   5   8
HETATM    8  C15 UNL     1      23.489  49.887  46.754  1.00  0.00     0.220 C 
BRANCH   8   9
HETATM    9  C16 UNL     1      23.459  49.795  48.235  1.00  0.00     0.201 C 
HETATM   10  O5  UNL     1      22.914  50.553  49.035  1.00  0.00    -0.646 OA
HETATM   11  O6  UNL     1      24.149  48.690  48.785  1.00  0.00    -0.646 OA
ENDBRANCH   8   9
BRANCH   8  12
HETATM   12  C17 UNL     1      23.120  51.240  46.339  1.00  0.00    -0.025 A 
HETATM   13  C18 UNL     1      21.864  51.600  45.916  1.00  0.00     0.012 A 
HETATM   14  C19 UNL     1      21.624  52.901  45.554  1.00  0.00     0.037 A 
HETATM   15  C20 UNL     1      22.578  53.905  45.583  1.00  0.00     0.065 A 
HETATM   16  C21 UNL     1      23.833  53.514  46.012  1.00  0.00     0.037 A 
HETATM   17  C22 UNL     1      24.096  52.217  46.379  1.00  0.00     0.012 A 
BRANCH  15  18
HETATM   18  O7  UNL     1      22.316  55.210  45.213  1.00  0.00    -0.361 OA
ATOM     19  H7  UNL     1      22.761  55.959  45.592  1.00  0.00     0.217 HD
ENDBRANCH  15  18
ENDBRANCH   8  12
ENDBRANCH   5   8
ENDBRANCH   1   2
BRANCH   1  20
HETATM   20  C3  UNL     1      23.357  44.414  44.132  1.00  0.00     0.036 C 
BRANCH  20  21
HETATM   21  C4  UNL     1      23.524  43.829  45.453  1.00  0.00     0.004 C 
BRANCH  21  22
HETATM   22  C5  UNL     1      22.639  42.723  45.897  1.00  0.00     0.020 C 
BRANCH  22  23
HETATM   23  C6  UNL     1      21.276  43.287  46.362  1.00  0.00     0.123 C 
BRANCH  23  24
HETATM   24  N2  UNL     1      20.382  43.498  45.248  1.00  0.00    -0.357 N 
HETATM   25  C7  UNL     1      19.776  44.745  44.965  1.00  0.00     0.251 C 
HETATM   26  O2  UNL     1      20.017  45.762  45.723  1.00  0.00    -0.268 OA
ATOM     27  H2  UNL     1      20.176  42.708  44.636  1.00  0.00     0.162 HD
BRANCH  25  28
HETATM   28  C8  UNL     1      18.886  44.926  43.840  1.00  0.00     0.032 A 
HETATM   29  C9  UNL     1      19.170  45.823  42.854  1.00  0.00     0.018 A 
HETATM   30  C10 UNL     1      18.314  46.006  41.757  1.00  0.00     0.019 A 
HETATM   31  C11 UNL     1      17.156  45.258  41.673  1.00  0.00     0.006 A 
HETATM   32  I1  UNL     1      15.881  45.529  40.038  1.00  0.00    -0.045 I 
HETATM   33  C12 UNL     1      16.871  44.356  42.663  1.00  0.00     0.019 A 
HETATM   34  C13 UNL     1      17.727  44.187  43.742  1.00  0.00     0.018 A 
ENDBRANCH  25  28
ENDBRANCH  23  24
ENDBRANCH  22  23
ENDBRANCH  21  22
ENDBRANCH  20  21
ENDBRANCH   1  20
BRANCH   1  35
HETATM   35  C14 UNL     1      23.486  46.181  42.391  1.00  0.00     0.196 C 
HETATM   36  O3  UNL     1      23.661  45.393  41.457  1.00  0.00    -0.646 OA
HETATM   37  O4  UNL     1      23.204  47.507  42.083  1.00  0.00    -0.646 OA
ENDBRANCH   1  35
TORSDOF 12
ENDMDL
