MODEL 9
REMARK VINA RESULT: -8.495608401      4.170      9.490
REMARK  12 active torsions:
REMARK  status: ('A' for Active; 'I' for Inactive)
REMARK       I    between atoms: C1_2  and  N1_3 
REMARK       I    between atoms: C1_2  and  N3_24 
REMARK    1  A    between atoms: N1_3  and  C2_5 
REMARK    2  A    between atoms: C2_5  and  C3_6 
REMARK    3  A    between atoms: C2_5  and  C14_21 
REMARK    4  A    between atoms: C3_6  and  C4_7 
REMARK    5  A    between atoms: C4_7  and  C5_8 
REMARK    6  A    between atoms: C5_8  and  C6_9 
REMARK    7  A    between atoms: C6_9  and  N2_10 
REMARK       I    between atoms: N2_10  and  C7_12 
REMARK    8  A    between atoms: C7_12  and  C8_14 
REMARK    9  A    between atoms: N3_24  and  C15_26 
REMARK   10  A    between atoms: C15_26  and  C16_27 
REMARK   11  A    between atoms: C15_26  and  C17_30 
REMARK   12  A    between atoms: C20_33  and  O7_34 
ROOT
HETATM    1  C2  UNL     1      24.062  46.085  43.903  1.00  0.00     0.187 C 
ENDROOT
BRANCH   1   2
HETATM    2  N1  UNL     1      24.500  47.283  44.548  1.00  0.00    -0.329 N 
HETATM    3  C1  UNL     1      23.562  48.093  45.307  1.00  0.00     0.317 C 
HETATM    4  O1  UNL     1      22.392  47.655  45.331  1.00  0.00    -0.247 OA
HETATM    5  N3  UNL     1      24.001  49.277  45.945  1.00  0.00    -0.324 N 
ATOM      6  H3  UNL     1      24.978  49.555  45.844  1.00  0.00     0.165 HD
ATOM      7  H1  UNL     1      25.477  47.571  44.476  1.00  0.00     0.165 HD
BRANCH   5   8
HETATM    8  C15 UNL     1      23.137  50.095  46.720  1.00  0.00     0.220 C 
BRANCH   8   9
HETATM    9  C16 UNL     1      22.994  51.488  46.228  1.00  0.00     0.201 C 
HETATM   10  O5  UNL     1      21.962  52.135  46.060  1.00  0.00    -0.646 OA
HETATM   11  O6  UNL     1      24.207  52.144  45.915  1.00  0.00    -0.646 OA
ENDBRANCH   8   9
BRANCH   8  12
HETATM   12  C17 UNL     1      23.364  50.106  48.165  1.00  0.00    -0.025 A 
HETATM   13  C18 UNL     1      23.845  51.189  48.860  1.00  0.00     0.012 A 
HETATM   14  C19 UNL     1      24.016  51.093  50.218  1.00  0.00     0.037 A 
HETATM   15  C20 UNL     1      23.732  49.959  50.959  1.00  0.00     0.065 A 
HETATM   16  C21 UNL     1      23.250  48.884  50.234  1.00  0.00     0.037 A 
HETATM   17  C22 UNL     1      23.071  48.957  48.874  1.00  0.00     0.012 A 
BRANCH  15  18
HETATM   18  O7  UNL     1      23.912  49.883  52.328  1.00  0.00    -0.361 OA
ATOM     19  H7  UNL     1      23.243  49.570  52.924  1.00  0.00     0.217 HD
ENDBRANCH  15  18
ENDBRANCH   8  12
ENDBRANCH   5   8
ENDBRANCH   1   2
BRANCH   1  20
HETATM   20  C3  UNL     1      23.155  45.185  44.625  1.00  0.00     0.036 C 
BRANCH  20  21
HETATM   21  C4  UNL     1      23.293  43.737  44.632  1.00  0.00     0.004 C 
BRANCH  21  22
HETATM   22  C5  UNL     1      23.125  42.978  45.897  1.00  0.00     0.020 C 
BRANCH  22  23
HETATM   23  C6  UNL     1      21.630  42.924  46.289  1.00  0.00     0.123 C 
BRANCH  23  24
HETATM   24  N2  UNL     1      20.776  43.271  45.178  1.00  0.00    -0.357 N 
HETATM   25  C7  UNL     1      19.868  44.355  45.207  1.00  0.00     0.251 C 
HETATM   26  O2  UNL     1      19.777  45.088  46.266  1.00  0.00    -0.268 OA
ATOM     27  H2  UNL     1      20.831  42.706  44.330  1.00  0.00     0.162 HD
BRANCH  25  28
HETATM   28  C8  UNL     1      19.028  44.681  44.076  1.00  0.00     0.032 A 
HETATM   29  C9  UNL     1      19.390  45.644  43.182  1.00  0.00     0.018 A 
HETATM   30  C10 UNL     1      18.584  45.967  42.080  1.00  0.00     0.019 A 
HETATM   31  C11 UNL     1      17.392  45.292  41.896  1.00  0.00     0.006 A 
HETATM   32  I1  UNL     1      16.190  45.772  40.254  1.00  0.00    -0.045 I 
HETATM   33  C12 UNL     1      17.028  44.324  42.793  1.00  0.00     0.019 A 
HETATM   34  C13 UNL     1      17.836  44.016  43.879  1.00  0.00     0.018 A 
ENDBRANCH  25  28
ENDBRANCH  23  24
ENDBRANCH  22  23
ENDBRANCH  21  22
ENDBRANCH  20  21
ENDBRANCH   1  20
BRANCH   1  35
HETATM   35  C14 UNL     1      23.655  46.361  42.495  1.00  0.00     0.196 C 
HETATM   36  O3  UNL     1      23.276  47.451  42.056  1.00  0.00    -0.646 OA
HETATM   37  O4  UNL     1      23.715  45.287  41.615  1.00  0.00    -0.646 OA
ENDBRANCH   1  35
TORSDOF 12
ENDMDL
