MODEL 2
REMARK VINA RESULT: -11.845191481      0.094      1.164
REMARK  12 active torsions:
REMARK  status: ('A' for Active; 'I' for Inactive)
REMARK       I    between atoms: C1_2  and  N1_3 
REMARK       I    between atoms: C1_2  and  N3_24 
REMARK    1  A    between atoms: N1_3  and  C2_5 
REMARK    2  A    between atoms: C2_5  and  C3_6 
REMARK    3  A    between atoms: C2_5  and  C14_21 
REMARK    4  A    between atoms: C3_6  and  C4_7 
REMARK    5  A    between atoms: C4_7  and  C5_8 
REMARK    6  A    between atoms: C5_8  and  C6_9 
REMARK    7  A    between atoms: C6_9  and  N2_10 
REMARK       I    between atoms: N2_10  and  C7_12 
REMARK    8  A    between atoms: C7_12  and  C8_14 
REMARK    9  A    between atoms: N3_24  and  C15_26 
REMARK   10  A    between atoms: C15_26  and  C16_27 
REMARK   11  A    between atoms: C15_26  and  C17_30 
REMARK   12  A    between atoms: C20_33  and  O7_34 
ROOT
HETATM    1  C2  UNL     1      20.304  44.774  44.580  1.00  0.00     0.187 C 
ENDROOT
BRANCH   1   2
HETATM    2  N1  UNL     1      19.386  45.566  43.821  1.00  0.00    -0.329 N 
HETATM    3  C1  UNL     1      18.447  44.931  42.912  1.00  0.00     0.317 C 
HETATM    4  O1  UNL     1      18.526  43.684  42.865  1.00  0.00    -0.247 OA
HETATM    5  N3  UNL     1      17.540  45.718  42.165  1.00  0.00    -0.324 N 
ATOM      6  H3  UNL     1      17.575  46.733  42.265  1.00  0.00     0.165 HD
ATOM      7  H1  UNL     1      19.391  46.581  43.919  1.00  0.00     0.165 HD
BRANCH   5   8
HETATM    8  C15 UNL     1      16.583  45.153  41.281  1.00  0.00     0.220 C 
BRANCH   8   9
HETATM    9  C16 UNL     1      17.146  44.622  40.014  1.00  0.00     0.201 C 
HETATM   10  O5  UNL     1      18.247  44.849  39.514  1.00  0.00    -0.646 OA
HETATM   11  O6  UNL     1      16.299  43.744  39.299  1.00  0.00    -0.646 OA
ENDBRANCH   8   9
BRANCH   8  12
HETATM   12  C17 UNL     1      15.399  45.961  40.990  1.00  0.00    -0.025 A 
HETATM   13  C18 UNL     1      14.130  45.646  41.412  1.00  0.00     0.012 A 
HETATM   14  C19 UNL     1      13.089  46.477  41.087  1.00  0.00     0.037 A 
HETATM   15  C20 UNL     1      13.224  47.640  40.348  1.00  0.00     0.065 A 
HETATM   16  C21 UNL     1      14.511  47.932  39.936  1.00  0.00     0.037 A 
HETATM   17  C22 UNL     1      15.569  47.114  40.249  1.00  0.00     0.012 A 
BRANCH  15  18
HETATM   18  O7  UNL     1      12.160  48.465  40.031  1.00  0.00    -0.361 OA
ATOM     19  H7  UNL     1      11.273  48.309  40.332  1.00  0.00     0.217 HD
ENDBRANCH  15  18
ENDBRANCH   8  12
ENDBRANCH   5   8
ENDBRANCH   1   2
BRANCH   1  20
HETATM   20  C3  UNL     1      21.665  44.584  44.067  1.00  0.00     0.036 C 
BRANCH  20  21
HETATM   21  C4  UNL     1      22.622  45.666  43.899  1.00  0.00     0.004 C 
BRANCH  21  22
HETATM   22  C5  UNL     1      22.737  46.364  42.594  1.00  0.00     0.020 C 
BRANCH  22  23
HETATM   23  C6  UNL     1      23.328  47.779  42.799  1.00  0.00     0.123 C 
BRANCH  23  24
HETATM   24  N2  UNL     1      23.490  48.088  44.200  1.00  0.00    -0.357 N 
HETATM   25  C7  UNL     1      23.023  49.287  44.788  1.00  0.00     0.251 C 
HETATM   26  O2  UNL     1      22.419  50.166  44.060  1.00  0.00    -0.268 OA
ATOM     27  H2  UNL     1      23.965  47.409  44.795  1.00  0.00     0.162 HD
BRANCH  25  28
HETATM   28  C8  UNL     1      23.197  49.569  46.195  1.00  0.00     0.032 A 
HETATM   29  C9  UNL     1      23.339  50.847  46.647  1.00  0.00     0.018 A 
HETATM   30  C10 UNL     1      23.507  51.132  48.010  1.00  0.00     0.019 A 
HETATM   31  C11 UNL     1      23.528  50.091  48.919  1.00  0.00     0.006 A 
HETATM   32  I1  UNL     1      23.778  50.515  50.951  1.00  0.00    -0.045 I 
HETATM   33  C12 UNL     1      23.385  48.807  48.466  1.00  0.00     0.019 A 
HETATM   34  C13 UNL     1      23.220  48.541  47.114  1.00  0.00     0.018 A 
ENDBRANCH  25  28
ENDBRANCH  23  24
ENDBRANCH  22  23
ENDBRANCH  21  22
ENDBRANCH  20  21
ENDBRANCH   1  20
BRANCH   1  35
HETATM   35  C14 UNL     1      20.240  45.134  46.027  1.00  0.00     0.196 C 
HETATM   36  O3  UNL     1      19.906  46.232  46.482  1.00  0.00    -0.646 OA
HETATM   37  O4  UNL     1      20.592  44.134  46.926  1.00  0.00    -0.646 OA
ENDBRANCH   1  35
TORSDOF 12
ENDMDL
