MODEL 17
REMARK VINA RESULT: -7.985385731      1.282      1.831
REMARK  12 active torsions:
REMARK  status: ('A' for Active; 'I' for Inactive)
REMARK       I    between atoms: C1_2  and  N1_3 
REMARK       I    between atoms: C1_2  and  N3_24 
REMARK    1  A    between atoms: N1_3  and  C2_5 
REMARK    2  A    between atoms: C2_5  and  C3_6 
REMARK    3  A    between atoms: C2_5  and  C14_21 
REMARK    4  A    between atoms: C3_6  and  C4_7 
REMARK    5  A    between atoms: C4_7  and  C5_8 
REMARK    6  A    between atoms: C5_8  and  C6_9 
REMARK    7  A    between atoms: C6_9  and  N2_10 
REMARK       I    between atoms: N2_10  and  C7_12 
REMARK    8  A    between atoms: C7_12  and  C8_14 
REMARK    9  A    between atoms: N3_24  and  C15_26 
REMARK   10  A    between atoms: C15_26  and  C16_27 
REMARK   11  A    between atoms: C15_26  and  C17_30 
REMARK   12  A    between atoms: C20_33  and  O7_34 
ROOT
HETATM    1  C2  UNL     1      21.846  45.330  43.566  1.00  0.00     0.187 C 
ENDROOT
BRANCH   1   2
HETATM    2  N1  UNL     1      20.709  46.069  43.112  1.00  0.00    -0.329 N 
HETATM    3  C1  UNL     1      19.424  45.411  42.947  1.00  0.00     0.317 C 
HETATM    4  O1  UNL     1      19.420  44.193  43.227  1.00  0.00    -0.247 OA
HETATM    5  N3  UNL     1      18.302  46.147  42.499  1.00  0.00    -0.324 N 
ATOM      6  H3  UNL     1      18.421  47.136  42.279  1.00  0.00     0.165 HD
ATOM      7  H1  UNL     1      20.801  47.064  42.903  1.00  0.00     0.165 HD
BRANCH   5   8
HETATM    8  C15 UNL     1      17.017  45.564  42.343  1.00  0.00     0.220 C 
BRANCH   8   9
HETATM    9  C16 UNL     1      17.027  44.116  42.017  1.00  0.00     0.201 C 
HETATM   10  O5  UNL     1      17.249  43.581  40.932  1.00  0.00    -0.646 OA
HETATM   11  O6  UNL     1      16.744  43.252  43.099  1.00  0.00    -0.646 OA
ENDBRANCH   8   9
BRANCH   8  12
HETATM   12  C17 UNL     1      16.082  46.260  41.458  1.00  0.00    -0.025 A 
HETATM   13  C18 UNL     1      14.717  46.120  41.518  1.00  0.00     0.012 A 
HETATM   14  C19 UNL     1      13.931  46.825  40.642  1.00  0.00     0.037 A 
HETATM   15  C20 UNL     1      14.423  47.688  39.678  1.00  0.00     0.065 A 
HETATM   16  C21 UNL     1      15.801  47.808  39.640  1.00  0.00     0.037 A 
HETATM   17  C22 UNL     1      16.607  47.113  40.507  1.00  0.00     0.012 A 
BRANCH  15  18
HETATM   18  O7  UNL     1      13.613  48.389  38.803  1.00  0.00    -0.361 OA
ATOM     19  H7  UNL     1      13.621  48.253  37.863  1.00  0.00     0.217 HD
ENDBRANCH  15  18
ENDBRANCH   8  12
ENDBRANCH   5   8
ENDBRANCH   1   2
BRANCH   1  20
HETATM   20  C3  UNL     1      23.125  45.502  42.868  1.00  0.00     0.036 C 
BRANCH  20  21
HETATM   21  C4  UNL     1      23.474  46.688  42.103  1.00  0.00     0.004 C 
BRANCH  21  22
HETATM   22  C5  UNL     1      23.871  47.936  42.801  1.00  0.00     0.020 C 
BRANCH  22  23
HETATM   23  C6  UNL     1      22.614  48.716  43.251  1.00  0.00     0.123 C 
BRANCH  23  24
HETATM   24  N2  UNL     1      22.600  48.923  44.679  1.00  0.00    -0.357 N 
HETATM   25  C7  UNL     1      23.718  49.398  45.405  1.00  0.00     0.251 C 
HETATM   26  O2  UNL     1      24.818  49.667  44.785  1.00  0.00    -0.268 OA
ATOM     27  H2  UNL     1      21.741  48.717  45.191  1.00  0.00     0.162 HD
BRANCH  25  28
HETATM   28  C8  UNL     1      23.673  49.598  46.836  1.00  0.00     0.032 A 
HETATM   29  C9  UNL     1      23.869  48.562  47.700  1.00  0.00     0.018 A 
HETATM   30  C10 UNL     1      23.830  48.745  49.090  1.00  0.00     0.019 A 
HETATM   31  C11 UNL     1      23.587  50.007  49.597  1.00  0.00     0.006 A 
HETATM   32  I1  UNL     1      23.529  50.281  51.670  1.00  0.00    -0.045 I 
HETATM   33  C12 UNL     1      23.391  51.048  48.731  1.00  0.00     0.019 A 
HETATM   34  C13 UNL     1      23.432  50.851  47.358  1.00  0.00     0.018 A 
ENDBRANCH  25  28
ENDBRANCH  23  24
ENDBRANCH  22  23
ENDBRANCH  21  22
ENDBRANCH  20  21
ENDBRANCH   1  20
BRANCH   1  35
HETATM   35  C14 UNL     1      21.950  45.382  45.054  1.00  0.00     0.196 C 
HETATM   36  O3  UNL     1      21.188  44.823  45.848  1.00  0.00    -0.646 OA
HETATM   37  O4  UNL     1      23.000  46.130  45.572  1.00  0.00    -0.646 OA
ENDBRANCH   1  35
TORSDOF 12
ENDMDL
