MODEL 6
REMARK VINA RESULT: -8.938155808      3.613     10.057
REMARK  12 active torsions:
REMARK  status: ('A' for Active; 'I' for Inactive)
REMARK       I    between atoms: C1_2  and  N1_3 
REMARK       I    between atoms: C1_2  and  N3_24 
REMARK    1  A    between atoms: N1_3  and  C2_5 
REMARK    2  A    between atoms: C2_5  and  C3_6 
REMARK    3  A    between atoms: C2_5  and  C14_21 
REMARK    4  A    between atoms: C3_6  and  C4_7 
REMARK    5  A    between atoms: C4_7  and  C5_8 
REMARK    6  A    between atoms: C5_8  and  C6_9 
REMARK    7  A    between atoms: C6_9  and  N2_10 
REMARK       I    between atoms: N2_10  and  C7_12 
REMARK    8  A    between atoms: C7_12  and  C8_14 
REMARK    9  A    between atoms: N3_24  and  C15_26 
REMARK   10  A    between atoms: C15_26  and  C16_27 
REMARK   11  A    between atoms: C15_26  and  C17_30 
REMARK   12  A    between atoms: C20_33  and  O7_34 
ROOT
HETATM    1  C2  UNL     1      22.451  45.314  44.872  1.00  0.00     0.187 C 
ENDROOT
BRANCH   1   2
HETATM    2  N1  UNL     1      23.221  46.490  45.136  1.00  0.00    -0.329 N 
HETATM    3  C1  UNL     1      22.627  47.613  45.841  1.00  0.00     0.317 C 
HETATM    4  O1  UNL     1      21.433  47.451  46.172  1.00  0.00    -0.247 OA
HETATM    5  N3  UNL     1      23.394  48.773  46.101  1.00  0.00    -0.324 N 
ATOM      6  H3  UNL     1      24.357  48.808  45.768  1.00  0.00     0.165 HD
ATOM      7  H1  UNL     1      24.192  46.540  44.827  1.00  0.00     0.165 HD
BRANCH   5   8
HETATM    8  C15 UNL     1      22.875  49.890  46.808  1.00  0.00     0.220 C 
BRANCH   8   9
HETATM    9  C16 UNL     1      23.101  51.201  46.148  1.00  0.00     0.201 C 
HETATM   10  O5  UNL     1      24.136  51.632  45.643  1.00  0.00    -0.646 OA
HETATM   11  O6  UNL     1      21.974  52.054  46.102  1.00  0.00    -0.646 OA
ENDBRANCH   8   9
BRANCH   8  12
HETATM   12  C17 UNL     1      23.221  49.989  48.226  1.00  0.00    -0.025 A 
HETATM   13  C18 UNL     1      23.713  51.126  48.821  1.00  0.00     0.012 A 
HETATM   14  C19 UNL     1      24.000  51.111  50.162  1.00  0.00     0.037 A 
HETATM   15  C20 UNL     1      23.827  50.009  50.982  1.00  0.00     0.065 A 
HETATM   16  C21 UNL     1      23.331  48.879  50.357  1.00  0.00     0.037 A 
HETATM   17  C22 UNL     1      23.037  48.871  49.016  1.00  0.00     0.012 A 
BRANCH  15  18
HETATM   18  O7  UNL     1      24.123  50.015  52.332  1.00  0.00    -0.361 OA
ATOM     19  H7  UNL     1      23.676  49.467  52.966  1.00  0.00     0.217 HD
ENDBRANCH  15  18
ENDBRANCH   8  12
ENDBRANCH   5   8
ENDBRANCH   1   2
BRANCH   1  20
HETATM   20  C3  UNL     1      21.667  45.246  43.633  1.00  0.00     0.036 C 
BRANCH  20  21
HETATM   21  C4  UNL     1      20.338  45.815  43.487  1.00  0.00     0.004 C 
BRANCH  21  22
HETATM   22  C5  UNL     1      19.223  45.338  44.343  1.00  0.00     0.020 C 
BRANCH  22  23
HETATM   23  C6  UNL     1      18.340  44.340  43.557  1.00  0.00     0.123 C 
BRANCH  23  24
HETATM   24  N2  UNL     1      17.187  44.991  42.981  1.00  0.00    -0.357 N 
HETATM   25  C7  UNL     1      17.134  45.425  41.635  1.00  0.00     0.251 C 
HETATM   26  O2  UNL     1      18.151  45.242  40.861  1.00  0.00    -0.268 OA
ATOM     27  H2  UNL     1      16.371  45.146  43.574  1.00  0.00     0.162 HD
BRANCH  25  28
HETATM   28  C8  UNL     1      15.964  46.071  41.085  1.00  0.00     0.032 A 
HETATM   29  C9  UNL     1      14.708  45.684  41.447  1.00  0.00     0.018 A 
HETATM   30  C10 UNL     1      13.565  46.306  40.921  1.00  0.00     0.019 A 
HETATM   31  C11 UNL     1      13.716  47.337  40.014  1.00  0.00     0.006 A 
HETATM   32  I1  UNL     1      12.014  48.264  39.230  1.00  0.00    -0.045 I 
HETATM   33  C12 UNL     1      14.977  47.727  39.649  1.00  0.00     0.019 A 
HETATM   34  C13 UNL     1      16.098  47.101  40.178  1.00  0.00     0.018 A 
ENDBRANCH  25  28
ENDBRANCH  23  24
ENDBRANCH  22  23
ENDBRANCH  21  22
ENDBRANCH  20  21
ENDBRANCH   1  20
BRANCH   1  35
HETATM   35  C14 UNL     1      23.247  44.086  45.160  1.00  0.00     0.196 C 
HETATM   36  O3  UNL     1      24.263  43.728  44.556  1.00  0.00    -0.646 OA
HETATM   37  O4  UNL     1      22.791  43.286  46.201  1.00  0.00    -0.646 OA
ENDBRANCH   1  35
TORSDOF 12
ENDMDL
