MODEL 6
REMARK VINA RESULT: -5.199266354      2.804      4.820
REMARK  6 active torsions:
REMARK  status: ('A' for Active; 'I' for Inactive)
REMARK       I    between atoms: C2_2  and  N1_4 
REMARK    1  A    between atoms: N1_4  and  C3_6 
REMARK    2  A    between atoms: C4_7  and  O2_8 
REMARK    3  A    between atoms: C5_11  and  C6_12 
REMARK    4  A    between atoms: C6_12  and  O4_13 
REMARK    5  A    between atoms: C7_15  and  O5_16 
REMARK    6  A    between atoms: C8_18  and  O6_19 
ROOT
HETATM    1  C3  UNL     1      29.071   0.934  19.962  1.00  0.00     0.170 C 
HETATM    2  C4  UNL     1      29.939   0.402  18.820  1.00  0.00     0.282 C 
HETATM    3  O3  UNL     1      31.115   1.130  18.845  1.00  0.00    -0.349 OA
HETATM    4  C5  UNL     1      30.959   2.462  18.562  1.00  0.00     0.179 C 
HETATM    5  C7  UNL     1      29.967   3.135  19.477  1.00  0.00     0.180 C 
HETATM    6  C8  UNL     1      28.659   2.335  19.548  1.00  0.00     0.177 C 
ENDROOT
BRANCH   1   7
HETATM    7  N1  UNL     1      27.951   0.064  20.181  1.00  0.00    -0.349 N 
HETATM    8  C2  UNL     1      28.031  -1.224  20.778  1.00  0.00     0.214 C 
HETATM    9  C1  UNL     1      26.842  -2.096  20.986  1.00  0.00     0.117 C 
HETATM   10  O1  UNL     1      29.147  -1.632  21.140  1.00  0.00    -0.274 OA
ATOM     11  H1  UNL     1      27.031   0.393  19.886  1.00  0.00     0.163 HD
ENDBRANCH   1   7
BRANCH   2  12
HETATM   12  O2  UNL     1      29.276   0.671  17.624  1.00  0.00    -0.369 OA
ATOM     13  H2  UNL     1      28.343   0.675  17.806  1.00  0.00     0.212 HD
ENDBRANCH   2  12
BRANCH   6  14
HETATM   14  O6  UNL     1      27.848   2.953  20.465  1.00  0.00    -0.391 OA
ATOM     15  H6  UNL     1      27.746   3.885  20.307  1.00  0.00     0.210 HD
ENDBRANCH   6  14
BRANCH   5  16
HETATM   16  O5  UNL     1      29.763   4.443  19.131  1.00  0.00    -0.390 OA
ATOM     17  H5  UNL     1      28.935   4.771  19.464  1.00  0.00     0.210 HD
ENDBRANCH   5  16
BRANCH   4  18
HETATM   18  C6  UNL     1      32.311   3.135  18.827  1.00  0.00     0.198 C 
BRANCH  18  19
HETATM   19  O4  UNL     1      32.262   3.914  19.988  1.00  0.00    -0.398 OA
ATOM     20  H4  UNL     1      32.746   4.724  19.874  1.00  0.00     0.209 HD
ENDBRANCH  18  19
ENDBRANCH   4  18
TORSDOF 6
ENDMDL
