MODEL 8
REMARK VINA RESULT: -5.031557160      2.658      4.599
REMARK  6 active torsions:
REMARK  status: ('A' for Active; 'I' for Inactive)
REMARK       I    between atoms: C2_2  and  N1_4 
REMARK    1  A    between atoms: N1_4  and  C3_6 
REMARK    2  A    between atoms: C4_7  and  O2_8 
REMARK    3  A    between atoms: C5_11  and  C6_12 
REMARK    4  A    between atoms: C6_12  and  O4_13 
REMARK    5  A    between atoms: C7_15  and  O5_16 
REMARK    6  A    between atoms: C8_18  and  O6_19 
ROOT
HETATM    1  C3  UNL     1      28.840   1.605  19.937  1.00  0.00     0.170 C 
HETATM    2  C4  UNL     1      29.962   1.911  20.932  1.00  0.00     0.282 C 
HETATM    3  O3  UNL     1      30.648   3.002  20.431  1.00  0.00    -0.349 OA
HETATM    4  C5  UNL     1      31.299   2.764  19.248  1.00  0.00     0.179 C 
HETATM    5  C7  UNL     1      30.373   2.254  18.173  1.00  0.00     0.180 C 
HETATM    6  C8  UNL     1      29.528   1.081  18.689  1.00  0.00     0.177 C 
ENDROOT
BRANCH   1   7
HETATM    7  N1  UNL     1      27.917   0.664  20.503  1.00  0.00    -0.349 N 
HETATM    8  C2  UNL     1      28.091  -0.747  20.492  1.00  0.00     0.214 C 
HETATM    9  C1  UNL     1      27.107  -1.690  21.092  1.00  0.00     0.117 C 
HETATM   10  O1  UNL     1      29.113  -1.206  19.956  1.00  0.00    -0.274 OA
ATOM     11  H1  UNL     1      27.076   1.034  20.946  1.00  0.00     0.163 HD
ENDBRANCH   1   7
BRANCH   2  12
HETATM   12  O2  UNL     1      30.823   0.814  20.949  1.00  0.00    -0.369 OA
ATOM     13  H2  UNL     1      31.227   0.778  21.809  1.00  0.00     0.212 HD
ENDBRANCH   2  12
BRANCH   6  14
HETATM   14  O6  UNL     1      28.651   0.735  17.693  1.00  0.00    -0.391 OA
ATOM     15  H6  UNL     1      27.749   0.952  17.897  1.00  0.00     0.210 HD
ENDBRANCH   6  14
BRANCH   5  16
HETATM   16  O5  UNL     1      31.050   1.946  17.024  1.00  0.00    -0.390 OA
ATOM     17  H5  UNL     1      31.471   2.710  16.647  1.00  0.00     0.210 HD
ENDBRANCH   5  16
BRANCH   4  18
HETATM   18  C6  UNL     1      31.829   4.115  18.751  1.00  0.00     0.198 C 
BRANCH  18  19
HETATM   19  O4  UNL     1      30.783   4.926  18.299  1.00  0.00    -0.398 OA
ATOM     20  H4  UNL     1      31.119   5.703  17.867  1.00  0.00     0.209 HD
ENDBRANCH  18  19
ENDBRANCH   4  18
TORSDOF 6
ENDMDL
