MODEL 14
REMARK VINA RESULT: -4.236500561      1.192      1.204
REMARK  6 active torsions:
REMARK  status: ('A' for Active; 'I' for Inactive)
REMARK       I    between atoms: C2_2  and  N1_4 
REMARK    1  A    between atoms: N1_4  and  C3_6 
REMARK    2  A    between atoms: C4_7  and  O2_8 
REMARK    3  A    between atoms: C5_11  and  C6_12 
REMARK    4  A    between atoms: C6_12  and  O4_13 
REMARK    5  A    between atoms: C7_15  and  O5_16 
REMARK    6  A    between atoms: C8_18  and  O6_19 
ROOT
HETATM    1  C3  UNL     1      31.488   2.216  17.909  1.00  0.00     0.170 C 
HETATM    2  C4  UNL     1      31.844   3.507  18.648  1.00  0.00     0.282 C 
HETATM    3  O3  UNL     1      31.852   3.202  19.997  1.00  0.00    -0.349 OA
HETATM    4  C5  UNL     1      30.627   2.848  20.501  1.00  0.00     0.179 C 
HETATM    5  C7  UNL     1      30.009   1.691  19.758  1.00  0.00     0.180 C 
HETATM    6  C8  UNL     1      30.034   1.938  18.244  1.00  0.00     0.177 C 
ENDROOT
BRANCH   1   7
HETATM    7  N1  UNL     1      31.719   2.370  16.501  1.00  0.00    -0.349 N 
HETATM    8  C2  UNL     1      32.857   1.875  15.809  1.00  0.00     0.214 C 
HETATM    9  C1  UNL     1      33.058   2.057  14.344  1.00  0.00     0.117 C 
HETATM   10  O1  UNL     1      33.720   1.264  16.462  1.00  0.00    -0.274 OA
ATOM     11  H1  UNL     1      31.015   2.870  15.958  1.00  0.00     0.163 HD
ENDBRANCH   1   7
BRANCH   2  12
HETATM   12  O2  UNL     1      30.825   4.428  18.406  1.00  0.00    -0.369 OA
ATOM     13  H2  UNL     1      30.483   4.257  17.536  1.00  0.00     0.212 HD
ENDBRANCH   2  12
BRANCH   6  14
HETATM   14  O6  UNL     1      29.545   0.810  17.635  1.00  0.00    -0.391 OA
ATOM     15  H6  UNL     1      28.880   0.995  16.982  1.00  0.00     0.210 HD
ENDBRANCH   6  14
BRANCH   5  16
HETATM   16  O5  UNL     1      28.755   1.402  20.221  1.00  0.00    -0.390 OA
ATOM     17  H5  UNL     1      28.753   1.239  21.158  1.00  0.00     0.210 HD
ENDBRANCH   5  16
BRANCH   4  18
HETATM   18  C6  UNL     1      30.860   2.361  21.937  1.00  0.00     0.198 C 
BRANCH  18  19
HETATM   19  O4  UNL     1      31.213   1.007  21.953  1.00  0.00    -0.398 OA
ATOM     20  H4  UNL     1      31.628   0.755  21.136  1.00  0.00     0.209 HD
ENDBRANCH  18  19
ENDBRANCH   4  18
TORSDOF 6
ENDMDL
