MODEL 3
REMARK VINA RESULT: -6.154568249      2.966      5.287
REMARK  6 active torsions:
REMARK  status: ('A' for Active; 'I' for Inactive)
REMARK       I    between atoms: C2_2  and  N1_4 
REMARK    1  A    between atoms: N1_4  and  C3_6 
REMARK    2  A    between atoms: C4_7  and  O2_8 
REMARK    3  A    between atoms: C5_11  and  C6_12 
REMARK    4  A    between atoms: C6_12  and  O4_13 
REMARK    5  A    between atoms: C7_15  and  O5_16 
REMARK    6  A    between atoms: C8_18  and  O6_19 
ROOT
HETATM    1  C3  UNL     1      29.021   0.532  19.790  1.00  0.00     0.170 C 
HETATM    2  C4  UNL     1      29.385   0.053  18.383  1.00  0.00     0.282 C 
HETATM    3  O3  UNL     1      30.629   0.583  18.095  1.00  0.00    -0.349 OA
HETATM    4  C5  UNL     1      30.652   1.951  18.006  1.00  0.00     0.179 C 
HETATM    5  C7  UNL     1      30.130   2.620  19.252  1.00  0.00     0.180 C 
HETATM    6  C8  UNL     1      28.778   2.025  19.667  1.00  0.00     0.177 C 
ENDROOT
BRANCH   1   7
HETATM    7  N1  UNL     1      27.875  -0.183  20.276  1.00  0.00    -0.349 N 
HETATM    8  C2  UNL     1      27.921  -1.468  20.882  1.00  0.00     0.214 C 
HETATM    9  C1  UNL     1      26.706  -2.176  21.373  1.00  0.00     0.117 C 
HETATM   10  O1  UNL     1      29.027  -2.019  21.004  1.00  0.00    -0.274 OA
ATOM     11  H1  UNL     1      26.963   0.263  20.180  1.00  0.00     0.163 HD
ENDBRANCH   1   7
BRANCH   2  12
HETATM   12  O2  UNL     1      28.455   0.595  17.498  1.00  0.00    -0.369 OA
ATOM     13  H2  UNL     1      27.602   0.552  17.914  1.00  0.00     0.212 HD
ENDBRANCH   2  12
BRANCH   6  14
HETATM   14  O6  UNL     1      28.415   2.613  20.852  1.00  0.00    -0.391 OA
ATOM     15  H6  UNL     1      27.868   2.056  21.394  1.00  0.00     0.210 HD
ENDBRANCH   6  14
BRANCH   5  16
HETATM   16  O5  UNL     1      30.084   3.981  19.117  1.00  0.00    -0.390 OA
ATOM     17  H5  UNL     1      29.229   4.329  19.344  1.00  0.00     0.210 HD
ENDBRANCH   5  16
BRANCH   4  18
HETATM   18  C6  UNL     1      32.123   2.366  17.880  1.00  0.00     0.198 C 
BRANCH  18  19
HETATM   19  O4  UNL     1      32.932   1.258  17.606  1.00  0.00    -0.398 OA
ATOM     20  H4  UNL     1      33.804   1.530  17.346  1.00  0.00     0.209 HD
ENDBRANCH  18  19
ENDBRANCH   4  18
TORSDOF 6
ENDMDL
