MODEL 1
REMARK VINA RESULT: -6.841241833      0.000      0.000
REMARK  6 active torsions:
REMARK  status: ('A' for Active; 'I' for Inactive)
REMARK       I    between atoms: C2_2  and  N1_4 
REMARK    1  A    between atoms: N1_4  and  C3_6 
REMARK    2  A    between atoms: C4_7  and  O2_8 
REMARK    3  A    between atoms: C5_11  and  C6_12 
REMARK    4  A    between atoms: C6_12  and  O4_13 
REMARK    5  A    between atoms: C7_15  and  O5_16 
REMARK    6  A    between atoms: C8_18  and  O6_19 
ROOT
HETATM    1  C3  UNL     1      86.987  82.441 116.664  1.00  0.00     0.170 C 
HETATM    2  C4  UNL     1      86.868  83.886 117.157  1.00  0.00     0.282 C 
HETATM    3  O3  UNL     1      87.037  83.816 118.541  1.00  0.00    -0.349 OA
HETATM    4  C5  UNL     1      85.896  83.276 119.073  1.00  0.00     0.179 C 
HETATM    5  C7  UNL     1      85.535  81.926 118.546  1.00  0.00     0.180 C 
HETATM    6  C8  UNL     1      85.668  81.810 117.045  1.00  0.00     0.177 C 
ENDROOT
BRANCH   1   7
HETATM    7  N1  UNL     1      87.252  82.419 115.263  1.00  0.00    -0.349 N 
HETATM    8  C2  UNL     1      88.070  81.432 114.650  1.00  0.00     0.214 C 
HETATM    9  C1  UNL     1      88.346  81.414 113.180  1.00  0.00     0.117 C 
HETATM   10  O1  UNL     1      88.562  80.557 115.426  1.00  0.00    -0.274 OA
ATOM     11  H1  UNL     1      86.836  83.142 114.676  1.00  0.00     0.163 HD
ENDBRANCH   1   7
BRANCH   2  12
HETATM   12  O2  UNL     1      85.564  84.339 116.940  1.00  0.00    -0.369 OA
ATOM     13  H2  UNL     1      85.575  85.005 116.264  1.00  0.00     0.212 HD
ENDBRANCH   2  12
BRANCH   6  14
HETATM   14  O6  UNL     1      85.587  80.474 116.713  1.00  0.00    -0.391 OA
ATOM     15  H6  UNL     1      84.696  80.173 116.580  1.00  0.00     0.210 HD
ENDBRANCH   6  14
BRANCH   5  16
HETATM   16  O5  UNL     1      86.232  80.896 119.181  1.00  0.00    -0.390 OA
ATOM     17  H5  UNL     1      85.763  80.070 119.161  1.00  0.00     0.210 HD
ENDBRANCH   5  16
BRANCH   4  18
HETATM   18  C6  UNL     1      85.995  83.162 120.592  1.00  0.00     0.198 C 
BRANCH  18  19
HETATM   19  O4  UNL     1      84.745  83.477 121.113  1.00  0.00    -0.398 OA
ATOM     20  H4  UNL     1      84.324  82.659 121.351  1.00  0.00     0.209 HD
ENDBRANCH  18  19
ENDBRANCH   4  18
TORSDOF 6
ENDMDL
