MODEL 3
REMARK VINA RESULT: -6.223992999      3.058      5.210
REMARK  6 active torsions:
REMARK  status: ('A' for Active; 'I' for Inactive)
REMARK       I    between atoms: C2_2  and  N1_4 
REMARK    1  A    between atoms: N1_4  and  C3_6 
REMARK    2  A    between atoms: C4_7  and  O2_8 
REMARK    3  A    between atoms: C5_11  and  C6_12 
REMARK    4  A    between atoms: C6_12  and  O4_13 
REMARK    5  A    between atoms: C7_15  and  O5_16 
REMARK    6  A    between atoms: C8_18  and  O6_19 
ROOT
HETATM    1  C3  UNL     1      84.121  80.170 118.305  1.00  0.00     0.170 C 
HETATM    2  C4  UNL     1      84.363  79.814 116.835  1.00  0.00     0.282 C 
HETATM    3  O3  UNL     1      85.684  80.187 116.581  1.00  0.00    -0.349 OA
HETATM    4  C5  UNL     1      85.726  81.555 116.517  1.00  0.00     0.179 C 
HETATM    5  C7  UNL     1      85.236  82.256 117.741  1.00  0.00     0.180 C 
HETATM    6  C8  UNL     1      83.960  81.672 118.301  1.00  0.00     0.177 C 
ENDROOT
BRANCH   1   7
HETATM    7  N1  UNL     1      82.981  79.471 118.800  1.00  0.00    -0.349 N 
HETATM    8  C2  UNL     1      83.055  78.153 119.326  1.00  0.00     0.214 C 
HETATM    9  C1  UNL     1      81.855  77.424 119.844  1.00  0.00     0.117 C 
HETATM   10  O1  UNL     1      84.206  77.621 119.333  1.00  0.00    -0.274 OA
ATOM     11  H1  UNL     1      82.074  79.937 118.776  1.00  0.00     0.163 HD
ENDBRANCH   1   7
BRANCH   2  12
HETATM   12  O2  UNL     1      83.561  80.625 116.029  1.00  0.00    -0.369 OA
ATOM     13  H2  UNL     1      82.946  80.080 115.553  1.00  0.00     0.212 HD
ENDBRANCH   2  12
BRANCH   6  14
HETATM   14  O6  UNL     1      83.765  82.203 119.558  1.00  0.00    -0.391 OA
ATOM     15  H6  UNL     1      82.941  81.943 119.952  1.00  0.00     0.210 HD
ENDBRANCH   6  14
BRANCH   5  16
HETATM   16  O5  UNL     1      86.212  82.345 118.736  1.00  0.00    -0.390 OA
ATOM     17  H5  UNL     1      86.928  81.735 118.603  1.00  0.00     0.210 HD
ENDBRANCH   5  16
BRANCH   4  18
HETATM   18  C6  UNL     1      87.142  82.052 116.240  1.00  0.00     0.198 C 
BRANCH  18  19
HETATM   19  O4  UNL     1      88.021  81.122 116.782  1.00  0.00    -0.398 OA
ATOM     20  H4  UNL     1      88.799  81.116 116.237  1.00  0.00     0.209 HD
ENDBRANCH  18  19
ENDBRANCH   4  18
TORSDOF 6
ENDMDL
