MODEL 11
REMARK VINA RESULT: -4.473065618      5.593      7.309
REMARK  6 active torsions:
REMARK  status: ('A' for Active; 'I' for Inactive)
REMARK       I    between atoms: C2_2  and  N1_4 
REMARK    1  A    between atoms: N1_4  and  C3_6 
REMARK    2  A    between atoms: C4_7  and  O2_8 
REMARK    3  A    between atoms: C5_11  and  C6_12 
REMARK    4  A    between atoms: C6_12  and  O4_13 
REMARK    5  A    between atoms: C7_15  and  O5_16 
REMARK    6  A    between atoms: C8_18  and  O6_19 
ROOT
HETATM    1  C3  UNL     1      87.119  86.373 113.471  1.00  0.00     0.170 C 
HETATM    2  C4  UNL     1      87.040  87.218 114.746  1.00  0.00     0.282 C 
HETATM    3  O3  UNL     1      86.550  88.458 114.334  1.00  0.00    -0.349 OA
HETATM    4  C5  UNL     1      87.558  89.104 113.669  1.00  0.00     0.179 C 
HETATM    5  C7  UNL     1      88.105  88.368 112.490  1.00  0.00     0.180 C 
HETATM    6  C8  UNL     1      88.340  86.898 112.753  1.00  0.00     0.177 C 
ENDROOT
BRANCH   1   7
HETATM    7  N1  UNL     1      87.197  84.988 113.801  1.00  0.00    -0.349 N 
HETATM    8  C2  UNL     1      86.971  83.956 112.850  1.00  0.00     0.214 C 
HETATM    9  C1  UNL     1      87.053  82.504 113.202  1.00  0.00     0.117 C 
HETATM   10  O1  UNL     1      86.691  84.336 111.673  1.00  0.00    -0.274 OA
ATOM     11  H1  UNL     1      87.424  84.727 114.761  1.00  0.00     0.163 HD
ENDBRANCH   1   7
BRANCH   2  12
HETATM   12  O2  UNL     1      88.332  87.443 115.227  1.00  0.00    -0.369 OA
ATOM     13  H2  UNL     1      88.419  87.043 116.084  1.00  0.00     0.212 HD
ENDBRANCH   2  12
BRANCH   6  14
HETATM   14  O6  UNL     1      88.568  86.280 111.542  1.00  0.00    -0.391 OA
ATOM     15  H6  UNL     1      88.904  86.870 110.877  1.00  0.00     0.210 HD
ENDBRANCH   6  14
BRANCH   5  16
HETATM   16  O5  UNL     1      87.332  88.542 111.340  1.00  0.00    -0.390 OA
ATOM     17  H5  UNL     1      87.820  88.375 110.542  1.00  0.00     0.210 HD
ENDBRANCH   5  16
BRANCH   4  18
HETATM   18  C6  UNL     1      87.106  90.478 113.180  1.00  0.00     0.198 C 
BRANCH  18  19
HETATM   19  O4  UNL     1      88.217  91.108 112.631  1.00  0.00    -0.398 OA
ATOM     20  H4  UNL     1      88.605  91.643 113.313  1.00  0.00     0.209 HD
ENDBRANCH  18  19
ENDBRANCH   4  18
TORSDOF 6
ENDMDL
