MODEL 5
REMARK VINA RESULT: -5.476619433      3.031      4.806
REMARK  6 active torsions:
REMARK  status: ('A' for Active; 'I' for Inactive)
REMARK       I    between atoms: C2_2  and  N1_4 
REMARK    1  A    between atoms: N1_4  and  C3_6 
REMARK    2  A    between atoms: C4_7  and  O2_8 
REMARK    3  A    between atoms: C5_11  and  C6_12 
REMARK    4  A    between atoms: C6_12  and  O4_13 
REMARK    5  A    between atoms: C7_15  and  O5_16 
REMARK    6  A    between atoms: C8_18  and  O6_19 
ROOT
HETATM    1  C3  UNL     1      83.833  80.747 118.898  1.00  0.00     0.170 C 
HETATM    2  C4  UNL     1      85.145  80.291 118.252  1.00  0.00     0.282 C 
HETATM    3  O3  UNL     1      86.109  81.194 118.704  1.00  0.00    -0.349 OA
HETATM    4  C5  UNL     1      85.909  82.380 118.050  1.00  0.00     0.179 C 
HETATM    5  C7  UNL     1      84.549  82.973 118.227  1.00  0.00     0.180 C 
HETATM    6  C8  UNL     1      83.430  81.965 118.100  1.00  0.00     0.177 C 
ENDROOT
BRANCH   1   7
HETATM    7  N1  UNL     1      82.874  79.693 118.864  1.00  0.00    -0.349 N 
HETATM    8  C2  UNL     1      83.172  78.367 119.275  1.00  0.00     0.214 C 
HETATM    9  C1  UNL     1      82.161  77.264 119.236  1.00  0.00     0.117 C 
HETATM   10  O1  UNL     1      84.357  78.164 119.681  1.00  0.00    -0.274 OA
ATOM     11  H1  UNL     1      81.932  79.901 118.530  1.00  0.00     0.163 HD
ENDBRANCH   1   7
BRANCH   2  12
HETATM   12  O2  UNL     1      85.058  80.464 116.868  1.00  0.00    -0.369 OA
ATOM     13  H2  UNL     1      85.891  80.782 116.542  1.00  0.00     0.212 HD
ENDBRANCH   2  12
BRANCH   6  14
HETATM   14  O6  UNL     1      82.271  82.556 118.554  1.00  0.00    -0.391 OA
ATOM     15  H6  UNL     1      81.948  83.241 117.981  1.00  0.00     0.210 HD
ENDBRANCH   6  14
BRANCH   5  16
HETATM   16  O5  UNL     1      84.427  83.692 119.418  1.00  0.00    -0.390 OA
ATOM     17  H5  UNL     1      85.258  83.804 119.866  1.00  0.00     0.210 HD
ENDBRANCH   5  16
BRANCH   4  18
HETATM   18  C6  UNL     1      86.926  83.431 118.486  1.00  0.00     0.198 C 
BRANCH  18  19
HETATM   19  O4  UNL     1      86.566  84.631 117.884  1.00  0.00    -0.398 OA
ATOM     20  H4  UNL     1      86.117  85.153 118.540  1.00  0.00     0.209 HD
ENDBRANCH  18  19
ENDBRANCH   4  18
TORSDOF 6
ENDMDL
