MODEL 1
REMARK VINA RESULT: -5.512519590      0.000      0.000
REMARK  4 active torsions:
REMARK  status: ('A' for Active; 'I' for Inactive)
REMARK    1  A    between atoms: C1_2  and  C2_4 
REMARK    2  A    between atoms: C2_4  and  C3_5 
REMARK    3  A    between atoms: C3_5  and  C4_6 
REMARK    4  A    between atoms: C4_6  and  C5_8 
ROOT
HETATM    1  C3  UNL     1      13.917   4.669   3.707  1.00  0.00     0.101 C 
ENDROOT
BRANCH   1   2
HETATM    2  C2  UNL     1      14.522   3.794   2.644  1.00  0.00     0.121 C 
BRANCH   2   3
HETATM    3  C1  UNL     1      15.802   4.340   2.131  1.00  0.00     0.172 C 
HETATM    4  O1  UNL     1      15.893   5.519   1.681  1.00  0.00    -0.648 OA
HETATM    5  O2  UNL     1      16.969   3.589   2.116  1.00  0.00    -0.648 OA
ENDBRANCH   2   3
ENDBRANCH   1   2
BRANCH   1   6
HETATM    6  C4  UNL     1      12.612   5.231   3.301  1.00  0.00     0.225 C 
HETATM    7  O3  UNL     1      12.539   6.356   2.766  1.00  0.00    -0.286 OA
BRANCH   6   8
HETATM    8  C5  UNL     1      11.395   4.478   3.523  1.00  0.00     0.246 C 
HETATM    9  O4  UNL     1      11.386   3.436   4.266  1.00  0.00    -0.642 OA
HETATM   10  O5  UNL     1      10.179   4.837   2.952  1.00  0.00    -0.642 OA
ENDBRANCH   6   8
ENDBRANCH   1   6
TORSDOF 4
ENDMDL
