MODEL 7
REMARK VINA RESULT: -5.453372030      0.877      1.129
REMARK  4 active torsions:
REMARK  status: ('A' for Active; 'I' for Inactive)
REMARK    1  A    between atoms: C1_2  and  C2_4 
REMARK    2  A    between atoms: C2_4  and  C3_5 
REMARK    3  A    between atoms: C3_5  and  C4_6 
REMARK    4  A    between atoms: C4_6  and  C5_8 
ROOT
HETATM    1  C3  UNL     1      13.961   4.894   3.771  1.00  0.00     0.101 C 
ENDROOT
BRANCH   1   2
HETATM    2  C2  UNL     1      14.935   4.871   2.624  1.00  0.00     0.121 C 
BRANCH   2   3
HETATM    3  C1  UNL     1      15.710   3.607   2.573  1.00  0.00     0.172 C 
HETATM    4  O1  UNL     1      16.890   3.566   2.119  1.00  0.00    -0.648 OA
HETATM    5  O2  UNL     1      15.182   2.404   3.018  1.00  0.00    -0.648 OA
ENDBRANCH   2   3
ENDBRANCH   1   2
BRANCH   1   6
HETATM    6  C4  UNL     1      12.602   5.290   3.351  1.00  0.00     0.225 C 
HETATM    7  O3  UNL     1      12.401   6.384   2.785  1.00  0.00    -0.286 OA
BRANCH   6   8
HETATM    8  C5  UNL     1      11.478   4.409   3.594  1.00  0.00     0.246 C 
HETATM    9  O4  UNL     1      11.632   3.293   4.201  1.00  0.00    -0.642 OA
HETATM   10  O5  UNL     1      10.185   4.717   3.190  1.00  0.00    -0.642 OA
ENDBRANCH   6   8
ENDBRANCH   1   6
TORSDOF 4
ENDMDL
