MODEL 3
REMARK VINA RESULT: -9.913980643      1.127      1.965
REMARK  9 active torsions:
REMARK  status: ('A' for Active; 'I' for Inactive)
REMARK    1  A    between atoms: N1_2  and  C2_3 
REMARK    2  A    between atoms: N1_2  and  C9_20 
REMARK    3  A    between atoms: C2_3  and  C3_4 
REMARK    4  A    between atoms: C12_23  and  C13_24 
REMARK       I    between atoms: C13_24  and  N8_26 
REMARK    5  A    between atoms: N8_26  and  C14_28 
REMARK    6  A    between atoms: C14_28  and  C15_29 
REMARK    7  A    between atoms: C14_28  and  C18_34 
REMARK    8  A    between atoms: C15_29  and  C16_30 
REMARK    9  A    between atoms: C16_30  and  C17_31 
ROOT
HETATM    1  C9  UNL     1      40.706  46.777   9.161  1.00  0.00     0.030 A 
HETATM    2  C10 UNL     1      39.871  46.441   8.099  1.00  0.00     0.030 A 
HETATM    3  C11 UNL     1      39.533  45.126   7.893  1.00  0.00     0.019 A 
HETATM    4  C12 UNL     1      39.994  44.091   8.709  1.00  0.00     0.032 A 
HETATM    5  C19 UNL     1      40.812  44.486   9.740  1.00  0.00     0.019 A 
HETATM    6  C20 UNL     1      41.177  45.807   9.984  1.00  0.00     0.030 A 
ENDROOT
BRANCH   1   7
HETATM    7  N1  UNL     1      40.993  48.175   9.267  1.00  0.00    -0.380 N 
HETATM    8  C1  UNL     1      41.099  48.982   8.090  1.00  0.00     0.150 C 
BRANCH   7   9
HETATM    9  C2  UNL     1      41.188  48.711  10.574  1.00  0.00     0.181 C 
BRANCH   9  10
HETATM   10  C3  UNL     1      40.181  49.738  10.929  1.00  0.00     0.043 A 
HETATM   11  C4  UNL     1      38.889  49.434  11.295  1.00  0.00     0.116 A 
HETATM   12  N2  UNL     1      38.000  50.405  11.640  1.00  0.00    -0.348 N 
HETATM   13  C5  UNL     1      38.344  51.716  11.638  1.00  0.00     0.138 A 
ATOM     14  H2  UNL     1      37.052  50.139  11.905  1.00  0.00     0.167 HD
HETATM   15  N3  UNL     1      37.480  52.691  11.982  1.00  0.00    -0.315 N 
HETATM   16  C8  UNL     1      39.635  52.024  11.273  1.00  0.00     0.119 A 
HETATM   17  C6  UNL     1      37.800  53.993  11.995  1.00  0.00     0.195 A 
ATOM     18  H3  UNL     1      36.532  52.424  12.248  1.00  0.00     0.170 HD
HETATM   19  N4  UNL     1      36.877  55.016  12.358  1.00  0.00    -0.063 NA
HETATM   20  N5  UNL     1      39.074  54.309  11.635  1.00  0.00    -0.317 N 
HETATM   21  C7  UNL     1      39.981  53.372  11.281  1.00  0.00     0.149 A 
ATOM     22  H5  UNL     1      39.355  55.290  11.631  1.00  0.00     0.169 HD
HETATM   23  N6  UNL     1      41.305  53.690  10.909  1.00  0.00    -0.080 NA
HETATM   24  N7  UNL     1      40.511  51.063  10.933  1.00  0.00    -0.351 N 
ATOM     25  H7  UNL     1      41.458  51.334  10.669  1.00  0.00     0.166 HD
ENDBRANCH   9  10
ENDBRANCH   7   9
ENDBRANCH   1   7
BRANCH   4  26
HETATM   26  C13 UNL     1      39.605  42.742   8.414  1.00  0.00     0.252 C 
HETATM   27  O1  UNL     1      39.643  42.333   7.216  1.00  0.00    -0.268 OA
HETATM   28  N8  UNL     1      39.182  41.840   9.398  1.00  0.00    -0.342 N 
ATOM     29  H8  UNL     1      39.133  42.126  10.376  1.00  0.00     0.163 HD
BRANCH  28  30
HETATM   30  C14 UNL     1      38.810  40.471   8.999  1.00  0.00     0.186 C 
BRANCH  30  31
HETATM   31  C15 UNL     1      40.006  39.564   9.098  1.00  0.00     0.046 C 
BRANCH  31  32
HETATM   32  C16 UNL     1      40.037  38.605   7.934  1.00  0.00     0.116 C 
BRANCH  32  33
HETATM   33  C17 UNL     1      39.397  37.310   8.294  1.00  0.00     0.172 C 
HETATM   34  O2  UNL     1      39.944  36.478   9.067  1.00  0.00    -0.648 OA
HETATM   35  O3  UNL     1      38.145  36.961   7.774  1.00  0.00    -0.648 OA
ENDBRANCH  32  33
ENDBRANCH  31  32
ENDBRANCH  30  31
BRANCH  30  36
HETATM   36  C18 UNL     1      37.682  40.064   9.848  1.00  0.00     0.196 C 
HETATM   37  O4  UNL     1      37.607  40.455  11.033  1.00  0.00    -0.646 OA
HETATM   38  O5  UNL     1      36.678  39.252   9.378  1.00  0.00    -0.646 OA
ENDBRANCH  30  36
ENDBRANCH  28  30
ENDBRANCH   4  26
TORSDOF 9
ENDMDL
