MODEL 1
REMARK VINA RESULT: -9.982018503      0.000      0.000
REMARK  9 active torsions:
REMARK  status: ('A' for Active; 'I' for Inactive)
REMARK    1  A    between atoms: N1_2  and  C2_3 
REMARK    2  A    between atoms: N1_2  and  C9_20 
REMARK    3  A    between atoms: C2_3  and  C3_4 
REMARK    4  A    between atoms: C12_23  and  C13_24 
REMARK       I    between atoms: C13_24  and  N8_26 
REMARK    5  A    between atoms: N8_26  and  C14_28 
REMARK    6  A    between atoms: C14_28  and  C15_29 
REMARK    7  A    between atoms: C14_28  and  C18_34 
REMARK    8  A    between atoms: C15_29  and  C16_30 
REMARK    9  A    between atoms: C16_30  and  C17_31 
ROOT
HETATM    1  C9  UNL     1      40.358  46.235   9.152  1.00  0.00     0.030 A 
HETATM    2  C10 UNL     1      39.442  45.876   8.167  1.00  0.00     0.030 A 
HETATM    3  C11 UNL     1      39.206  44.546   7.915  1.00  0.00     0.019 A 
HETATM    4  C12 UNL     1      39.851  43.520   8.608  1.00  0.00     0.032 A 
HETATM    5  C19 UNL     1      40.740  43.938   9.567  1.00  0.00     0.019 A 
HETATM    6  C20 UNL     1      41.007  45.274   9.855  1.00  0.00     0.030 A 
ENDROOT
BRANCH   1   7
HETATM    7  N1  UNL     1      40.525  47.648   9.316  1.00  0.00    -0.380 N 
HETATM    8  C1  UNL     1      40.518  48.513   8.176  1.00  0.00     0.150 C 
BRANCH   7   9
HETATM    9  C2  UNL     1      40.718  48.139  10.640  1.00  0.00     0.181 C 
BRANCH   9  10
HETATM   10  C3  UNL     1      39.962  49.385  10.906  1.00  0.00     0.043 A 
HETATM   11  C4  UNL     1      40.323  50.611  10.394  1.00  0.00     0.116 A 
HETATM   12  N2  UNL     1      39.587  51.729  10.639  1.00  0.00    -0.348 N 
HETATM   13  C5  UNL     1      38.465  51.690  11.399  1.00  0.00     0.138 A 
ATOM     14  H2  UNL     1      39.888  52.619  10.242  1.00  0.00     0.167 HD
HETATM   15  N3  UNL     1      37.721  52.784  11.647  1.00  0.00    -0.315 N 
HETATM   16  C8  UNL     1      38.100  50.465  11.912  1.00  0.00     0.119 A 
HETATM   17  C6  UNL     1      36.603  52.767  12.389  1.00  0.00     0.195 A 
ATOM     18  H3  UNL     1      38.023  53.674  11.249  1.00  0.00     0.170 HD
HETATM   19  N4  UNL     1      35.825  53.932  12.648  1.00  0.00    -0.063 NA
HETATM   20  N5  UNL     1      36.233  51.562  12.903  1.00  0.00    -0.317 N 
HETATM   21  C7  UNL     1      36.943  50.432  12.684  1.00  0.00     0.149 A 
ATOM     22  H5  UNL     1      35.390  51.509  13.473  1.00  0.00     0.169 HD
HETATM   23  N6  UNL     1      36.566  49.178  13.210  1.00  0.00    -0.080 NA
HETATM   24  N7  UNL     1      38.829  49.362  11.668  1.00  0.00    -0.351 N 
ATOM     25  H7  UNL     1      38.523  48.474  12.067  1.00  0.00     0.166 HD
ENDBRANCH   9  10
ENDBRANCH   7   9
ENDBRANCH   1   7
BRANCH   4  26
HETATM   26  C13 UNL     1      39.557  42.157   8.270  1.00  0.00     0.252 C 
HETATM   27  O1  UNL     1      39.837  41.730   7.112  1.00  0.00    -0.268 OA
HETATM   28  N8  UNL     1      38.970  41.260   9.172  1.00  0.00    -0.342 N 
ATOM     29  H8  UNL     1      38.725  41.560  10.115  1.00  0.00     0.163 HD
BRANCH  28  30
HETATM   30  C14 UNL     1      38.713  39.876   8.736  1.00  0.00     0.186 C 
BRANCH  30  31
HETATM   31  C15 UNL     1      39.878  38.998   9.105  1.00  0.00     0.046 C 
BRANCH  31  32
HETATM   32  C16 UNL     1      40.153  38.000   8.007  1.00  0.00     0.116 C 
BRANCH  32  33
HETATM   33  C17 UNL     1      39.350  36.761   8.199  1.00  0.00     0.172 C 
HETATM   34  O2  UNL     1      39.756  35.796   8.902  1.00  0.00    -0.648 OA
HETATM   35  O3  UNL     1      38.097  36.619   7.592  1.00  0.00    -0.648 OA
ENDBRANCH  32  33
ENDBRANCH  31  32
ENDBRANCH  30  31
BRANCH  30  36
HETATM   36  C18 UNL     1      37.440  39.461   9.339  1.00  0.00     0.196 C 
HETATM   37  O4  UNL     1      36.384  40.078   9.080  1.00  0.00    -0.646 OA
HETATM   38  O5  UNL     1      37.360  38.391  10.197  1.00  0.00    -0.646 OA
ENDBRANCH  30  36
ENDBRANCH  28  30
ENDBRANCH   4  26
TORSDOF 9
ENDMDL
