MODEL 2
REMARK VINA RESULT: -9.917678419      3.077      4.830
REMARK  9 active torsions:
REMARK  status: ('A' for Active; 'I' for Inactive)
REMARK    1  A    between atoms: N1_2  and  C2_3 
REMARK    2  A    between atoms: N1_2  and  C9_20 
REMARK    3  A    between atoms: C2_3  and  C3_4 
REMARK    4  A    between atoms: C12_23  and  C13_24 
REMARK       I    between atoms: C13_24  and  N8_26 
REMARK    5  A    between atoms: N8_26  and  C14_28 
REMARK    6  A    between atoms: C14_28  and  C15_29 
REMARK    7  A    between atoms: C14_28  and  C18_34 
REMARK    8  A    between atoms: C15_29  and  C16_30 
REMARK    9  A    between atoms: C16_30  and  C17_31 
ROOT
HETATM    1  C9  UNL     1      40.329  46.132   9.255  1.00  0.00     0.030 A 
HETATM    2  C10 UNL     1      39.422  45.784   8.260  1.00  0.00     0.030 A 
HETATM    3  C11 UNL     1      39.190  44.457   7.988  1.00  0.00     0.019 A 
HETATM    4  C12 UNL     1      39.833  43.423   8.672  1.00  0.00     0.032 A 
HETATM    5  C19 UNL     1      40.714  43.831   9.643  1.00  0.00     0.019 A 
HETATM    6  C20 UNL     1      40.976  45.163   9.950  1.00  0.00     0.030 A 
ENDROOT
BRANCH   1   7
HETATM    7  N1  UNL     1      40.492  47.543   9.439  1.00  0.00    -0.380 N 
HETATM    8  C1  UNL     1      41.082  48.051  10.639  1.00  0.00     0.150 C 
BRANCH   7   9
HETATM    9  C2  UNL     1      40.026  48.400   8.400  1.00  0.00     0.181 C 
BRANCH   9  10
HETATM   10  C3  UNL     1      41.128  49.074   7.675  1.00  0.00     0.043 A 
HETATM   11  C4  UNL     1      42.212  48.403   7.155  1.00  0.00     0.116 A 
HETATM   12  N2  UNL     1      43.192  49.054   6.472  1.00  0.00    -0.348 N 
HETATM   13  C5  UNL     1      43.148  50.394   6.271  1.00  0.00     0.138 A 
ATOM     14  H2  UNL     1      43.979  48.521   6.103  1.00  0.00     0.167 HD
HETATM   15  N3  UNL     1      44.105  51.055   5.592  1.00  0.00    -0.315 N 
HETATM   16  C8  UNL     1      42.065  51.070   6.789  1.00  0.00     0.119 A 
HETATM   17  C6  UNL     1      44.079  52.379   5.375  1.00  0.00     0.195 A 
ATOM     18  H3  UNL     1      44.892  50.521   5.223  1.00  0.00     0.170 HD
HETATM   19  N4  UNL     1      45.099  53.068   4.657  1.00  0.00    -0.063 NA
HETATM   20  N5  UNL     1      43.013  53.057   5.883  1.00  0.00    -0.317 N 
HETATM   21  C7  UNL     1      42.025  52.443   6.571  1.00  0.00     0.149 A 
ATOM     22  H5  UNL     1      42.958  54.065   5.739  1.00  0.00     0.169 HD
HETATM   23  N6  UNL     1      40.915  53.137   7.099  1.00  0.00    -0.080 NA
HETATM   24  N7  UNL     1      41.099  50.423   7.463  1.00  0.00    -0.351 N 
ATOM     25  H7  UNL     1      40.313  50.961   7.830  1.00  0.00     0.166 HD
ENDBRANCH   9  10
ENDBRANCH   7   9
ENDBRANCH   1   7
BRANCH   4  26
HETATM   26  C13 UNL     1      39.545  42.064   8.314  1.00  0.00     0.252 C 
HETATM   27  O1  UNL     1      39.848  41.649   7.157  1.00  0.00    -0.268 OA
HETATM   28  N8  UNL     1      38.939  41.159   9.194  1.00  0.00    -0.342 N 
ATOM     29  H8  UNL     1      38.674  41.449  10.135  1.00  0.00     0.163 HD
BRANCH  28  30
HETATM   30  C14 UNL     1      38.690  39.779   8.738  1.00  0.00     0.186 C 
BRANCH  30  31
HETATM   31  C15 UNL     1      39.870  38.908   9.072  1.00  0.00     0.046 C 
BRANCH  31  32
HETATM   32  C16 UNL     1      40.111  37.904   7.971  1.00  0.00     0.116 C 
BRANCH  32  33
HETATM   33  C17 UNL     1      39.340  36.654   8.212  1.00  0.00     0.172 C 
HETATM   34  O2  UNL     1      39.749  35.747   8.988  1.00  0.00    -0.648 OA
HETATM   35  O3  UNL     1      38.116  36.433   7.571  1.00  0.00    -0.648 OA
ENDBRANCH  32  33
ENDBRANCH  31  32
ENDBRANCH  30  31
BRANCH  30  36
HETATM   36  C18 UNL     1      37.432  39.340   9.355  1.00  0.00     0.196 C 
HETATM   37  O4  UNL     1      36.372  39.973   9.156  1.00  0.00    -0.646 OA
HETATM   38  O5  UNL     1      37.369  38.229  10.162  1.00  0.00    -0.646 OA
ENDBRANCH  30  36
ENDBRANCH  28  30
ENDBRANCH   4  26
TORSDOF 9
ENDMDL
