MODEL 1
REMARK VINA RESULT: -7.775208216      0.000      0.000
REMARK  9 active torsions:
REMARK  status: ('A' for Active; 'I' for Inactive)
REMARK    1  A    between atoms: C5_6  and  O1_7 
REMARK    2  A    between atoms: O1_7  and  C6_8 
REMARK    3  A    between atoms: C6_8  and  C7_9 
REMARK    4  A    between atoms: C7_9  and  C8_10 
REMARK    5  A    between atoms: C8_10  and  N2_11 
REMARK    6  A    between atoms: C11_14  and  C12_15 
REMARK    7  A    between atoms: C12_15  and  O2_16 
REMARK    8  A    between atoms: C12_15  and  C13_18 
REMARK    9  A    between atoms: C12_15  and  C19_24 
ROOT
HETATM    1  N1  UNL     1     -12.963   6.347 -13.456  1.00  0.00    -0.191 NA
HETATM    2  C1  UNL     1     -13.979   6.752 -13.116  1.00  0.00     0.099 C 
HETATM    3  C2  UNL     1     -15.220   7.270 -12.677  1.00  0.00     0.044 A 
HETATM    4  C3  UNL     1     -15.312   8.050 -11.542  1.00  0.00     0.025 A 
HETATM    5  C4  UNL     1     -16.527   8.512 -11.178  1.00  0.00     0.038 A 
HETATM    6  C5  UNL     1     -17.683   8.228 -11.904  1.00  0.00     0.068 A 
HETATM    7  C26 UNL     1     -17.568   7.424 -13.070  1.00  0.00     0.038 A 
HETATM    8  C27 UNL     1     -16.333   6.971 -13.420  1.00  0.00     0.025 A 
ENDROOT
BRANCH   6   9
HETATM    9  O1  UNL     1     -18.831   8.670 -11.546  1.00  0.00    -0.351 OA
BRANCH   9  10
HETATM   10  C6  UNL     1     -20.009   9.123 -11.176  1.00  0.00     0.177 C 
BRANCH  10  11
HETATM   11  C7  UNL     1     -20.097  10.420 -10.380  1.00  0.00     0.057 C 
BRANCH  11  12
HETATM   12  C8  UNL     1     -20.052  10.279  -8.910  1.00  0.00     0.274 C 
BRANCH  12  13
HETATM   13  N2  UNL     1     -19.006  11.078  -8.296  1.00  0.00     0.088 N 
HETATM   14  C9  UNL     1     -17.706  10.514  -8.601  1.00  0.00     0.273 C 
HETATM   15  C10 UNL     1     -16.630  10.793  -7.583  1.00  0.00     0.038 C 
HETATM   16  C11 UNL     1     -16.971  10.295  -6.212  1.00  0.00     0.028 C 
HETATM   17  C24 UNL     1     -18.439   9.861  -6.310  1.00  0.00     0.038 C 
HETATM   18  C25 UNL     1     -19.135  11.128  -6.861  1.00  0.00     0.273 C 
BRANCH  16  19
HETATM   19  C12 UNL     1     -16.108   9.257  -5.628  1.00  0.00     0.092 C 
BRANCH  19  20
HETATM   20  O2  UNL     1     -16.952   8.155  -5.307  1.00  0.00    -0.384 OA
ATOM     21  H2  UNL     1     -16.911   7.556  -6.043  1.00  0.00     0.211 HD
ENDBRANCH  19  20
BRANCH  19  22
HETATM   22  C13 UNL     1     -15.114   8.754  -6.584  1.00  0.00    -0.023 A 
HETATM   23  C14 UNL     1     -15.331   7.580  -7.320  1.00  0.00     0.010 A 
HETATM   24  C15 UNL     1     -14.390   7.129  -8.198  1.00  0.00     0.001 A 
HETATM   25  C16 UNL     1     -13.180   7.789  -8.418  1.00  0.00     0.000 A 
HETATM   26  C17 UNL     1     -12.948   8.953  -7.702  1.00  0.00     0.001 A 
HETATM   27  C18 UNL     1     -13.912   9.397  -6.814  1.00  0.00     0.010 A 
ENDBRANCH  19  22
BRANCH  19  28
HETATM   28  C19 UNL     1     -15.551   9.746  -4.325  1.00  0.00     0.025 C 
HETATM   29  C20 UNL     1     -16.190  10.965  -3.763  1.00  0.00     0.008 C 
HETATM   30  C21 UNL     1     -16.907  10.485  -2.482  1.00  0.00     0.001 C 
HETATM   31  C22 UNL     1     -16.046   9.385  -1.963  1.00  0.00     0.001 C 
HETATM   32  C23 UNL     1     -15.446   8.758  -3.228  1.00  0.00     0.008 C 
ENDBRANCH  19  28
ENDBRANCH  16  19
ENDBRANCH  12  13
ENDBRANCH  11  12
ENDBRANCH  10  11
ENDBRANCH   9  10
ENDBRANCH   6   9
TORSDOF 9
ENDMDL
