MODEL 2
REMARK VINA RESULT: -7.180153563      0.774      1.374
REMARK  9 active torsions:
REMARK  status: ('A' for Active; 'I' for Inactive)
REMARK    1  A    between atoms: C5_6  and  O1_7 
REMARK    2  A    between atoms: O1_7  and  C6_8 
REMARK    3  A    between atoms: C6_8  and  C7_9 
REMARK    4  A    between atoms: C7_9  and  C8_10 
REMARK    5  A    between atoms: C8_10  and  N2_11 
REMARK    6  A    between atoms: C11_14  and  C12_15 
REMARK    7  A    between atoms: C12_15  and  O2_16 
REMARK    8  A    between atoms: C12_15  and  C13_18 
REMARK    9  A    between atoms: C12_15  and  C19_24 
ROOT
HETATM    1  N1  UNL     1     -13.023   6.448 -13.292  1.00  0.00    -0.191 NA
HETATM    2  C1  UNL     1     -14.070   6.815 -13.008  1.00  0.00     0.099 C 
HETATM    3  C2  UNL     1     -15.374   7.252 -12.677  1.00  0.00     0.044 A 
HETATM    4  C3  UNL     1     -16.446   7.012 -13.513  1.00  0.00     0.025 A 
HETATM    5  C4  UNL     1     -17.664   7.457 -13.138  1.00  0.00     0.038 A 
HETATM    6  C5  UNL     1     -17.873   8.146 -11.945  1.00  0.00     0.068 A 
HETATM    7  C26 UNL     1     -16.757   8.383 -11.096  1.00  0.00     0.038 A 
HETATM    8  C27 UNL     1     -15.539   7.923 -11.493  1.00  0.00     0.025 A 
ENDROOT
BRANCH   6   9
HETATM    9  O1  UNL     1     -19.034   8.565 -11.602  1.00  0.00    -0.351 OA
BRANCH   9  10
HETATM   10  C6  UNL     1     -20.227   8.997 -11.253  1.00  0.00     0.177 C 
BRANCH  10  11
HETATM   11  C7  UNL     1     -20.395  10.440 -10.787  1.00  0.00     0.057 C 
BRANCH  11  12
HETATM   12  C8  UNL     1     -20.603  10.629  -9.337  1.00  0.00     0.274 C 
BRANCH  12  13
HETATM   13  N2  UNL     1     -19.486  11.291  -8.687  1.00  0.00     0.088 N 
HETATM   14  C9  UNL     1     -18.244  10.632  -9.038  1.00  0.00     0.273 C 
HETATM   15  C10 UNL     1     -17.142  10.751  -8.015  1.00  0.00     0.038 C 
HETATM   16  C11 UNL     1     -17.521  10.203  -6.674  1.00  0.00     0.028 C 
HETATM   17  C24 UNL     1     -19.022   9.909  -6.783  1.00  0.00     0.038 C 
HETATM   18  C25 UNL     1     -19.604  11.265  -7.250  1.00  0.00     0.273 C 
BRANCH  16  19
HETATM   19  C12 UNL     1     -16.753   9.058  -6.162  1.00  0.00     0.092 C 
BRANCH  19  20
HETATM   20  O2  UNL     1     -17.592   7.913  -6.286  1.00  0.00    -0.384 OA
ATOM     21  H2  UNL     1     -17.507   7.609  -7.181  1.00  0.00     0.211 HD
ENDBRANCH  19  20
BRANCH  19  22
HETATM   22  C13 UNL     1     -15.555   8.785  -6.966  1.00  0.00    -0.023 A 
HETATM   23  C14 UNL     1     -15.316   7.519  -7.519  1.00  0.00     0.010 A 
HETATM   24  C15 UNL     1     -14.193   7.287  -8.258  1.00  0.00     0.001 A 
HETATM   25  C16 UNL     1     -13.233   8.269  -8.506  1.00  0.00     0.000 A 
HETATM   26  C17 UNL     1     -13.453   9.528  -7.970  1.00  0.00     0.001 A 
HETATM   27  C18 UNL     1     -14.597   9.747  -7.222  1.00  0.00     0.010 A 
ENDBRANCH  19  22
BRANCH  19  28
HETATM   28  C19 UNL     1     -16.509   9.237  -4.694  1.00  0.00     0.025 C 
HETATM   29  C20 UNL     1     -15.349   8.496  -4.133  1.00  0.00     0.008 C 
HETATM   30  C21 UNL     1     -14.334   9.589  -3.729  1.00  0.00     0.001 C 
HETATM   31  C22 UNL     1     -15.178  10.743  -3.310  1.00  0.00     0.001 C 
HETATM   32  C23 UNL     1     -16.426  10.628  -4.193  1.00  0.00     0.008 C 
ENDBRANCH  19  28
ENDBRANCH  16  19
ENDBRANCH  12  13
ENDBRANCH  11  12
ENDBRANCH  10  11
ENDBRANCH   9  10
ENDBRANCH   6   9
TORSDOF 9
ENDMDL
