MODEL 3
REMARK VINA RESULT: -6.978732901      2.336      6.770
REMARK  9 active torsions:
REMARK  status: ('A' for Active; 'I' for Inactive)
REMARK    1  A    between atoms: C5_6  and  O1_7 
REMARK    2  A    between atoms: O1_7  and  C6_8 
REMARK    3  A    between atoms: C6_8  and  C7_9 
REMARK    4  A    between atoms: C7_9  and  C8_10 
REMARK    5  A    between atoms: C8_10  and  N2_11 
REMARK    6  A    between atoms: C11_14  and  C12_15 
REMARK    7  A    between atoms: C12_15  and  O2_16 
REMARK    8  A    between atoms: C12_15  and  C13_18 
REMARK    9  A    between atoms: C12_15  and  C19_24 
ROOT
HETATM    1  N1  UNL     1     -15.780   8.791  -2.879  1.00  0.00    -0.191 NA
HETATM    2  C1  UNL     1     -15.506   8.594  -3.973  1.00  0.00     0.099 C 
HETATM    3  C2  UNL     1     -15.193   8.338  -5.329  1.00  0.00     0.044 A 
HETATM    4  C3  UNL     1     -15.951   7.472  -6.090  1.00  0.00     0.025 A 
HETATM    5  C4  UNL     1     -15.597   7.271  -7.378  1.00  0.00     0.038 A 
HETATM    6  C5  UNL     1     -14.500   7.904  -7.958  1.00  0.00     0.068 A 
HETATM    7  C26 UNL     1     -13.732   8.794  -7.159  1.00  0.00     0.038 A 
HETATM    8  C27 UNL     1     -14.108   8.984  -5.864  1.00  0.00     0.025 A 
ENDROOT
BRANCH   6   9
HETATM    9  O1  UNL     1     -14.173   7.704  -9.181  1.00  0.00    -0.351 OA
BRANCH   9  10
HETATM   10  C6  UNL     1     -13.836   7.502 -10.437  1.00  0.00     0.177 C 
BRANCH  10  11
HETATM   11  C7  UNL     1     -14.376   8.434 -11.516  1.00  0.00     0.057 C 
BRANCH  11  12
HETATM   12  C8  UNL     1     -15.417   7.865 -12.396  1.00  0.00     0.274 C 
BRANCH  12  13
HETATM   13  N2  UNL     1     -16.408   8.845 -12.806  1.00  0.00     0.088 N 
HETATM   14  C9  UNL     1     -16.148  10.116 -12.161  1.00  0.00     0.273 C 
HETATM   15  C10 UNL     1     -17.358  10.993 -11.958  1.00  0.00     0.038 C 
HETATM   16  C11 UNL     1     -18.429  10.340 -11.140  1.00  0.00     0.028 C 
HETATM   17  C24 UNL     1     -17.970   8.884 -10.988  1.00  0.00     0.038 C 
HETATM   18  C25 UNL     1     -17.747   8.441 -12.454  1.00  0.00     0.273 C 
BRANCH  16  19
HETATM   19  C12 UNL     1     -18.782  10.962  -9.855  1.00  0.00     0.092 C 
BRANCH  19  20
HETATM   20  O2  UNL     1     -18.117  12.222  -9.813  1.00  0.00    -0.384 OA
ATOM     21  H2  UNL     1     -17.684  12.330 -10.651  1.00  0.00     0.211 HD
ENDBRANCH  19  20
BRANCH  19  22
HETATM   22  C13 UNL     1     -20.218  11.247  -9.748  1.00  0.00    -0.023 A 
HETATM   23  C14 UNL     1     -20.714  12.192  -8.838  1.00  0.00     0.010 A 
HETATM   24  C15 UNL     1     -22.053  12.436  -8.753  1.00  0.00     0.001 A 
HETATM   25  C16 UNL     1     -22.994  11.778  -9.545  1.00  0.00     0.000 A 
HETATM   26  C17 UNL     1     -22.524  10.842 -10.453  1.00  0.00     0.001 A 
HETATM   27  C18 UNL     1     -21.163  10.606 -10.526  1.00  0.00     0.010 A 
ENDBRANCH  19  22
BRANCH  19  28
HETATM   28  C19 UNL     1     -18.206  10.152  -8.733  1.00  0.00     0.025 C 
HETATM   29  C20 UNL     1     -16.986  10.707  -8.091  1.00  0.00     0.008 C 
HETATM   30  C21 UNL     1     -17.426  11.095  -6.662  1.00  0.00     0.001 C 
HETATM   31  C22 UNL     1     -18.465  10.088  -6.307  1.00  0.00     0.001 C 
HETATM   32  C23 UNL     1     -19.133   9.757  -7.647  1.00  0.00     0.008 C 
ENDBRANCH  19  28
ENDBRANCH  16  19
ENDBRANCH  12  13
ENDBRANCH  11  12
ENDBRANCH  10  11
ENDBRANCH   9  10
ENDBRANCH   6   9
TORSDOF 9
ENDMDL
