MODEL 1
REMARK VINA RESULT: -7.686559580      0.000      0.000
REMARK  9 active torsions:
REMARK  status: ('A' for Active; 'I' for Inactive)
REMARK    1  A    between atoms: C5_6  and  O1_7 
REMARK    2  A    between atoms: O1_7  and  C6_8 
REMARK    3  A    between atoms: C6_8  and  C7_9 
REMARK    4  A    between atoms: C7_9  and  C8_10 
REMARK    5  A    between atoms: C8_10  and  N2_11 
REMARK    6  A    between atoms: C11_14  and  C12_15 
REMARK    7  A    between atoms: C12_15  and  O2_16 
REMARK    8  A    between atoms: C12_15  and  C13_18 
REMARK    9  A    between atoms: C12_15  and  C19_24 
ROOT
HETATM    1  N1  UNL     1      11.778   6.900  11.688  1.00  0.00    -0.191 NA
HETATM    2  C1  UNL     1      12.885   7.221  11.812  1.00  0.00     0.099 C 
HETATM    3  C2  UNL     1      14.260   7.597  11.950  1.00  0.00     0.044 A 
HETATM    4  C3  UNL     1      15.050   6.886  12.802  1.00  0.00     0.025 A 
HETATM    5  C4  UNL     1      16.377   7.178  12.989  1.00  0.00     0.038 A 
HETATM    6  C5  UNL     1      16.931   8.219  12.297  1.00  0.00     0.068 A 
HETATM    7  C26 UNL     1      16.164   8.956  11.432  1.00  0.00     0.038 A 
HETATM    8  C27 UNL     1      14.837   8.647  11.261  1.00  0.00     0.025 A 
ENDROOT
BRANCH   6   9
HETATM    9  O1  UNL     1      18.294   8.522  12.485  1.00  0.00    -0.351 OA
BRANCH   9  10
HETATM   10  C6  UNL     1      19.267   7.854  11.733  1.00  0.00     0.177 C 
BRANCH  10  11
HETATM   11  C7  UNL     1      20.413   8.801  11.331  1.00  0.00     0.057 C 
BRANCH  11  12
HETATM   12  C8  UNL     1      19.833   9.996  10.631  1.00  0.00     0.274 C 
BRANCH  12  13
HETATM   13  N2  UNL     1      19.155   9.718   9.400  1.00  0.00     0.088 N 
HETATM   14  C9  UNL     1      20.095   9.954   8.310  1.00  0.00     0.273 C 
HETATM   15  C10 UNL     1      19.476   9.539   6.996  1.00  0.00     0.038 C 
HETATM   16  C11 UNL     1      18.113  10.142   6.762  1.00  0.00     0.028 C 
HETATM   17  C24 UNL     1      17.761  10.998   7.908  1.00  0.00     0.038 C 
HETATM   18  C25 UNL     1      17.961  10.452   9.273  1.00  0.00     0.273 C 
BRANCH  16  19
HETATM   19  C12 UNL     1      17.140   9.043   6.418  1.00  0.00     0.092 C 
BRANCH  19  20
HETATM   20  O2  UNL     1      17.896   7.850   6.435  1.00  0.00    -0.384 OA
ATOM     21  H2  UNL     1      17.589   7.366   7.193  1.00  0.00     0.211 HD
ENDBRANCH  19  20
BRANCH  19  22
HETATM   22  C13 UNL     1      16.636   9.277   5.023  1.00  0.00    -0.023 A 
HETATM   23  C14 UNL     1      15.915   8.354   4.304  1.00  0.00     0.010 A 
HETATM   24  C15 UNL     1      15.481   8.657   3.033  1.00  0.00     0.001 A 
HETATM   25  C16 UNL     1      15.736   9.870   2.425  1.00  0.00     0.000 A 
HETATM   26  C17 UNL     1      16.454  10.809   3.126  1.00  0.00     0.001 A 
HETATM   27  C18 UNL     1      16.893  10.512   4.401  1.00  0.00     0.010 A 
ENDBRANCH  19  22
BRANCH  19  28
HETATM   28  C19 UNL     1      16.023   8.864   7.370  1.00  0.00     0.025 C 
HETATM   29  C20 UNL     1      14.722   9.514   7.046  1.00  0.00     0.008 C 
HETATM   30  C21 UNL     1      13.618   8.507   7.332  1.00  0.00     0.001 C 
HETATM   31  C22 UNL     1      14.253   7.365   8.062  1.00  0.00     0.001 C 
HETATM   32  C23 UNL     1      15.736   7.431   7.763  1.00  0.00     0.008 C 
ENDBRANCH  19  28
ENDBRANCH  16  19
ENDBRANCH  12  13
ENDBRANCH  11  12
ENDBRANCH  10  11
ENDBRANCH   9  10
ENDBRANCH   6   9
TORSDOF 9
ENDMDL
