MODEL 2
REMARK VINA RESULT: -7.265537067      2.551      5.975
REMARK  9 active torsions:
REMARK  status: ('A' for Active; 'I' for Inactive)
REMARK    1  A    between atoms: C5_6  and  O1_7 
REMARK    2  A    between atoms: O1_7  and  C6_8 
REMARK    3  A    between atoms: C6_8  and  C7_9 
REMARK    4  A    between atoms: C7_9  and  C8_10 
REMARK    5  A    between atoms: C8_10  and  N2_11 
REMARK    6  A    between atoms: C11_14  and  C12_15 
REMARK    7  A    between atoms: C12_15  and  O2_16 
REMARK    8  A    between atoms: C12_15  and  C13_18 
REMARK    9  A    between atoms: C12_15  and  C19_24 
ROOT
HETATM    1  N1  UNL     1      15.521   8.761   2.352  1.00  0.00    -0.191 NA
HETATM    2  C1  UNL     1      15.451   8.566   3.493  1.00  0.00     0.099 C 
HETATM    3  C2  UNL     1      15.341   8.312   4.898  1.00  0.00     0.044 A 
HETATM    4  C3  UNL     1      14.455   9.046   5.628  1.00  0.00     0.025 A 
HETATM    5  C4  UNL     1      14.286   8.863   6.976  1.00  0.00     0.038 A 
HETATM    6  C5  UNL     1      15.030   7.911   7.615  1.00  0.00     0.068 A 
HETATM    7  C26 UNL     1      15.931   7.155   6.911  1.00  0.00     0.038 A 
HETATM    8  C27 UNL     1      16.086   7.355   5.562  1.00  0.00     0.025 A 
ENDROOT
BRANCH   6   9
HETATM    9  O1  UNL     1      14.859   7.718   9.000  1.00  0.00    -0.351 OA
BRANCH   9  10
HETATM   10  C6  UNL     1      15.977   7.654   9.839  1.00  0.00     0.177 C 
BRANCH  10  11
HETATM   11  C7  UNL     1      15.662   8.212  11.239  1.00  0.00     0.057 C 
BRANCH  11  12
HETATM   12  C8  UNL     1      16.943   8.652  11.886  1.00  0.00     0.274 C 
BRANCH  12  13
HETATM   13  N2  UNL     1      17.984   9.045  10.983  1.00  0.00     0.088 N 
HETATM   14  C9  UNL     1      19.260   8.673  11.584  1.00  0.00     0.273 C 
HETATM   15  C10 UNL     1      20.385   8.935  10.611  1.00  0.00     0.038 C 
HETATM   16  C11 UNL     1      20.367  10.332  10.041  1.00  0.00     0.028 C 
HETATM   17  C24 UNL     1      19.231  11.074  10.617  1.00  0.00     0.038 C 
HETATM   18  C25 UNL     1      17.906  10.408  10.642  1.00  0.00     0.273 C 
BRANCH  16  19
HETATM   19  C12 UNL     1      20.426  10.251   8.536  1.00  0.00     0.092 C 
BRANCH  19  20
HETATM   20  O2  UNL     1      20.596   8.882   8.238  1.00  0.00    -0.384 OA
ATOM     21  H2  UNL     1      19.744   8.578   7.947  1.00  0.00     0.211 HD
ENDBRANCH  19  20
BRANCH  19  22
HETATM   22  C13 UNL     1      21.640  11.002   8.070  1.00  0.00    -0.023 A 
HETATM   23  C14 UNL     1      22.311  11.924   8.836  1.00  0.00     0.010 A 
HETATM   24  C15 UNL     1      23.425  12.559   8.332  1.00  0.00     0.001 A 
HETATM   25  C16 UNL     1      23.918  12.312   7.067  1.00  0.00     0.000 A 
HETATM   26  C17 UNL     1      23.264  11.392   6.284  1.00  0.00     0.001 A 
HETATM   27  C18 UNL     1      22.146  10.752   6.781  1.00  0.00     0.010 A 
ENDBRANCH  19  22
BRANCH  19  28
HETATM   28  C19 UNL     1      19.209  10.705   7.829  1.00  0.00     0.025 C 
HETATM   29  C20 UNL     1      19.216  12.071   7.237  1.00  0.00     0.008 C 
HETATM   30  C21 UNL     1      18.604  11.977   5.847  1.00  0.00     0.001 C 
HETATM   31  C22 UNL     1      18.008  10.610   5.729  1.00  0.00     0.001 C 
HETATM   32  C23 UNL     1      18.684   9.750   6.777  1.00  0.00     0.008 C 
ENDBRANCH  19  28
ENDBRANCH  16  19
ENDBRANCH  12  13
ENDBRANCH  11  12
ENDBRANCH  10  11
ENDBRANCH   9  10
ENDBRANCH   6   9
TORSDOF 9
ENDMDL
