MODEL 3
REMARK VINA RESULT: -7.240667445      2.154      6.805
REMARK  9 active torsions:
REMARK  status: ('A' for Active; 'I' for Inactive)
REMARK    1  A    between atoms: C5_6  and  O1_7 
REMARK    2  A    between atoms: O1_7  and  C6_8 
REMARK    3  A    between atoms: C6_8  and  C7_9 
REMARK    4  A    between atoms: C7_9  and  C8_10 
REMARK    5  A    between atoms: C8_10  and  N2_11 
REMARK    6  A    between atoms: C11_14  and  C12_15 
REMARK    7  A    between atoms: C12_15  and  O2_16 
REMARK    8  A    between atoms: C12_15  and  C13_18 
REMARK    9  A    between atoms: C12_15  and  C19_24 
ROOT
HETATM    1  N1  UNL     1      22.049   9.144  11.315  1.00  0.00    -0.191 NA
HETATM    2  C1  UNL     1      21.467   9.637  10.442  1.00  0.00     0.099 C 
HETATM    3  C2  UNL     1      20.726  10.238   9.374  1.00  0.00     0.044 A 
HETATM    4  C3  UNL     1      20.226   9.437   8.393  1.00  0.00     0.025 A 
HETATM    5  C4  UNL     1      19.502   9.932   7.338  1.00  0.00     0.038 A 
HETATM    6  C5  UNL     1      19.271  11.276   7.265  1.00  0.00     0.068 A 
HETATM    7  C26 UNL     1      19.761  12.112   8.236  1.00  0.00     0.038 A 
HETATM    8  C27 UNL     1      20.484  11.596   9.282  1.00  0.00     0.025 A 
ENDROOT
BRANCH   6   9
HETATM    9  O1  UNL     1      18.527  11.790   6.185  1.00  0.00    -0.351 OA
BRANCH   9  10
HETATM   10  C6  UNL     1      18.374  11.029   5.020  1.00  0.00     0.177 C 
BRANCH  10  11
HETATM   11  C7  UNL     1      16.891  10.893   4.629  1.00  0.00     0.057 C 
BRANCH  11  12
HETATM   12  C8  UNL     1      16.453   9.478   4.872  1.00  0.00     0.274 C 
BRANCH  12  13
HETATM   13  N2  UNL     1      16.208   9.138   6.242  1.00  0.00     0.088 N 
HETATM   14  C9  UNL     1      15.720   7.763   6.280  1.00  0.00     0.273 C 
HETATM   15  C10 UNL     1      15.580   7.304   7.712  1.00  0.00     0.038 C 
HETATM   16  C11 UNL     1      14.781   8.255   8.568  1.00  0.00     0.028 C 
HETATM   17  C24 UNL     1      14.339   9.392   7.741  1.00  0.00     0.038 C 
HETATM   18  C25 UNL     1      15.342  10.052   6.871  1.00  0.00     0.273 C 
BRANCH  16  19
HETATM   19  C12 UNL     1      15.573   8.590   9.806  1.00  0.00     0.092 C 
BRANCH  19  20
HETATM   20  O2  UNL     1      16.854   8.036   9.596  1.00  0.00    -0.384 OA
ATOM     21  H2  UNL     1      17.350   8.235  10.382  1.00  0.00     0.211 HD
ENDBRANCH  19  20
BRANCH  19  22
HETATM   22  C13 UNL     1      14.934   7.900  10.977  1.00  0.00    -0.023 A 
HETATM   23  C14 UNL     1      13.607   7.549  11.028  1.00  0.00     0.010 A 
HETATM   24  C15 UNL     1      13.105   6.907  12.139  1.00  0.00     0.001 A 
HETATM   25  C16 UNL     1      13.884   6.586  13.232  1.00  0.00     0.000 A 
HETATM   26  C17 UNL     1      15.216   6.926  13.202  1.00  0.00     0.001 A 
HETATM   27  C18 UNL     1      15.725   7.570  12.093  1.00  0.00     0.010 A 
ENDBRANCH  19  22
BRANCH  19  28
HETATM   28  C19 UNL     1      15.759  10.033  10.069  1.00  0.00     0.025 C 
HETATM   29  C20 UNL     1      14.848  10.685  11.051  1.00  0.00     0.008 C 
HETATM   30  C21 UNL     1      15.694  11.582  11.943  1.00  0.00     0.001 C 
HETATM   31  C22 UNL     1      17.053  11.650  11.322  1.00  0.00     0.001 C 
HETATM   32  C23 UNL     1      17.175  10.447  10.410  1.00  0.00     0.008 C 
ENDBRANCH  19  28
ENDBRANCH  16  19
ENDBRANCH  12  13
ENDBRANCH  11  12
ENDBRANCH  10  11
ENDBRANCH   9  10
ENDBRANCH   6   9
TORSDOF 9
ENDMDL
