MODEL 3
REMARK VINA RESULT: -7.586078166      4.446      8.544
REMARK  11 active torsions:
REMARK  status: ('A' for Active; 'I' for Inactive)
REMARK    1  A    between atoms: C4_6  and  N2_7 
REMARK    2  A    between atoms: N2_7  and  C5_9 
REMARK    3  A    between atoms: C8_12  and  O1_13 
REMARK    4  A    between atoms: O1_13  and  C9_14 
REMARK    5  A    between atoms: C9_14  and  C10_15 
REMARK    6  A    between atoms: C10_15  and  N3_16 
REMARK    7  A    between atoms: C17_25  and  N5_26 
REMARK    8  A    between atoms: N5_26  and  C18_28 
REMARK    9  A    between atoms: C22_32  and  S1_33 
REMARK   10  A    between atoms: S1_33  and  N6_36 
REMARK   11  A    between atoms: N6_36  and  C23_38 
ROOT
HETATM    1  C1  UNL     1      19.381  35.609  22.867  1.00  0.00     0.054 C 
HETATM    2  C2  UNL     1      19.980  36.783  23.544  1.00  0.00    -0.001 A 
HETATM    3  C3  UNL     1      19.632  37.115  24.837  1.00  0.00     0.116 A 
HETATM    4  N1  UNL     1      20.222  38.190  25.370  1.00  0.00    -0.201 N 
ATOM      5  H1  UNL     1      19.968  38.439  26.325  1.00  0.00     0.183 HD
HETATM    6  C4  UNL     1      21.117  38.964  24.753  1.00  0.00     0.684 A 
HETATM    7  N4  UNL     1      21.426  38.596  23.482  1.00  0.00    -0.176 N 
ATOM      8  H4  UNL     1      22.108  39.168  22.982  1.00  0.00     0.186 HD
HETATM    9  C17 UNL     1      20.913  37.553  22.836  1.00  0.00     0.128 A 
ENDROOT
BRANCH   9  10
HETATM   10  N5  UNL     1      21.227  37.180  21.521  1.00  0.00    -0.342 N 
ATOM     11  H5  UNL     1      21.738  36.304  21.409  1.00  0.00     0.167 HD
BRANCH  10  12
HETATM   12  C18 UNL     1      20.914  37.886  20.322  1.00  0.00     0.035 A 
HETATM   13  C19 UNL     1      19.649  38.282  19.987  1.00  0.00     0.029 A 
HETATM   14  C20 UNL     1      19.443  38.955  18.791  1.00  0.00     0.004 A 
HETATM   15  C21 UNL     1      20.445  39.255  17.906  1.00  0.00     0.025 A 
HETATM   16  C22 UNL     1      21.715  38.851  18.250  1.00  0.00     0.081 A 
HETATM   17  C27 UNL     1      21.939  38.190  19.419  1.00  0.00     0.054 A 
BRANCH  16  18
HETATM   18  S1  UNL     1      23.005  39.203  17.134  1.00  0.00     0.259 S 
HETATM   19  O2  UNL     1      24.311  38.983  17.891  1.00  0.00    -0.201 OA
HETATM   20  O3  UNL     1      23.024  40.684  16.788  1.00  0.00    -0.201 OA
BRANCH  18  21
HETATM   21  N6  UNL     1      23.057  38.225  15.758  1.00  0.00    -0.307 N 
ATOM     22  H6  UNL     1      22.480  38.427  14.942  1.00  0.00     0.173 HD
BRANCH  21  23
HETATM   23  C23 UNL     1      23.937  37.107  15.781  1.00  0.00     0.029 C 
HETATM   24  C24 UNL     1      25.383  37.600  15.605  1.00  0.00     0.038 C 
HETATM   25  C25 UNL     1      23.842  36.257  17.037  1.00  0.00     0.038 C 
HETATM   26  C26 UNL     1      23.623  36.211  14.605  1.00  0.00     0.038 C 
ENDBRANCH  21  23
ENDBRANCH  18  21
ENDBRANCH  16  18
ENDBRANCH  10  12
ENDBRANCH   9  10
BRANCH   6  27
HETATM   27  N2  UNL     1      21.745  40.110  25.321  1.00  0.00    -0.192 N 
ATOM     28  H2  UNL     1      22.292  39.962  26.168  1.00  0.00     0.184 HD
BRANCH  27  29
HETATM   29  C5  UNL     1      21.684  41.429  24.830  1.00  0.00     0.049 A 
HETATM   30  C6  UNL     1      22.435  42.421  25.476  1.00  0.00     0.033 A 
HETATM   31  C7  UNL     1      22.419  43.716  25.052  1.00  0.00     0.039 A 
HETATM   32  C8  UNL     1      21.654  44.154  23.947  1.00  0.00     0.069 A 
HETATM   33  C15 UNL     1      20.929  43.170  23.333  1.00  0.00     0.039 A 
HETATM   34  C16 UNL     1      20.936  41.833  23.757  1.00  0.00     0.033 A 
BRANCH  32  35
HETATM   35  O1  UNL     1      21.701  45.471  23.601  1.00  0.00    -0.349 OA
BRANCH  35  36
HETATM   36  C9  UNL     1      20.865  46.478  23.965  1.00  0.00     0.206 C 
BRANCH  36  37
HETATM   37  C10 UNL     1      19.750  46.846  23.049  1.00  0.00     0.299 C 
BRANCH  37  38
HETATM   38  N3  UNL     1      19.997  46.429  21.677  1.00  0.00     0.090 N 
HETATM   39  C11 UNL     1      18.978  45.533  21.181  1.00  0.00     0.272 C 
HETATM   40  C12 UNL     1      18.785  45.853  19.723  1.00  0.00     0.032 C 
HETATM   41  C13 UNL     1      19.913  46.803  19.413  1.00  0.00     0.032 C 
HETATM   42  C14 UNL     1      20.085  47.521  20.757  1.00  0.00     0.272 C 
ENDBRANCH  37  38
ENDBRANCH  36  37
ENDBRANCH  35  36
ENDBRANCH  32  35
ENDBRANCH  27  29
ENDBRANCH   6  27
TORSDOF 11
ENDMDL
