MODEL 1
REMARK VINA RESULT: -7.833556496      0.000      0.000
REMARK  11 active torsions:
REMARK  status: ('A' for Active; 'I' for Inactive)
REMARK    1  A    between atoms: C4_6  and  N2_7 
REMARK    2  A    between atoms: N2_7  and  C5_9 
REMARK    3  A    between atoms: C8_12  and  O1_13 
REMARK    4  A    between atoms: O1_13  and  C9_14 
REMARK    5  A    between atoms: C9_14  and  C10_15 
REMARK    6  A    between atoms: C10_15  and  N3_16 
REMARK    7  A    between atoms: C17_25  and  N5_26 
REMARK    8  A    between atoms: N5_26  and  C18_28 
REMARK    9  A    between atoms: C22_32  and  S1_33 
REMARK   10  A    between atoms: S1_33  and  N6_36 
REMARK   11  A    between atoms: N6_36  and  C23_38 
ROOT
HETATM    1  C1  UNL     1      17.549  36.700  25.558  1.00  0.00     0.054 C 
HETATM    2  C2  UNL     1      17.719  37.672  24.454  1.00  0.00    -0.001 A 
HETATM    3  C3  UNL     1      16.917  38.791  24.360  1.00  0.00     0.116 A 
HETATM    4  N1  UNL     1      17.141  39.616  23.331  1.00  0.00    -0.201 N 
ATOM      5  H1  UNL     1      16.550  40.444  23.257  1.00  0.00     0.183 HD
HETATM    6  C4  UNL     1      18.074  39.444  22.392  1.00  0.00     0.684 A 
HETATM    7  N4  UNL     1      18.837  38.327  22.529  1.00  0.00    -0.176 N 
ATOM      8  H4  UNL     1      19.559  38.165  21.827  1.00  0.00     0.186 HD
HETATM    9  C17 UNL     1      18.719  37.428  23.502  1.00  0.00     0.128 A 
ENDROOT
BRANCH   9  10
HETATM   10  N5  UNL     1      19.502  36.272  23.636  1.00  0.00    -0.342 N 
ATOM     11  H5  UNL     1      20.110  36.231  24.454  1.00  0.00     0.167 HD
BRANCH  10  12
HETATM   12  C18 UNL     1      19.545  35.148  22.760  1.00  0.00     0.035 A 
HETATM   13  C19 UNL     1      20.232  35.138  21.577  1.00  0.00     0.029 A 
HETATM   14  C20 UNL     1      20.205  33.997  20.787  1.00  0.00     0.004 A 
HETATM   15  C21 UNL     1      19.521  32.858  21.121  1.00  0.00     0.025 A 
HETATM   16  C22 UNL     1      18.832  32.877  22.311  1.00  0.00     0.081 A 
HETATM   17  C27 UNL     1      18.845  33.986  23.103  1.00  0.00     0.054 A 
BRANCH  16  18
HETATM   18  S1  UNL     1      17.938  31.448  22.752  1.00  0.00     0.259 S 
HETATM   19  O2  UNL     1      17.103  31.061  21.535  1.00  0.00    -0.201 OA
HETATM   20  O3  UNL     1      16.906  31.772  23.820  1.00  0.00    -0.201 OA
BRANCH  18  21
HETATM   21  N6  UNL     1      18.879  30.105  23.158  1.00  0.00    -0.307 N 
ATOM     22  H6  UNL     1      18.865  29.258  22.590  1.00  0.00     0.173 HD
BRANCH  21  23
HETATM   23  C23 UNL     1      19.690  30.200  24.323  1.00  0.00     0.029 C 
HETATM   24  C24 UNL     1      21.113  30.615  23.913  1.00  0.00     0.038 C 
HETATM   25  C25 UNL     1      19.167  31.161  25.377  1.00  0.00     0.038 C 
HETATM   26  C26 UNL     1      19.788  28.835  24.965  1.00  0.00     0.038 C 
ENDBRANCH  21  23
ENDBRANCH  18  21
ENDBRANCH  16  18
ENDBRANCH  10  12
ENDBRANCH   9  10
BRANCH   6  27
HETATM   27  N2  UNL     1      18.310  40.322  21.295  1.00  0.00    -0.192 N 
ATOM     28  H2  UNL     1      17.600  41.031  21.114  1.00  0.00     0.184 HD
BRANCH  27  29
HETATM   29  C5  UNL     1      19.425  40.308  20.436  1.00  0.00     0.049 A 
HETATM   30  C6  UNL     1      19.292  39.717  19.171  1.00  0.00     0.033 A 
HETATM   31  C7  UNL     1      20.333  39.670  18.293  1.00  0.00     0.039 A 
HETATM   32  C8  UNL     1      21.609  40.203  18.584  1.00  0.00     0.069 A 
HETATM   33  C15 UNL     1      21.717  40.772  19.823  1.00  0.00     0.039 A 
HETATM   34  C16 UNL     1      20.655  40.830  20.737  1.00  0.00     0.033 A 
BRANCH  32  35
HETATM   35  O1  UNL     1      22.589  40.104  17.643  1.00  0.00    -0.349 OA
BRANCH  35  36
HETATM   36  C9  UNL     1      23.619  39.222  17.573  1.00  0.00     0.206 C 
BRANCH  36  37
HETATM   37  C10 UNL     1      24.088  38.776  16.231  1.00  0.00     0.299 C 
BRANCH  37  38
HETATM   38  N3  UNL     1      23.742  37.390  15.954  1.00  0.00     0.090 N 
HETATM   39  C11 UNL     1      24.692  36.750  15.074  1.00  0.00     0.272 C 
HETATM   40  C12 UNL     1      24.809  35.318  15.523  1.00  0.00     0.032 C 
HETATM   41  C13 UNL     1      23.703  35.169  16.536  1.00  0.00     0.032 C 
HETATM   42  C14 UNL     1      23.641  36.583  17.130  1.00  0.00     0.272 C 
ENDBRANCH  37  38
ENDBRANCH  36  37
ENDBRANCH  35  36
ENDBRANCH  32  35
ENDBRANCH  27  29
ENDBRANCH   6  27
TORSDOF 11
ENDMDL
