MODEL 2
REMARK VINA RESULT: -7.692416358      3.750      8.357
REMARK  11 active torsions:
REMARK  status: ('A' for Active; 'I' for Inactive)
REMARK    1  A    between atoms: C4_6  and  N2_7 
REMARK    2  A    between atoms: N2_7  and  C5_9 
REMARK    3  A    between atoms: C8_12  and  O1_13 
REMARK    4  A    between atoms: O1_13  and  C9_14 
REMARK    5  A    between atoms: C9_14  and  C10_15 
REMARK    6  A    between atoms: C10_15  and  N3_16 
REMARK    7  A    between atoms: C17_25  and  N5_26 
REMARK    8  A    between atoms: N5_26  and  C18_28 
REMARK    9  A    between atoms: C22_32  and  S1_33 
REMARK   10  A    between atoms: S1_33  and  N6_36 
REMARK   11  A    between atoms: N6_36  and  C23_38 
ROOT
HETATM    1  C1  UNL     1      20.222  33.453  19.575  1.00  0.00     0.054 C 
HETATM    2  C2  UNL     1      19.793  33.953  20.902  1.00  0.00    -0.001 A 
HETATM    3  C3  UNL     1      18.910  33.235  21.682  1.00  0.00     0.116 A 
HETATM    4  N1  UNL     1      18.577  33.761  22.866  1.00  0.00    -0.201 N 
ATOM      5  H1  UNL     1      17.924  33.234  23.446  1.00  0.00     0.183 HD
HETATM    6  C4  UNL     1      19.029  34.919  23.351  1.00  0.00     0.684 A 
HETATM    7  N4  UNL     1      19.895  35.588  22.545  1.00  0.00    -0.176 N 
ATOM      8  H4  UNL     1      20.260  36.478  22.886  1.00  0.00     0.186 HD
HETATM    9  C17 UNL     1      20.308  35.178  21.348  1.00  0.00     0.128 A 
ENDROOT
BRANCH   9  10
HETATM   10  N5  UNL     1      21.195  35.874  20.515  1.00  0.00    -0.342 N 
ATOM     11  H5  UNL     1      22.138  35.493  20.441  1.00  0.00     0.167 HD
BRANCH  10  12
HETATM   12  C18 UNL     1      20.929  37.054  19.758  1.00  0.00     0.035 A 
HETATM   13  C19 UNL     1      19.735  37.719  19.791  1.00  0.00     0.029 A 
HETATM   14  C20 UNL     1      19.569  38.854  19.010  1.00  0.00     0.004 A 
HETATM   15  C21 UNL     1      20.543  39.361  18.191  1.00  0.00     0.025 A 
HETATM   16  C22 UNL     1      21.741  38.685  18.163  1.00  0.00     0.081 A 
HETATM   17  C27 UNL     1      21.926  37.569  18.922  1.00  0.00     0.054 A 
BRANCH  16  18
HETATM   18  S1  UNL     1      22.992  39.297  17.116  1.00  0.00     0.259 S 
HETATM   19  O2  UNL     1      24.298  39.213  17.899  1.00  0.00    -0.201 OA
HETATM   20  O3  UNL     1      22.803  40.786  16.872  1.00  0.00    -0.201 OA
BRANCH  18  21
HETATM   21  N6  UNL     1      23.217  38.437  15.680  1.00  0.00    -0.307 N 
ATOM     22  H6  UNL     1      22.793  38.746  14.805  1.00  0.00     0.173 HD
BRANCH  21  23
HETATM   23  C23 UNL     1      24.021  37.264  15.737  1.00  0.00     0.029 C 
HETATM   24  C24 UNL     1      25.491  37.649  15.506  1.00  0.00     0.038 C 
HETATM   25  C25 UNL     1      23.900  36.482  17.034  1.00  0.00     0.038 C 
HETATM   26  C26 UNL     1      23.617  36.338  14.612  1.00  0.00     0.038 C 
ENDBRANCH  21  23
ENDBRANCH  18  21
ENDBRANCH  16  18
ENDBRANCH  10  12
ENDBRANCH   9  10
BRANCH   6  27
HETATM   27  N2  UNL     1      18.673  35.479  24.611  1.00  0.00    -0.192 N 
ATOM     28  H2  UNL     1      18.412  34.824  25.348  1.00  0.00     0.184 HD
BRANCH  27  29
HETATM   29  C5  UNL     1      18.644  36.848  24.942  1.00  0.00     0.049 A 
HETATM   30  C6  UNL     1      19.401  37.290  26.037  1.00  0.00     0.033 A 
HETATM   31  C7  UNL     1      19.414  38.600  26.411  1.00  0.00     0.039 A 
HETATM   32  C8  UNL     1      18.677  39.600  25.737  1.00  0.00     0.069 A 
HETATM   33  C15 UNL     1      17.945  39.146  24.674  1.00  0.00     0.039 A 
HETATM   34  C16 UNL     1      17.922  37.801  24.276  1.00  0.00     0.033 A 
BRANCH  32  35
HETATM   35  O1  UNL     1      18.752  40.883  26.188  1.00  0.00    -0.349 OA
BRANCH  35  36
HETATM   36  C9  UNL     1      19.352  41.956  25.612  1.00  0.00     0.206 C 
BRANCH  36  37
HETATM   37  C10 UNL     1      20.835  41.947  25.459  1.00  0.00     0.299 C 
BRANCH  37  38
HETATM   38  N3  UNL     1      21.253  41.561  24.120  1.00  0.00     0.090 N 
HETATM   39  C11 UNL     1      21.640  40.172  24.042  1.00  0.00     0.272 C 
HETATM   40  C12 UNL     1      21.203  39.670  22.691  1.00  0.00     0.032 C 
HETATM   41  C13 UNL     1      20.773  40.920  21.967  1.00  0.00     0.032 C 
HETATM   42  C14 UNL     1      20.248  41.778  23.125  1.00  0.00     0.272 C 
ENDBRANCH  37  38
ENDBRANCH  36  37
ENDBRANCH  35  36
ENDBRANCH  32  35
ENDBRANCH  27  29
ENDBRANCH   6  27
TORSDOF 11
ENDMDL
