MODEL 4
REMARK VINA RESULT: -9.028380778      2.895      6.831
REMARK  9 active torsions:
REMARK  status: ('A' for Active; 'I' for Inactive)
REMARK    1  A    between atoms: N1_2  and  C3_4 
REMARK    2  A    between atoms: C6_8  and  C7_9 
REMARK    3  A    between atoms: C7_9  and  O1_10 
REMARK    4  A    between atoms: C7_9  and  N2_12 
REMARK    5  A    between atoms: N2_12  and  C8_13 
REMARK    6  A    between atoms: N2_12  and  C15_20 
REMARK    7  A    between atoms: C8_13  and  C9_14 
REMARK    8  A    between atoms: C18_23  and  O2_24 
REMARK    9  A    between atoms: C19_26  and  C20_27 
ROOT
HETATM    1  N2  UNL     1      14.103  16.522 -20.357  1.00  0.00    -0.323 N 
ENDROOT
BRANCH   1   2
HETATM    2  C7  UNL     1      13.750  16.751 -19.032  1.00  0.00     0.157 C 
BRANCH   2   3
HETATM    3  C6  UNL     1      12.468  16.814 -18.380  1.00  0.00     0.059 A 
HETATM    4  C5  UNL     1      12.019  15.678 -17.698  1.00  0.00     0.052 A 
HETATM    5  C4  UNL     1      10.803  15.648 -17.062  1.00  0.00     0.054 A 
HETATM    6 CL1  UNL     1      13.062  14.283 -17.683  1.00  0.00    -0.083 Cl
HETATM    7  C3  UNL     1       9.945  16.736 -17.055  1.00  0.00     0.032 A 
HETATM    8  C26 UNL     1      10.394  17.867 -17.734  1.00  0.00     0.054 A 
HETATM    9  C25 UNL     1      11.618  17.900 -18.375  1.00  0.00     0.052 A 
HETATM   10 CL2  UNL     1      12.163  19.341 -19.222  1.00  0.00    -0.083 Cl
BRANCH   7  11
HETATM   11  N1  UNL     1       8.678  16.667 -16.414  1.00  0.00    -0.389 N 
HETATM   12  C1  UNL     1       8.564  17.307 -15.092  1.00  0.00     0.149 C 
HETATM   13  C2  UNL     1       7.510  16.015 -16.966  1.00  0.00     0.149 C 
ENDBRANCH   7  11
ENDBRANCH   2   3
BRANCH   2  14
HETATM   14  O1  UNL     1      14.735  16.947 -18.204  1.00  0.00    -0.345 OA
ATOM     15  H1  UNL     1      15.512  17.274 -18.640  1.00  0.00     0.219 HD
ENDBRANCH   2  14
ENDBRANCH   1   2
BRANCH   1  16
HETATM   16  C8  UNL     1      15.429  17.058 -20.749  1.00  0.00     0.170 C 
BRANCH  16  17
HETATM   17  C9  UNL     1      16.422  16.019 -20.976  1.00  0.00    -0.040 A 
HETATM   18  C10 UNL     1      16.690  15.488 -22.211  1.00  0.00     0.009 A 
HETATM   19  C11 UNL     1      17.642  14.477 -22.344  1.00  0.00     0.001 A 
HETATM   20  C12 UNL     1      18.330  13.993 -21.236  1.00  0.00     0.000 A 
HETATM   21  C13 UNL     1      18.058  14.530 -19.996  1.00  0.00     0.001 A 
HETATM   22  C14 UNL     1      17.114  15.528 -19.894  1.00  0.00     0.009 A 
ENDBRANCH  16  17
ENDBRANCH   1  16
BRANCH   1  23
HETATM   23  C15 UNL     1      13.356  15.873 -21.366  1.00  0.00     0.037 A 
HETATM   24  C16 UNL     1      13.376  16.368 -22.680  1.00  0.00     0.032 A 
HETATM   25  C17 UNL     1      12.663  15.756 -23.673  1.00  0.00     0.039 A 
HETATM   26  C18 UNL     1      11.885  14.611 -23.425  1.00  0.00     0.072 A 
HETATM   27  C19 UNL     1      11.844  14.103 -22.158  1.00  0.00    -0.015 A 
HETATM   28  C24 UNL     1      12.587  14.757 -21.163  1.00  0.00     0.040 A 
BRANCH  26  29
HETATM   29  O2  UNL     1      11.196  14.050 -24.478  1.00  0.00    -0.360 OA
ATOM     30  H2  UNL     1      10.855  13.170 -24.373  1.00  0.00     0.217 HD
ENDBRANCH  26  29
BRANCH  27  31
HETATM   31  C20 UNL     1      11.052  12.901 -21.836  1.00  0.00    -0.021 C 
HETATM   32  C21 UNL     1       9.720  13.277 -21.248  1.00  0.00     0.019 C 
HETATM   33  C22 UNL     1      10.820  12.003 -23.025  1.00  0.00     0.019 C 
HETATM   34  C23 UNL     1      11.771  12.071 -20.775  1.00  0.00     0.019 C 
ENDBRANCH  27  31
ENDBRANCH   1  23
TORSDOF 9
ENDMDL
