MODEL 5
REMARK VINA RESULT: -8.850531333      2.536      5.576
REMARK  9 active torsions:
REMARK  status: ('A' for Active; 'I' for Inactive)
REMARK    1  A    between atoms: N1_2  and  C3_4 
REMARK    2  A    between atoms: C6_8  and  C7_9 
REMARK    3  A    between atoms: C7_9  and  O1_10 
REMARK    4  A    between atoms: C7_9  and  N2_12 
REMARK    5  A    between atoms: N2_12  and  C8_13 
REMARK    6  A    between atoms: N2_12  and  C15_20 
REMARK    7  A    between atoms: C8_13  and  C9_14 
REMARK    8  A    between atoms: C18_23  and  O2_24 
REMARK    9  A    between atoms: C19_26  and  C20_27 
ROOT
HETATM    1  N2  UNL     1      14.973  16.389 -21.203  1.00  0.00    -0.323 N 
ENDROOT
BRANCH   1   2
HETATM    2  C7  UNL     1      14.560  15.350 -22.030  1.00  0.00     0.157 C 
BRANCH   2   3
HETATM    3  C6  UNL     1      13.443  14.446 -21.946  1.00  0.00     0.059 A 
HETATM    4  C5  UNL     1      13.563  13.326 -21.115  1.00  0.00     0.052 A 
HETATM    5  C4  UNL     1      12.553  12.407 -20.989  1.00  0.00     0.054 A 
HETATM    6 CL1  UNL     1      15.056  13.130 -20.238  1.00  0.00    -0.083 Cl
HETATM    7  C3  UNL     1      11.353  12.526 -21.672  1.00  0.00     0.032 A 
HETATM    8  C26 UNL     1      11.235  13.642 -22.498  1.00  0.00     0.054 A 
HETATM    9  C25 UNL     1      12.251  14.570 -22.628  1.00  0.00     0.052 A 
HETATM   10 CL2  UNL     1      12.075  15.972 -23.674  1.00  0.00    -0.083 Cl
BRANCH   7  11
HETATM   11  N1  UNL     1      10.335  11.542 -21.545  1.00  0.00    -0.389 N 
HETATM   12  C1  UNL     1       9.890  11.217 -20.179  1.00  0.00     0.149 C 
HETATM   13  C2  UNL     1       9.718  10.848 -22.654  1.00  0.00     0.149 C 
ENDBRANCH   7  11
ENDBRANCH   2   3
BRANCH   2  14
HETATM   14  O1  UNL     1      15.295  15.130 -23.081  1.00  0.00    -0.345 OA
ATOM     15  H1  UNL     1      15.497  14.209 -23.194  1.00  0.00     0.219 HD
ENDBRANCH   2  14
ENDBRANCH   1   2
BRANCH   1  16
HETATM   16  C8  UNL     1      16.369  16.839 -21.419  1.00  0.00     0.170 C 
BRANCH  16  17
HETATM   17  C9  UNL     1      17.357  15.930 -20.857  1.00  0.00    -0.040 A 
HETATM   18  C10 UNL     1      18.183  15.147 -21.622  1.00  0.00     0.009 A 
HETATM   19  C11 UNL     1      19.090  14.283 -21.008  1.00  0.00     0.001 A 
HETATM   20  C12 UNL     1      19.171  14.198 -19.622  1.00  0.00     0.000 A 
HETATM   21  C13 UNL     1      18.338  14.987 -18.857  1.00  0.00     0.001 A 
HETATM   22  C14 UNL     1      17.454  15.833 -19.489  1.00  0.00     0.009 A 
ENDBRANCH  16  17
ENDBRANCH   1  16
BRANCH   1  23
HETATM   23  C15 UNL     1      14.246  17.041 -20.181  1.00  0.00     0.037 A 
HETATM   24  C16 UNL     1      14.748  18.220 -19.607  1.00  0.00     0.032 A 
HETATM   25  C17 UNL     1      14.062  18.870 -18.619  1.00  0.00     0.039 A 
HETATM   26  C18 UNL     1      12.830  18.390 -18.139  1.00  0.00     0.072 A 
HETATM   27  C19 UNL     1      12.312  17.246 -18.675  1.00  0.00    -0.015 A 
HETATM   28  C24 UNL     1      13.045  16.604 -19.687  1.00  0.00     0.040 A 
BRANCH  26  29
HETATM   29  O2  UNL     1      12.198  19.101 -17.143  1.00  0.00    -0.360 OA
ATOM     30  H2  UNL     1      11.569  18.646 -16.596  1.00  0.00     0.217 HD
ENDBRANCH  26  29
BRANCH  27  31
HETATM   31  C20 UNL     1      11.023  16.697 -18.218  1.00  0.00    -0.021 C 
HETATM   32  C21 UNL     1      11.227  15.684 -17.126  1.00  0.00     0.019 C 
HETATM   33  C22 UNL     1      10.065  17.753 -17.727  1.00  0.00     0.019 C 
HETATM   34  C23 UNL     1      10.334  15.959 -19.364  1.00  0.00     0.019 C 
ENDBRANCH  27  31
ENDBRANCH   1  23
TORSDOF 9
ENDMDL
