MODEL 1
REMARK VINA RESULT: -9.773687656      0.000      0.000
REMARK  9 active torsions:
REMARK  status: ('A' for Active; 'I' for Inactive)
REMARK    1  A    between atoms: N1_2  and  C3_4 
REMARK    2  A    between atoms: C6_8  and  C7_9 
REMARK    3  A    between atoms: C7_9  and  O1_10 
REMARK    4  A    between atoms: C7_9  and  N2_12 
REMARK    5  A    between atoms: N2_12  and  C8_13 
REMARK    6  A    between atoms: N2_12  and  C15_20 
REMARK    7  A    between atoms: C8_13  and  C9_14 
REMARK    8  A    between atoms: C18_23  and  O2_24 
REMARK    9  A    between atoms: C19_26  and  C20_27 
ROOT
HETATM    1  N2  UNL     1      12.282  14.340 -19.910  1.00  0.00    -0.323 N 
ENDROOT
BRANCH   1   2
HETATM    2  C7  UNL     1      11.171  14.108 -20.713  1.00  0.00     0.157 C 
BRANCH   2   3
HETATM    3  C6  UNL     1      11.038  13.504 -22.012  1.00  0.00     0.059 A 
HETATM    4  C5  UNL     1      11.379  14.270 -23.133  1.00  0.00     0.052 A 
HETATM    5  C4  UNL     1      11.268  13.776 -24.408  1.00  0.00     0.054 A 
HETATM    6 CL1  UNL     1      11.951  15.892 -22.856  1.00  0.00    -0.083 Cl
HETATM    7  C3  UNL     1      10.814  12.493 -24.669  1.00  0.00     0.032 A 
HETATM    8  C26 UNL     1      10.476  11.732 -23.552  1.00  0.00     0.054 A 
HETATM    9  C25 UNL     1      10.587  12.226 -22.266  1.00  0.00     0.052 A 
HETATM   10 CL2  UNL     1      10.157  11.243 -20.873  1.00  0.00    -0.083 Cl
BRANCH   7  11
HETATM   11  N1  UNL     1      10.681  12.019 -26.002  1.00  0.00    -0.389 N 
HETATM   12  C1  UNL     1      11.235  10.686 -26.293  1.00  0.00     0.149 C 
HETATM   13  C2  UNL     1      10.048  12.752 -27.077  1.00  0.00     0.149 C 
ENDBRANCH   7  11
ENDBRANCH   2   3
BRANCH   2  14
HETATM   14  O1  UNL     1      10.026  14.496 -20.230  1.00  0.00    -0.345 OA
ATOM     15  H1  UNL     1       9.875  14.166 -19.353  1.00  0.00     0.219 HD
ENDBRANCH   2  14
ENDBRANCH   1   2
BRANCH   1  16
HETATM   16  C8  UNL     1      12.000  15.076 -18.653  1.00  0.00     0.170 C 
BRANCH  16  17
HETATM   17  C9  UNL     1      12.576  16.412 -18.631  1.00  0.00    -0.040 A 
HETATM   18  C10 UNL     1      12.170  17.422 -19.465  1.00  0.00     0.009 A 
HETATM   19  C11 UNL     1      12.789  18.671 -19.398  1.00  0.00     0.001 A 
HETATM   20  C12 UNL     1      13.819  18.911 -18.495  1.00  0.00     0.000 A 
HETATM   21  C13 UNL     1      14.223  17.893 -17.659  1.00  0.00     0.001 A 
HETATM   22  C14 UNL     1      13.595  16.670 -17.744  1.00  0.00     0.009 A 
ENDBRANCH  16  17
ENDBRANCH   1  16
BRANCH   1  23
HETATM   23  C15 UNL     1      13.629  13.987 -20.150  1.00  0.00     0.037 A 
HETATM   24  C16 UNL     1      14.041  12.653 -20.008  1.00  0.00     0.032 A 
HETATM   25  C17 UNL     1      15.339  12.287 -20.237  1.00  0.00     0.039 A 
HETATM   26  C18 UNL     1      16.311  13.227 -20.624  1.00  0.00     0.072 A 
HETATM   27  C19 UNL     1      15.945  14.534 -20.773  1.00  0.00    -0.015 A 
HETATM   28  C24 UNL     1      14.605  14.873 -20.528  1.00  0.00     0.040 A 
BRANCH  26  29
HETATM   29  O2  UNL     1      17.597  12.782 -20.839  1.00  0.00    -0.360 OA
ATOM     30  H2  UNL     1      18.223  13.385 -21.222  1.00  0.00     0.217 HD
ENDBRANCH  26  29
BRANCH  27  31
HETATM   31  C20 UNL     1      16.918  15.564 -21.182  1.00  0.00    -0.021 C 
HETATM   32  C21 UNL     1      17.989  15.735 -20.142  1.00  0.00     0.019 C 
HETATM   33  C22 UNL     1      17.572  15.273 -22.509  1.00  0.00     0.019 C 
HETATM   34  C23 UNL     1      16.222  16.917 -21.309  1.00  0.00     0.019 C 
ENDBRANCH  27  31
ENDBRANCH   1  23
TORSDOF 9
ENDMDL
