MODEL 3
REMARK VINA RESULT: -9.161791072      2.904      6.704
REMARK  9 active torsions:
REMARK  status: ('A' for Active; 'I' for Inactive)
REMARK    1  A    between atoms: N1_2  and  C3_4 
REMARK    2  A    between atoms: C6_8  and  C7_9 
REMARK    3  A    between atoms: C7_9  and  O1_10 
REMARK    4  A    between atoms: C7_9  and  N2_12 
REMARK    5  A    between atoms: N2_12  and  C8_13 
REMARK    6  A    between atoms: N2_12  and  C15_20 
REMARK    7  A    between atoms: C8_13  and  C9_14 
REMARK    8  A    between atoms: C18_23  and  O2_24 
REMARK    9  A    between atoms: C19_26  and  C20_27 
ROOT
HETATM    1  N2  UNL     1      14.031  16.571 -20.364  1.00  0.00    -0.323 N 
ENDROOT
BRANCH   1   2
HETATM    2  C7  UNL     1      13.678  16.773 -19.034  1.00  0.00     0.157 C 
BRANCH   2   3
HETATM    3  C6  UNL     1      12.414  16.669 -18.354  1.00  0.00     0.059 A 
HETATM    4  C5  UNL     1      11.567  17.783 -18.364  1.00  0.00     0.052 A 
HETATM    5  C4  UNL     1      10.351  17.773 -17.727  1.00  0.00     0.054 A 
HETATM    6 CL1  UNL     1      12.111  19.201 -19.216  1.00  0.00    -0.083 Cl
HETATM    7  C3  UNL     1       9.886  16.666 -17.036  1.00  0.00     0.032 A 
HETATM    8  C26 UNL     1      10.730  15.558 -17.028  1.00  0.00     0.054 A 
HETATM    9  C25 UNL     1      11.955  15.564 -17.668  1.00  0.00     0.052 A 
HETATM   10 CL2  UNL     1      13.000  14.150 -17.645  1.00  0.00    -0.083 Cl
BRANCH   7  11
HETATM   11  N1  UNL     1       8.635  16.696 -16.361  1.00  0.00    -0.389 N 
HETATM   12  C1  UNL     1       8.604  17.358 -15.045  1.00  0.00     0.149 C 
HETATM   13  C2  UNL     1       7.409  16.125 -16.874  1.00  0.00     0.149 C 
ENDBRANCH   7  11
ENDBRANCH   2   3
BRANCH   2  14
HETATM   14  O1  UNL     1      14.643  17.118 -18.233  1.00  0.00    -0.345 OA
ATOM     15  H1  UNL     1      15.492  16.826 -18.544  1.00  0.00     0.219 HD
ENDBRANCH   2  14
ENDBRANCH   1   2
BRANCH   1  16
HETATM   16  C8  UNL     1      15.334  17.161 -20.758  1.00  0.00     0.170 C 
BRANCH  16  17
HETATM   17  C9  UNL     1      16.393  16.172 -20.890  1.00  0.00    -0.040 A 
HETATM   18  C10 UNL     1      17.157  15.740 -19.837  1.00  0.00     0.009 A 
HETATM   19  C11 UNL     1      18.171  14.805 -20.048  1.00  0.00     0.001 A 
HETATM   20  C12 UNL     1      18.423  14.299 -21.319  1.00  0.00     0.000 A 
HETATM   21  C13 UNL     1      17.652  14.736 -22.375  1.00  0.00     0.001 A 
HETATM   22  C14 UNL     1      16.657  15.658 -22.138  1.00  0.00     0.009 A 
ENDBRANCH  16  17
ENDBRANCH   1  16
BRANCH   1  23
HETATM   23  C15 UNL     1      13.303  15.905 -21.376  1.00  0.00     0.037 A 
HETATM   24  C16 UNL     1      13.321  16.396 -22.691  1.00  0.00     0.032 A 
HETATM   25  C17 UNL     1      12.626  15.768 -23.687  1.00  0.00     0.039 A 
HETATM   26  C18 UNL     1      11.869  14.609 -23.439  1.00  0.00     0.072 A 
HETATM   27  C19 UNL     1      11.830  14.104 -22.172  1.00  0.00    -0.015 A 
HETATM   28  C24 UNL     1      12.554  14.775 -21.174  1.00  0.00     0.040 A 
BRANCH  26  29
HETATM   29  O2  UNL     1      11.198  14.032 -24.495  1.00  0.00    -0.360 OA
ATOM     30  H2  UNL     1      10.271  13.852 -24.393  1.00  0.00     0.217 HD
ENDBRANCH  26  29
BRANCH  27  31
HETATM   31  C20 UNL     1      11.059  12.888 -21.851  1.00  0.00    -0.021 C 
HETATM   32  C21 UNL     1       9.728  13.240 -21.247  1.00  0.00     0.019 C 
HETATM   33  C22 UNL     1      10.829  11.995 -23.044  1.00  0.00     0.019 C 
HETATM   34  C23 UNL     1      11.802  12.061 -20.804  1.00  0.00     0.019 C 
ENDBRANCH  27  31
ENDBRANCH   1  23
TORSDOF 9
ENDMDL
