MODEL 2
REMARK VINA RESULT: -9.771278724      0.205      1.589
REMARK  9 active torsions:
REMARK  status: ('A' for Active; 'I' for Inactive)
REMARK    1  A    between atoms: N1_2  and  C3_4 
REMARK    2  A    between atoms: C6_8  and  C7_9 
REMARK    3  A    between atoms: C7_9  and  O1_10 
REMARK    4  A    between atoms: C7_9  and  N2_12 
REMARK    5  A    between atoms: N2_12  and  C8_13 
REMARK    6  A    between atoms: N2_12  and  C15_20 
REMARK    7  A    between atoms: C8_13  and  C9_14 
REMARK    8  A    between atoms: C18_23  and  O2_24 
REMARK    9  A    between atoms: C19_26  and  C20_27 
ROOT
HETATM    1  N2  UNL     1      12.273  14.343 -19.957  1.00  0.00    -0.323 N 
ENDROOT
BRANCH   1   2
HETATM    2  C7  UNL     1      11.175  14.118 -20.779  1.00  0.00     0.157 C 
BRANCH   2   3
HETATM    3  C6  UNL     1      11.069  13.569 -22.105  1.00  0.00     0.059 A 
HETATM    4  C5  UNL     1      10.655  12.239 -22.237  1.00  0.00     0.052 A 
HETATM    5  C4  UNL     1      10.541  11.634 -23.463  1.00  0.00     0.054 A 
HETATM    6 CL1  UNL     1      10.286  11.361 -20.778  1.00  0.00    -0.083 Cl
HETATM    7  C3  UNL     1      10.829  12.297 -24.646  1.00  0.00     0.032 A 
HETATM    8  C26 UNL     1      11.240  13.621 -24.513  1.00  0.00     0.054 A 
HETATM    9  C25 UNL     1      11.355  14.234 -23.279  1.00  0.00     0.052 A 
HETATM   10 CL2  UNL     1      11.873  15.908 -23.139  1.00  0.00    -0.083 Cl
BRANCH   7  11
HETATM   11  N1  UNL     1      10.731  11.635 -25.900  1.00  0.00    -0.389 N 
HETATM   12  C1  UNL     1      10.932  10.176 -25.901  1.00  0.00     0.149 C 
HETATM   13  C2  UNL     1      10.453  12.293 -27.158  1.00  0.00     0.149 C 
ENDBRANCH   7  11
ENDBRANCH   2   3
BRANCH   2  14
HETATM   14  O1  UNL     1      10.016  14.452 -20.289  1.00  0.00    -0.345 OA
ATOM     15  H1  UNL     1       9.972  14.325 -19.349  1.00  0.00     0.219 HD
ENDBRANCH   2  14
ENDBRANCH   1   2
BRANCH   1  16
HETATM   16  C8  UNL     1      11.972  15.074 -18.702  1.00  0.00     0.170 C 
BRANCH  16  17
HETATM   17  C9  UNL     1      12.557  16.406 -18.661  1.00  0.00    -0.040 A 
HETATM   18  C10 UNL     1      12.173  17.425 -19.494  1.00  0.00     0.009 A 
HETATM   19  C11 UNL     1      12.799  18.668 -19.409  1.00  0.00     0.001 A 
HETATM   20  C12 UNL     1      13.816  18.895 -18.487  1.00  0.00     0.000 A 
HETATM   21  C13 UNL     1      14.199  17.868 -17.651  1.00  0.00     0.001 A 
HETATM   22  C14 UNL     1      13.563  16.651 -17.756  1.00  0.00     0.009 A 
ENDBRANCH  16  17
ENDBRANCH   1  16
BRANCH   1  23
HETATM   23  C15 UNL     1      13.623  13.989 -20.177  1.00  0.00     0.037 A 
HETATM   24  C16 UNL     1      14.033  12.655 -20.020  1.00  0.00     0.032 A 
HETATM   25  C17 UNL     1      15.333  12.288 -20.229  1.00  0.00     0.039 A 
HETATM   26  C18 UNL     1      16.311  13.224 -20.609  1.00  0.00     0.072 A 
HETATM   27  C19 UNL     1      15.948  14.531 -20.771  1.00  0.00    -0.015 A 
HETATM   28  C24 UNL     1      14.604  14.872 -20.547  1.00  0.00     0.040 A 
BRANCH  26  29
HETATM   29  O2  UNL     1      17.600  12.778 -20.803  1.00  0.00    -0.360 OA
ATOM     30  H2  UNL     1      17.985  12.879 -21.665  1.00  0.00     0.217 HD
ENDBRANCH  26  29
BRANCH  27  31
HETATM   31  C20 UNL     1      16.926  15.557 -21.174  1.00  0.00    -0.021 C 
HETATM   32  C21 UNL     1      17.982  15.737 -20.119  1.00  0.00     0.019 C 
HETATM   33  C22 UNL     1      17.600  15.255 -22.489  1.00  0.00     0.019 C 
HETATM   34  C23 UNL     1      16.232  16.910 -21.323  1.00  0.00     0.019 C 
ENDBRANCH  27  31
ENDBRANCH   1  23
TORSDOF 9
ENDMDL
