MODEL 7
REMARK VINA RESULT: -8.640337396      1.613      8.958
REMARK  14 active torsions:
REMARK  status: ('A' for Active; 'I' for Inactive)
REMARK    1  A    between atoms: C1_2  and  C2_4 
REMARK    2  A    between atoms: C4_6  and  O3_7 
REMARK    3  A    between atoms: C5_9  and  O4_10 
REMARK    4  A    between atoms: C6_12  and  O5_13 
REMARK    5  A    between atoms: O5_13  and  C7_14 
REMARK    6  A    between atoms: C8_15  and  C9_16 
REMARK    7  A    between atoms: C10_20  and  O9_21 
REMARK    8  A    between atoms: O9_21  and  C11_22 
REMARK    9  A    between atoms: C12_23  and  C13_24 
REMARK   10  A    between atoms: C14_28  and  O13_29 
REMARK   11  A    between atoms: C15_31  and  O14_32 
REMARK   12  A    between atoms: C16_34  and  O15_35 
REMARK   13  A    between atoms: C17_37  and  O16_38 
REMARK   14  A    between atoms: C18_40  and  O17_41 
ROOT
HETATM    1  C7  UNL     1       4.764  39.691  65.873  1.00  0.00     0.195 C 
HETATM    2  C8  UNL     1       6.098  39.120  66.226  1.00  0.00     0.257 C 
HETATM    3  O8  UNL     1       6.556  38.127  65.404  1.00  0.00    -0.340 OA
HETATM    4  C10 UNL     1       5.629  37.235  64.939  1.00  0.00     0.293 C 
HETATM    5  C17 UNL     1       4.309  37.240  65.644  1.00  0.00     0.204 C 
HETATM    6  C18 UNL     1       3.740  38.603  65.876  1.00  0.00     0.183 C 
ENDROOT
BRANCH   4   7
HETATM    7  O9  UNL     1       6.089  35.925  64.902  1.00  0.00    -0.347 OA
BRANCH   7   8
HETATM    8  C11 UNL     1       6.776  35.608  63.729  1.00  0.00     0.195 C 
HETATM    9  C12 UNL     1       8.107  35.061  64.143  1.00  0.00     0.257 C 
HETATM   10  O12 UNL     1       8.767  34.675  62.989  1.00  0.00    -0.340 OA
HETATM   11  C14 UNL     1       8.247  33.528  62.422  1.00  0.00     0.289 C 
HETATM   12  C15 UNL     1       6.766  33.490  62.330  1.00  0.00     0.204 C 
HETATM   13  C16 UNL     1       6.028  34.627  62.911  1.00  0.00     0.183 C 
BRANCH   9  14
HETATM   14  C13 UNL     1       7.964  34.011  65.150  1.00  0.00     0.206 C 
HETATM   15  O10 UNL     1       8.924  33.760  65.920  1.00  0.00    -0.646 OA
HETATM   16  O11 UNL     1       6.808  33.261  65.311  1.00  0.00    -0.646 OA
ENDBRANCH   9  14
BRANCH  11  17
HETATM   17  O13 UNL     1       8.760  32.444  63.169  1.00  0.00    -0.368 OA
ATOM     18  H13 UNL     1       9.147  31.844  62.542  1.00  0.00     0.212 HD
ENDBRANCH  11  17
BRANCH  12  19
HETATM   19  O14 UNL     1       6.384  33.306  60.979  1.00  0.00    -0.388 OA
ATOM     20  H14 UNL     1       7.148  33.075  60.464  1.00  0.00     0.210 HD
ENDBRANCH  12  19
BRANCH  13  21
HETATM   21  O15 UNL     1       4.928  34.175  63.682  1.00  0.00    -0.390 OA
ATOM     22  H15 UNL     1       4.281  33.825  63.082  1.00  0.00     0.210 HD
ENDBRANCH  13  21
ENDBRANCH   7   8
ENDBRANCH   4   7
BRANCH   5  23
HETATM   23  O16 UNL     1       3.399  36.567  64.795  1.00  0.00    -0.388 OA
ATOM     24  H16 UNL     1       2.533  36.880  65.028  1.00  0.00     0.210 HD
ENDBRANCH   5  23
BRANCH   2  25
HETATM   25  C9  UNL     1       6.166  38.752  67.679  1.00  0.00     0.206 C 
HETATM   26  O6  UNL     1       6.696  37.654  68.028  1.00  0.00    -0.646 OA
HETATM   27  O7  UNL     1       5.658  39.598  68.654  1.00  0.00    -0.646 OA
ENDBRANCH   2  25
BRANCH   6  28
HETATM   28  O17 UNL     1       2.698  38.901  64.977  1.00  0.00    -0.390 OA
ATOM     29  H17 UNL     1       1.908  38.429  65.214  1.00  0.00     0.210 HD
ENDBRANCH   6  28
BRANCH   1  30
HETATM   30  O5  UNL     1       4.467  40.689  66.799  1.00  0.00    -0.347 OA
BRANCH  30  31
HETATM   31  C6  UNL     1       4.616  41.970  66.266  1.00  0.00     0.292 C 
HETATM   32  C5  UNL     1       3.615  42.898  66.835  1.00  0.00     0.202 C 
HETATM   33  C4  UNL     1       4.069  44.277  67.116  1.00  0.00     0.154 C 
HETATM   34  C3  UNL     1       5.525  44.441  67.369  1.00  0.00     0.077 C 
HETATM   35  C2  UNL     1       6.124  43.076  67.623  1.00  0.00     0.228 C 
HETATM   36  O18 UNL     1       5.936  42.342  66.458  1.00  0.00    -0.343 OA
BRANCH  32  37
HETATM   37  O4  UNL     1       2.539  42.983  65.918  1.00  0.00    -0.388 OA
ATOM     38  H4  UNL     1       2.027  42.187  66.004  1.00  0.00     0.210 HD
ENDBRANCH  32  37
BRANCH  33  39
HETATM   39  O3  UNL     1       3.678  45.193  66.115  1.00  0.00    -0.393 OA
ATOM     40  H3  UNL     1       2.832  44.928  65.775  1.00  0.00     0.210 HD
ENDBRANCH  33  39
BRANCH  35  41
HETATM   41  C1  UNL     1       7.566  43.223  67.845  1.00  0.00     0.203 C 
HETATM   42  O1  UNL     1       8.134  42.506  68.704  1.00  0.00    -0.646 OA
HETATM   43  O2  UNL     1       8.373  44.123  67.155  1.00  0.00    -0.646 OA
ENDBRANCH  35  41
ENDBRANCH  30  31
ENDBRANCH   1  30
TORSDOF 14
ENDMDL
