MODEL 2
REMARK VINA RESULT: -9.158459363      2.756      5.567
REMARK  14 active torsions:
REMARK  status: ('A' for Active; 'I' for Inactive)
REMARK    1  A    between atoms: C1_2  and  C2_4 
REMARK    2  A    between atoms: C4_6  and  O3_7 
REMARK    3  A    between atoms: C5_9  and  O4_10 
REMARK    4  A    between atoms: C6_12  and  O5_13 
REMARK    5  A    between atoms: O5_13  and  C7_14 
REMARK    6  A    between atoms: C8_15  and  C9_16 
REMARK    7  A    between atoms: C10_20  and  O9_21 
REMARK    8  A    between atoms: O9_21  and  C11_22 
REMARK    9  A    between atoms: C12_23  and  C13_24 
REMARK   10  A    between atoms: C14_28  and  O13_29 
REMARK   11  A    between atoms: C15_31  and  O14_32 
REMARK   12  A    between atoms: C16_34  and  O15_35 
REMARK   13  A    between atoms: C17_37  and  O16_38 
REMARK   14  A    between atoms: C18_40  and  O17_41 
ROOT
HETATM    1  C7  UNL     1       8.188  33.990  62.769  1.00  0.00     0.195 C 
HETATM    2  C8  UNL     1       7.040  34.937  62.647  1.00  0.00     0.257 C 
HETATM    3  O8  UNL     1       7.052  36.000  63.509  1.00  0.00    -0.340 OA
HETATM    4  C10 UNL     1       7.494  35.758  64.780  1.00  0.00     0.293 C 
HETATM    5  C17 UNL     1       7.582  34.317  65.176  1.00  0.00     0.204 C 
HETATM    6  C18 UNL     1       8.233  33.438  64.156  1.00  0.00     0.183 C 
ENDROOT
BRANCH   4   7
HETATM    7  O9  UNL     1       6.766  36.424  65.757  1.00  0.00    -0.347 OA
BRANCH   7   8
HETATM    8  C11 UNL     1       7.210  37.727  65.990  1.00  0.00     0.195 C 
HETATM    9  C12 UNL     1       6.192  38.645  65.386  1.00  0.00     0.257 C 
HETATM   10  O12 UNL     1       6.585  39.939  65.676  1.00  0.00    -0.340 OA
HETATM   11  C14 UNL     1       6.400  40.281  67.001  1.00  0.00     0.289 C 
HETATM   12  C15 UNL     1       6.853  39.262  67.980  1.00  0.00     0.204 C 
HETATM   13  C16 UNL     1       7.373  37.994  67.438  1.00  0.00     0.183 C 
BRANCH   9  14
HETATM   14  C13 UNL     1       4.838  38.300  65.818  1.00  0.00     0.206 C 
HETATM   15  O10 UNL     1       3.856  38.879  65.291  1.00  0.00    -0.646 OA
HETATM   16  O11 UNL     1       4.568  37.354  66.796  1.00  0.00    -0.646 OA
ENDBRANCH   9  14
BRANCH  11  17
HETATM   17  O13 UNL     1       5.027  40.583  67.149  1.00  0.00    -0.368 OA
ATOM     18  H13 UNL     1       4.772  41.066  66.370  1.00  0.00     0.212 HD
ENDBRANCH  11  17
BRANCH  12  19
HETATM   19  O14 UNL     1       7.807  39.841  68.852  1.00  0.00    -0.388 OA
ATOM     20  H14 UNL     1       7.357  40.293  69.556  1.00  0.00     0.210 HD
ENDBRANCH  12  19
BRANCH  13  21
HETATM   21  O15 UNL     1       6.838  36.885  68.141  1.00  0.00    -0.390 OA
ATOM     22  H15 UNL     1       6.264  37.224  68.817  1.00  0.00     0.210 HD
ENDBRANCH  13  21
ENDBRANCH   7   8
ENDBRANCH   4   7
BRANCH   5  23
HETATM   23  O16 UNL     1       8.403  34.267  66.327  1.00  0.00    -0.388 OA
ATOM     24  H16 UNL     1       7.817  34.249  67.075  1.00  0.00     0.210 HD
ENDBRANCH   5  23
BRANCH   2  25
HETATM   25  C9  UNL     1       5.730  34.207  62.640  1.00  0.00     0.206 C 
HETATM   26  O6  UNL     1       5.399  33.512  61.633  1.00  0.00    -0.646 OA
HETATM   27  O7  UNL     1       4.868  34.279  63.725  1.00  0.00    -0.646 OA
ENDBRANCH   2  25
BRANCH   6  28
HETATM   28  O17 UNL     1       9.552  33.100  64.513  1.00  0.00    -0.390 OA
ATOM     29  H17 UNL     1       9.652  33.093  65.458  1.00  0.00     0.210 HD
ENDBRANCH   6  28
BRANCH   1  30
HETATM   30  O5  UNL     1       8.020  32.988  61.814  1.00  0.00    -0.347 OA
BRANCH  30  31
HETATM   31  C6  UNL     1       9.232  32.417  61.424  1.00  0.00     0.292 C 
HETATM   32  C5  UNL     1       9.228  30.957  61.662  1.00  0.00     0.202 C 
HETATM   33  C4  UNL     1       9.894  30.115  60.645  1.00  0.00     0.154 C 
HETATM   34  C3  UNL     1       9.965  30.688  59.275  1.00  0.00     0.077 C 
HETATM   35  C2  UNL     1       9.009  31.857  59.194  1.00  0.00     0.228 C 
HETATM   36  O18 UNL     1       9.461  32.797  60.113  1.00  0.00    -0.343 OA
BRANCH  32  37
HETATM   37  O4  UNL     1       9.876  30.723  62.899  1.00  0.00    -0.388 OA
ATOM     38  H4  UNL     1       9.768  31.504  63.431  1.00  0.00     0.210 HD
ENDBRANCH  32  37
BRANCH  33  39
HETATM   39  O3  UNL     1      11.191  29.715  61.035  1.00  0.00    -0.393 OA
ATOM     40  H3  UNL     1      11.735  29.652  60.259  1.00  0.00     0.210 HD
ENDBRANCH  33  39
BRANCH  35  41
HETATM   41  C1  UNL     1       9.093  32.448  57.855  1.00  0.00     0.203 C 
HETATM   42  O1  UNL     1       9.689  33.541  57.699  1.00  0.00    -0.646 OA
HETATM   43  O2  UNL     1       8.544  31.871  56.713  1.00  0.00    -0.646 OA
ENDBRANCH  35  41
ENDBRANCH  30  31
ENDBRANCH   1  30
TORSDOF 14
ENDMDL
