MODEL 1
REMARK VINA RESULT: -9.396274599      0.000      0.000
REMARK  14 active torsions:
REMARK  status: ('A' for Active; 'I' for Inactive)
REMARK    1  A    between atoms: C1_2  and  C2_4 
REMARK    2  A    between atoms: C4_6  and  O3_7 
REMARK    3  A    between atoms: C5_9  and  O4_10 
REMARK    4  A    between atoms: C6_12  and  O5_13 
REMARK    5  A    between atoms: O5_13  and  C7_14 
REMARK    6  A    between atoms: C8_15  and  C9_16 
REMARK    7  A    between atoms: C10_20  and  O9_21 
REMARK    8  A    between atoms: O9_21  and  C11_22 
REMARK    9  A    between atoms: C12_23  and  C13_24 
REMARK   10  A    between atoms: C14_28  and  O13_29 
REMARK   11  A    between atoms: C15_31  and  O14_32 
REMARK   12  A    between atoms: C16_34  and  O15_35 
REMARK   13  A    between atoms: C17_37  and  O16_38 
REMARK   14  A    between atoms: C18_40  and  O17_41 
ROOT
HETATM    1  C7  UNL     1       7.035  37.680  66.002  1.00  0.00     0.195 C 
HETATM    2  C8  UNL     1       5.870  38.539  65.633  1.00  0.00     0.257 C 
HETATM    3  O8  UNL     1       6.021  39.878  65.871  1.00  0.00    -0.340 OA
HETATM    4  C10 UNL     1       6.684  40.231  67.014  1.00  0.00     0.293 C 
HETATM    5  C17 UNL     1       6.860  39.143  68.027  1.00  0.00     0.204 C 
HETATM    6  C18 UNL     1       7.332  37.843  67.457  1.00  0.00     0.183 C 
ENDROOT
BRANCH   4   7
HETATM    7  O9  UNL     1       6.132  41.329  67.660  1.00  0.00    -0.347 OA
BRANCH   7   8
HETATM    8  C11 UNL     1       5.121  41.955  66.929  1.00  0.00     0.195 C 
HETATM    9  C12 UNL     1       4.445  42.913  67.861  1.00  0.00     0.257 C 
HETATM   10  O12 UNL     1       3.488  43.591  67.126  1.00  0.00    -0.340 OA
HETATM   11  C14 UNL     1       4.027  44.512  66.249  1.00  0.00     0.289 C 
HETATM   12  C15 UNL     1       5.183  44.022  65.457  1.00  0.00     0.204 C 
HETATM   13  C16 UNL     1       5.663  42.658  65.744  1.00  0.00     0.183 C 
BRANCH   9  14
HETATM   14  C13 UNL     1       5.414  43.766  68.546  1.00  0.00     0.206 C 
HETATM   15  O10 UNL     1       5.013  44.585  69.410  1.00  0.00    -0.646 OA
HETATM   16  O11 UNL     1       6.778  43.725  68.295  1.00  0.00    -0.646 OA
ENDBRANCH   9  14
BRANCH  11  17
HETATM   17  O13 UNL     1       4.356  45.652  67.017  1.00  0.00    -0.368 OA
ATOM     18  H13 UNL     1       5.138  45.430  67.508  1.00  0.00     0.212 HD
ENDBRANCH  11  17
BRANCH  12  19
HETATM   19  O14 UNL     1       4.896  44.152  64.077  1.00  0.00    -0.388 OA
ATOM     20  H14 UNL     1       4.732  43.293  63.707  1.00  0.00     0.210 HD
ENDBRANCH  12  19
BRANCH  13  21
HETATM   21  O15 UNL     1       7.077  42.628  65.838  1.00  0.00    -0.390 OA
ATOM     22  H15 UNL     1       7.426  42.794  64.970  1.00  0.00     0.210 HD
ENDBRANCH  13  21
ENDBRANCH   7   8
ENDBRANCH   4   7
BRANCH   5  23
HETATM   23  O16 UNL     1       7.873  39.580  68.912  1.00  0.00    -0.388 OA
ATOM     24  H16 UNL     1       8.682  39.586  68.414  1.00  0.00     0.210 HD
ENDBRANCH   5  23
BRANCH   2  25
HETATM   25  C9  UNL     1       4.589  37.989  66.187  1.00  0.00     0.206 C 
HETATM   26  O6  UNL     1       3.937  38.654  67.046  1.00  0.00    -0.646 OA
HETATM   27  O7  UNL     1       4.102  36.759  65.770  1.00  0.00    -0.646 OA
ENDBRANCH   2  25
BRANCH   6  28
HETATM   28  O17 UNL     1       8.699  37.618  67.712  1.00  0.00    -0.390 OA
ATOM     29  H17 UNL     1       8.841  37.430  68.632  1.00  0.00     0.210 HD
ENDBRANCH   6  28
BRANCH   1  30
HETATM   30  O5  UNL     1       6.714  36.362  65.680  1.00  0.00    -0.347 OA
BRANCH  30  31
HETATM   31  C6  UNL     1       7.597  35.812  64.751  1.00  0.00     0.292 C 
HETATM   32  C5  UNL     1       8.091  34.495  65.208  1.00  0.00     0.202 C 
HETATM   33  C4  UNL     1       8.260  33.452  64.173  1.00  0.00     0.154 C 
HETATM   34  C3  UNL     1       7.408  33.595  62.963  1.00  0.00     0.077 C 
HETATM   35  C2  UNL     1       6.315  34.596  63.262  1.00  0.00     0.228 C 
HETATM   36  O18 UNL     1       6.951  35.804  63.526  1.00  0.00    -0.343 OA
BRANCH  32  37
HETATM   37  O4  UNL     1       9.353  34.698  65.817  1.00  0.00    -0.388 OA
ATOM     38  H4  UNL     1       9.199  35.100  66.665  1.00  0.00     0.210 HD
ENDBRANCH  32  37
BRANCH  33  39
HETATM   39  O3  UNL     1       9.604  33.304  63.765  1.00  0.00    -0.393 OA
ATOM     40  H3  UNL     1      10.165  33.405  64.525  1.00  0.00     0.210 HD
ENDBRANCH  33  39
BRANCH  35  41
HETATM   41  C1  UNL     1       5.486  34.767  62.065  1.00  0.00     0.203 C 
HETATM   42  O1  UNL     1       5.547  35.842  61.421  1.00  0.00    -0.646 OA
HETATM   43  O2  UNL     1       4.612  33.800  61.578  1.00  0.00    -0.646 OA
ENDBRANCH  35  41
ENDBRANCH  30  31
ENDBRANCH   1  30
TORSDOF 14
ENDMDL
