MODEL 1
REMARK VINA RESULT: -8.519540532      0.000      0.000
REMARK  7 active torsions:
REMARK  status: ('A' for Active; 'I' for Inactive)
REMARK    1  A    between atoms: O1_2  and  C2_3 
REMARK    2  A    between atoms: C5_6  and  N1_7 
REMARK    3  A    between atoms: C7_11  and  C8_12 
REMARK    4  A    between atoms: C8_12  and  N2_13 
REMARK    5  A    between atoms: C10_15  and  C11_16 
REMARK    6  A    between atoms: C11_16  and  C12_17 
REMARK    7  A    between atoms: C16_23  and  C17_24 
ROOT
HETATM    1  N2  UNL     1     -18.676 -32.049  34.880  1.00  0.00    -0.351 N 
HETATM    2  C9  UNL     1     -19.373 -32.976  35.606  1.00  0.00     0.100 A 
HETATM    3  C10 UNL     1     -20.026 -33.856  34.787  1.00  0.00    -0.020 A 
HETATM    4  C13 UNL     1     -19.709 -33.440  33.496  1.00  0.00    -0.001 A 
HETATM    5  C14 UNL     1     -20.120 -33.969  32.291  1.00  0.00     0.015 A 
HETATM    6  C15 UNL     1     -19.682 -33.352  31.142  1.00  0.00     0.013 A 
HETATM    7  C16 UNL     1     -18.853 -32.236  31.190  1.00  0.00    -0.024 A 
HETATM    8  C23 UNL     1     -18.461 -31.736  32.384  1.00  0.00     0.042 A 
HETATM    9  C24 UNL     1     -18.875 -32.321  33.586  1.00  0.00     0.046 A 
ENDROOT
BRANCH   1  10
HETATM   10  C8  UNL     1     -17.846 -31.016  35.445  1.00  0.00     0.170 C 
BRANCH  10  11
HETATM   11  C7  UNL     1     -16.913 -30.381  34.497  1.00  0.00    -0.004 A 
HETATM   12  C2  UNL     1     -15.693 -30.865  34.121  1.00  0.00     0.076 A 
HETATM   13  C3  UNL     1     -14.836 -30.204  33.234  1.00  0.00     0.040 A 
HETATM   14  C4  UNL     1     -15.253 -29.002  32.717  1.00  0.00     0.039 A 
HETATM   15  C5  UNL     1     -16.481 -28.493  33.082  1.00  0.00     0.103 A 
HETATM   16  C6  UNL     1     -17.309 -29.149  33.950  1.00  0.00     0.047 A 
BRANCH  12  17
HETATM   17  O1  UNL     1     -15.248 -32.085  34.629  1.00  0.00    -0.355 OA
HETATM   18  C1  UNL     1     -15.257 -33.266  33.850  1.00  0.00     0.210 C 
ENDBRANCH  12  17
BRANCH  15  19
HETATM   19  N1  UNL     1     -16.924 -27.234  32.546  1.00  0.00    -0.116 N 
HETATM   20  O2  UNL     1     -17.862 -26.612  33.066  1.00  0.00    -0.532 OA
HETATM   21  O3  UNL     1     -16.301 -26.716  31.449  1.00  0.00    -0.532 OA
ENDBRANCH  15  19
ENDBRANCH  10  11
ENDBRANCH   1  10
BRANCH   3  22
HETATM   22  C11 UNL     1     -20.893 -35.012  35.170  1.00  0.00     0.154 C 
BRANCH  22  23
HETATM   23  C12 UNL     1     -20.431 -35.599  36.459  1.00  0.00     0.177 C 
HETATM   24  O4  UNL     1     -21.107 -35.402  37.485  1.00  0.00    -0.648 OA
HETATM   25  O5  UNL     1     -19.275 -36.342  36.486  1.00  0.00    -0.648 OA
ENDBRANCH  22  23
ENDBRANCH   3  22
BRANCH   7  26
HETATM   26  C17 UNL     1     -18.470 -31.667  29.890  1.00  0.00    -0.022 A 
HETATM   27  C18 UNL     1     -18.908 -32.160  28.694  1.00  0.00     0.039 A 
HETATM   28  C19 UNL     1     -18.521 -31.586  27.486  1.00  0.00     0.049 A 
HETATM   29  N3  UNL     1     -18.997 -32.127  26.270  1.00  0.00    -0.102 NA
HETATM   30  C20 UNL     1     -17.677 -30.495  27.488  1.00  0.00     0.053 A 
HETATM   31  C21 UNL     1     -17.223 -29.980  28.683  1.00  0.00     0.049 A 
HETATM   32  N4  UNL     1     -16.347 -28.846  28.693  1.00  0.00    -0.102 NA
HETATM   33  C22 UNL     1     -17.627 -30.575  29.847  1.00  0.00     0.039 A 
ENDBRANCH   7  26
TORSDOF 7
ENDMDL
