MODEL 7
REMARK VINA RESULT: -8.327791545      3.040      7.171
REMARK  7 active torsions:
REMARK  status: ('A' for Active; 'I' for Inactive)
REMARK    1  A    between atoms: O1_2  and  C2_3 
REMARK    2  A    between atoms: C5_6  and  N1_7 
REMARK    3  A    between atoms: C7_11  and  C8_12 
REMARK    4  A    between atoms: C8_12  and  N2_13 
REMARK    5  A    between atoms: C10_15  and  C11_16 
REMARK    6  A    between atoms: C11_16  and  C12_17 
REMARK    7  A    between atoms: C16_23  and  C17_24 
ROOT
HETATM    1  N2  UNL     1     -18.800 -32.121  31.276  1.00  0.00    -0.351 N 
HETATM    2  C9  UNL     1     -17.993 -31.031  31.459  1.00  0.00     0.100 A 
HETATM    3  C10 UNL     1     -17.765 -30.803  32.788  1.00  0.00    -0.020 A 
HETATM    4  C13 UNL     1     -18.472 -31.806  33.446  1.00  0.00    -0.001 A 
HETATM    5  C14 UNL     1     -18.598 -32.030  34.800  1.00  0.00     0.015 A 
HETATM    6  C15 UNL     1     -19.384 -33.086  35.201  1.00  0.00     0.013 A 
HETATM    7  C16 UNL     1     -20.029 -33.901  34.276  1.00  0.00    -0.024 A 
HETATM    8  C23 UNL     1     -19.889 -33.663  32.952  1.00  0.00     0.042 A 
HETATM    9  C24 UNL     1     -19.102 -32.603  32.485  1.00  0.00     0.046 A 
ENDROOT
BRANCH   1  10
HETATM   10  C8  UNL     1     -19.188 -32.651  29.994  1.00  0.00     0.170 C 
BRANCH  10  11
HETATM   11  C7  UNL     1     -18.511 -32.038  28.837  1.00  0.00    -0.004 A 
HETATM   12  C2  UNL     1     -17.467 -32.572  28.139  1.00  0.00     0.076 A 
HETATM   13  C3  UNL     1     -16.846 -31.931  27.061  1.00  0.00     0.040 A 
HETATM   14  C4  UNL     1     -17.321 -30.696  26.690  1.00  0.00     0.039 A 
HETATM   15  C5  UNL     1     -18.375 -30.138  27.380  1.00  0.00     0.103 A 
HETATM   16  C6  UNL     1     -18.973 -30.774  28.432  1.00  0.00     0.047 A 
BRANCH  12  17
HETATM   17  O1  UNL     1     -16.968 -33.825  28.494  1.00  0.00    -0.355 OA
HETATM   18  C1  UNL     1     -15.962 -34.469  27.736  1.00  0.00     0.210 C 
ENDBRANCH  12  17
BRANCH  15  19
HETATM   19  N1  UNL     1     -18.878 -28.845  26.999  1.00  0.00    -0.116 N 
HETATM   20  O2  UNL     1     -18.108 -27.901  26.772  1.00  0.00    -0.532 OA
HETATM   21  O3  UNL     1     -20.224 -28.656  26.884  1.00  0.00    -0.532 OA
ENDBRANCH  15  19
ENDBRANCH  10  11
ENDBRANCH   1  10
BRANCH   3  22
HETATM   22  C11 UNL     1     -16.944 -29.723  33.417  1.00  0.00     0.154 C 
BRANCH  22  23
HETATM   23  C12 UNL     1     -17.108 -28.447  32.666  1.00  0.00     0.177 C 
HETATM   24  O4  UNL     1     -17.820 -27.550  33.154  1.00  0.00    -0.648 OA
HETATM   25  O5  UNL     1     -16.472 -28.288  31.458  1.00  0.00    -0.648 OA
ENDBRANCH  22  23
ENDBRANCH   3  22
BRANCH   7  26
HETATM   26  C17 UNL     1     -20.847 -34.984  34.839  1.00  0.00    -0.022 A 
HETATM   27  C18 UNL     1     -21.773 -35.682  34.116  1.00  0.00     0.039 A 
HETATM   28  C19 UNL     1     -22.523 -36.704  34.693  1.00  0.00     0.049 A 
HETATM   29  N3  UNL     1     -23.471 -37.402  33.910  1.00  0.00    -0.102 NA
HETATM   30  C20 UNL     1     -22.334 -37.026  36.021  1.00  0.00     0.053 A 
HETATM   31  C21 UNL     1     -21.405 -36.335  36.769  1.00  0.00     0.049 A 
HETATM   32  N4  UNL     1     -21.201 -36.663  38.149  1.00  0.00    -0.102 NA
HETATM   33  C22 UNL     1     -20.690 -35.337  36.164  1.00  0.00     0.039 A 
ENDBRANCH   7  26
TORSDOF 7
ENDMDL
