MODEL 2
REMARK VINA RESULT: -8.471123262      2.908      5.112
REMARK  7 active torsions:
REMARK  status: ('A' for Active; 'I' for Inactive)
REMARK    1  A    between atoms: O1_2  and  C2_3 
REMARK    2  A    between atoms: C5_6  and  N1_7 
REMARK    3  A    between atoms: C7_11  and  C8_12 
REMARK    4  A    between atoms: C8_12  and  N2_13 
REMARK    5  A    between atoms: C10_15  and  C11_16 
REMARK    6  A    between atoms: C11_16  and  C12_17 
REMARK    7  A    between atoms: C16_23  and  C17_24 
ROOT
HETATM    1  N2  UNL     1     -18.414 -34.072  31.285  1.00  0.00    -0.351 N 
HETATM    2  C9  UNL     1     -17.496 -34.943  31.805  1.00  0.00     0.100 A 
HETATM    3  C10 UNL     1     -16.344 -34.946  31.068  1.00  0.00    -0.020 A 
HETATM    4  C13 UNL     1     -16.576 -34.030  30.045  1.00  0.00    -0.001 A 
HETATM    5  C14 UNL     1     -15.746 -33.662  29.008  1.00  0.00     0.015 A 
HETATM    6  C15 UNL     1     -16.226 -32.744  28.103  1.00  0.00     0.013 A 
HETATM    7  C16 UNL     1     -17.501 -32.203  28.227  1.00  0.00    -0.024 A 
HETATM    8  C23 UNL     1     -18.298 -32.578  29.254  1.00  0.00     0.042 A 
HETATM    9  C24 UNL     1     -17.864 -33.508  30.205  1.00  0.00     0.046 A 
ENDROOT
BRANCH   1  10
HETATM   10  C8  UNL     1     -19.708 -33.801  31.857  1.00  0.00     0.170 C 
BRANCH  10  11
HETATM   11  C7  UNL     1     -19.699 -33.501  33.300  1.00  0.00    -0.004 A 
HETATM   12  C2  UNL     1     -20.440 -34.132  34.258  1.00  0.00     0.076 A 
HETATM   13  C3  UNL     1     -20.408 -33.787  35.614  1.00  0.00     0.040 A 
HETATM   14  C4  UNL     1     -19.584 -32.755  35.994  1.00  0.00     0.039 A 
HETATM   15  C5  UNL     1     -18.828 -32.105  35.044  1.00  0.00     0.103 A 
HETATM   16  C6  UNL     1     -18.867 -32.451  33.721  1.00  0.00     0.047 A 
BRANCH  12  17
HETATM   17  O1  UNL     1     -21.281 -35.184  33.899  1.00  0.00    -0.355 OA
HETATM   18  C1  UNL     1     -20.976 -36.527  34.221  1.00  0.00     0.210 C 
ENDBRANCH  12  17
BRANCH  15  19
HETATM   19  N1  UNL     1     -17.963 -31.023  35.433  1.00  0.00    -0.116 N 
HETATM   20  O2  UNL     1     -17.651 -30.848  36.620  1.00  0.00    -0.532 OA
HETATM   21  O3  UNL     1     -17.479 -30.176  34.480  1.00  0.00    -0.532 OA
ENDBRANCH  15  19
ENDBRANCH  10  11
ENDBRANCH   1  10
BRANCH   3  22
HETATM   22  C11 UNL     1     -15.102 -35.747  31.291  1.00  0.00     0.154 C 
BRANCH  22  23
HETATM   23  C12 UNL     1     -15.254 -37.109  30.706  1.00  0.00     0.177 C 
HETATM   24  O4  UNL     1     -15.023 -37.272  29.495  1.00  0.00    -0.648 OA
HETATM   25  O5  UNL     1     -15.644 -38.151  31.514  1.00  0.00    -0.648 OA
ENDBRANCH  22  23
ENDBRANCH   3  22
BRANCH   7  26
HETATM   26  C17 UNL     1     -17.893 -31.244  27.184  1.00  0.00    -0.022 A 
HETATM   27  C18 UNL     1     -18.496 -31.608  26.014  1.00  0.00     0.039 A 
HETATM   28  C19 UNL     1     -18.853 -30.662  25.056  1.00  0.00     0.049 A 
HETATM   29  N3  UNL     1     -19.475 -31.080  23.858  1.00  0.00    -0.102 NA
HETATM   30  C20 UNL     1     -18.596 -29.326  25.286  1.00  0.00     0.053 A 
HETATM   31  C21 UNL     1     -17.988 -28.936  26.460  1.00  0.00     0.049 A 
HETATM   32  N4  UNL     1     -17.719 -27.550  26.707  1.00  0.00    -0.102 NA
HETATM   33  C22 UNL     1     -17.653 -29.898  27.374  1.00  0.00     0.039 A 
ENDBRANCH   7  26
TORSDOF 7
ENDMDL
