MODEL 3
REMARK VINA RESULT: -8.411138219      0.289      1.585
REMARK  7 active torsions:
REMARK  status: ('A' for Active; 'I' for Inactive)
REMARK    1  A    between atoms: O1_2  and  C2_3 
REMARK    2  A    between atoms: C5_6  and  N1_7 
REMARK    3  A    between atoms: C7_11  and  C8_12 
REMARK    4  A    between atoms: C8_12  and  N2_13 
REMARK    5  A    between atoms: C10_15  and  C11_16 
REMARK    6  A    between atoms: C11_16  and  C12_17 
REMARK    7  A    between atoms: C16_23  and  C17_24 
ROOT
HETATM    1  N2  UNL     1     -18.711 -32.100  34.820  1.00  0.00    -0.351 N 
HETATM    2  C9  UNL     1     -19.424 -33.045  35.507  1.00  0.00     0.100 A 
HETATM    3  C10 UNL     1     -20.067 -33.897  34.651  1.00  0.00    -0.020 A 
HETATM    4  C13 UNL     1     -19.727 -33.443  33.379  1.00  0.00    -0.001 A 
HETATM    5  C14 UNL     1     -20.122 -33.933  32.152  1.00  0.00     0.015 A 
HETATM    6  C15 UNL     1     -19.662 -33.282  31.029  1.00  0.00     0.013 A 
HETATM    7  C16 UNL     1     -18.830 -32.172  31.124  1.00  0.00    -0.024 A 
HETATM    8  C23 UNL     1     -18.455 -31.711  32.340  1.00  0.00     0.042 A 
HETATM    9  C24 UNL     1     -18.890 -32.331  33.516  1.00  0.00     0.046 A 
ENDROOT
BRANCH   1  10
HETATM   10  C8  UNL     1     -17.886 -31.089  35.430  1.00  0.00     0.170 C 
BRANCH  10  11
HETATM   11  C7  UNL     1     -16.937 -30.426  34.516  1.00  0.00    -0.004 A 
HETATM   12  C2  UNL     1     -15.697 -30.882  34.175  1.00  0.00     0.076 A 
HETATM   13  C3  UNL     1     -14.827 -30.195  33.319  1.00  0.00     0.040 A 
HETATM   14  C4  UNL     1     -15.254 -28.998  32.798  1.00  0.00     0.039 A 
HETATM   15  C5  UNL     1     -16.502 -28.519  33.129  1.00  0.00     0.103 A 
HETATM   16  C6  UNL     1     -17.343 -29.198  33.966  1.00  0.00     0.047 A 
BRANCH  12  17
HETATM   17  O1  UNL     1     -15.241 -32.095  34.688  1.00  0.00    -0.355 OA
HETATM   18  C1  UNL     1     -13.996 -32.647  34.305  1.00  0.00     0.210 C 
ENDBRANCH  12  17
BRANCH  15  19
HETATM   19  N1  UNL     1     -16.956 -27.266  32.588  1.00  0.00    -0.116 N 
HETATM   20  O2  UNL     1     -17.887 -26.641  33.116  1.00  0.00    -0.532 OA
HETATM   21  O3  UNL     1     -16.350 -26.756  31.477  1.00  0.00    -0.532 OA
ENDBRANCH  15  19
ENDBRANCH  10  11
ENDBRANCH   1  10
BRANCH   3  22
HETATM   22  C11 UNL     1     -20.945 -35.060  34.984  1.00  0.00     0.154 C 
BRANCH  22  23
HETATM   23  C12 UNL     1     -20.592 -35.606  36.325  1.00  0.00     0.177 C 
HETATM   24  O4  UNL     1     -19.577 -36.317  36.436  1.00  0.00    -0.648 OA
HETATM   25  O5  UNL     1     -21.390 -35.312  37.404  1.00  0.00    -0.648 OA
ENDBRANCH  22  23
ENDBRANCH   3  22
BRANCH   7  26
HETATM   26  C17 UNL     1     -18.424 -31.566  29.849  1.00  0.00    -0.022 A 
HETATM   27  C18 UNL     1     -17.599 -30.481  29.759  1.00  0.00     0.039 A 
HETATM   28  C19 UNL     1     -17.238 -29.943  28.526  1.00  0.00     0.049 A 
HETATM   29  N3  UNL     1     -16.383 -28.818  28.478  1.00  0.00    -0.102 NA
HETATM   30  C20 UNL     1     -17.719 -30.512  27.366  1.00  0.00     0.053 A 
HETATM   31  C21 UNL     1     -18.552 -31.608  27.432  1.00  0.00     0.049 A 
HETATM   32  N4  UNL     1     -19.054 -32.206  26.230  1.00  0.00    -0.102 NA
HETATM   33  C22 UNL     1     -18.882 -32.105  28.664  1.00  0.00     0.039 A 
ENDBRANCH   7  26
TORSDOF 7
ENDMDL
