MODEL 4
REMARK VINA RESULT: -8.399237293      3.044      7.281
REMARK  7 active torsions:
REMARK  status: ('A' for Active; 'I' for Inactive)
REMARK    1  A    between atoms: O1_2  and  C2_3 
REMARK    2  A    between atoms: C5_6  and  N1_7 
REMARK    3  A    between atoms: C7_11  and  C8_12 
REMARK    4  A    between atoms: C8_12  and  N2_13 
REMARK    5  A    between atoms: C10_15  and  C11_16 
REMARK    6  A    between atoms: C11_16  and  C12_17 
REMARK    7  A    between atoms: C16_23  and  C17_24 
ROOT
HETATM    1  N2  UNL     1     -18.767 -32.117  31.279  1.00  0.00    -0.351 N 
HETATM    2  C9  UNL     1     -17.951 -31.030  31.438  1.00  0.00     0.100 A 
HETATM    3  C10 UNL     1     -17.708 -30.783  32.761  1.00  0.00    -0.020 A 
HETATM    4  C13 UNL     1     -18.416 -31.771  33.441  1.00  0.00    -0.001 A 
HETATM    5  C14 UNL     1     -18.530 -31.973  34.800  1.00  0.00     0.015 A 
HETATM    6  C15 UNL     1     -19.319 -33.018  35.224  1.00  0.00     0.013 A 
HETATM    7  C16 UNL     1     -19.978 -33.843  34.318  1.00  0.00    -0.024 A 
HETATM    8  C23 UNL     1     -19.849 -33.625  32.989  1.00  0.00     0.042 A 
HETATM    9  C24 UNL     1     -19.060 -32.578  32.499  1.00  0.00     0.046 A 
ENDROOT
BRANCH   1  10
HETATM   10  C8  UNL     1     -19.170 -32.664  30.010  1.00  0.00     0.170 C 
BRANCH  10  11
HETATM   11  C7  UNL     1     -18.526 -32.051  28.835  1.00  0.00    -0.004 A 
HETATM   12  C2  UNL     1     -17.498 -32.583  28.111  1.00  0.00     0.076 A 
HETATM   13  C3  UNL     1     -16.907 -31.941  27.016  1.00  0.00     0.040 A 
HETATM   14  C4  UNL     1     -17.395 -30.708  26.656  1.00  0.00     0.039 A 
HETATM   15  C5  UNL     1     -18.432 -30.152  27.373  1.00  0.00     0.103 A 
HETATM   16  C6  UNL     1     -19.001 -30.788  28.441  1.00  0.00     0.047 A 
BRANCH  12  17
HETATM   17  O1  UNL     1     -16.987 -33.834  28.453  1.00  0.00    -0.355 OA
HETATM   18  C1  UNL     1     -15.911 -34.419  27.746  1.00  0.00     0.210 C 
ENDBRANCH  12  17
BRANCH  15  19
HETATM   19  N1  UNL     1     -18.948 -28.861  27.003  1.00  0.00    -0.116 N 
HETATM   20  O2  UNL     1     -18.188 -27.909  26.777  1.00  0.00    -0.532 OA
HETATM   21  O3  UNL     1     -20.296 -28.682  26.899  1.00  0.00    -0.532 OA
ENDBRANCH  15  19
ENDBRANCH  10  11
ENDBRANCH   1  10
BRANCH   3  22
HETATM   22  C11 UNL     1     -16.875 -29.699  33.365  1.00  0.00     0.154 C 
BRANCH  22  23
HETATM   23  C12 UNL     1     -17.065 -28.424  32.618  1.00  0.00     0.177 C 
HETATM   24  O4  UNL     1     -17.801 -27.547  33.104  1.00  0.00    -0.648 OA
HETATM   25  O5  UNL     1     -16.426 -28.245  31.414  1.00  0.00    -0.648 OA
ENDBRANCH  22  23
ENDBRANCH   3  22
BRANCH   7  26
HETATM   26  C17 UNL     1     -20.797 -34.912  34.906  1.00  0.00    -0.022 A 
HETATM   27  C18 UNL     1     -20.750 -35.257  36.226  1.00  0.00     0.039 A 
HETATM   28  C19 UNL     1     -21.550 -36.276  36.739  1.00  0.00     0.049 A 
HETATM   29  N3  UNL     1     -21.470 -36.602  38.112  1.00  0.00    -0.102 NA
HETATM   30  C20 UNL     1     -22.410 -36.955  35.903  1.00  0.00     0.053 A 
HETATM   31  C21 UNL     1     -22.475 -36.624  34.567  1.00  0.00     0.049 A 
HETATM   32  N4  UNL     1     -23.368 -37.324  33.691  1.00  0.00    -0.102 NA
HETATM   33  C22 UNL     1     -21.671 -35.617  34.104  1.00  0.00     0.039 A 
ENDBRANCH   7  26
TORSDOF 7
ENDMDL
