MODEL 13
REMARK VINA RESULT: -7.996082856      3.000      7.025
REMARK  7 active torsions:
REMARK  status: ('A' for Active; 'I' for Inactive)
REMARK    1  A    between atoms: O1_2  and  C2_3 
REMARK    2  A    between atoms: C5_6  and  N1_7 
REMARK    3  A    between atoms: C7_11  and  C8_12 
REMARK    4  A    between atoms: C8_12  and  N2_13 
REMARK    5  A    between atoms: C10_15  and  C11_16 
REMARK    6  A    between atoms: C11_16  and  C12_17 
REMARK    7  A    between atoms: C16_23  and  C17_24 
ROOT
HETATM    1  N2  UNL     1     -18.986 -32.281  31.390  1.00  0.00    -0.351 N 
HETATM    2  C9  UNL     1     -18.180 -31.204  31.640  1.00  0.00     0.100 A 
HETATM    3  C10 UNL     1     -17.997 -31.025  32.983  1.00  0.00    -0.020 A 
HETATM    4  C13 UNL     1     -18.733 -32.045  33.580  1.00  0.00    -0.001 A 
HETATM    5  C14 UNL     1     -18.908 -32.316  34.920  1.00  0.00     0.015 A 
HETATM    6  C15 UNL     1     -19.714 -33.381  35.255  1.00  0.00     0.013 A 
HETATM    7  C16 UNL     1     -20.330 -34.158  34.279  1.00  0.00    -0.024 A 
HETATM    8  C23 UNL     1     -20.142 -33.874  32.970  1.00  0.00     0.042 A 
HETATM    9  C24 UNL     1     -19.333 -32.804  32.570  1.00  0.00     0.046 A 
ENDROOT
BRANCH   1  10
HETATM   10  C8  UNL     1     -19.331 -32.763  30.077  1.00  0.00     0.170 C 
BRANCH  10  11
HETATM   11  C7  UNL     1     -18.602 -32.122  28.968  1.00  0.00    -0.004 A 
HETATM   12  C2  UNL     1     -17.505 -32.623  28.329  1.00  0.00     0.076 A 
HETATM   13  C3  UNL     1     -16.837 -31.955  27.295  1.00  0.00     0.040 A 
HETATM   14  C4  UNL     1     -17.321 -30.729  26.908  1.00  0.00     0.039 A 
HETATM   15  C5  UNL     1     -18.428 -30.204  27.538  1.00  0.00     0.103 A 
HETATM   16  C6  UNL     1     -19.071 -30.866  28.547  1.00  0.00     0.047 A 
BRANCH  12  17
HETATM   17  O1  UNL     1     -16.996 -33.866  28.702  1.00  0.00    -0.355 OA
HETATM   18  C1  UNL     1     -15.837 -34.409  28.100  1.00  0.00     0.210 C 
ENDBRANCH  12  17
BRANCH  15  19
HETATM   19  N1  UNL     1     -18.939 -28.921  27.139  1.00  0.00    -0.116 N 
HETATM   20  O2  UNL     1     -20.152 -28.743  26.958  1.00  0.00    -0.532 OA
HETATM   21  O3  UNL     1     -18.074 -27.882  26.957  1.00  0.00    -0.532 OA
ENDBRANCH  15  19
ENDBRANCH  10  11
ENDBRANCH   1  10
BRANCH   3  22
HETATM   22  C11 UNL     1     -17.193 -29.973  33.679  1.00  0.00     0.154 C 
BRANCH  22  23
HETATM   23  C12 UNL     1     -15.738 -30.251  33.525  1.00  0.00     0.177 C 
HETATM   24  O4  UNL     1     -15.280 -31.321  33.966  1.00  0.00    -0.648 OA
HETATM   25  O5  UNL     1     -14.936 -29.323  32.904  1.00  0.00    -0.648 OA
ENDBRANCH  22  23
ENDBRANCH   3  22
BRANCH   7  26
HETATM   26  C17 UNL     1     -21.174 -35.255  34.774  1.00  0.00    -0.022 A 
HETATM   27  C18 UNL     1     -21.998 -35.992  33.972  1.00  0.00     0.039 A 
HETATM   28  C19 UNL     1     -22.777 -37.025  34.486  1.00  0.00     0.049 A 
HETATM   29  N3  UNL     1     -23.617 -37.763  33.622  1.00  0.00    -0.102 NA
HETATM   30  C20 UNL     1     -22.722 -37.318  35.833  1.00  0.00     0.053 A 
HETATM   31  C21 UNL     1     -21.897 -36.588  36.661  1.00  0.00     0.049 A 
HETATM   32  N4  UNL     1     -21.832 -36.887  38.061  1.00  0.00    -0.102 NA
HETATM   33  C22 UNL     1     -21.148 -35.580  36.115  1.00  0.00     0.039 A 
ENDBRANCH   7  26
TORSDOF 7
ENDMDL
