MODEL 1
REMARK VINA RESULT: -9.014848622      0.000      0.000
REMARK  7 active torsions:
REMARK  status: ('A' for Active; 'I' for Inactive)
REMARK    1  A    between atoms: C4_6  and  C5_7 
REMARK    2  A    between atoms: C5_7  and  O1_8 
REMARK    3  A    between atoms: O1_8  and  P1_9 
REMARK    4  A    between atoms: C6_13  and  C7_14 
REMARK    5  A    between atoms: C7_14  and  N2_15 
REMARK    6  A    between atoms: N2_15  and  C8_17 
REMARK    7  A    between atoms: C11_24  and  O7_25 
ROOT
HETATM    1  C1  UNL     1       5.220  20.784  16.544  1.00  0.00     0.071 C 
HETATM    2  C2  UNL     1       5.514  20.397  15.119  1.00  0.00     0.039 A 
HETATM    3  N1  UNL     1       4.704  20.712  14.117  1.00  0.00    -0.367 N 
ATOM      4  H1  UNL     1       3.844  21.233  14.283  1.00  0.00     0.165 HD
HETATM    5  C3  UNL     1       5.048  20.326  12.883  1.00  0.00     0.098 A 
HETATM    6  C4  UNL     1       6.172  19.636  12.600  1.00  0.00    -0.004 A 
HETATM    7  C6  UNL     1       7.055  19.284  13.635  1.00  0.00     0.024 A 
HETATM    8  C11 UNL     1       6.693  19.683  14.890  1.00  0.00     0.100 A 
ENDROOT
BRANCH   7   9
HETATM    9  C7  UNL     1       8.244  18.536  13.232  1.00  0.00     0.103 C 
BRANCH   9  10
HETATM   10  N2  UNL     1       9.194  18.181  14.206  1.00  0.00    -0.359 N 
ATOM     11  H2  UNL     1       8.927  18.057  15.183  1.00  0.00     0.165 HD
BRANCH  10  12
HETATM   12  C8  UNL     1      10.567  17.997  13.775  1.00  0.00     0.127 A 
HETATM   13  C9  UNL     1      10.992  17.274  12.685  1.00  0.00     0.202 A 
HETATM   14  O5  UNL     1      12.276  17.359  12.650  1.00  0.00    -0.245 OA
HETATM   15  N3  UNL     1      12.741  18.071  13.615  1.00  0.00    -0.224 N 
HETATM   16  C10 UNL     1      11.709  18.496  14.351  1.00  0.00     0.294 A 
ATOM     17  H3  UNL     1      13.726  18.276  13.788  1.00  0.00     0.198 HD
HETATM   18  O6  UNL     1      11.749  19.223  15.389  1.00  0.00    -0.264 OA
ENDBRANCH  10  12
ENDBRANCH   9  10
ENDBRANCH   7   9
BRANCH   6  19
HETATM   19  C5  UNL     1       6.497  19.236  11.207  1.00  0.00     0.223 C 
BRANCH  19  20
HETATM   20  O1  UNL     1       6.031  17.957  10.926  1.00  0.00    -0.278 OA
BRANCH  20  21
HETATM   21  P1  UNL     1       5.274  18.029   9.451  1.00  0.00     0.422 P 
HETATM   22  O2  UNL     1       6.533  17.540   8.749  1.00  0.00    -0.617 OA
HETATM   23  O3  UNL     1       4.441  16.666   8.910  1.00  0.00    -0.617 OA
HETATM   24  O4  UNL     1       5.165  19.429   8.671  1.00  0.00    -0.617 OA
ENDBRANCH  20  21
ENDBRANCH  19  20
ENDBRANCH   6  19
BRANCH   8  25
HETATM   25  O7  UNL     1       7.509  19.376  15.965  1.00  0.00    -0.358 OA
ATOM     26  H7  UNL     1       7.134  18.925  16.712  1.00  0.00     0.217 HD
ENDBRANCH   8  25
TORSDOF 7
ENDMDL
