MODEL 3
REMARK VINA RESULT: -8.055066644      3.799      8.184
REMARK  7 active torsions:
REMARK  status: ('A' for Active; 'I' for Inactive)
REMARK    1  A    between atoms: C4_6  and  C5_7 
REMARK    2  A    between atoms: C5_7  and  O1_8 
REMARK    3  A    between atoms: O1_8  and  P1_9 
REMARK    4  A    between atoms: C6_13  and  C7_14 
REMARK    5  A    between atoms: C7_14  and  N2_15 
REMARK    6  A    between atoms: N2_15  and  C8_17 
REMARK    7  A    between atoms: C11_24  and  O7_25 
ROOT
HETATM    1  C1  UNL     1      12.834  18.159   9.426  1.00  0.00     0.071 C 
HETATM    2  C2  UNL     1      13.094  18.617  10.836  1.00  0.00     0.039 A 
HETATM    3  N1  UNL     1      14.087  19.442  11.141  1.00  0.00    -0.367 N 
ATOM      4  H1  UNL     1      14.714  19.796  10.420  1.00  0.00     0.165 HD
HETATM    5  C3  UNL     1      14.241  19.796  12.423  1.00  0.00     0.098 A 
HETATM    6  C4  UNL     1      13.444  19.362  13.420  1.00  0.00    -0.004 A 
HETATM    7  C6  UNL     1      12.382  18.488  13.136  1.00  0.00     0.024 A 
HETATM    8  C11 UNL     1      12.235  18.133  11.826  1.00  0.00     0.100 A 
ENDROOT
BRANCH   7   9
HETATM    9  C7  UNL     1      11.575  18.071  14.281  1.00  0.00     0.103 C 
BRANCH   9  10
HETATM   10  N2  UNL     1      10.357  17.404  14.056  1.00  0.00    -0.359 N 
ATOM     11  H2  UNL     1      10.332  16.402  13.867  1.00  0.00     0.165 HD
BRANCH  10  12
HETATM   12  C8  UNL     1       9.139  18.191  14.100  1.00  0.00     0.127 A 
HETATM   13  C9  UNL     1       8.576  18.764  15.217  1.00  0.00     0.202 A 
HETATM   14  O5  UNL     1       7.509  19.373  14.834  1.00  0.00    -0.245 OA
HETATM   15  N3  UNL     1       7.312  19.257  13.567  1.00  0.00    -0.224 N 
HETATM   16  C10 UNL     1       8.308  18.523  13.059  1.00  0.00     0.294 A 
ATOM     17  H3  UNL     1       6.532  19.654  13.043  1.00  0.00     0.198 HD
HETATM   18  O6  UNL     1       8.477  18.184  11.849  1.00  0.00    -0.264 OA
ENDBRANCH  10  12
ENDBRANCH   9  10
ENDBRANCH   7   9
BRANCH   6  19
HETATM   19  C5  UNL     1      13.669  19.792  14.824  1.00  0.00     0.223 C 
BRANCH  19  20
HETATM   20  O1  UNL     1      14.971  20.242  15.012  1.00  0.00    -0.278 OA
BRANCH  20  21
HETATM   21  P1  UNL     1      14.873  21.684  15.829  1.00  0.00     0.422 P 
HETATM   22  O2  UNL     1      15.211  22.457  14.561  1.00  0.00    -0.617 OA
HETATM   23  O3  UNL     1      13.379  22.462  15.908  1.00  0.00    -0.617 OA
HETATM   24  O4  UNL     1      16.123  22.203  16.694  1.00  0.00    -0.617 OA
ENDBRANCH  20  21
ENDBRANCH  19  20
ENDBRANCH   6  19
BRANCH   8  25
HETATM   25  O7  UNL     1      11.212  17.275  11.461  1.00  0.00    -0.358 OA
ATOM     26  H7  UNL     1      10.695  16.861  12.143  1.00  0.00     0.217 HD
ENDBRANCH   8  25
TORSDOF 7
ENDMDL
