MODEL 4
REMARK VINA RESULT: -7.988341698      2.874      6.126
REMARK  7 active torsions:
REMARK  status: ('A' for Active; 'I' for Inactive)
REMARK    1  A    between atoms: C4_6  and  C5_7 
REMARK    2  A    between atoms: C5_7  and  O1_8 
REMARK    3  A    between atoms: O1_8  and  P1_9 
REMARK    4  A    between atoms: C6_13  and  C7_14 
REMARK    5  A    between atoms: C7_14  and  N2_15 
REMARK    6  A    between atoms: N2_15  and  C8_17 
REMARK    7  A    between atoms: C11_24  and  O7_25 
ROOT
HETATM    1  C1  UNL     1       5.373  21.148  16.361  1.00  0.00     0.071 C 
HETATM    2  C2  UNL     1       6.544  20.362  15.835  1.00  0.00     0.039 A 
HETATM    3  N1  UNL     1       7.618  20.113  16.571  1.00  0.00    -0.367 N 
ATOM      4  H1  UNL     1       7.686  20.451  17.530  1.00  0.00     0.165 HD
HETATM    5  C3  UNL     1       8.610  19.404  16.019  1.00  0.00     0.098 A 
HETATM    6  C4  UNL     1       8.579  18.929  14.757  1.00  0.00    -0.004 A 
HETATM    7  C6  UNL     1       7.458  19.172  13.947  1.00  0.00     0.024 A 
HETATM    8  C11 UNL     1       6.452  19.896  14.520  1.00  0.00     0.100 A 
ENDROOT
BRANCH   7   9
HETATM    9  C7  UNL     1       7.516  18.619  12.595  1.00  0.00     0.103 C 
BRANCH   9  10
HETATM   10  N2  UNL     1       6.357  18.051  12.036  1.00  0.00    -0.359 N 
ATOM     11  H2  UNL     1       5.840  17.320  12.525  1.00  0.00     0.165 HD
BRANCH  10  12
HETATM   12  C8  UNL     1       5.923  18.539  10.740  1.00  0.00     0.127 A 
HETATM   13  C9  UNL     1       5.859  19.854  10.341  1.00  0.00     0.202 A 
HETATM   14  O5  UNL     1       5.427  19.863   9.130  1.00  0.00    -0.245 OA
HETATM   15  N3  UNL     1       5.199  18.676   8.687  1.00  0.00    -0.224 N 
HETATM   16  C10 UNL     1       5.495  17.808   9.660  1.00  0.00     0.294 A 
ATOM     17  H3  UNL     1       4.854  18.439   7.757  1.00  0.00     0.198 HD
HETATM   18  O6  UNL     1       5.407  16.544   9.620  1.00  0.00    -0.264 OA
ENDBRANCH  10  12
ENDBRANCH   9  10
ENDBRANCH   7   9
BRANCH   6  19
HETATM   19  C5  UNL     1       9.715  18.149  14.203  1.00  0.00     0.223 C 
BRANCH  19  20
HETATM   20  O1  UNL     1      10.729  17.996  15.141  1.00  0.00    -0.278 OA
BRANCH  20  21
HETATM   21  P1  UNL     1      12.136  18.504  14.422  1.00  0.00     0.422 P 
HETATM   22  O2  UNL     1      12.690  17.085  14.440  1.00  0.00    -0.617 OA
HETATM   23  O3  UNL     1      12.218  18.517  12.738  1.00  0.00    -0.617 OA
HETATM   24  O4  UNL     1      13.301  19.161  15.312  1.00  0.00    -0.617 OA
ENDBRANCH  20  21
ENDBRANCH  19  20
ENDBRANCH   6  19
BRANCH   8  25
HETATM   25  O7  UNL     1       5.312  20.179  13.789  1.00  0.00    -0.358 OA
ATOM     26  H7  UNL     1       4.553  20.531  14.239  1.00  0.00     0.217 HD
ENDBRANCH   8  25
TORSDOF 7
ENDMDL
