MODEL 2
REMARK VINA RESULT: -8.104355434      3.500      7.952
REMARK  7 active torsions:
REMARK  status: ('A' for Active; 'I' for Inactive)
REMARK    1  A    between atoms: C4_6  and  C5_7 
REMARK    2  A    between atoms: C5_7  and  O1_8 
REMARK    3  A    between atoms: O1_8  and  P1_9 
REMARK    4  A    between atoms: C6_13  and  C7_14 
REMARK    5  A    between atoms: C7_14  and  N2_15 
REMARK    6  A    between atoms: N2_15  and  C8_17 
REMARK    7  A    between atoms: C11_24  and  O7_25 
ROOT
HETATM    1  C1  UNL     1      12.749  18.271   9.395  1.00  0.00     0.071 C 
HETATM    2  C2  UNL     1      13.067  18.544  10.841  1.00  0.00     0.039 A 
HETATM    3  N1  UNL     1      14.200  19.118  11.221  1.00  0.00    -0.367 N 
ATOM      4  H1  UNL     1      14.902  19.396  10.536  1.00  0.00     0.165 HD
HETATM    5  C3  UNL     1      14.396  19.322  12.529  1.00  0.00     0.098 A 
HETATM    6  C4  UNL     1      13.506  18.977  13.482  1.00  0.00    -0.004 A 
HETATM    7  C6  UNL     1      12.294  18.368  13.118  1.00  0.00     0.024 A 
HETATM    8  C11 UNL     1      12.106  18.164  11.781  1.00  0.00     0.100 A 
ENDROOT
BRANCH   7   9
HETATM    9  C7  UNL     1      11.394  18.029  14.219  1.00  0.00     0.103 C 
BRANCH   9  10
HETATM   10  N2  UNL     1      10.147  17.445  13.932  1.00  0.00    -0.359 N 
ATOM     11  H2  UNL     1      10.079  16.481  13.606  1.00  0.00     0.165 HD
BRANCH  10  12
HETATM   12  C8  UNL     1       8.962  18.261  14.115  1.00  0.00     0.127 A 
HETATM   13  C9  UNL     1       8.538  18.836  15.291  1.00  0.00     0.202 A 
HETATM   14  O5  UNL     1       7.452  19.475  15.032  1.00  0.00    -0.245 OA
HETATM   15  N3  UNL     1       7.116  19.379  13.793  1.00  0.00    -0.224 N 
HETATM   16  C10 UNL     1       8.032  18.626  13.173  1.00  0.00     0.294 A 
ATOM     17  H3  UNL     1       6.295  19.802  13.360  1.00  0.00     0.198 HD
HETATM   18  O6  UNL     1       8.061  18.298  11.949  1.00  0.00    -0.264 OA
ENDBRANCH  10  12
ENDBRANCH   9  10
ENDBRANCH   7   9
BRANCH   6  19
HETATM   19  C5  UNL     1      13.784  19.230  14.919  1.00  0.00     0.223 C 
BRANCH  19  20
HETATM   20  O1  UNL     1      14.271  20.516  15.120  1.00  0.00    -0.278 OA
BRANCH  20  21
HETATM   21  P1  UNL     1      13.271  21.247  16.226  1.00  0.00     0.422 P 
HETATM   22  O2  UNL     1      13.849  20.399  17.351  1.00  0.00    -0.617 OA
HETATM   23  O3  UNL     1      13.814  22.645  16.997  1.00  0.00    -0.617 OA
HETATM   24  O4  UNL     1      11.753  20.749  16.388  1.00  0.00    -0.617 OA
ENDBRANCH  20  21
ENDBRANCH  19  20
ENDBRANCH   6  19
BRANCH   8  25
HETATM   25  O7  UNL     1      10.937  17.569  11.339  1.00  0.00    -0.358 OA
ATOM     26  H7  UNL     1      10.981  16.707  10.943  1.00  0.00     0.217 HD
ENDBRANCH   8  25
TORSDOF 7
ENDMDL
