MODEL 4
REMARK VINA RESULT: -9.333077762      2.337      9.395
REMARK  20 active torsions:
REMARK  status: ('A' for Active; 'I' for Inactive)
REMARK    1  A    between atoms: C2_2  and  C4_4 
REMARK    2  A    between atoms: C4_4  and  C5_5 
REMARK    3  A    between atoms: C5_5  and  C6_6 
REMARK    4  A    between atoms: C6_6  and  C7_7 
REMARK    5  A    between atoms: C7_7  and  C9_9 
REMARK    6  A    between atoms: C9_9  and  C10_10 
REMARK    7  A    between atoms: C10_10  and  C11_11 
REMARK    8  A    between atoms: C11_11  and  C12_12 
REMARK    9  A    between atoms: C12_12  and  C14_14 
REMARK   10  A    between atoms: C14_14  and  C15_15 
REMARK   11  A    between atoms: C15_15  and  C16_16 
REMARK   12  A    between atoms: C16_16  and  C17_17 
REMARK   13  A    between atoms: C17_17  and  C18_18 
REMARK   14  A    between atoms: C18_18  and  C20_20 
REMARK   15  A    between atoms: C20_20  and  C21_21 
REMARK   16  A    between atoms: C21_21  and  C22_22 
REMARK   17  A    between atoms: C22_22  and  C23_23 
REMARK   18  A    between atoms: C23_23  and  C25_25 
REMARK   19  A    between atoms: C25_25  and  C26_26 
REMARK   20  A    between atoms: C26_26  and  C27_27 
ROOT
HETATM    1  C16 UNL     1      93.588   4.935   9.978  1.00  0.00     0.000 C 
ENDROOT
BRANCH   1   2
HETATM    2  C15 UNL     1      92.416   3.990  10.041  1.00  0.00     0.000 C 
BRANCH   2   3
HETATM    3  C14 UNL     1      92.771   2.595  10.446  1.00  0.00     0.004 C 
BRANCH   3   4
HETATM    4  C12 UNL     1      91.541   1.731  10.227  1.00  0.00    -0.019 C 
HETATM    5  C13 UNL     1      92.016   0.299  10.122  1.00  0.00     0.010 C 
BRANCH   4   6
HETATM    6  C11 UNL     1      90.823   2.079   8.963  1.00  0.00     0.004 C 
BRANCH   6   7
HETATM    7  C10 UNL     1      89.525   2.763   9.125  1.00  0.00     0.001 C 
BRANCH   7   8
HETATM    8  C9  UNL     1      88.491   2.114   9.953  1.00  0.00     0.004 C 
BRANCH   8   9
HETATM    9  C7  UNL     1      87.400   1.399   9.145  1.00  0.00    -0.019 C 
HETATM   10  C8  UNL     1      87.298  -0.034   9.501  1.00  0.00     0.010 C 
BRANCH   9  11
HETATM   11  C6  UNL     1      87.520   1.727   7.694  1.00  0.00     0.004 C 
BRANCH  11  12
HETATM   12  C5  UNL     1      86.575   1.170   6.723  1.00  0.00     0.001 C 
BRANCH  12  13
HETATM   13  C4  UNL     1      85.292   1.892   6.602  1.00  0.00     0.004 C 
BRANCH  13  14
HETATM   14  C2  UNL     1      84.146   0.867   6.616  1.00  0.00    -0.023 C 
HETATM   15  C1  UNL     1      83.496   0.913   5.257  1.00  0.00     0.009 C 
HETATM   16  C3  UNL     1      84.651  -0.475   7.010  1.00  0.00     0.009 C 
ENDBRANCH  13  14
ENDBRANCH  12  13
ENDBRANCH  11  12
ENDBRANCH   9  11
ENDBRANCH   8   9
ENDBRANCH   7   8
ENDBRANCH   6   7
ENDBRANCH   4   6
ENDBRANCH   3   4
ENDBRANCH   2   3
ENDBRANCH   1   2
BRANCH   1  17
HETATM   17  C17 UNL     1      93.105   6.309   9.610  1.00  0.00     0.004 C 
BRANCH  17  18
HETATM   18  C18 UNL     1      93.939   6.921   8.494  1.00  0.00    -0.019 C 
HETATM   19  C19 UNL     1      94.108   5.894   7.405  1.00  0.00     0.010 C 
BRANCH  18  20
HETATM   20  C20 UNL     1      93.384   8.219   8.026  1.00  0.00     0.004 C 
BRANCH  20  21
HETATM   21  C21 UNL     1      91.968   8.247   7.658  1.00  0.00     0.001 C 
BRANCH  21  22
HETATM   22  C22 UNL     1      91.398   9.358   6.879  1.00  0.00     0.004 C 
BRANCH  22  23
HETATM   23  C23 UNL     1      90.528  10.352   7.525  1.00  0.00    -0.019 C 
HETATM   24  C24 UNL     1      90.901  10.765   8.924  1.00  0.00     0.010 C 
BRANCH  23  25
HETATM   25  C25 UNL     1      90.604  11.672   6.718  1.00  0.00     0.007 C 
BRANCH  25  26
HETATM   26  C26 UNL     1      89.996  11.572   5.371  1.00  0.00     0.035 C 
BRANCH  26  27
HETATM   27  C27 UNL     1      88.512  11.459   5.328  1.00  0.00     0.156 A 
HETATM   28  O1  UNL     1      87.941  11.950   4.053  1.00  0.00    -0.370 OA
HETATM   29  C28 UNL     1      87.508  12.459   5.374  1.00  0.00     0.080 A 
HETATM   30  C29 UNL     1      87.668  13.923   5.595  1.00  0.00     0.048 C 
HETATM   31  C30 UNL     1      86.065  11.973   5.573  1.00  0.00     0.048 C 
ENDBRANCH  26  27
ENDBRANCH  25  26
ENDBRANCH  23  25
ENDBRANCH  22  23
ENDBRANCH  21  22
ENDBRANCH  20  21
ENDBRANCH  18  20
ENDBRANCH  17  18
ENDBRANCH   1  17
TORSDOF 20
ENDMDL
