MODEL 3
REMARK VINA RESULT: -9.411897757      2.326     10.268
REMARK  20 active torsions:
REMARK  status: ('A' for Active; 'I' for Inactive)
REMARK    1  A    between atoms: C2_2  and  C4_4 
REMARK    2  A    between atoms: C4_4  and  C5_5 
REMARK    3  A    between atoms: C5_5  and  C6_6 
REMARK    4  A    between atoms: C6_6  and  C7_7 
REMARK    5  A    between atoms: C7_7  and  C9_9 
REMARK    6  A    between atoms: C9_9  and  C10_10 
REMARK    7  A    between atoms: C10_10  and  C11_11 
REMARK    8  A    between atoms: C11_11  and  C12_12 
REMARK    9  A    between atoms: C12_12  and  C14_14 
REMARK   10  A    between atoms: C14_14  and  C15_15 
REMARK   11  A    between atoms: C15_15  and  C16_16 
REMARK   12  A    between atoms: C16_16  and  C17_17 
REMARK   13  A    between atoms: C17_17  and  C18_18 
REMARK   14  A    between atoms: C18_18  and  C20_20 
REMARK   15  A    between atoms: C20_20  and  C21_21 
REMARK   16  A    between atoms: C21_21  and  C22_22 
REMARK   17  A    between atoms: C22_22  and  C23_23 
REMARK   18  A    between atoms: C23_23  and  C25_25 
REMARK   19  A    between atoms: C25_25  and  C26_26 
REMARK   20  A    between atoms: C26_26  and  C27_27 
ROOT
HETATM    1  C16 UNL     1      92.260  10.048   5.731  1.00  0.00     0.000 C 
ENDROOT
BRANCH   1   2
HETATM    2  C15 UNL     1      92.371   9.943   7.230  1.00  0.00     0.000 C 
BRANCH   2   3
HETATM    3  C14 UNL     1      91.818   8.678   7.802  1.00  0.00     0.004 C 
BRANCH   3   4
HETATM    4  C12 UNL     1      91.349   8.985   9.214  1.00  0.00    -0.019 C 
HETATM    5  C13 UNL     1      91.097  10.475   9.284  1.00  0.00     0.010 C 
BRANCH   4   6
HETATM    6  C11 UNL     1      92.378   8.637  10.241  1.00  0.00     0.004 C 
BRANCH   6   7
HETATM    7  C10 UNL     1      93.418   7.680   9.813  1.00  0.00     0.001 C 
BRANCH   7   8
HETATM    8  C9  UNL     1      93.145   6.237   9.962  1.00  0.00     0.004 C 
BRANCH   8   9
HETATM    9  C7  UNL     1      94.068   5.337   9.131  1.00  0.00    -0.019 C 
HETATM   10  C8  UNL     1      94.039   5.693   7.695  1.00  0.00     0.010 C 
BRANCH   9  11
HETATM   11  C6  UNL     1      93.853   3.901   9.475  1.00  0.00     0.004 C 
BRANCH  11  12
HETATM   12  C5  UNL     1      92.718   3.495  10.308  1.00  0.00     0.001 C 
BRANCH  12  13
HETATM   13  C4  UNL     1      91.626   2.801   9.596  1.00  0.00     0.004 C 
BRANCH  13  14
HETATM   14  C2  UNL     1      91.310   1.490  10.335  1.00  0.00    -0.023 C 
HETATM   15  C1  UNL     1      89.876   1.144  10.027  1.00  0.00     0.009 C 
HETATM   16  C3  UNL     1      92.290   0.434   9.967  1.00  0.00     0.009 C 
ENDBRANCH  13  14
ENDBRANCH  12  13
ENDBRANCH  11  12
ENDBRANCH   9  11
ENDBRANCH   8   9
ENDBRANCH   7   8
ENDBRANCH   6   7
ENDBRANCH   4   6
ENDBRANCH   3   4
ENDBRANCH   2   3
ENDBRANCH   1   2
BRANCH   1  17
HETATM   17  C17 UNL     1      91.660  11.375   5.363  1.00  0.00     0.004 C 
BRANCH  17  18
HETATM   18  C18 UNL     1      90.149  11.287   5.207  1.00  0.00    -0.019 C 
HETATM   19  C19 UNL     1      89.775   9.847   4.979  1.00  0.00     0.010 C 
BRANCH  18  20
HETATM   20  C20 UNL     1      89.431  11.931   6.340  1.00  0.00     0.004 C 
BRANCH  20  21
HETATM   21  C21 UNL     1      88.074  12.413   6.084  1.00  0.00     0.001 C 
BRANCH  21  22
HETATM   22  C22 UNL     1      87.826  13.635   5.303  1.00  0.00     0.004 C 
BRANCH  22  23
HETATM   23  C23 UNL     1      87.088  13.571   4.032  1.00  0.00    -0.019 C 
HETATM   24  C24 UNL     1      86.760  14.885   3.377  1.00  0.00     0.010 C 
BRANCH  23  25
HETATM   25  C25 UNL     1      87.973  12.847   2.985  1.00  0.00     0.007 C 
BRANCH  25  26
HETATM   26  C26 UNL     1      87.330  11.646   2.404  1.00  0.00     0.035 C 
BRANCH  26  27
HETATM   27  C27 UNL     1      86.433  10.878   3.312  1.00  0.00     0.156 A 
HETATM   28  O1  UNL     1      85.827   9.700   2.649  1.00  0.00    -0.370 OA
HETATM   29  C28 UNL     1      85.022  10.745   3.319  1.00  0.00     0.080 A 
HETATM   30  C29 UNL     1      84.020  11.444   2.468  1.00  0.00     0.048 C 
HETATM   31  C30 UNL     1      84.402  10.084   4.560  1.00  0.00     0.048 C 
ENDBRANCH  26  27
ENDBRANCH  25  26
ENDBRANCH  23  25
ENDBRANCH  22  23
ENDBRANCH  21  22
ENDBRANCH  20  21
ENDBRANCH  18  20
ENDBRANCH  17  18
ENDBRANCH   1  17
TORSDOF 20
ENDMDL
