MODEL 2
REMARK VINA RESULT: -9.491692272      1.085      2.620
REMARK  6 active torsions:
REMARK  status: ('A' for Active; 'I' for Inactive)
REMARK    1  A    between atoms: P1_2  and  C1_5 
REMARK    2  A    between atoms: C1_5  and  O4_6 
REMARK    3  A    between atoms: C1_5  and  C2_8 
REMARK    4  A    between atoms: C1_5  and  P2_26 
REMARK    5  A    between atoms: C6_12  and  C7_13 
REMARK    6  A    between atoms: C11_17  and  C12_18 
ROOT
HETATM    1  C2  UNL     1       0.951  29.582  -6.317  1.00  0.00     0.005 A 
HETATM    2  C3  UNL     1       0.334  28.729  -7.188  1.00  0.00     0.012 A 
HETATM    3  C4  UNL     1       0.972  27.557  -7.530  1.00  0.00     0.002 A 
HETATM    4  C5  UNL     1       2.211  27.220  -7.022  1.00  0.00     0.012 A 
HETATM    5  C6  UNL     1       2.845  28.073  -6.142  1.00  0.00    -0.025 A 
HETATM    6  C19 UNL     1       2.202  29.246  -5.801  1.00  0.00     0.024 A 
ENDROOT
BRANCH   5   7
HETATM    7  C7  UNL     1       4.170  27.748  -5.573  1.00  0.00    -0.025 A 
HETATM    8  C8  UNL     1       5.214  27.397  -6.400  1.00  0.00     0.012 A 
HETATM    9  C9  UNL     1       6.459  27.093  -5.885  1.00  0.00     0.002 A 
HETATM   10  C10 UNL     1       6.635  27.150  -4.514  1.00  0.00     0.012 A 
HETATM   11  C11 UNL     1       5.608  27.500  -3.657  1.00  0.00    -0.025 A 
HETATM   12  C18 UNL     1       4.377  27.797  -4.203  1.00  0.00     0.024 A 
BRANCH  11  13
HETATM   13  C12 UNL     1       5.852  27.547  -2.220  1.00  0.00    -0.026 A 
HETATM   14  C13 UNL     1       6.331  26.396  -1.610  1.00  0.00     0.012 A 
HETATM   15  C14 UNL     1       6.589  26.365  -0.247  1.00  0.00     0.001 A 
HETATM   16  C15 UNL     1       6.366  27.493   0.496  1.00  0.00     0.000 A 
HETATM   17  C16 UNL     1       5.894  28.619  -0.123  1.00  0.00     0.001 A 
HETATM   18  C17 UNL     1       5.626  28.684  -1.476  1.00  0.00     0.012 A 
ENDBRANCH  11  13
ENDBRANCH   5   7
BRANCH   1  19
HETATM   19  C1  UNL     1       0.298  30.870  -5.914  1.00  0.00     0.313 C 
BRANCH  19  20
HETATM   20  P1  UNL     1       1.038  32.259  -6.839  1.00  0.00     0.315 P 
HETATM   21  O1  UNL     1       1.125  31.832  -8.297  1.00  0.00    -0.637 OA
HETATM   22  O2  UNL     1       0.061  33.635  -6.722  1.00  0.00    -0.637 OA
HETATM   23  O3  UNL     1       2.557  32.553  -6.184  1.00  0.00    -0.637 OA
ENDBRANCH  19  20
BRANCH  19  24
HETATM   24  O4  UNL     1      -1.060  30.821  -6.264  1.00  0.00    -0.361 OA
ATOM     25  H4  UNL     1      -1.316  29.906  -6.256  1.00  0.00     0.212 HD
ENDBRANCH  19  24
BRANCH  19  26
HETATM   26  P2  UNL     1       0.378  31.178  -4.154  1.00  0.00     0.315 P 
HETATM   27  O5  UNL     1      -1.013  31.269  -3.524  1.00  0.00    -0.637 OA
HETATM   28  O6  UNL     1       1.236  30.018  -3.303  1.00  0.00    -0.637 OA
HETATM   29  O7  UNL     1       1.111  32.696  -3.864  1.00  0.00    -0.637 OA
ENDBRANCH  19  26
ENDBRANCH   1  19
TORSDOF 6
ENDMDL
