MODEL 1
REMARK VINA RESULT: -9.566668301      0.000      0.000
REMARK  6 active torsions:
REMARK  status: ('A' for Active; 'I' for Inactive)
REMARK    1  A    between atoms: P1_2  and  C1_5 
REMARK    2  A    between atoms: C1_5  and  O4_6 
REMARK    3  A    between atoms: C1_5  and  C2_8 
REMARK    4  A    between atoms: C1_5  and  P2_26 
REMARK    5  A    between atoms: C6_12  and  C7_13 
REMARK    6  A    between atoms: C11_17  and  C12_18 
ROOT
HETATM    1  C2  UNL     1       1.451  29.821  -6.312  1.00  0.00     0.005 A 
HETATM    2  C3  UNL     1       0.702  29.167  -7.248  1.00  0.00     0.012 A 
HETATM    3  C4  UNL     1       1.093  27.908  -7.646  1.00  0.00     0.002 A 
HETATM    4  C5  UNL     1       2.214  27.289  -7.130  1.00  0.00     0.012 A 
HETATM    5  C6  UNL     1       2.980  27.940  -6.184  1.00  0.00    -0.025 A 
HETATM    6  C19 UNL     1       2.585  29.201  -5.787  1.00  0.00     0.024 A 
ENDROOT
BRANCH   5   7
HETATM    7  C7  UNL     1       4.187  27.312  -5.604  1.00  0.00    -0.025 A 
HETATM    8  C8  UNL     1       4.763  26.220  -6.214  1.00  0.00     0.012 A 
HETATM    9  C9  UNL     1       5.892  25.623  -5.687  1.00  0.00     0.002 A 
HETATM   10  C10 UNL     1       6.432  26.149  -4.528  1.00  0.00     0.012 A 
HETATM   11  C11 UNL     1       5.878  27.244  -3.891  1.00  0.00    -0.025 A 
HETATM   12  C18 UNL     1       4.751  27.816  -4.442  1.00  0.00     0.024 A 
BRANCH  11  13
HETATM   13  C12 UNL     1       6.493  27.757  -2.673  1.00  0.00    -0.026 A 
HETATM   14  C13 UNL     1       7.240  28.923  -2.770  1.00  0.00     0.012 A 
HETATM   15  C14 UNL     1       7.854  29.474  -1.654  1.00  0.00     0.001 A 
HETATM   16  C15 UNL     1       7.712  28.849  -0.444  1.00  0.00     0.000 A 
HETATM   17  C16 UNL     1       6.971  27.701  -0.367  1.00  0.00     0.001 A 
HETATM   18  C17 UNL     1       6.348  27.126  -1.457  1.00  0.00     0.012 A 
ENDBRANCH  11  13
ENDBRANCH   5   7
BRANCH   1  19
HETATM   19  C1  UNL     1       1.067  31.194  -5.846  1.00  0.00     0.313 C 
BRANCH  19  20
HETATM   20  P1  UNL     1       0.284  31.097  -4.201  1.00  0.00     0.315 P 
HETATM   21  O1  UNL     1      -0.263  29.685  -4.045  1.00  0.00    -0.637 OA
HETATM   22  O2  UNL     1       1.424  31.386  -2.985  1.00  0.00    -0.637 OA
HETATM   23  O3  UNL     1      -0.939  32.247  -4.152  1.00  0.00    -0.637 OA
ENDBRANCH  19  20
BRANCH  19  24
HETATM   24  O4  UNL     1       2.230  31.966  -5.703  1.00  0.00    -0.361 OA
ATOM     25  H4  UNL     1       2.918  31.526  -6.189  1.00  0.00     0.212 HD
ENDBRANCH  19  24
BRANCH  19  26
HETATM   26  P2  UNL     1       0.001  32.053  -6.997  1.00  0.00     0.315 P 
HETATM   27  O5  UNL     1       0.454  31.868  -8.446  1.00  0.00    -0.637 OA
HETATM   28  O6  UNL     1      -1.605  31.583  -6.912  1.00  0.00    -0.637 OA
HETATM   29  O7  UNL     1       0.073  33.737  -6.707  1.00  0.00    -0.637 OA
ENDBRANCH  19  26
ENDBRANCH   1  19
TORSDOF 6
ENDMDL
