MODEL 3
REMARK VINA RESULT: -9.410205827      4.380      7.216
REMARK  6 active torsions:
REMARK  status: ('A' for Active; 'I' for Inactive)
REMARK    1  A    between atoms: P1_2  and  C1_5 
REMARK    2  A    between atoms: C1_5  and  O4_6 
REMARK    3  A    between atoms: C1_5  and  C2_8 
REMARK    4  A    between atoms: C1_5  and  P2_26 
REMARK    5  A    between atoms: C6_12  and  C7_13 
REMARK    6  A    between atoms: C11_17  and  C12_18 
ROOT
HETATM    1  C2  UNL     1       6.314  27.122  -5.339  1.00  0.00     0.005 A 
HETATM    2  C3  UNL     1       6.974  26.607  -6.418  1.00  0.00     0.012 A 
HETATM    3  C4  UNL     1       6.324  26.561  -7.631  1.00  0.00     0.002 A 
HETATM    4  C5  UNL     1       5.030  27.015  -7.789  1.00  0.00     0.012 A 
HETATM    5  C6  UNL     1       4.351  27.536  -6.706  1.00  0.00    -0.025 A 
HETATM    6  C19 UNL     1       5.006  27.582  -5.492  1.00  0.00     0.024 A 
ENDROOT
BRANCH   5   7
HETATM    7  C7  UNL     1       2.965  28.037  -6.832  1.00  0.00    -0.025 A 
HETATM    8  C8  UNL     1       1.990  27.246  -7.400  1.00  0.00     0.012 A 
HETATM    9  C9  UNL     1       0.691  27.697  -7.524  1.00  0.00     0.002 A 
HETATM   10  C10 UNL     1       0.389  28.965  -7.062  1.00  0.00     0.012 A 
HETATM   11  C11 UNL     1       1.344  29.783  -6.487  1.00  0.00    -0.025 A 
HETATM   12  C18 UNL     1       2.633  29.304  -6.379  1.00  0.00     0.024 A 
BRANCH  11  13
HETATM   13  C12 UNL     1       0.967  31.110  -6.014  1.00  0.00    -0.026 A 
HETATM   14  C13 UNL     1       1.673  32.196  -6.512  1.00  0.00     0.012 A 
HETATM   15  C14 UNL     1       1.372  33.489  -6.112  1.00  0.00     0.001 A 
HETATM   16  C15 UNL     1       0.358  33.685  -5.212  1.00  0.00     0.000 A 
HETATM   17  C16 UNL     1      -0.328  32.603  -4.732  1.00  0.00     0.001 A 
HETATM   18  C17 UNL     1      -0.053  31.303  -5.109  1.00  0.00     0.012 A 
ENDBRANCH  11  13
ENDBRANCH   5   7
BRANCH   1  19
HETATM   19  C1  UNL     1       6.979  27.194  -3.996  1.00  0.00     0.313 C 
BRANCH  19  20
HETATM   20  P1  UNL     1       6.276  25.928  -2.885  1.00  0.00     0.315 P 
HETATM   21  O1  UNL     1       6.870  26.163  -1.504  1.00  0.00    -0.637 OA
HETATM   22  O2  UNL     1       4.594  26.084  -2.799  1.00  0.00    -0.637 OA
HETATM   23  O3  UNL     1       6.701  24.423  -3.498  1.00  0.00    -0.637 OA
ENDBRANCH  19  20
BRANCH  19  24
HETATM   24  O4  UNL     1       8.341  26.898  -4.148  1.00  0.00    -0.361 OA
ATOM     25  H4  UNL     1       8.662  27.422  -4.873  1.00  0.00     0.212 HD
ENDBRANCH  19  24
BRANCH  19  26
HETATM   26  P2  UNL     1       6.871  28.814  -3.246  1.00  0.00     0.315 P 
HETATM   27  O5  UNL     1       6.837  29.930  -4.293  1.00  0.00    -0.637 OA
HETATM   28  O6  UNL     1       5.532  29.015  -2.259  1.00  0.00    -0.637 OA
HETATM   29  O7  UNL     1       8.269  29.111  -2.306  1.00  0.00    -0.637 OA
ENDBRANCH  19  26
ENDBRANCH   1  19
TORSDOF 6
ENDMDL
