MODEL 1
REMARK VINA RESULT: -7.251497014      0.000      0.000
REMARK  8 active torsions:
REMARK  status: ('A' for Active; 'I' for Inactive)
REMARK    1  A    between atoms: N4_10  and  C5_11 
REMARK    2  A    between atoms: C6_13  and  C7_14 
REMARK    3  A    between atoms: C7_14  and  O2_15 
REMARK    4  A    between atoms: O2_15  and  P1_16 
REMARK    5  A    between atoms: P1_16  and  O5_19 
REMARK    6  A    between atoms: O5_19  and  P2_20 
REMARK    7  A    between atoms: C8_24  and  O9_25 
REMARK    8  A    between atoms: C9_27  and  O10_28 
ROOT
HETATM    1  C5  UNL     1      -6.170 -21.226  -4.527  1.00  0.00     0.262 C 
HETATM    2  O1  UNL     1      -7.202 -21.922  -5.156  1.00  0.00    -0.353 OA
HETATM    3  C6  UNL     1      -7.285 -23.164  -4.597  1.00  0.00     0.180 C 
HETATM    4  C8  UNL     1      -6.841 -23.077  -3.161  1.00  0.00     0.182 C 
HETATM    5  C9  UNL     1      -6.226 -21.693  -3.107  1.00  0.00     0.198 C 
ENDROOT
BRANCH   1   6
HETATM    6  N4  UNL     1      -6.507 -19.811  -4.663  1.00  0.00    -0.297 N 
HETATM    7  C2  UNL     1      -6.681 -19.179  -5.851  1.00  0.00     0.146 A 
HETATM    8  N2  UNL     1      -6.604 -19.615  -7.123  1.00  0.00    -0.314 N 
HETATM    9  C3  UNL     1      -6.985 -17.864  -5.536  1.00  0.00     0.146 A 
HETATM   10  C1  UNL     1      -6.830 -18.744  -8.102  1.00  0.00     0.196 A 
ATOM     11  H2  UNL     1      -6.379 -20.588  -7.330  1.00  0.00     0.170 HD
HETATM   12  N1  UNL     1      -6.754 -19.183  -9.448  1.00  0.00    -0.063 NA
HETATM   13  N5  UNL     1      -7.130 -17.453  -7.846  1.00  0.00    -0.295 N 
HETATM   14  C10 UNL     1      -7.214 -16.989  -6.584  1.00  0.00     0.278 A 
ATOM     15  H5  UNL     1      -7.297 -16.816  -8.624  1.00  0.00     0.171 HD
HETATM   16  O11 UNL     1      -7.497 -15.766  -6.343  1.00  0.00    -0.265 OA
HETATM   17  N3  UNL     1      -6.996 -17.704  -4.188  1.00  0.00    -0.345 N 
HETATM   18  C4  UNL     1      -6.700 -18.909  -3.668  1.00  0.00     0.188 A 
ATOM     19  H3  UNL     1      -7.188 -16.844  -3.674  1.00  0.00     0.167 HD
ENDBRANCH   1   6
BRANCH   5  20
HETATM   20  O10 UNL     1      -4.939 -21.866  -2.554  1.00  0.00    -0.388 OA
ATOM     21  H10 UNL     1      -4.838 -21.404  -1.731  1.00  0.00     0.210 HD
ENDBRANCH   5  20
BRANCH   3  22
HETATM   22  C7  UNL     1      -8.676 -23.733  -4.618  1.00  0.00     0.216 C 
BRANCH  22  23
HETATM   23  O2  UNL     1      -8.785 -24.628  -3.556  1.00  0.00    -0.287 OA
BRANCH  23  24
HETATM   24  P1  UNL     1     -10.144 -25.286  -3.227  1.00  0.00     0.418 P 
HETATM   25  O3  UNL     1      -9.494 -25.898  -1.839  1.00  0.00    -0.624 OA
HETATM   26  O4  UNL     1     -10.778 -23.727  -3.170  1.00  0.00    -0.624 OA
BRANCH  24  27
HETATM   27  O5  UNL     1     -11.534 -25.773  -2.785  1.00  0.00    -0.173 OA
BRANCH  27  28
HETATM   28  P2  UNL     1     -12.421 -26.944  -3.238  1.00  0.00     0.431 P 
HETATM   29  O6  UNL     1     -13.067 -28.281  -3.687  1.00  0.00    -0.616 OA
HETATM   30  O7  UNL     1     -11.284 -27.169  -4.441  1.00  0.00    -0.616 OA
HETATM   31  O8  UNL     1     -13.702 -26.008  -3.607  1.00  0.00    -0.616 OA
ENDBRANCH  27  28
ENDBRANCH  24  27
ENDBRANCH  23  24
ENDBRANCH  22  23
ENDBRANCH   3  22
BRANCH   4  32
HETATM   32  O9  UNL     1      -5.888 -24.081  -2.964  1.00  0.00    -0.390 OA
ATOM     33  H9  UNL     1      -5.210 -23.716  -2.409  1.00  0.00     0.210 HD
ENDBRANCH   4  32
TORSDOF 8
ENDMDL
