MODEL 3
REMARK VINA RESULT: -6.905113905      3.461      5.353
REMARK  8 active torsions:
REMARK  status: ('A' for Active; 'I' for Inactive)
REMARK    1  A    between atoms: N4_10  and  C5_11 
REMARK    2  A    between atoms: C6_13  and  C7_14 
REMARK    3  A    between atoms: C7_14  and  O2_15 
REMARK    4  A    between atoms: O2_15  and  P1_16 
REMARK    5  A    between atoms: P1_16  and  O5_19 
REMARK    6  A    between atoms: O5_19  and  P2_20 
REMARK    7  A    between atoms: C8_24  and  O9_25 
REMARK    8  A    between atoms: C9_27  and  O10_28 
ROOT
HETATM    1  C5  UNL     1      -7.631 -22.362  -4.314  1.00  0.00     0.262 C 
HETATM    2  O1  UNL     1      -8.743 -22.418  -3.474  1.00  0.00    -0.353 OA
HETATM    3  C6  UNL     1      -9.715 -23.146  -4.097  1.00  0.00     0.180 C 
HETATM    4  C8  UNL     1      -9.057 -24.166  -4.987  1.00  0.00     0.182 C 
HETATM    5  C9  UNL     1      -7.616 -23.695  -4.991  1.00  0.00     0.198 C 
ENDROOT
BRANCH   1   6
HETATM    6  N4  UNL     1      -6.481 -22.170  -3.434  1.00  0.00    -0.297 N 
HETATM    7  C2  UNL     1      -6.355 -22.736  -2.207  1.00  0.00     0.146 A 
HETATM    8  N2  UNL     1      -7.162 -23.555  -1.506  1.00  0.00    -0.314 N 
HETATM    9  C3  UNL     1      -5.134 -22.303  -1.716  1.00  0.00     0.146 A 
HETATM   10  C1  UNL     1      -6.762 -23.955  -0.303  1.00  0.00     0.196 A 
ATOM     11  H2  UNL     1      -8.057 -23.861  -1.889  1.00  0.00     0.170 HD
HETATM   12  N1  UNL     1      -7.598 -24.818   0.452  1.00  0.00    -0.063 NA
HETATM   13  N5  UNL     1      -5.582 -23.560   0.218  1.00  0.00    -0.295 N 
HETATM   14  C10 UNL     1      -4.754 -22.742  -0.460  1.00  0.00     0.278 A 
ATOM     15  H5  UNL     1      -5.310 -23.889   1.145  1.00  0.00     0.171 HD
HETATM   16  O11 UNL     1      -3.637 -22.368   0.036  1.00  0.00    -0.265 OA
HETATM   17  N3  UNL     1      -4.533 -21.493  -2.625  1.00  0.00    -0.345 N 
HETATM   18  C4  UNL     1      -5.374 -21.422  -3.673  1.00  0.00     0.188 A 
ATOM     19  H3  UNL     1      -3.628 -21.031  -2.532  1.00  0.00     0.167 HD
ENDBRANCH   1   6
BRANCH   5  20
HETATM   20  O10 UNL     1      -7.248 -23.597  -6.350  1.00  0.00    -0.388 OA
ATOM     21  H10 UNL     1      -6.487 -23.043  -6.476  1.00  0.00     0.210 HD
ENDBRANCH   5  20
BRANCH   3  22
HETATM   22  C7  UNL     1     -10.614 -23.877  -3.141  1.00  0.00     0.216 C 
BRANCH  22  23
HETATM   23  O2  UNL     1     -10.511 -25.239  -3.417  1.00  0.00    -0.287 OA
BRANCH  23  24
HETATM   24  P1  UNL     1     -11.771 -26.133  -3.407  1.00  0.00     0.418 P 
HETATM   25  O3  UNL     1     -12.704 -24.794  -3.652  1.00  0.00    -0.624 OA
HETATM   26  O4  UNL     1     -11.127 -26.893  -4.764  1.00  0.00    -0.624 OA
BRANCH  24  27
HETATM   27  O5  UNL     1     -13.009 -27.025  -3.603  1.00  0.00    -0.173 OA
BRANCH  27  28
HETATM   28  P2  UNL     1     -13.678 -28.089  -2.717  1.00  0.00     0.431 P 
HETATM   29  O6  UNL     1     -14.342 -29.329  -2.066  1.00  0.00    -0.616 OA
HETATM   30  O7  UNL     1     -14.795 -28.225  -3.952  1.00  0.00    -0.616 OA
HETATM   31  O8  UNL     1     -14.040 -27.053  -1.514  1.00  0.00    -0.616 OA
ENDBRANCH  27  28
ENDBRANCH  24  27
ENDBRANCH  23  24
ENDBRANCH  22  23
ENDBRANCH   3  22
BRANCH   4  32
HETATM   32  O9  UNL     1      -9.648 -24.053  -6.249  1.00  0.00    -0.390 OA
ATOM     33  H9  UNL     1      -9.990 -24.911  -6.474  1.00  0.00     0.210 HD
ENDBRANCH   4  32
TORSDOF 8
ENDMDL
