MODEL 4
REMARK VINA RESULT: -6.706903174      3.478      5.281
REMARK  8 active torsions:
REMARK  status: ('A' for Active; 'I' for Inactive)
REMARK    1  A    between atoms: N4_10  and  C5_11 
REMARK    2  A    between atoms: C6_13  and  C7_14 
REMARK    3  A    between atoms: C7_14  and  O2_15 
REMARK    4  A    between atoms: O2_15  and  P1_16 
REMARK    5  A    between atoms: P1_16  and  O5_19 
REMARK    6  A    between atoms: O5_19  and  P2_20 
REMARK    7  A    between atoms: C8_24  and  O9_25 
REMARK    8  A    between atoms: C9_27  and  O10_28 
ROOT
HETATM    1  C5  UNL     1      -6.547 -22.209  -4.180  1.00  0.00     0.262 C 
HETATM    2  O1  UNL     1      -7.835 -22.203  -3.648  1.00  0.00    -0.353 OA
HETATM    3  C6  UNL     1      -8.638 -22.951  -4.459  1.00  0.00     0.180 C 
HETATM    4  C8  UNL     1      -7.805 -24.028  -5.100  1.00  0.00     0.182 C 
HETATM    5  C9  UNL     1      -6.397 -23.577  -4.763  1.00  0.00     0.198 C 
ENDROOT
BRANCH   1   6
HETATM    6  N4  UNL     1      -5.651 -21.984  -3.048  1.00  0.00    -0.297 N 
HETATM    7  C2  UNL     1      -5.792 -22.573  -1.834  1.00  0.00     0.146 A 
HETATM    8  N2  UNL     1      -6.699 -23.446  -1.357  1.00  0.00    -0.314 N 
HETATM    9  C3  UNL     1      -4.747 -22.094  -1.059  1.00  0.00     0.146 A 
HETATM   10  C1  UNL     1      -6.577 -23.855  -0.097  1.00  0.00     0.196 A 
ATOM     11  H2  UNL     1      -7.460 -23.785  -1.946  1.00  0.00     0.170 HD
HETATM   12  N1  UNL     1      -7.522 -24.776   0.424  1.00  0.00    -0.063 NA
HETATM   13  N5  UNL     1      -5.577 -23.418   0.696  1.00  0.00    -0.295 N 
HETATM   14  C10 UNL     1      -4.655 -22.545   0.246  1.00  0.00     0.278 A 
ATOM     15  H5  UNL     1      -5.518 -23.756   1.656  1.00  0.00     0.171 HD
HETATM   16  O11 UNL     1      -3.710 -22.131   0.999  1.00  0.00    -0.265 OA
HETATM   17  N3  UNL     1      -3.990 -21.234  -1.788  1.00  0.00    -0.345 N 
HETATM   18  C4  UNL     1      -4.560 -21.178  -3.006  1.00  0.00     0.188 A 
ATOM     19  H3  UNL     1      -3.159 -20.732  -1.476  1.00  0.00     0.167 HD
ENDBRANCH   1   6
BRANCH   5  20
HETATM   20  O10 UNL     1      -5.696 -23.559  -5.988  1.00  0.00    -0.388 OA
ATOM     21  H10 UNL     1      -5.772 -22.723  -6.431  1.00  0.00     0.210 HD
ENDBRANCH   5  20
BRANCH   3  22
HETATM   22  C7  UNL     1      -9.769 -23.615  -3.727  1.00  0.00     0.216 C 
BRANCH  22  23
HETATM   23  O2  UNL     1      -9.533 -24.988  -3.735  1.00  0.00    -0.287 OA
BRANCH  23  24
HETATM   24  P1  UNL     1     -10.700 -25.981  -3.535  1.00  0.00     0.418 P 
HETATM   25  O3  UNL     1     -10.709 -26.272  -5.160  1.00  0.00    -0.624 OA
HETATM   26  O4  UNL     1      -9.642 -26.886  -2.587  1.00  0.00    -0.624 OA
BRANCH  24  27
HETATM   27  O5  UNL     1     -11.716 -27.117  -3.331  1.00  0.00    -0.173 OA
BRANCH  27  28
HETATM   28  P2  UNL     1     -13.169 -27.138  -2.830  1.00  0.00     0.431 P 
HETATM   29  O6  UNL     1     -14.571 -27.432  -2.235  1.00  0.00    -0.616 OA
HETATM   30  O7  UNL     1     -13.298 -28.580  -3.664  1.00  0.00    -0.616 OA
HETATM   31  O8  UNL     1     -13.606 -25.788  -3.630  1.00  0.00    -0.616 OA
ENDBRANCH  27  28
ENDBRANCH  24  27
ENDBRANCH  23  24
ENDBRANCH  22  23
ENDBRANCH   3  22
BRANCH   4  32
HETATM   32  O9  UNL     1      -8.055 -23.977  -6.475  1.00  0.00    -0.390 OA
ATOM     33  H9  UNL     1      -7.221 -23.825  -6.905  1.00  0.00     0.210 HD
ENDBRANCH   4  32
TORSDOF 8
ENDMDL
