MODEL 1
REMARK VINA RESULT: -7.433364451      0.000      0.000
REMARK  1 active torsions:
REMARK  status: ('A' for Active; 'I' for Inactive)
REMARK    1  A    between atoms: C1_2  and  C2_4 
ROOT
HETATM    1  C2  UNL     1      -4.745  17.714  -8.239  1.00  0.00     0.118 A 
HETATM    2  C3  UNL     1      -4.277  17.910  -6.943  1.00  0.00     0.111 A 
HETATM    3  C4  UNL     1      -4.631  19.016  -6.212  1.00  0.00     0.251 A 
HETATM    4  O3  UNL     1      -4.206  19.180  -5.050  1.00  0.00    -0.268 OA
HETATM    5  N1  UNL     1      -5.444  19.932  -6.747  1.00  0.00    -0.275 N 
ATOM      6  H1  UNL     1      -5.714  20.757  -6.212  1.00  0.00     0.173 HD
HETATM    7  C5  UNL     1      -5.902  19.755  -7.996  1.00  0.00     0.327 A 
HETATM    8  O4  UNL     1      -6.671  20.599  -8.531  1.00  0.00    -0.247 OA
HETATM    9  N2  UNL     1      -5.558  18.671  -8.721  1.00  0.00    -0.303 N 
ATOM     10  H2  UNL     1      -5.926  18.573  -9.667  1.00  0.00     0.171 HD
ENDROOT
BRANCH   1  11
HETATM   11  C1  UNL     1      -4.370  16.542  -9.017  1.00  0.00     0.227 C 
HETATM   12  O1  UNL     1      -3.207  16.497  -9.497  1.00  0.00    -0.643 OA
HETATM   13  O2  UNL     1      -5.295  15.540  -9.195  1.00  0.00    -0.643 OA
ENDBRANCH   1  11
TORSDOF 1
ENDMDL
