MODEL 3
REMARK VINA RESULT: -4.920804298      1.622      2.168
REMARK  12 active torsions:
REMARK  status: ('A' for Active; 'I' for Inactive)
REMARK    1  A    between atoms: O1_1  and  C1_3 
REMARK    2  A    between atoms: C1_3  and  C2_4 
REMARK    3  A    between atoms: C3_6  and  O3_7 
REMARK    4  A    between atoms: O3_7  and  C4_8 
REMARK    5  A    between atoms: C5_9  and  C6_10 
REMARK    6  A    between atoms: C6_10  and  O4_11 
REMARK    7  A    between atoms: C7_14  and  O6_15 
REMARK    8  A    between atoms: C8_17  and  O7_18 
REMARK    9  A    between atoms: C9_20  and  O8_21 
REMARK   10  A    between atoms: C10_23  and  O9_24 
REMARK   11  A    between atoms: C11_26  and  O10_27 
REMARK   12  A    between atoms: C12_29  and  O11_30 
ROOT
HETATM    1  O3  UNL     1      57.696  16.937  10.502  1.00  0.00    -0.348 OA
ENDROOT
BRANCH   1   2
HETATM    2  C3  UNL     1      58.109  16.963   9.172  1.00  0.00     0.292 C 
HETATM    3  O2  UNL     1      59.014  15.969   8.875  1.00  0.00    -0.348 OA
HETATM    4  C2  UNL     1      58.888  15.676   7.520  1.00  0.00     0.179 C 
HETATM    5  C12 UNL     1      58.954  16.922   6.665  1.00  0.00     0.180 C 
HETATM    6  C11 UNL     1      59.410  18.125   7.462  1.00  0.00     0.183 C 
HETATM    7  C10 UNL     1      58.661  18.285   8.757  1.00  0.00     0.204 C 
BRANCH   4   8
HETATM    8  C1  UNL     1      59.884  14.631   7.075  1.00  0.00     0.198 C 
BRANCH   8   9
HETATM    9  O1  UNL     1      61.014  14.589   7.880  1.00  0.00    -0.398 OA
ATOM     10  H1  UNL     1      61.764  14.206   7.441  1.00  0.00     0.209 HD
ENDBRANCH   8   9
ENDBRANCH   4   8
BRANCH   5  11
HETATM   11  O11 UNL     1      59.936  16.698   5.691  1.00  0.00    -0.390 OA
ATOM     12  H11 UNL     1      59.873  17.409   5.063  1.00  0.00     0.210 HD
ENDBRANCH   5  11
BRANCH   6  13
HETATM   13  O10 UNL     1      59.146  19.254   6.655  1.00  0.00    -0.390 OA
ATOM     14  H10 UNL     1      59.975  19.592   6.336  1.00  0.00     0.210 HD
ENDBRANCH   6  13
BRANCH   7  15
HETATM   15  O9  UNL     1      59.568  18.800   9.702  1.00  0.00    -0.388 OA
ATOM     16  H9  UNL     1      59.401  19.715   9.896  1.00  0.00     0.210 HD
ENDBRANCH   7  15
ENDBRANCH   1   2
BRANCH   1  17
HETATM   17  C4  UNL     1      56.325  16.884  10.648  1.00  0.00     0.187 C 
HETATM   18  C5  UNL     1      55.837  18.205  11.189  1.00  0.00     0.180 C 
HETATM   19  O5  UNL     1      54.496  18.188  11.535  1.00  0.00    -0.349 OA
HETATM   20  C7  UNL     1      54.175  17.191  12.440  1.00  0.00     0.288 C 
HETATM   21  C8  UNL     1      54.563  15.816  11.947  1.00  0.00     0.204 C 
HETATM   22  C9  UNL     1      56.007  15.731  11.572  1.00  0.00     0.183 C 
BRANCH  18  23
HETATM   23  C6  UNL     1      56.716  18.691  12.329  1.00  0.00     0.198 C 
BRANCH  23  24
HETATM   24  O4  UNL     1      57.633  19.604  11.809  1.00  0.00    -0.398 OA
ATOM     25  H4  UNL     1      57.698  20.333  12.414  1.00  0.00     0.209 HD
ENDBRANCH  23  24
ENDBRANCH  18  23
BRANCH  20  26
HETATM   26  O6  UNL     1      52.790  17.196  12.603  1.00  0.00    -0.369 OA
ATOM     27  H6  UNL     1      52.577  16.562  13.278  1.00  0.00     0.212 HD
ENDBRANCH  20  26
BRANCH  21  28
HETATM   28  O7  UNL     1      54.262  14.908  12.958  1.00  0.00    -0.388 OA
ATOM     29  H7  UNL     1      54.206  15.395  13.771  1.00  0.00     0.210 HD
ENDBRANCH  21  28
BRANCH  22  30
HETATM   30  O8  UNL     1      56.864  15.655  12.648  1.00  0.00    -0.390 OA
ATOM     31  H8  UNL     1      57.777  15.617  12.389  1.00  0.00     0.210 HD
ENDBRANCH  22  30
ENDBRANCH   1  17
TORSDOF 12
ENDMDL
