MODEL 1
REMARK VINA RESULT: -5.484976342      0.000      0.000
REMARK  12 active torsions:
REMARK  status: ('A' for Active; 'I' for Inactive)
REMARK    1  A    between atoms: O1_1  and  C1_3 
REMARK    2  A    between atoms: C1_3  and  C2_4 
REMARK    3  A    between atoms: C3_6  and  O3_7 
REMARK    4  A    between atoms: O3_7  and  C4_8 
REMARK    5  A    between atoms: C5_9  and  C6_10 
REMARK    6  A    between atoms: C6_10  and  O4_11 
REMARK    7  A    between atoms: C7_14  and  O6_15 
REMARK    8  A    between atoms: C8_17  and  O7_18 
REMARK    9  A    between atoms: C9_20  and  O8_21 
REMARK   10  A    between atoms: C10_23  and  O9_24 
REMARK   11  A    between atoms: C11_26  and  O10_27 
REMARK   12  A    between atoms: C12_29  and  O11_30 
ROOT
HETATM    1  O3  UNL     1      56.322  15.491   9.766  1.00  0.00    -0.348 OA
ENDROOT
BRANCH   1   2
HETATM    2  C3  UNL     1      57.198  15.748   8.715  1.00  0.00     0.292 C 
HETATM    3  O2  UNL     1      57.903  14.632   8.322  1.00  0.00    -0.348 OA
HETATM    4  C2  UNL     1      58.232  14.793   6.979  1.00  0.00     0.179 C 
HETATM    5  C12 UNL     1      58.889  16.129   6.715  1.00  0.00     0.180 C 
HETATM    6  C11 UNL     1      59.268  16.830   8.002  1.00  0.00     0.183 C 
HETATM    7  C10 UNL     1      58.144  16.864   9.002  1.00  0.00     0.204 C 
BRANCH   4   8
HETATM    8  C1  UNL     1      59.064  13.642   6.461  1.00  0.00     0.198 C 
BRANCH   8   9
HETATM    9  O1  UNL     1      60.093  13.293   7.324  1.00  0.00    -0.398 OA
ATOM     10  H1  UNL     1      60.863  12.977   6.868  1.00  0.00     0.209 HD
ENDBRANCH   8   9
ENDBRANCH   4   8
BRANCH   5  11
HETATM   11  O11 UNL     1      60.088  15.869   6.038  1.00  0.00    -0.390 OA
ATOM     12  H11 UNL     1      60.605  16.666   6.073  1.00  0.00     0.210 HD
ENDBRANCH   5  11
BRANCH   6  13
HETATM   13  O10 UNL     1      59.584  18.161   7.645  1.00  0.00    -0.390 OA
ATOM     14  H10 UNL     1      59.752  18.651   8.441  1.00  0.00     0.210 HD
ENDBRANCH   6  13
BRANCH   7  15
HETATM   15  O9  UNL     1      58.721  16.754  10.280  1.00  0.00    -0.388 OA
ATOM     16  H9  UNL     1      59.148  15.915  10.409  1.00  0.00     0.210 HD
ENDBRANCH   7  15
ENDBRANCH   1   2
BRANCH   1  17
HETATM   17  C4  UNL     1      55.342  16.451   9.910  1.00  0.00     0.187 C 
HETATM   18  C5  UNL     1      55.447  17.058  11.287  1.00  0.00     0.180 C 
HETATM   19  O5  UNL     1      54.395  17.908  11.587  1.00  0.00    -0.349 OA
HETATM   20  C7  UNL     1      53.153  17.312  11.457  1.00  0.00     0.288 C 
HETATM   21  C8  UNL     1      52.930  16.737  10.077  1.00  0.00     0.204 C 
HETATM   22  C9  UNL     1      54.007  15.784   9.675  1.00  0.00     0.183 C 
BRANCH  18  23
HETATM   23  C6  UNL     1      55.637  15.986  12.347  1.00  0.00     0.198 C 
BRANCH  23  24
HETATM   24  O4  UNL     1      57.006  15.830  12.564  1.00  0.00    -0.398 OA
ATOM     25  H4  UNL     1      57.123  15.379  13.391  1.00  0.00     0.209 HD
ENDBRANCH  23  24
ENDBRANCH  18  23
BRANCH  20  26
HETATM   26  O6  UNL     1      52.186  18.296  11.656  1.00  0.00    -0.369 OA
ATOM     27  H6  UNL     1      52.082  18.768  10.839  1.00  0.00     0.212 HD
ENDBRANCH  20  26
BRANCH  21  28
HETATM   28  O7  UNL     1      51.689  16.105  10.083  1.00  0.00    -0.388 OA
ATOM     29  H7  UNL     1      51.187  16.454   9.356  1.00  0.00     0.210 HD
ENDBRANCH  21  28
BRANCH  22  30
HETATM   30  O8  UNL     1      53.915  14.546  10.273  1.00  0.00    -0.390 OA
ATOM     31  H8  UNL     1      53.426  14.566  11.087  1.00  0.00     0.210 HD
ENDBRANCH  22  30
ENDBRANCH   1  17
TORSDOF 12
ENDMDL
