MODEL 2
REMARK VINA RESULT: -4.931678169      2.843      4.901
REMARK  12 active torsions:
REMARK  status: ('A' for Active; 'I' for Inactive)
REMARK    1  A    between atoms: O1_1  and  C1_3 
REMARK    2  A    between atoms: C1_3  and  C2_4 
REMARK    3  A    between atoms: C3_6  and  O3_7 
REMARK    4  A    between atoms: O3_7  and  C4_8 
REMARK    5  A    between atoms: C5_9  and  C6_10 
REMARK    6  A    between atoms: C6_10  and  O4_11 
REMARK    7  A    between atoms: C7_14  and  O6_15 
REMARK    8  A    between atoms: C8_17  and  O7_18 
REMARK    9  A    between atoms: C9_20  and  O8_21 
REMARK   10  A    between atoms: C10_23  and  O9_24 
REMARK   11  A    between atoms: C11_26  and  O10_27 
REMARK   12  A    between atoms: C12_29  and  O11_30 
ROOT
HETATM    1  O3  UNL     1      59.620  16.454   6.767  1.00  0.00    -0.348 OA
ENDROOT
BRANCH   1   2
HETATM    2  C3  UNL     1      59.422  15.291   6.027  1.00  0.00     0.292 C 
HETATM    3  O2  UNL     1      58.099  14.913   5.972  1.00  0.00    -0.348 OA
HETATM    4  C2  UNL     1      57.915  14.196   4.793  1.00  0.00     0.179 C 
HETATM    5  C12 UNL     1      58.936  13.092   4.638  1.00  0.00     0.180 C 
HETATM    6  C11 UNL     1      59.718  12.869   5.915  1.00  0.00     0.183 C 
HETATM    7  C10 UNL     1      60.251  14.147   6.503  1.00  0.00     0.204 C 
BRANCH   4   8
HETATM    8  C1  UNL     1      56.500  13.681   4.662  1.00  0.00     0.198 C 
BRANCH   8   9
HETATM    9  O1  UNL     1      56.086  13.579   3.341  1.00  0.00    -0.398 OA
ATOM     10  H1  UNL     1      56.191  14.391   2.860  1.00  0.00     0.209 HD
ENDBRANCH   8   9
ENDBRANCH   4   8
BRANCH   5  11
HETATM   11  O11 UNL     1      58.225  11.908   4.398  1.00  0.00    -0.390 OA
ATOM     12  H11 UNL     1      58.393  11.329   5.133  1.00  0.00     0.210 HD
ENDBRANCH   5  11
BRANCH   6  13
HETATM   13  O10 UNL     1      60.814  12.049   5.566  1.00  0.00    -0.390 OA
ATOM     14  H10 UNL     1      61.474  12.594   5.154  1.00  0.00     0.210 HD
ENDBRANCH   6  13
BRANCH   7  15
HETATM   15  O9  UNL     1      60.211  14.009   7.903  1.00  0.00    -0.388 OA
ATOM     16  H9  UNL     1      59.386  13.647   8.203  1.00  0.00     0.210 HD
ENDBRANCH   7  15
ENDBRANCH   1   2
BRANCH   1  17
HETATM   17  C4  UNL     1      58.472  16.921   7.372  1.00  0.00     0.187 C 
HETATM   18  C5  UNL     1      58.447  18.427   7.280  1.00  0.00     0.180 C 
HETATM   19  O5  UNL     1      57.420  18.998   8.013  1.00  0.00    -0.349 OA
HETATM   20  C7  UNL     1      57.430  18.634   9.348  1.00  0.00     0.288 C 
HETATM   21  C8  UNL     1      57.382  17.135   9.539  1.00  0.00     0.204 C 
HETATM   22  C9  UNL     1      58.474  16.432   8.802  1.00  0.00     0.183 C 
BRANCH  18  23
HETATM   23  C6  UNL     1      59.800  19.022   7.631  1.00  0.00     0.198 C 
BRANCH  23  24
HETATM   24  O4  UNL     1      60.607  18.959   6.496  1.00  0.00    -0.398 OA
ATOM     25  H4  UNL     1      60.184  18.389   5.865  1.00  0.00     0.209 HD
ENDBRANCH  23  24
ENDBRANCH  18  23
BRANCH  20  26
HETATM   26  O6  UNL     1      56.284  19.163   9.941  1.00  0.00    -0.369 OA
ATOM     27  H6  UNL     1      56.298  20.103   9.811  1.00  0.00     0.212 HD
ENDBRANCH  20  26
BRANCH  21  28
HETATM   28  O7  UNL     1      57.469  16.884  10.905  1.00  0.00    -0.388 OA
ATOM     29  H7  UNL     1      56.642  16.507  11.180  1.00  0.00     0.210 HD
ENDBRANCH  21  28
BRANCH  22  30
HETATM   30  O8  UNL     1      59.711  16.531   9.399  1.00  0.00    -0.390 OA
ATOM     31  H8  UNL     1      59.897  15.805   9.984  1.00  0.00     0.210 HD
ENDBRANCH  22  30
ENDBRANCH   1  17
TORSDOF 12
ENDMDL
