MODEL 1
REMARK VINA RESULT: -6.586308713      0.000      0.000
REMARK  1 active torsions:
REMARK  status: ('A' for Active; 'I' for Inactive)
REMARK    1  A    between atoms: C1_2  and  C2_4 
ROOT
HETATM    1  C2  UNL     1      12.320  -7.656  -9.291  1.00  0.00     0.093 C 
HETATM    2  C3  UNL     1      11.483  -7.256  -8.073  1.00  0.00     0.020 C 
HETATM    3  C4  UNL     1      10.995  -5.837  -8.356  1.00  0.00     0.042 C 
HETATM    4  C5  UNL     1      10.239  -5.855  -9.653  1.00  0.00    -0.023 A 
HETATM    5  C6  UNL     1      10.399  -6.849 -10.571  1.00  0.00     0.017 A 
HETATM    6  N1  UNL     1       9.591  -6.584 -11.617  1.00  0.00    -0.358 N 
ATOM      7  H1  UNL     1       9.507  -7.165 -12.452  1.00  0.00     0.166 HD
HETATM    8  C7  UNL     1       8.908  -5.436 -11.401  1.00  0.00     0.043 A 
HETATM    9  C8  UNL     1       7.979  -4.764 -12.167  1.00  0.00     0.032 A 
HETATM   10  C9  UNL     1       7.443  -3.596 -11.677  1.00  0.00     0.026 A 
HETATM   11  C10 UNL     1       7.838  -3.112 -10.434  1.00  0.00     0.035 A 
HETATM   12 CL1  UNL     1       7.150  -1.624  -9.820  1.00  0.00    -0.084 Cl
HETATM   13  C11 UNL     1       8.762  -3.804  -9.701  1.00  0.00     0.038 A 
HETATM   14  C12 UNL     1       9.313  -4.977 -10.170  1.00  0.00     0.000 A 
HETATM   15  C13 UNL     1      11.317  -7.995 -10.385  1.00  0.00     0.073 C 
ENDROOT
BRANCH   1  16
HETATM   16  C1  UNL     1      13.167  -8.826  -9.022  1.00  0.00     0.177 C 
HETATM   17  O1  UNL     1      14.368  -8.856  -9.389  1.00  0.00    -0.648 OA
HETATM   18  O2  UNL     1      12.658  -9.923  -8.357  1.00  0.00    -0.648 OA
ENDBRANCH   1  16
TORSDOF 1
ENDMDL
