MODEL 5
REMARK VINA RESULT: -5.495878527      4.604      6.523
REMARK  1 active torsions:
REMARK  status: ('A' for Active; 'I' for Inactive)
REMARK    1  A    between atoms: C1_2  and  C2_4 
ROOT
HETATM    1  C2  UNL     1       9.155  -3.440 -13.280  1.00  0.00     0.093 C 
HETATM    2  C3  UNL     1       9.322  -4.846 -13.862  1.00  0.00     0.020 C 
HETATM    3  C4  UNL     1      10.597  -5.404 -13.234  1.00  0.00     0.042 C 
HETATM    4  C5  UNL     1      10.437  -5.361 -11.741  1.00  0.00    -0.023 A 
HETATM    5  C6  UNL     1       9.530  -4.547 -11.133  1.00  0.00     0.017 A 
HETATM    6  N1  UNL     1       9.627  -4.735  -9.801  1.00  0.00    -0.358 N 
ATOM      7  H1  UNL     1       9.064  -4.253  -9.100  1.00  0.00     0.166 HD
HETATM    8  C7  UNL     1      10.582  -5.656  -9.528  1.00  0.00     0.043 A 
HETATM    9  C8  UNL     1      11.041  -6.175  -8.336  1.00  0.00     0.032 A 
HETATM   10  C9  UNL     1      12.042  -7.118  -8.371  1.00  0.00     0.026 A 
HETATM   11  C10 UNL     1      12.572  -7.531  -9.589  1.00  0.00     0.035 A 
HETATM   12 CL1  UNL     1      13.845  -8.731  -9.621  1.00  0.00    -0.084 Cl
HETATM   13  C11 UNL     1      12.093  -6.995 -10.752  1.00  0.00     0.038 A 
HETATM   14  C12 UNL     1      11.091  -6.049 -10.743  1.00  0.00     0.000 A 
HETATM   15  C13 UNL     1       8.622  -3.639 -11.869  1.00  0.00     0.073 C 
ENDROOT
BRANCH   1  16
HETATM   16  C1  UNL     1       8.205  -2.629 -14.055  1.00  0.00     0.177 C 
HETATM   17  O1  UNL     1       7.619  -1.646 -13.536  1.00  0.00    -0.648 OA
HETATM   18  O2  UNL     1       7.936  -2.932 -15.373  1.00  0.00    -0.648 OA
ENDBRANCH   1  16
TORSDOF 1
ENDMDL
