MODEL 4
REMARK VINA RESULT: -5.533113426      4.621      6.253
REMARK  1 active torsions:
REMARK  status: ('A' for Active; 'I' for Inactive)
REMARK    1  A    between atoms: C1_2  and  C2_4 
ROOT
HETATM    1  C2  UNL     1       8.756  -3.458 -10.499  1.00  0.00     0.093 C 
HETATM    2  C3  UNL     1       8.185  -4.068 -11.781  1.00  0.00     0.020 C 
HETATM    3  C4  UNL     1       9.342  -4.090 -12.778  1.00  0.00     0.042 C 
HETATM    4  C5  UNL     1      10.470  -4.869 -12.164  1.00  0.00    -0.023 A 
HETATM    5  C6  UNL     1      10.561  -5.075 -10.821  1.00  0.00     0.017 A 
HETATM    6  N1  UNL     1      11.672  -5.802 -10.584  1.00  0.00    -0.358 N 
ATOM      7  H1  UNL     1      11.988  -6.103  -9.662  1.00  0.00     0.166 HD
HETATM    8  C7  UNL     1      12.309  -6.073 -11.748  1.00  0.00     0.043 A 
HETATM    9  C8  UNL     1      13.466  -6.772 -12.018  1.00  0.00     0.032 A 
HETATM   10  C9  UNL     1      13.876  -6.884 -13.326  1.00  0.00     0.026 A 
HETATM   11  C10 UNL     1      13.132  -6.301 -14.345  1.00  0.00     0.035 A 
HETATM   12 CL1  UNL     1      13.664  -6.452 -16.006  1.00  0.00    -0.084 Cl
HETATM   13  C11 UNL     1      11.988  -5.616 -14.042  1.00  0.00     0.038 A 
HETATM   14  C12 UNL     1      11.557  -5.489 -12.739  1.00  0.00     0.000 A 
HETATM   15  C13 UNL     1       9.573  -4.563  -9.845  1.00  0.00     0.073 C 
ENDROOT
BRANCH   1  16
HETATM   16  C1  UNL     1       7.699  -3.017  -9.577  1.00  0.00     0.177 C 
HETATM   17  O1  UNL     1       7.640  -3.455  -8.401  1.00  0.00    -0.648 OA
HETATM   18  O2  UNL     1       6.745  -2.109  -9.987  1.00  0.00    -0.648 OA
ENDBRANCH   1  16
TORSDOF 1
ENDMDL
