MODEL 3
REMARK VINA RESULT: -5.628581412      4.372      6.448
REMARK  1 active torsions:
REMARK  status: ('A' for Active; 'I' for Inactive)
REMARK    1  A    between atoms: C1_2  and  C2_4 
ROOT
HETATM    1  C2  UNL     1       9.777  -4.188 -10.213  1.00  0.00     0.093 C 
HETATM    2  C3  UNL     1       9.779  -4.803 -11.614  1.00  0.00     0.020 C 
HETATM    3  C4  UNL     1      11.234  -5.165 -11.904  1.00  0.00     0.042 C 
HETATM    4  C5  UNL     1      11.710  -6.085 -10.817  1.00  0.00    -0.023 A 
HETATM    5  C6  UNL     1      11.087  -6.161  -9.608  1.00  0.00     0.017 A 
HETATM    6  N1  UNL     1      11.744  -7.068  -8.856  1.00  0.00    -0.358 N 
ATOM      7  H1  UNL     1      11.494  -7.327  -7.902  1.00  0.00     0.166 HD
HETATM    8  C7  UNL     1      12.785  -7.584  -9.551  1.00  0.00     0.043 A 
HETATM    9  C8  UNL     1      13.733  -8.528  -9.216  1.00  0.00     0.032 A 
HETATM   10  C9  UNL     1      14.689  -8.859 -10.148  1.00  0.00     0.026 A 
HETATM   11  C10 UNL     1      14.689  -8.250 -11.398  1.00  0.00     0.035 A 
HETATM   12 CL1  UNL     1      15.910  -8.681 -12.576  1.00  0.00    -0.084 Cl
HETATM   13  C11 UNL     1      13.733  -7.319 -11.697  1.00  0.00     0.038 A 
HETATM   14  C12 UNL     1      12.765  -6.970 -10.781  1.00  0.00     0.000 A 
HETATM   15  C13 UNL     1       9.896  -5.359  -9.248  1.00  0.00     0.073 C 
ENDROOT
BRANCH   1  16
HETATM   16  C1  UNL     1       8.538  -3.447  -9.934  1.00  0.00     0.177 C 
HETATM   17  O1  UNL     1       8.470  -2.634  -8.979  1.00  0.00    -0.648 OA
HETATM   18  O2  UNL     1       7.419  -3.632 -10.719  1.00  0.00    -0.648 OA
ENDBRANCH   1  16
TORSDOF 1
ENDMDL
