MODEL 8
REMARK VINA RESULT: -6.018419523      3.626      4.685
REMARK  3 active torsions:
REMARK  status: ('A' for Active; 'I' for Inactive)
REMARK    1  A    between atoms: C1_2  and  C2_4 
REMARK    2  A    between atoms: C2_4  and  N2_5 
REMARK    3  A    between atoms: C13_17  and  C14_18 
ROOT
HETATM    1  N2  UNL     1      12.531  -5.117 -13.127  1.00  0.00    -0.341 N 
HETATM    2  C3  UNL     1      12.220  -5.689 -11.936  1.00  0.00     0.020 A 
HETATM    3  C4  UNL     1      10.999  -5.248 -11.538  1.00  0.00    -0.023 A 
HETATM    4  C5  UNL     1      10.548  -4.369 -12.530  1.00  0.00     0.001 A 
HETATM    5  C6  UNL     1       9.393  -3.657 -12.622  1.00  0.00     0.038 A 
HETATM    6  C7  UNL     1       9.181  -2.840 -13.732  1.00  0.00     0.035 A 
HETATM    7 CL1  UNL     1       7.699  -1.931 -13.841  1.00  0.00    -0.084 Cl
HETATM    8  C8  UNL     1      10.138  -2.769 -14.706  1.00  0.00     0.026 A 
HETATM    9  C9  UNL     1      11.299  -3.499 -14.591  1.00  0.00     0.032 A 
HETATM   10  C10 UNL     1      11.527  -4.318 -13.492  1.00  0.00     0.046 A 
HETATM   11  C11 UNL     1      10.410  -5.718 -10.259  1.00  0.00     0.042 C 
HETATM   12  C12 UNL     1      10.962  -7.068  -9.900  1.00  0.00     0.020 C 
HETATM   13  C13 UNL     1      12.483  -6.927  -9.810  1.00  0.00     0.093 C 
HETATM   14  C15 UNL     1      13.048  -6.644 -11.164  1.00  0.00     0.073 C 
ENDROOT
BRANCH   1  15
HETATM   15  C2  UNL     1      13.741  -5.325 -13.886  1.00  0.00     0.228 C 
BRANCH  15  16
HETATM   16  C1  UNL     1      14.878  -4.563 -13.351  1.00  0.00     0.249 C 
HETATM   17  N1  UNL     1      16.092  -5.254 -13.093  1.00  0.00    -0.061 NA
HETATM   18  O1  UNL     1      14.813  -3.324 -13.112  1.00  0.00    -0.275 OA
ENDBRANCH  15  16
ENDBRANCH   1  15
BRANCH  13  19
HETATM   19  C14 UNL     1      13.045  -8.194  -9.276  1.00  0.00     0.177 C 
HETATM   20  O2  UNL     1      14.087  -8.696  -9.773  1.00  0.00    -0.648 OA
HETATM   21  O3  UNL     1      12.457  -8.862  -8.230  1.00  0.00    -0.648 OA
ENDBRANCH  13  19
TORSDOF 3
ENDMDL
