MODEL 1
REMARK VINA RESULT: -6.711586165      0.000      0.000
REMARK  3 active torsions:
REMARK  status: ('A' for Active; 'I' for Inactive)
REMARK    1  A    between atoms: C1_2  and  C2_4 
REMARK    2  A    between atoms: C2_4  and  N2_5 
REMARK    3  A    between atoms: C13_17  and  C14_18 
ROOT
HETATM    1  N2  UNL     1       8.918  -6.283 -11.422  1.00  0.00    -0.341 N 
HETATM    2  C3  UNL     1      10.001  -6.285 -10.603  1.00  0.00     0.020 A 
HETATM    3  C4  UNL     1      10.011  -5.137  -9.878  1.00  0.00    -0.023 A 
HETATM    4  C5  UNL     1       8.885  -4.405 -10.271  1.00  0.00     0.001 A 
HETATM    5  C6  UNL     1       8.429  -3.193  -9.857  1.00  0.00     0.038 A 
HETATM    6  C7  UNL     1       7.261  -2.675 -10.417  1.00  0.00     0.035 A 
HETATM    7 CL1  UNL     1       6.685  -1.120  -9.880  1.00  0.00    -0.084 Cl
HETATM    8  C8  UNL     1       6.597  -3.395 -11.371  1.00  0.00     0.026 A 
HETATM    9  C9  UNL     1       7.078  -4.619 -11.774  1.00  0.00     0.032 A 
HETATM   10  C10 UNL     1       8.239  -5.151 -11.227  1.00  0.00     0.046 A 
HETATM   11  C11 UNL     1      11.094  -4.878  -8.896  1.00  0.00     0.042 C 
HETATM   12  C12 UNL     1      11.669  -6.175  -8.404  1.00  0.00     0.020 C 
HETATM   13  C13 UNL     1      12.180  -6.938  -9.629  1.00  0.00     0.093 C 
HETATM   14  C15 UNL     1      11.029  -7.345 -10.490  1.00  0.00     0.073 C 
ENDROOT
BRANCH   1  15
HETATM   15  C2  UNL     1       8.548  -7.321 -12.352  1.00  0.00     0.228 C 
BRANCH  15  16
HETATM   16  C1  UNL     1       7.621  -8.298 -11.765  1.00  0.00     0.249 C 
HETATM   17  N1  UNL     1       6.252  -8.242 -12.142  1.00  0.00    -0.061 NA
HETATM   18  O1  UNL     1       7.996  -9.181 -10.942  1.00  0.00    -0.275 OA
ENDBRANCH  15  16
ENDBRANCH   1  15
BRANCH  13  19
HETATM   19  C14 UNL     1      12.921  -8.138  -9.163  1.00  0.00     0.177 C 
HETATM   20  O2  UNL     1      12.459  -8.863  -8.244  1.00  0.00    -0.648 OA
HETATM   21  O3  UNL     1      14.128  -8.501  -9.710  1.00  0.00    -0.648 OA
ENDBRANCH  13  19
TORSDOF 3
ENDMDL
