MODEL 3
REMARK VINA RESULT: -6.488611144      4.843      6.960
REMARK  3 active torsions:
REMARK  status: ('A' for Active; 'I' for Inactive)
REMARK    1  A    between atoms: C1_2  and  C2_4 
REMARK    2  A    between atoms: C2_4  and  N2_5 
REMARK    3  A    between atoms: C13_17  and  C14_18 
ROOT
HETATM    1  N2  UNL     1       8.387  -3.652 -11.572  1.00  0.00    -0.341 N 
HETATM    2  C3  UNL     1       8.663  -3.143 -12.800  1.00  0.00     0.020 A 
HETATM    3  C4  UNL     1       9.874  -3.599 -13.209  1.00  0.00    -0.023 A 
HETATM    4  C5  UNL     1      10.358  -4.423 -12.185  1.00  0.00     0.001 A 
HETATM    5  C6  UNL     1      11.519  -5.124 -12.087  1.00  0.00     0.038 A 
HETATM    6  C7  UNL     1      11.766  -5.880 -10.942  1.00  0.00     0.035 A 
HETATM    7 CL1  UNL     1      13.256  -6.775 -10.826  1.00  0.00    -0.084 Cl
HETATM    8  C8  UNL     1      10.838  -5.902  -9.938  1.00  0.00     0.026 A 
HETATM    9  C9  UNL     1       9.670  -5.184 -10.059  1.00  0.00     0.032 A 
HETATM   10  C10 UNL     1       9.407  -4.425 -11.193  1.00  0.00     0.046 A 
HETATM   11  C11 UNL     1      10.424  -3.196 -14.526  1.00  0.00     0.042 C 
HETATM   12  C12 UNL     1       9.307  -2.849 -15.470  1.00  0.00     0.020 C 
HETATM   13  C13 UNL     1       8.499  -1.723 -14.820  1.00  0.00     0.093 C 
HETATM   14  C15 UNL     1       7.807  -2.234 -13.598  1.00  0.00     0.073 C 
ENDROOT
BRANCH   1  15
HETATM   15  C2  UNL     1       7.199  -3.408 -10.791  1.00  0.00     0.228 C 
BRANCH  15  16
HETATM   16  C1  UNL     1       7.320  -2.214  -9.942  1.00  0.00     0.249 C 
HETATM   17  N1  UNL     1       6.418  -1.138 -10.159  1.00  0.00    -0.061 NA
HETATM   18  O1  UNL     1       8.191  -2.112  -9.033  1.00  0.00    -0.275 OA
ENDBRANCH  15  16
ENDBRANCH   1  15
BRANCH  13  19
HETATM   19  C14 UNL     1       7.502  -1.228 -15.803  1.00  0.00     0.177 C 
HETATM   20  O2  UNL     1       6.684  -2.018 -16.344  1.00  0.00    -0.648 OA
HETATM   21  O3  UNL     1       7.433   0.097 -16.159  1.00  0.00    -0.648 OA
ENDBRANCH  13  19
TORSDOF 3
ENDMDL
