MODEL 6
REMARK VINA RESULT: -6.152865492      4.816      6.924
REMARK  3 active torsions:
REMARK  status: ('A' for Active; 'I' for Inactive)
REMARK    1  A    between atoms: C1_2  and  C2_4 
REMARK    2  A    between atoms: C2_4  and  N2_5 
REMARK    3  A    between atoms: C13_17  and  C14_18 
ROOT
HETATM    1  N2  UNL     1       9.504  -4.422 -11.709  1.00  0.00    -0.341 N 
HETATM    2  C3  UNL     1       9.511  -3.756 -12.891  1.00  0.00     0.020 A 
HETATM    3  C4  UNL     1      10.682  -4.002 -13.533  1.00  0.00    -0.023 A 
HETATM    4  C5  UNL     1      11.421  -4.855 -12.704  1.00  0.00     0.001 A 
HETATM    5  C6  UNL     1      12.655  -5.401 -12.872  1.00  0.00     0.038 A 
HETATM    6  C7  UNL     1      13.174  -6.233 -11.880  1.00  0.00     0.035 A 
HETATM    7 CL1  UNL     1      14.756  -6.928 -12.103  1.00  0.00    -0.084 Cl
HETATM    8  C8  UNL     1      12.434  -6.483 -10.757  1.00  0.00     0.026 A 
HETATM    9  C9  UNL     1      11.188  -5.919 -10.610  1.00  0.00     0.032 A 
HETATM   10  C10 UNL     1      10.654  -5.088 -11.588  1.00  0.00     0.046 A 
HETATM   11  C11 UNL     1      10.956  -3.394 -14.858  1.00  0.00     0.042 C 
HETATM   12  C12 UNL     1       9.666  -3.102 -15.571  1.00  0.00     0.020 C 
HETATM   13  C13 UNL     1       8.852  -2.168 -14.671  1.00  0.00     0.093 C 
HETATM   14  C15 UNL     1       8.437  -2.892 -13.432  1.00  0.00     0.073 C 
ENDROOT
BRANCH   1  15
HETATM   15  C2  UNL     1       8.442  -4.422 -10.733  1.00  0.00     0.228 C 
BRANCH  15  16
HETATM   16  C1  UNL     1       8.602  -3.361  -9.729  1.00  0.00     0.249 C 
HETATM   17  N1  UNL     1       7.452  -2.927  -9.016  1.00  0.00    -0.061 NA
HETATM   18  O1  UNL     1       9.718  -2.824  -9.479  1.00  0.00    -0.275 OA
ENDBRANCH  15  16
ENDBRANCH   1  15
BRANCH  13  19
HETATM   19  C14 UNL     1       7.656  -1.711 -15.423  1.00  0.00     0.177 C 
HETATM   20  O2  UNL     1       6.955  -2.528 -16.075  1.00  0.00    -0.648 OA
HETATM   21  O3  UNL     1       7.270  -0.393 -15.437  1.00  0.00    -0.648 OA
ENDBRANCH  13  19
TORSDOF 3
ENDMDL
