MODEL 1
REMARK VINA RESULT: -6.948201270      0.000      0.000
REMARK  5 active torsions:
REMARK  status: ('A' for Active; 'I' for Inactive)
REMARK    1  A    between atoms: C1_2  and  C2_4 
REMARK    2  A    between atoms: C2_4  and  N1_5 
REMARK       I    between atoms: N1_5  and  C3_7 
REMARK    3  A    between atoms: C3_7  and  C4_9 
REMARK    4  A    between atoms: C4_9  and  N2_10 
REMARK    5  A    between atoms: C15_22  and  C16_23 
ROOT
HETATM    1  N2  UNL     1     -29.309  -5.377 -11.327  1.00  0.00    -0.340 N 
HETATM    2  C5  UNL     1     -28.229  -6.091 -10.995  1.00  0.00     0.020 A 
HETATM    3  C6  UNL     1     -27.330  -6.046 -12.027  1.00  0.00    -0.023 A 
HETATM    4  C7  UNL     1     -27.924  -5.276 -12.993  1.00  0.00     0.000 A 
HETATM    5  C8  UNL     1     -27.500  -4.962 -14.290  1.00  0.00     0.033 A 
HETATM    6  C9  UNL     1     -28.325  -4.250 -15.116  1.00  0.00     0.011 A 
HETATM    7 BR1  UNL     1     -27.779  -3.815 -16.913  1.00  0.00    -0.051 Br
HETATM    8  C10 UNL     1     -29.554  -3.862 -14.654  1.00  0.00     0.021 A 
HETATM    9  C11 UNL     1     -29.991  -4.147 -13.396  1.00  0.00     0.032 A 
HETATM   10  C12 UNL     1     -29.134  -4.870 -12.577  1.00  0.00     0.046 A 
HETATM   11  C13 UNL     1     -26.020  -6.715 -12.028  1.00  0.00     0.042 C 
HETATM   12  C14 UNL     1     -25.824  -7.542 -10.748  1.00  0.00     0.020 C 
HETATM   13  C15 UNL     1     -27.181  -8.149 -10.478  1.00  0.00     0.093 C 
HETATM   14  C17 UNL     1     -27.966  -7.009  -9.802  1.00  0.00     0.073 C 
ENDROOT
BRANCH   1  15
HETATM   15  C4  UNL     1     -30.448  -5.213 -10.507  1.00  0.00     0.231 C 
BRANCH  15  16
HETATM   16  C3  UNL     1     -30.764  -3.889  -9.938  1.00  0.00     0.236 C 
HETATM   17  N1  UNL     1     -32.087  -3.445  -9.977  1.00  0.00    -0.350 N 
ATOM     18  H1  UNL     1     -32.766  -4.113 -10.343  1.00  0.00     0.163 HD
HETATM   19  O3  UNL     1     -29.878  -3.144  -9.430  1.00  0.00    -0.272 OA
BRANCH  17  20
HETATM   20  C2  UNL     1     -32.628  -2.156  -9.564  1.00  0.00     0.235 C 
BRANCH  20  21
HETATM   21  C1  UNL     1     -33.434  -1.700 -10.774  1.00  0.00     0.191 C 
HETATM   22  O1  UNL     1     -33.095  -2.036 -11.920  1.00  0.00    -0.647 OA
HETATM   23  O2  UNL     1     -34.589  -0.907 -10.625  1.00  0.00    -0.647 OA
ENDBRANCH  20  21
ENDBRANCH  17  20
ENDBRANCH  15  16
ENDBRANCH   1  15
BRANCH  13  24
HETATM   24  C16 UNL     1     -27.194  -9.406  -9.771  1.00  0.00     0.177 C 
HETATM   25  O4  UNL     1     -27.398  -9.468  -8.500  1.00  0.00    -0.648 OA
HETATM   26  O5  UNL     1     -26.995 -10.626 -10.375  1.00  0.00    -0.648 OA
ENDBRANCH  13  24
TORSDOF 5
ENDMDL
