MODEL 7
REMARK VINA RESULT: -6.060605460      3.855      5.155
REMARK  5 active torsions:
REMARK  status: ('A' for Active; 'I' for Inactive)
REMARK    1  A    between atoms: C1_2  and  C2_4 
REMARK    2  A    between atoms: C2_4  and  N1_5 
REMARK       I    between atoms: N1_5  and  C3_7 
REMARK    3  A    between atoms: C3_7  and  C4_9 
REMARK    4  A    between atoms: C4_9  and  N2_10 
REMARK    5  A    between atoms: C15_22  and  C16_23 
ROOT
HETATM    1  N2  UNL     1     -31.445  -7.025 -11.873  1.00  0.00    -0.340 N 
HETATM    2  C5  UNL     1     -30.606  -6.718 -10.879  1.00  0.00     0.020 A 
HETATM    3  C6  UNL     1     -30.380  -5.367 -10.887  1.00  0.00    -0.023 A 
HETATM    4  C7  UNL     1     -31.120  -4.881 -11.934  1.00  0.00     0.000 A 
HETATM    5  C8  UNL     1     -31.206  -3.586 -12.459  1.00  0.00     0.033 A 
HETATM    6  C9  UNL     1     -31.944  -3.364 -13.589  1.00  0.00     0.011 A 
HETATM    7 BR1  UNL     1     -32.070  -1.596 -14.348  1.00  0.00    -0.051 Br
HETATM    8  C10 UNL     1     -32.582  -4.419 -14.185  1.00  0.00     0.021 A 
HETATM    9  C11 UNL     1     -32.522  -5.687 -13.692  1.00  0.00     0.032 A 
HETATM   10  C12 UNL     1     -31.767  -5.886 -12.544  1.00  0.00     0.046 A 
HETATM   11  C13 UNL     1     -29.507  -4.657  -9.940  1.00  0.00     0.042 C 
HETATM   12  C14 UNL     1     -28.814  -5.642  -8.986  1.00  0.00     0.020 C 
HETATM   13  C15 UNL     1     -28.476  -6.833  -9.852  1.00  0.00     0.093 C 
HETATM   14  C17 UNL     1     -29.802  -7.614  -9.937  1.00  0.00     0.073 C 
ENDROOT
BRANCH   1  15
HETATM   15  C4  UNL     1     -31.891  -8.331 -12.174  1.00  0.00     0.231 C 
BRANCH  15  16
HETATM   16  C3  UNL     1     -33.206  -8.793 -11.692  1.00  0.00     0.236 C 
HETATM   17  N1  UNL     1     -33.361  -9.059 -10.330  1.00  0.00    -0.350 N 
ATOM     18  H1  UNL     1     -32.555  -8.845  -9.744  1.00  0.00     0.163 HD
HETATM   19  O3  UNL     1     -34.187  -8.967 -12.471  1.00  0.00    -0.272 OA
BRANCH  17  20
HETATM   20  C2  UNL     1     -34.521  -9.603  -9.635  1.00  0.00     0.235 C 
BRANCH  20  21
HETATM   21  C1  UNL     1     -33.916 -10.350  -8.454  1.00  0.00     0.191 C 
HETATM   22  O1  UNL     1     -33.319 -11.425  -8.627  1.00  0.00    -0.647 OA
HETATM   23  O2  UNL     1     -34.000  -9.837  -7.144  1.00  0.00    -0.647 OA
ENDBRANCH  20  21
ENDBRANCH  17  20
ENDBRANCH  15  16
ENDBRANCH   1  15
BRANCH  13  24
HETATM   24  C16 UNL     1     -27.330  -7.613  -9.455  1.00  0.00     0.177 C 
HETATM   25  O4  UNL     1     -26.184  -7.477 -10.028  1.00  0.00    -0.648 OA
HETATM   26  O5  UNL     1     -27.355  -8.551  -8.448  1.00  0.00    -0.648 OA
ENDBRANCH  13  24
TORSDOF 5
ENDMDL
