MODEL 3
REMARK VINA RESULT: -6.503166065      1.770      6.307
REMARK  5 active torsions:
REMARK  status: ('A' for Active; 'I' for Inactive)
REMARK    1  A    between atoms: C1_2  and  C2_4 
REMARK    2  A    between atoms: C2_4  and  N1_5 
REMARK       I    between atoms: N1_5  and  C3_7 
REMARK    3  A    between atoms: C3_7  and  C4_9 
REMARK    4  A    between atoms: C4_9  and  N2_10 
REMARK    5  A    between atoms: C15_22  and  C16_23 
ROOT
HETATM    1  N2  UNL     1     -29.051  -4.532 -12.542  1.00  0.00    -0.340 N 
HETATM    2  C5  UNL     1     -30.327  -4.323 -12.205  1.00  0.00     0.020 A 
HETATM    3  C6  UNL     1     -31.020  -3.913 -13.314  1.00  0.00    -0.023 A 
HETATM    4  C7  UNL     1     -30.097  -3.883 -14.328  1.00  0.00     0.000 A 
HETATM    5  C8  UNL     1     -30.224  -3.462 -15.657  1.00  0.00     0.033 A 
HETATM    6  C9  UNL     1     -29.119  -3.428 -16.462  1.00  0.00     0.011 A 
HETATM    7 BR1  UNL     1     -29.256  -2.837 -18.293  1.00  0.00    -0.051 Br
HETATM    8  C10 UNL     1     -27.909  -3.805 -15.947  1.00  0.00     0.021 A 
HETATM    9  C11 UNL     1     -27.756  -4.226 -14.661  1.00  0.00     0.032 A 
HETATM   10  C12 UNL     1     -28.893  -4.252 -13.864  1.00  0.00     0.046 A 
HETATM   11  C13 UNL     1     -32.454  -3.586 -13.335  1.00  0.00     0.042 C 
HETATM   12  C14 UNL     1     -33.061  -3.687 -11.927  1.00  0.00     0.020 C 
HETATM   13  C15 UNL     1     -31.991  -3.133 -11.013  1.00  0.00     0.093 C 
HETATM   14  C17 UNL     1     -31.012  -4.310 -10.839  1.00  0.00     0.073 C 
ENDROOT
BRANCH   1  15
HETATM   15  C4  UNL     1     -28.042  -4.950 -11.646  1.00  0.00     0.231 C 
BRANCH  15  16
HETATM   16  C3  UNL     1     -27.592  -6.354 -11.641  1.00  0.00     0.236 C 
HETATM   17  N1  UNL     1     -28.261  -7.266 -10.823  1.00  0.00    -0.350 N 
ATOM     18  H1  UNL     1     -29.074  -6.901 -10.327  1.00  0.00     0.163 HD
HETATM   19  O3  UNL     1     -26.619  -6.753 -12.343  1.00  0.00    -0.272 OA
BRANCH  17  20
HETATM   20  C2  UNL     1     -27.953  -8.670 -10.581  1.00  0.00     0.235 C 
BRANCH  20  21
HETATM   21  C1  UNL     1     -27.054  -8.635  -9.352  1.00  0.00     0.191 C 
HETATM   22  O1  UNL     1     -27.443  -9.110  -8.273  1.00  0.00    -0.647 OA
HETATM   23  O2  UNL     1     -25.757  -8.085  -9.411  1.00  0.00    -0.647 OA
ENDBRANCH  20  21
ENDBRANCH  17  20
ENDBRANCH  15  16
ENDBRANCH   1  15
BRANCH  13  24
HETATM   24  C16 UNL     1     -32.445  -2.526  -9.786  1.00  0.00     0.177 C 
HETATM   25  O4  UNL     1     -32.426  -3.163  -8.666  1.00  0.00    -0.648 OA
HETATM   26  O5  UNL     1     -32.926  -1.240  -9.701  1.00  0.00    -0.648 OA
ENDBRANCH  13  24
TORSDOF 5
ENDMDL
