MODEL 2
REMARK VINA RESULT: -6.609098622      1.576      6.396
REMARK  5 active torsions:
REMARK  status: ('A' for Active; 'I' for Inactive)
REMARK    1  A    between atoms: C1_2  and  C2_4 
REMARK    2  A    between atoms: C2_4  and  N1_5 
REMARK       I    between atoms: N1_5  and  C3_7 
REMARK    3  A    between atoms: C3_7  and  C4_9 
REMARK    4  A    between atoms: C4_9  and  N2_10 
REMARK    5  A    between atoms: C15_22  and  C16_23 
ROOT
HETATM    1  N2  UNL     1     -28.930  -5.025 -11.884  1.00  0.00    -0.340 N 
HETATM    2  C5  UNL     1     -30.193  -4.590 -11.872  1.00  0.00     0.020 A 
HETATM    3  C6  UNL     1     -30.494  -4.059 -13.099  1.00  0.00    -0.023 A 
HETATM    4  C7  UNL     1     -29.350  -4.195 -13.842  1.00  0.00     0.000 A 
HETATM    5  C8  UNL     1     -29.054  -3.755 -15.138  1.00  0.00     0.033 A 
HETATM    6  C9  UNL     1     -27.791  -3.920 -15.635  1.00  0.00     0.011 A 
HETATM    7 BR1  UNL     1     -27.346  -3.310 -17.409  1.00  0.00    -0.051 Br
HETATM    8  C10 UNL     1     -26.839  -4.511 -14.848  1.00  0.00     0.021 A 
HETATM    9  C11 UNL     1     -27.099  -4.955 -13.587  1.00  0.00     0.032 A 
HETATM   10  C12 UNL     1     -28.390  -4.776 -13.107  1.00  0.00     0.046 A 
HETATM   11  C13 UNL     1     -31.794  -3.478 -13.466  1.00  0.00     0.042 C 
HETATM   12  C14 UNL     1     -32.752  -3.470 -12.265  1.00  0.00     0.020 C 
HETATM   13  C15 UNL     1     -31.875  -3.121 -11.084  1.00  0.00     0.093 C 
HETATM   14  C17 UNL     1     -31.194  -4.456 -10.725  1.00  0.00     0.073 C 
ENDROOT
BRANCH   1  15
HETATM   15  C4  UNL     1     -28.275  -5.621 -10.782  1.00  0.00     0.231 C 
BRANCH  15  16
HETATM   16  C3  UNL     1     -28.594  -7.007 -10.393  1.00  0.00     0.236 C 
HETATM   17  N1  UNL     1     -28.184  -8.046 -11.230  1.00  0.00    -0.350 N 
ATOM     18  H1  UNL     1     -27.621  -7.769 -12.035  1.00  0.00     0.163 HD
HETATM   19  O3  UNL     1     -29.234  -7.281  -9.338  1.00  0.00    -0.272 OA
BRANCH  17  20
HETATM   20  C2  UNL     1     -28.452  -9.473 -11.109  1.00  0.00     0.235 C 
BRANCH  20  21
HETATM   21  C1  UNL     1     -27.303  -9.985 -10.250  1.00  0.00     0.191 C 
HETATM   22  O1  UNL     1     -27.422 -10.055  -9.016  1.00  0.00    -0.647 OA
HETATM   23  O2  UNL     1     -26.089 -10.406 -10.829  1.00  0.00    -0.647 OA
ENDBRANCH  20  21
ENDBRANCH  17  20
ENDBRANCH  15  16
ENDBRANCH   1  15
BRANCH  13  24
HETATM   24  C16 UNL     1     -32.517  -2.445  -9.984  1.00  0.00     0.177 C 
HETATM   25  O4  UNL     1     -32.391  -2.854  -8.769  1.00  0.00    -0.648 OA
HETATM   26  O5  UNL     1     -33.302  -1.324 -10.129  1.00  0.00    -0.648 OA
ENDBRANCH  13  24
TORSDOF 5
ENDMDL
