MODEL 5
REMARK VINA RESULT: -4.202067260      1.583      2.294
REMARK  6 active torsions:
REMARK  status: ('A' for Active; 'I' for Inactive)
REMARK       I    between atoms: C2_2  and  N1_4 
REMARK    1  A    between atoms: N1_4  and  C3_6 
REMARK    2  A    between atoms: C4_7  and  O2_8 
REMARK    3  A    between atoms: C5_11  and  C6_12 
REMARK    4  A    between atoms: C6_12  and  O4_13 
REMARK    5  A    between atoms: C7_15  and  O5_16 
REMARK    6  A    between atoms: C8_18  and  O6_19 
ROOT
HETATM    1  C3  UNL     1      12.377  24.198  -8.825  1.00  0.00     0.170 C 
HETATM    2  C4  UNL     1      13.732  24.772  -9.046  1.00  0.00     0.282 C 
HETATM    3  O3  UNL     1      14.760  24.209  -8.364  1.00  0.00    -0.349 OA
HETATM    4  C5  UNL     1      14.741  22.862  -8.187  1.00  0.00     0.179 C 
HETATM    5  C7  UNL     1      13.669  22.135  -8.942  1.00  0.00     0.180 C 
HETATM    6  C8  UNL     1      12.358  22.743  -8.475  1.00  0.00     0.177 C 
ENDROOT
BRANCH   1   7
HETATM    7  N1  UNL     1      11.622  24.990  -7.871  1.00  0.00    -0.349 N 
HETATM    8  C2  UNL     1      10.215  24.970  -7.754  1.00  0.00     0.214 C 
HETATM    9  C1  UNL     1       9.465  25.797  -6.763  1.00  0.00     0.117 C 
HETATM   10  O1  UNL     1       9.567  24.224  -8.519  1.00  0.00    -0.274 OA
ATOM     11  H1  UNL     1      12.142  25.603  -7.243  1.00  0.00     0.163 HD
ENDBRANCH   1   7
BRANCH   2  12
HETATM   12  O2  UNL     1      14.020  24.854 -10.427  1.00  0.00    -0.369 OA
ATOM     13  H2  UNL     1      14.374  24.031 -10.745  1.00  0.00     0.212 HD
ENDBRANCH   2  12
BRANCH   6  14
HETATM   14  O6  UNL     1      11.263  22.072  -9.005  1.00  0.00    -0.391 OA
ATOM     15  H6  UNL     1      10.982  21.339  -8.469  1.00  0.00     0.210 HD
ENDBRANCH   6  14
BRANCH   5  16
HETATM   16  O5  UNL     1      13.792  22.228 -10.307  1.00  0.00    -0.390 OA
ATOM     17  H5  UNL     1      13.291  21.576 -10.782  1.00  0.00     0.210 HD
ENDBRANCH   5  16
BRANCH   4  18
HETATM   18  C6  UNL     1      16.116  22.278  -8.435  1.00  0.00     0.198 C 
BRANCH  18  19
HETATM   19  O4  UNL     1      16.615  22.644  -9.683  1.00  0.00    -0.398 OA
ATOM     20  H4  UNL     1      16.990  23.517  -9.670  1.00  0.00     0.209 HD
ENDBRANCH  18  19
ENDBRANCH   4  18
TORSDOF 6
ENDMDL
