MODEL 3
REMARK VINA RESULT: -4.480179113      1.515      5.028
REMARK  6 active torsions:
REMARK  status: ('A' for Active; 'I' for Inactive)
REMARK       I    between atoms: C2_2  and  N1_4 
REMARK    1  A    between atoms: N1_4  and  C3_6 
REMARK    2  A    between atoms: C4_7  and  O2_8 
REMARK    3  A    between atoms: C5_11  and  C6_12 
REMARK    4  A    between atoms: C6_12  and  O4_13 
REMARK    5  A    between atoms: C7_15  and  O5_16 
REMARK    6  A    between atoms: C8_18  and  O6_19 
ROOT
HETATM    1  C3  UNL     1      12.938  23.794  -9.131  1.00  0.00     0.170 C 
HETATM    2  C4  UNL     1      12.922  24.522  -7.834  1.00  0.00     0.282 C 
HETATM    3  O3  UNL     1      11.889  25.374  -7.615  1.00  0.00    -0.349 OA
HETATM    4  C5  UNL     1      10.662  25.013  -8.074  1.00  0.00     0.179 C 
HETATM    5  C7  UNL     1      10.565  23.613  -8.603  1.00  0.00     0.180 C 
HETATM    6  C8  UNL     1      11.589  23.529  -9.722  1.00  0.00     0.177 C 
ENDROOT
BRANCH   1   7
HETATM    7  N1  UNL     1      13.824  24.440 -10.083  1.00  0.00    -0.349 N 
HETATM    8  C2  UNL     1      14.701  23.753 -10.949  1.00  0.00     0.214 C 
HETATM    9  C1  UNL     1      15.602  24.444 -11.919  1.00  0.00     0.117 C 
HETATM   10  O1  UNL     1      14.725  22.505 -10.901  1.00  0.00    -0.274 OA
ATOM     11  H1  UNL     1      13.811  25.459 -10.130  1.00  0.00     0.163 HD
ENDBRANCH   1   7
BRANCH   2  12
HETATM   12  O2  UNL     1      13.077  23.622  -6.755  1.00  0.00    -0.369 OA
ATOM     13  H2  UNL     1      12.372  23.728  -6.126  1.00  0.00     0.212 HD
ENDBRANCH   2  12
BRANCH   6  14
HETATM   14  O6  UNL     1      11.519  22.312 -10.391  1.00  0.00    -0.391 OA
ATOM     15  H6  UNL     1      11.589  21.565  -9.809  1.00  0.00     0.210 HD
ENDBRANCH   6  14
BRANCH   5  16
HETATM   16  O5  UNL     1      10.797  22.645  -7.654  1.00  0.00    -0.390 OA
ATOM     17  H5  UNL     1      11.028  21.800  -8.019  1.00  0.00     0.210 HD
ENDBRANCH   5  16
BRANCH   4  18
HETATM   18  C6  UNL     1       9.602  25.309  -7.033  1.00  0.00     0.198 C 
BRANCH  18  19
HETATM   19  O4  UNL     1       9.922  24.753  -5.797  1.00  0.00    -0.398 OA
ATOM     20  H4  UNL     1       9.309  25.019  -5.122  1.00  0.00     0.209 HD
ENDBRANCH  18  19
ENDBRANCH   4  18
TORSDOF 6
ENDMDL
