MODEL 2
REMARK VINA RESULT: -4.537802611      1.635      2.595
REMARK  6 active torsions:
REMARK  status: ('A' for Active; 'I' for Inactive)
REMARK       I    between atoms: C2_2  and  N1_4 
REMARK    1  A    between atoms: N1_4  and  C3_6 
REMARK    2  A    between atoms: C4_7  and  O2_8 
REMARK    3  A    between atoms: C5_11  and  C6_12 
REMARK    4  A    between atoms: C6_12  and  O4_13 
REMARK    5  A    between atoms: C7_15  and  O5_16 
REMARK    6  A    between atoms: C8_18  and  O6_19 
ROOT
HETATM    1  C3  UNL     1      11.603  24.722  -7.942  1.00  0.00     0.170 C 
HETATM    2  C4  UNL     1      13.087  24.636  -8.001  1.00  0.00     0.282 C 
HETATM    3  O3  UNL     1      13.644  23.417  -7.793  1.00  0.00    -0.349 OA
HETATM    4  C5  UNL     1      12.996  22.330  -8.290  1.00  0.00     0.179 C 
HETATM    5  C7  UNL     1      11.830  22.636  -9.182  1.00  0.00     0.180 C 
HETATM    6  C8  UNL     1      10.882  23.472  -8.340  1.00  0.00     0.177 C 
ENDROOT
BRANCH   1   7
HETATM    7  N1  UNL     1      11.158  25.209  -6.648  1.00  0.00    -0.349 N 
HETATM    8  C2  UNL     1       9.901  25.806  -6.410  1.00  0.00     0.214 C 
HETATM    9  C1  UNL     1       9.471  26.298  -5.068  1.00  0.00     0.117 C 
HETATM   10  O1  UNL     1       9.111  25.927  -7.370  1.00  0.00    -0.274 OA
ATOM     11  H1  UNL     1      11.796  25.115  -5.859  1.00  0.00     0.163 HD
ENDBRANCH   1   7
BRANCH   2  12
HETATM   12  O2  UNL     1      13.573  25.222  -9.192  1.00  0.00    -0.369 OA
ATOM     13  H2  UNL     1      14.498  25.422  -9.114  1.00  0.00     0.212 HD
ENDBRANCH   2  12
BRANCH   6  14
HETATM   14  O6  UNL     1       9.689  23.724  -9.008  1.00  0.00    -0.391 OA
ATOM     15  H6  UNL     1       9.804  24.260  -9.783  1.00  0.00     0.210 HD
ENDBRANCH   6  14
BRANCH   5  16
HETATM   16  O5  UNL     1      12.174  23.299 -10.336  1.00  0.00    -0.390 OA
ATOM     17  H5  UNL     1      12.287  24.235 -10.220  1.00  0.00     0.210 HD
ENDBRANCH   5  16
BRANCH   4  18
HETATM   18  C6  UNL     1      13.981  21.379  -8.937  1.00  0.00     0.198 C 
BRANCH  18  19
HETATM   19  O4  UNL     1      13.335  20.365  -9.639  1.00  0.00    -0.398 OA
ATOM     20  H4  UNL     1      12.412  20.555  -9.763  1.00  0.00     0.209 HD
ENDBRANCH  18  19
ENDBRANCH   4  18
TORSDOF 6
ENDMDL
