MODEL 6
REMARK VINA RESULT: -5.144690068      3.951      4.665
REMARK  1 active torsions:
REMARK  status: ('A' for Active; 'I' for Inactive)
REMARK    1  A    between atoms: C6_8  and  C7_9 
ROOT
HETATM    1  N1  UNL     1     -18.383 -28.901  16.333  1.00  0.00    -0.098 NA
HETATM    2  C1  UNL     1     -17.938 -30.084  15.703  1.00  0.00     0.101 A 
HETATM    3  C2  UNL     1     -18.243 -31.337  16.193  1.00  0.00     0.141 A 
HETATM    4  F1  UNL     1     -18.990 -31.397  17.312  1.00  0.00    -0.204 F 
HETATM    5  C3  UNL     1     -17.798 -32.481  15.560  1.00  0.00     0.044 A 
HETATM    6  C4  UNL     1     -17.034 -32.413  14.418  1.00  0.00     0.004 A 
HETATM    7  C5  UNL     1     -16.737 -31.151  13.940  1.00  0.00     0.020 A 
HETATM    8  C6  UNL     1     -17.176 -29.991  14.562  1.00  0.00     0.068 A 
ENDROOT
BRANCH   8   9
HETATM    9  C7  UNL     1     -16.845 -28.679  14.030  1.00  0.00     0.211 C 
HETATM   10  O1  UNL     1     -17.510 -28.190  13.075  1.00  0.00    -0.644 OA
HETATM   11  O2  UNL     1     -15.794 -27.949  14.563  1.00  0.00    -0.644 OA
ENDBRANCH   8   9
TORSDOF 1
ENDMDL
