MODEL 5
REMARK VINA RESULT: -5.188174634      3.192      4.019
REMARK  1 active torsions:
REMARK  status: ('A' for Active; 'I' for Inactive)
REMARK    1  A    between atoms: C6_8  and  C7_9 
ROOT
HETATM    1  N1  UNL     1     -18.998 -30.813  17.245  1.00  0.00    -0.098 NA
HETATM    2  C1  UNL     1     -18.201 -30.839  16.079  1.00  0.00     0.101 A 
HETATM    3  C2  UNL     1     -17.877 -32.015  15.434  1.00  0.00     0.141 A 
HETATM    4  F1  UNL     1     -18.353 -33.158  15.963  1.00  0.00    -0.204 F 
HETATM    5  C3  UNL     1     -17.097 -32.016  14.296  1.00  0.00     0.044 A 
HETATM    6  C4  UNL     1     -16.613 -30.845  13.761  1.00  0.00     0.004 A 
HETATM    7  C5  UNL     1     -16.945 -29.675  14.418  1.00  0.00     0.020 A 
HETATM    8  C6  UNL     1     -17.729 -29.654  15.563  1.00  0.00     0.068 A 
ENDROOT
BRANCH   8   9
HETATM    9  C7  UNL     1     -18.060 -28.404  16.227  1.00  0.00     0.211 C 
HETATM   10  O1  UNL     1     -19.023 -27.699  15.819  1.00  0.00    -0.644 OA
HETATM   11  O2  UNL     1     -17.319 -27.969  17.316  1.00  0.00    -0.644 OA
ENDBRANCH   8   9
TORSDOF 1
ENDMDL
