MODEL 12
REMARK VINA RESULT: -5.012219985      2.280      2.708
REMARK  1 active torsions:
REMARK  status: ('A' for Active; 'I' for Inactive)
REMARK    1  A    between atoms: C6_8  and  C7_9 
ROOT
HETATM    1  N1  UNL     1     -19.851 -32.827  18.328  1.00  0.00    -0.098 NA
HETATM    2  C1  UNL     1     -18.907 -33.378  17.434  1.00  0.00     0.101 A 
HETATM    3  C2  UNL     1     -18.328 -32.637  16.425  1.00  0.00     0.141 A 
HETATM    4  F1  UNL     1     -18.699 -31.347  16.318  1.00  0.00    -0.204 F 
HETATM    5  C3  UNL     1     -17.407 -33.197  15.562  1.00  0.00     0.044 A 
HETATM    6  C4  UNL     1     -17.033 -34.516  15.676  1.00  0.00     0.004 A 
HETATM    7  C5  UNL     1     -17.621 -35.246  16.692  1.00  0.00     0.020 A 
HETATM    8  C6  UNL     1     -18.548 -34.700  17.568  1.00  0.00     0.068 A 
ENDROOT
BRANCH   8   9
HETATM    9  C7  UNL     1     -19.147 -35.498  18.626  1.00  0.00     0.211 C 
HETATM   10  O1  UNL     1     -20.228 -36.116  18.426  1.00  0.00    -0.644 OA
HETATM   11  O2  UNL     1     -18.538 -35.588  19.868  1.00  0.00    -0.644 OA
ENDBRANCH   8   9
TORSDOF 1
ENDMDL
