MODEL 3
REMARK VINA RESULT: -5.257714777      1.871      2.421
REMARK  1 active torsions:
REMARK  status: ('A' for Active; 'I' for Inactive)
REMARK    1  A    between atoms: C6_8  and  C7_9 
ROOT
HETATM    1  N1  UNL     1     -20.065 -32.319  17.447  1.00  0.00    -0.098 NA
HETATM    2  C1  UNL     1     -19.005 -33.015  16.825  1.00  0.00     0.101 A 
HETATM    3  C2  UNL     1     -18.251 -32.457  15.814  1.00  0.00     0.141 A 
HETATM    4  F1  UNL     1     -18.564 -31.205  15.432  1.00  0.00    -0.204 F 
HETATM    5  C3  UNL     1     -17.219 -33.157  15.221  1.00  0.00     0.044 A 
HETATM    6  C4  UNL     1     -16.904 -34.436  15.616  1.00  0.00     0.004 A 
HETATM    7  C5  UNL     1     -17.669 -34.982  16.630  1.00  0.00     0.020 A 
HETATM    8  C6  UNL     1     -18.709 -34.294  17.238  1.00  0.00     0.068 A 
ENDROOT
BRANCH   8   9
HETATM    9  C7  UNL     1     -19.493 -34.900  18.303  1.00  0.00     0.211 C 
HETATM   10  O1  UNL     1     -19.024 -34.986  19.471  1.00  0.00    -0.644 OA
HETATM   11  O2  UNL     1     -20.764 -35.391  18.048  1.00  0.00    -0.644 OA
ENDBRANCH   8   9
TORSDOF 1
ENDMDL
