MODEL 9
REMARK VINA RESULT: -5.035477707      2.975      3.501
REMARK  1 active torsions:
REMARK  status: ('A' for Active; 'I' for Inactive)
REMARK    1  A    between atoms: C6_8  and  C7_9 
ROOT
HETATM    1  N1  UNL     1     -20.024 -34.148  18.708  1.00  0.00    -0.098 NA
HETATM    2  C1  UNL     1     -19.005 -34.103  17.731  1.00  0.00     0.101 A 
HETATM    3  C2  UNL     1     -18.925 -33.091  16.797  1.00  0.00     0.141 A 
HETATM    4  F1  UNL     1     -19.867 -32.130  16.848  1.00  0.00    -0.204 F 
HETATM    5  C3  UNL     1     -17.920 -33.067  15.851  1.00  0.00     0.044 A 
HETATM    6  C4  UNL     1     -16.961 -34.052  15.804  1.00  0.00     0.004 A 
HETATM    7  C5  UNL     1     -17.054 -35.059  16.746  1.00  0.00     0.020 A 
HETATM    8  C6  UNL     1     -18.057 -35.099  17.704  1.00  0.00     0.068 A 
ENDROOT
BRANCH   8   9
HETATM    9  C7  UNL     1     -18.124 -36.175  18.681  1.00  0.00     0.211 C 
HETATM   10  O1  UNL     1     -18.634 -37.286  18.373  1.00  0.00    -0.644 OA
HETATM   11  O2  UNL     1     -17.630 -35.991  19.963  1.00  0.00    -0.644 OA
ENDBRANCH   8   9
TORSDOF 1
ENDMDL
