MODEL 8
REMARK VINA RESULT: -5.041900569      3.093      3.791
REMARK  1 active torsions:
REMARK  status: ('A' for Active; 'I' for Inactive)
REMARK    1  A    between atoms: C6_8  and  C7_9 
ROOT
HETATM    1  N1  UNL     1     -17.616 -27.640  16.383  1.00  0.00    -0.098 NA
HETATM    2  C1  UNL     1     -17.824 -29.033  16.280  1.00  0.00     0.101 A 
HETATM    3  C2  UNL     1     -17.662 -29.716  15.092  1.00  0.00     0.141 A 
HETATM    4  F1  UNL     1     -17.294 -28.998  14.014  1.00  0.00    -0.204 F 
HETATM    5  C3  UNL     1     -17.870 -31.078  15.014  1.00  0.00     0.044 A 
HETATM    6  C4  UNL     1     -18.248 -31.806  16.119  1.00  0.00     0.004 A 
HETATM    7  C5  UNL     1     -18.406 -31.109  17.302  1.00  0.00     0.020 A 
HETATM    8  C6  UNL     1     -18.200 -29.740  17.399  1.00  0.00     0.068 A 
ENDROOT
BRANCH   8   9
HETATM    9  C7  UNL     1     -18.375 -29.039  18.661  1.00  0.00     0.211 C 
HETATM   10  O1  UNL     1     -17.449 -29.024  19.517  1.00  0.00    -0.644 OA
HETATM   11  O2  UNL     1     -19.563 -28.381  18.939  1.00  0.00    -0.644 OA
ENDBRANCH   8   9
TORSDOF 1
ENDMDL
