MODEL 1
REMARK VINA RESULT: -5.255186738      0.000      0.000
REMARK  1 active torsions:
REMARK  status: ('A' for Active; 'I' for Inactive)
REMARK    1  A    between atoms: C6_7  and  C7_8 
ROOT
HETATM    1  N1  UNL     1      -1.927  31.412 -15.174  1.00  0.00    -0.101 NA
HETATM    2  C1  UNL     1      -1.053  32.200 -14.386  1.00  0.00     0.063 A 
HETATM    3  C2  UNL     1      -1.030  33.559 -14.621  1.00  0.00     0.027 A 
HETATM    4  C3  UNL     1      -0.197  34.399 -13.885  1.00  0.00     0.002 A 
HETATM    5  C4  UNL     1       0.602  33.830 -12.916  1.00  0.00     0.001 A 
HETATM    6  C5  UNL     1       0.570  32.466 -12.689  1.00  0.00     0.020 A 
HETATM    7  C6  UNL     1      -0.246  31.623 -13.406  1.00  0.00     0.065 A 
ENDROOT
BRANCH   7   8
HETATM    8  C7  UNL     1      -0.298  30.188 -13.186  1.00  0.00     0.211 C 
HETATM    9  O1  UNL     1      -0.979  29.734 -12.236  1.00  0.00    -0.644 OA
HETATM   10  O2  UNL     1       0.381  29.293 -13.989  1.00  0.00    -0.644 OA
ENDBRANCH   7   8
TORSDOF 1
ENDMDL
