MODEL 15
REMARK VINA RESULT: -4.847181054      4.567      5.415
REMARK  1 active torsions:
REMARK  status: ('A' for Active; 'I' for Inactive)
REMARK    1  A    between atoms: C6_7  and  C7_8 
ROOT
HETATM    1  N1  UNL     1      -1.725  34.760 -16.482  1.00  0.00    -0.101 NA
HETATM    2  C1  UNL     1      -0.807  35.013 -15.434  1.00  0.00     0.063 A 
HETATM    3  C2  UNL     1      -0.503  33.969 -14.585  1.00  0.00     0.027 A 
HETATM    4  C3  UNL     1       0.392  34.141 -13.530  1.00  0.00     0.002 A 
HETATM    5  C4  UNL     1       0.963  35.385 -13.363  1.00  0.00     0.001 A 
HETATM    6  C5  UNL     1       0.651  36.424 -14.220  1.00  0.00     0.020 A 
HETATM    7  C6  UNL     1      -0.230  36.272 -15.265  1.00  0.00     0.065 A 
ENDROOT
BRANCH   7   8
HETATM    8  C7  UNL     1      -0.574  37.347 -16.179  1.00  0.00     0.211 C 
HETATM    9  O1  UNL     1      -1.660  37.959 -16.032  1.00  0.00    -0.644 OA
HETATM   10  O2  UNL     1       0.254  37.727 -17.217  1.00  0.00    -0.644 OA
ENDBRANCH   7   8
TORSDOF 1
ENDMDL
