MODEL 3
REMARK VINA RESULT: -5.220234522      1.088      1.194
REMARK  1 active torsions:
REMARK  status: ('A' for Active; 'I' for Inactive)
REMARK    1  A    between atoms: C6_7  and  C7_8 
ROOT
HETATM    1  N1  UNL     1      -2.300  33.159 -15.125  1.00  0.00    -0.101 NA
HETATM    2  C1  UNL     1      -1.170  33.413 -14.310  1.00  0.00     0.063 A 
HETATM    3  C2  UNL     1      -0.689  34.705 -14.270  1.00  0.00     0.027 A 
HETATM    4  C3  UNL     1       0.419  35.034 -13.492  1.00  0.00     0.002 A 
HETATM    5  C4  UNL     1       1.018  34.027 -12.763  1.00  0.00     0.001 A 
HETATM    6  C5  UNL     1       0.526  32.735 -12.811  1.00  0.00     0.020 A 
HETATM    7  C6  UNL     1      -0.566  32.394 -13.575  1.00  0.00     0.065 A 
ENDROOT
BRANCH   7   8
HETATM    8  C7  UNL     1      -1.101  31.046 -13.641  1.00  0.00     0.211 C 
HETATM    9  O1  UNL     1      -1.941  30.673 -12.788  1.00  0.00    -0.644 OA
HETATM   10  O2  UNL     1      -0.717  30.147 -14.616  1.00  0.00    -0.644 OA
ENDBRANCH   7   8
TORSDOF 1
ENDMDL
