MODEL 10
REMARK VINA RESULT: -5.034332036      5.686      6.755
REMARK  1 active torsions:
REMARK  status: ('A' for Active; 'I' for Inactive)
REMARK    1  A    between atoms: C6_7  and  C7_8 
ROOT
HETATM    1  N1  UNL     1      -1.443  36.569 -16.762  1.00  0.00    -0.101 NA
HETATM    2  C1  UNL     1      -0.371  36.580 -15.836  1.00  0.00     0.063 A 
HETATM    3  C2  UNL     1      -0.347  35.590 -14.875  1.00  0.00     0.027 A 
HETATM    4  C3  UNL     1       0.675  35.535 -13.929  1.00  0.00     0.002 A 
HETATM    5  C4  UNL     1       1.660  36.499 -13.985  1.00  0.00     0.001 A 
HETATM    6  C5  UNL     1       1.625  37.486 -14.952  1.00  0.00     0.020 A 
HETATM    7  C6  UNL     1       0.624  37.555 -15.893  1.00  0.00     0.065 A 
ENDROOT
BRANCH   7   8
HETATM    8  C7  UNL     1       0.565  38.581 -16.919  1.00  0.00     0.211 C 
HETATM    9  O1  UNL     1       1.177  38.407 -18.001  1.00  0.00    -0.644 OA
HETATM   10  O2  UNL     1      -0.142  39.755 -16.751  1.00  0.00    -0.644 OA
ENDBRANCH   7   8
TORSDOF 1
ENDMDL
