MODEL 2
REMARK VINA RESULT: -5.224275915      1.130      1.597
REMARK  1 active torsions:
REMARK  status: ('A' for Active; 'I' for Inactive)
REMARK    1  A    between atoms: C6_7  and  C7_8 
ROOT
HETATM    1  N1  UNL     1      -2.320  33.207 -15.131  1.00  0.00    -0.101 NA
HETATM    2  C1  UNL     1      -1.184  33.401 -14.308  1.00  0.00     0.063 A 
HETATM    3  C2  UNL     1      -0.651  34.672 -14.243  1.00  0.00     0.027 A 
HETATM    4  C3  UNL     1       0.466  34.941 -13.455  1.00  0.00     0.002 A 
HETATM    5  C4  UNL     1       1.021  33.898 -12.742  1.00  0.00     0.001 A 
HETATM    6  C5  UNL     1       0.478  32.628 -12.815  1.00  0.00     0.020 A 
HETATM    7  C6  UNL     1      -0.624  32.346 -13.589  1.00  0.00     0.065 A 
ENDROOT
BRANCH   7   8
HETATM    8  C7  UNL     1      -1.213  31.021 -13.681  1.00  0.00     0.211 C 
HETATM    9  O1  UNL     1      -0.770  30.207 -14.527  1.00  0.00    -0.644 OA
HETATM   10  O2  UNL     1      -2.254  30.618 -12.869  1.00  0.00    -0.644 OA
ENDBRANCH   7   8
TORSDOF 1
ENDMDL
