MODEL 8
REMARK VINA RESULT: -5.079719175      5.680      6.663
REMARK  1 active torsions:
REMARK  status: ('A' for Active; 'I' for Inactive)
REMARK    1  A    between atoms: C6_7  and  C7_8 
ROOT
HETATM    1  N1  UNL     1      -1.399  36.747 -16.757  1.00  0.00    -0.101 NA
HETATM    2  C1  UNL     1      -0.352  36.636 -15.810  1.00  0.00     0.063 A 
HETATM    3  C2  UNL     1      -0.433  35.616 -14.884  1.00  0.00     0.027 A 
HETATM    4  C3  UNL     1       0.558  35.442 -13.921  1.00  0.00     0.002 A 
HETATM    5  C4  UNL     1       1.622  36.320 -13.922  1.00  0.00     0.001 A 
HETATM    6  C5  UNL     1       1.693  37.338 -14.854  1.00  0.00     0.020 A 
HETATM    7  C6  UNL     1       0.723  37.525 -15.812  1.00  0.00     0.065 A 
ENDROOT
BRANCH   7   8
HETATM    8  C7  UNL     1       0.774  38.586 -16.802  1.00  0.00     0.211 C 
HETATM    9  O1  UNL     1       0.324  39.721 -16.513  1.00  0.00    -0.644 OA
HETATM   10  O2  UNL     1       1.303  38.394 -18.062  1.00  0.00    -0.644 OA
ENDBRANCH   7   8
TORSDOF 1
ENDMDL
