MODEL 18
REMARK VINA RESULT: -4.796145395      4.919      5.907
REMARK  1 active torsions:
REMARK  status: ('A' for Active; 'I' for Inactive)
REMARK    1  A    between atoms: C6_7  and  C7_8 
ROOT
HETATM    1  N1  UNL     1      -1.477  34.961 -15.974  1.00  0.00    -0.101 NA
HETATM    2  C1  UNL     1      -0.433  35.525 -15.201  1.00  0.00     0.063 A 
HETATM    3  C2  UNL     1       0.156  34.726 -14.243  1.00  0.00     0.027 A 
HETATM    4  C3  UNL     1       1.190  35.210 -13.444  1.00  0.00     0.002 A 
HETATM    5  C4  UNL     1       1.605  36.510 -13.641  1.00  0.00     0.001 A 
HETATM    6  C5  UNL     1       1.007  37.302 -14.604  1.00  0.00     0.020 A 
HETATM    7  C6  UNL     1      -0.015  36.840 -15.401  1.00  0.00     0.065 A 
ENDROOT
BRANCH   7   8
HETATM    8  C7  UNL     1      -0.659  37.651 -16.419  1.00  0.00     0.211 C 
HETATM    9  O1  UNL     1      -0.019  37.967 -17.452  1.00  0.00    -0.644 OA
HETATM   10  O2  UNL     1      -1.960  38.096 -16.295  1.00  0.00    -0.644 OA
ENDBRANCH   7   8
TORSDOF 1
ENDMDL
