MODEL 17
REMARK VINA RESULT: -4.823111145      4.052      4.885
REMARK  1 active torsions:
REMARK  status: ('A' for Active; 'I' for Inactive)
REMARK    1  A    between atoms: C6_7  and  C7_8 
ROOT
HETATM    1  N1  UNL     1      -1.576  34.433 -16.344  1.00  0.00    -0.101 NA
HETATM    2  C1  UNL     1      -0.771  34.387 -15.180  1.00  0.00     0.063 A 
HETATM    3  C2  UNL     1      -0.726  33.199 -14.480  1.00  0.00     0.027 A 
HETATM    4  C3  UNL     1       0.043  33.075 -13.325  1.00  0.00     0.002 A 
HETATM    5  C4  UNL     1       0.759  34.177 -12.905  1.00  0.00     0.001 A 
HETATM    6  C5  UNL     1       0.707  35.363 -13.615  1.00  0.00     0.020 A 
HETATM    7  C6  UNL     1      -0.048  35.502 -14.756  1.00  0.00     0.065 A 
ENDROOT
BRANCH   7   8
HETATM    8  C7  UNL     1      -0.119  36.735 -15.519  1.00  0.00     0.211 C 
HETATM    9  O1  UNL     1       0.937  37.244 -15.968  1.00  0.00    -0.644 OA
HETATM   10  O2  UNL     1      -1.313  37.380 -15.772  1.00  0.00    -0.644 OA
ENDBRANCH   7   8
TORSDOF 1
ENDMDL
