MODEL 5
REMARK VINA RESULT: -8.605081440      2.138      3.803
REMARK  8 active torsions:
REMARK  status: ('A' for Active; 'I' for Inactive)
REMARK    1  A    between atoms: N5_13  and  C6_14 
REMARK    2  A    between atoms: C7_16  and  C8_17 
REMARK    3  A    between atoms: C8_17  and  O2_18 
REMARK    4  A    between atoms: O2_18  and  P1_19 
REMARK    5  A    between atoms: P1_19  and  O5_22 
REMARK    6  A    between atoms: O5_22  and  P2_23 
REMARK    7  A    between atoms: C9_27  and  O9_28 
REMARK    8  A    between atoms: C10_30  and  O10_31 
ROOT
HETATM    1  C6  UNL     1     -16.845   3.241  12.207  1.00  0.00     0.262 C 
HETATM    2  O1  UNL     1     -17.586   2.123  12.589  1.00  0.00    -0.353 OA
HETATM    3  C7  UNL     1     -18.571   2.720  13.375  1.00  0.00     0.180 C 
HETATM    4  C9  UNL     1     -19.056   3.917  12.605  1.00  0.00     0.182 C 
HETATM    5  C10 UNL     1     -17.915   4.116  11.597  1.00  0.00     0.198 C 
ENDROOT
BRANCH   1   6
HETATM    6  N5  UNL     1     -15.786   2.924  11.291  1.00  0.00    -0.297 N 
HETATM    7  C3  UNL     1     -14.888   1.941  11.509  1.00  0.00     0.142 A 
HETATM    8  N3  UNL     1     -14.741   1.069  12.536  1.00  0.00    -0.336 N 
HETATM    9  C4  UNL     1     -14.004   1.885  10.452  1.00  0.00     0.119 A 
HETATM   10  C2  UNL     1     -13.761   0.146  12.567  1.00  0.00     0.183 A 
ATOM     11  H3  UNL     1     -15.397   1.114  13.316  1.00  0.00     0.168 HD
HETATM   12  N2  UNL     1     -12.911   0.095  11.548  1.00  0.00    -0.339 N 
HETATM   13  C1  UNL     1     -13.011   0.941  10.494  1.00  0.00     0.148 A 
ATOM     14  H2  UNL     1     -12.163  -0.599  11.558  1.00  0.00     0.167 HD
HETATM   15  N1  UNL     1     -12.093   0.849   9.443  1.00  0.00    -0.080 NA
HETATM   16  N4  UNL     1     -14.399   2.854   9.607  1.00  0.00    -0.346 N 
HETATM   17  C5  UNL     1     -15.476   3.474  10.124  1.00  0.00     0.188 A 
ATOM     18  H4  UNL     1     -13.955   3.081   8.717  1.00  0.00     0.167 HD
ENDBRANCH   1   6
BRANCH   5  19
HETATM   19  O10 UNL     1     -17.554   5.439  11.502  1.00  0.00    -0.388 OA
ATOM     20  H10 UNL     1     -18.282   6.019  11.312  1.00  0.00     0.210 HD
ENDBRANCH   5  19
BRANCH   3  21
HETATM   21  C8  UNL     1     -19.686   1.758  13.714  1.00  0.00     0.216 C 
BRANCH  21  22
HETATM   22  O2  UNL     1     -19.729   1.620  15.066  1.00  0.00    -0.287 OA
BRANCH  22  23
HETATM   23  P1  UNL     1     -20.717   2.609  15.917  1.00  0.00     0.418 P 
HETATM   24  O3  UNL     1     -21.942   2.306  15.057  1.00  0.00    -0.624 OA
HETATM   25  O4  UNL     1     -21.555   1.917  17.249  1.00  0.00    -0.624 OA
BRANCH  23  26
HETATM   26  O5  UNL     1     -20.764   4.199  15.680  1.00  0.00    -0.173 OA
BRANCH  26  27
HETATM   27  P2  UNL     1     -22.139   4.887  15.095  1.00  0.00     0.431 P 
HETATM   28  O6  UNL     1     -23.410   5.139  16.061  1.00  0.00    -0.616 OA
HETATM   29  O7  UNL     1     -22.283   5.105  13.424  1.00  0.00    -0.616 OA
HETATM   30  O8  UNL     1     -21.520   6.282  15.186  1.00  0.00    -0.616 OA
ENDBRANCH  26  27
ENDBRANCH  23  26
ENDBRANCH  22  23
ENDBRANCH  21  22
ENDBRANCH   3  21
BRANCH   4  31
HETATM   31  O9  UNL     1     -19.049   5.064  13.412  1.00  0.00    -0.390 OA
ATOM     32  H9  UNL     1     -19.933   5.375  13.562  1.00  0.00     0.210 HD
ENDBRANCH   4  31
TORSDOF 8
ENDMDL
