MODEL 3
REMARK VINA RESULT: -8.905472241      2.952      4.279
REMARK  8 active torsions:
REMARK  status: ('A' for Active; 'I' for Inactive)
REMARK    1  A    between atoms: N5_13  and  C6_14 
REMARK    2  A    between atoms: C7_16  and  C8_17 
REMARK    3  A    between atoms: C8_17  and  O2_18 
REMARK    4  A    between atoms: O2_18  and  P1_19 
REMARK    5  A    between atoms: P1_19  and  O5_22 
REMARK    6  A    between atoms: O5_22  and  P2_23 
REMARK    7  A    between atoms: C9_27  and  O9_28 
REMARK    8  A    between atoms: C10_30  and  O10_31 
ROOT
HETATM    1  C6  UNL     1     -16.363   2.108   8.227  1.00  0.00     0.262 C 
HETATM    2  O1  UNL     1     -17.416   1.923   9.123  1.00  0.00    -0.353 OA
HETATM    3  C7  UNL     1     -18.511   2.104   8.278  1.00  0.00     0.180 C 
HETATM    4  C9  UNL     1     -18.219   1.309   7.035  1.00  0.00     0.182 C 
HETATM    5  C10 UNL     1     -16.702   1.101   7.153  1.00  0.00     0.198 C 
ENDROOT
BRANCH   1   6
HETATM    6  N5  UNL     1     -15.077   1.886   8.823  1.00  0.00    -0.297 N 
HETATM    7  C3  UNL     1     -14.802   2.156  10.116  1.00  0.00     0.142 A 
HETATM    8  N3  UNL     1     -15.571   2.657  11.112  1.00  0.00    -0.336 N 
HETATM    9  C4  UNL     1     -13.488   1.834  10.382  1.00  0.00     0.119 A 
HETATM   10  C2  UNL     1     -15.102   2.856  12.359  1.00  0.00     0.183 A 
ATOM     11  H3  UNL     1     -16.543   2.893  10.911  1.00  0.00     0.168 HD
HETATM   12  N2  UNL     1     -13.835   2.546  12.612  1.00  0.00    -0.339 N 
HETATM   13  C1  UNL     1     -13.021   2.041  11.655  1.00  0.00     0.148 A 
ATOM     14  H2  UNL     1     -13.466   2.693  13.552  1.00  0.00     0.167 HD
HETATM   15  N1  UNL     1     -11.695   1.728  11.969  1.00  0.00    -0.080 NA
HETATM   16  N4  UNL     1     -12.993   1.369   9.221  1.00  0.00    -0.346 N 
HETATM   17  C5  UNL     1     -13.961   1.405   8.288  1.00  0.00     0.188 A 
ATOM     18  H4  UNL     1     -12.038   1.042   9.073  1.00  0.00     0.167 HD
ENDBRANCH   1   6
BRANCH   5  19
HETATM   19  O10 UNL     1     -16.068   1.341   5.956  1.00  0.00    -0.388 OA
ATOM     20  H10 UNL     1     -16.051   0.587   5.378  1.00  0.00     0.210 HD
ENDBRANCH   5  19
BRANCH   3  21
HETATM   21  C8  UNL     1     -19.808   1.695   8.936  1.00  0.00     0.216 C 
BRANCH  21  22
HETATM   22  O2  UNL     1     -20.365   2.802   9.497  1.00  0.00    -0.287 OA
BRANCH  22  23
HETATM   23  P1  UNL     1     -20.235   3.002  11.116  1.00  0.00     0.418 P 
HETATM   24  O3  UNL     1     -21.720   2.752  11.375  1.00  0.00    -0.624 OA
HETATM   25  O4  UNL     1     -19.898   1.600  12.051  1.00  0.00    -0.624 OA
BRANCH  23  26
HETATM   26  O5  UNL     1     -20.210   4.453  11.809  1.00  0.00    -0.173 OA
BRANCH  26  27
HETATM   27  P2  UNL     1     -18.801   5.019  12.442  1.00  0.00     0.431 P 
HETATM   28  O6  UNL     1     -18.086   4.258  13.676  1.00  0.00    -0.616 OA
HETATM   29  O7  UNL     1     -18.244   6.534  11.940  1.00  0.00    -0.616 OA
HETATM   30  O8  UNL     1     -17.997   4.387  11.305  1.00  0.00    -0.616 OA
ENDBRANCH  26  27
ENDBRANCH  23  26
ENDBRANCH  22  23
ENDBRANCH  21  22
ENDBRANCH   3  21
BRANCH   4  31
HETATM   31  O9  UNL     1     -18.403   2.095   5.888  1.00  0.00    -0.390 OA
ATOM     32  H9  UNL     1     -19.323   2.139   5.656  1.00  0.00     0.210 HD
ENDBRANCH   4  31
TORSDOF 8
ENDMDL
