MODEL 2
REMARK VINA RESULT: -8.909956398      5.075      8.057
REMARK  8 active torsions:
REMARK  status: ('A' for Active; 'I' for Inactive)
REMARK    1  A    between atoms: N5_13  and  C6_14 
REMARK    2  A    between atoms: C7_16  and  C8_17 
REMARK    3  A    between atoms: C8_17  and  O2_18 
REMARK    4  A    between atoms: O2_18  and  P1_19 
REMARK    5  A    between atoms: P1_19  and  O5_22 
REMARK    6  A    between atoms: O5_22  and  P2_23 
REMARK    7  A    between atoms: C9_27  and  O9_28 
REMARK    8  A    between atoms: C10_30  and  O10_31 
ROOT
HETATM    1  C6  UNL     1     -17.727   2.835  12.297  1.00  0.00     0.262 C 
HETATM    2  O1  UNL     1     -16.551   3.115  12.993  1.00  0.00    -0.353 OA
HETATM    3  C7  UNL     1     -15.604   2.551  12.139  1.00  0.00     0.180 C 
HETATM    4  C9  UNL     1     -15.971   2.995  10.750  1.00  0.00     0.182 C 
HETATM    5  C10 UNL     1     -17.428   3.439  10.945  1.00  0.00     0.198 C 
ENDROOT
BRANCH   1   6
HETATM    6  N5  UNL     1     -18.892   3.395  12.920  1.00  0.00    -0.297 N 
HETATM    7  C3  UNL     1     -18.900   4.598  13.533  1.00  0.00     0.142 A 
HETATM    8  N3  UNL     1     -17.922   5.517  13.718  1.00  0.00    -0.336 N 
HETATM    9  C4  UNL     1     -20.161   4.852  14.027  1.00  0.00     0.119 A 
HETATM   10  C2  UNL     1     -18.133   6.677  14.369  1.00  0.00     0.183 A 
ATOM     11  H3  UNL     1     -16.990   5.324  13.350  1.00  0.00     0.168 HD
HETATM   12  N2  UNL     1     -19.350   6.920  14.845  1.00  0.00    -0.339 N 
HETATM   13  C1  UNL     1     -20.365   6.037  14.688  1.00  0.00     0.148 A 
ATOM     14  H2  UNL     1     -19.524   7.794  15.341  1.00  0.00     0.167 HD
HETATM   15  N1  UNL     1     -21.629   6.336  15.205  1.00  0.00    -0.080 NA
HETATM   16  N4  UNL     1     -20.898   3.778  13.693  1.00  0.00    -0.346 N 
HETATM   17  C5  UNL     1     -20.121   2.906  13.025  1.00  0.00     0.188 A 
ATOM     18  H4  UNL     1     -21.886   3.647  13.911  1.00  0.00     0.167 HD
ENDBRANCH   1   6
BRANCH   5  19
HETATM   19  O10 UNL     1     -18.236   2.963   9.940  1.00  0.00    -0.388 OA
ATOM     20  H10 UNL     1     -18.299   3.548   9.194  1.00  0.00     0.210 HD
ENDBRANCH   5  19
BRANCH   3  21
HETATM   21  C8  UNL     1     -14.194   2.942  12.519  1.00  0.00     0.216 C 
BRANCH  21  22
HETATM   22  O2  UNL     1     -13.601   1.868  13.104  1.00  0.00    -0.287 OA
BRANCH  22  23
HETATM   23  P1  UNL     1     -12.897   0.748  12.140  1.00  0.00     0.418 P 
HETATM   24  O3  UNL     1     -11.657   1.599  11.872  1.00  0.00    -0.624 OA
HETATM   25  O4  UNL     1     -11.870  -0.401  12.901  1.00  0.00    -0.624 OA
BRANCH  23  26
HETATM   26  O5  UNL     1     -13.289   0.571  10.591  1.00  0.00    -0.173 OA
BRANCH  26  27
HETATM   27  P2  UNL     1     -12.553   1.513   9.460  1.00  0.00     0.431 P 
HETATM   28  O6  UNL     1     -11.241   0.988   8.676  1.00  0.00    -0.616 OA
HETATM   29  O7  UNL     1     -13.050   3.122   9.306  1.00  0.00    -0.616 OA
HETATM   30  O8  UNL     1     -13.599   1.129   8.412  1.00  0.00    -0.616 OA
ENDBRANCH  26  27
ENDBRANCH  23  26
ENDBRANCH  22  23
ENDBRANCH  21  22
ENDBRANCH   3  21
BRANCH   4  31
HETATM   31  O9  UNL     1     -16.025   1.900   9.877  1.00  0.00    -0.390 OA
ATOM     32  H9  UNL     1     -16.110   2.191   8.977  1.00  0.00     0.210 HD
ENDBRANCH   4  31
TORSDOF 8
ENDMDL
