MODEL 2
REMARK VINA RESULT: -8.276074079      4.378      6.304
REMARK  7 active torsions:
REMARK  status: ('A' for Active; 'I' for Inactive)
REMARK       I    between atoms: C1_2  and  N1_3 
REMARK    1  A    between atoms: C1_2  and  C16_25 
REMARK    2  A    between atoms: N1_3  and  C2_5 
REMARK    3  A    between atoms: C5_8  and  C6_9 
REMARK    4  A    between atoms: C8_17  and  C9_18 
REMARK    5  A    between atoms: C9_18  and  C10_19 
REMARK    6  A    between atoms: C20_29  and  C21_30 
REMARK    7  A    between atoms: C21_30  and  C22_31 
ROOT
HETATM    1  C2  UNL     1     -30.249 -14.903 -41.744  1.00  0.00     0.041 A 
HETATM    2  C3  UNL     1     -31.603 -14.740 -41.543  1.00  0.00     0.031 A 
HETATM    3  C4  UNL     1     -32.142 -14.469 -40.273  1.00  0.00     0.017 A 
HETATM    4  C5  UNL     1     -31.319 -14.358 -39.180  1.00  0.00     0.011 A 
HETATM    5  C7  UNL     1     -29.972 -14.523 -39.402  1.00  0.00     0.025 A 
HETATM    6  C8  UNL     1     -29.411 -14.791 -40.647  1.00  0.00    -0.026 A 
ENDROOT
BRANCH   1   7
HETATM    7  N1  UNL     1     -29.718 -15.236 -43.005  1.00  0.00    -0.321 N 
HETATM    8  C1  UNL     1     -29.541 -16.502 -43.580  1.00  0.00     0.272 C 
HETATM    9  O1  UNL     1     -29.891 -17.537 -42.930  1.00  0.00    -0.266 OA
ATOM     10  H1  UNL     1     -29.421 -14.447 -43.579  1.00  0.00     0.169 HD
BRANCH   8  11
HETATM   11  C16 UNL     1     -28.962 -16.701 -44.920  1.00  0.00     0.101 A 
HETATM   12  C17 UNL     1     -29.734 -17.143 -45.954  1.00  0.00     0.035 A 
HETATM   13  C18 UNL     1     -29.167 -17.328 -47.225  1.00  0.00     0.004 A 
HETATM   14  C19 UNL     1     -27.833 -17.063 -47.419  1.00  0.00     0.025 A 
HETATM   15  C20 UNL     1     -27.071 -16.620 -46.366  1.00  0.00     0.010 A 
HETATM   16  N6  UNL     1     -27.671 -16.460 -45.164  1.00  0.00    -0.355 N 
ATOM     17  H6  UNL     1     -27.096 -16.130 -44.389  1.00  0.00     0.166 HD
BRANCH  15  18
HETATM   18  C21 UNL     1     -25.642 -16.340 -46.570  1.00  0.00     0.061 C 
BRANCH  18  19
HETATM   19  C22 UNL     1     -24.783 -17.567 -46.415  1.00  0.00    -0.009 C 
HETATM   20  C23 UNL     1     -24.774 -18.076 -45.018  1.00  0.00     0.005 C 
HETATM   21  C24 UNL     1     -23.781 -17.471 -44.092  1.00  0.00     0.000 C 
HETATM   22  C25 UNL     1     -22.411 -17.312 -44.718  1.00  0.00     0.000 C 
HETATM   23  C26 UNL     1     -22.504 -16.703 -46.098  1.00  0.00     0.000 C 
HETATM   24  C27 UNL     1     -23.417 -17.461 -46.992  1.00  0.00     0.005 C 
ENDBRANCH  18  19
ENDBRANCH  15  18
ENDBRANCH   8  11
ENDBRANCH   1   7
BRANCH   6  25
HETATM   25  C9  UNL     1     -27.937 -14.896 -40.775  1.00  0.00     0.079 C 
BRANCH  25  26
HETATM   26  C10 UNL     1     -27.406 -16.254 -40.624  1.00  0.00    -0.054 A 
HETATM   27  C11 UNL     1     -28.037 -17.230 -39.913  1.00  0.00     0.007 A 
HETATM   28  C12 UNL     1     -27.506 -18.523 -39.804  1.00  0.00     0.001 A 
HETATM   29  C13 UNL     1     -26.320 -18.800 -40.435  1.00  0.00     0.000 A 
HETATM   30  C14 UNL     1     -25.691 -17.805 -41.150  1.00  0.00     0.001 A 
HETATM   31  C15 UNL     1     -26.197 -16.534 -41.268  1.00  0.00     0.007 A 
ENDBRANCH  25  26
ENDBRANCH   6  25
BRANCH   4  32
HETATM   32  C6  UNL     1     -31.870 -14.080 -37.865  1.00  0.00     0.141 A 
HETATM   33  N2  UNL     1     -32.469 -12.937 -37.517  1.00  0.00    -0.270 N 
HETATM   34  N3  UNL     1     -32.832 -13.082 -36.232  1.00  0.00    -0.007 NA
ATOM     35  H2  UNL     1     -32.620 -12.119 -38.108  1.00  0.00     0.185 HD
HETATM   36  N4  UNL     1     -32.451 -14.300 -35.823  1.00  0.00    -0.007 NA
HETATM   37  N5  UNL     1     -31.850 -14.930 -36.835  1.00  0.00    -0.270 N 
ATOM     38  H5  UNL     1     -31.455 -15.870 -36.824  1.00  0.00     0.185 HD
ENDBRANCH   4  32
TORSDOF 7
ENDMDL
