MODEL 3
REMARK VINA RESULT: -8.015426825      2.375      3.872
REMARK  7 active torsions:
REMARK  status: ('A' for Active; 'I' for Inactive)
REMARK       I    between atoms: C1_2  and  N1_3 
REMARK    1  A    between atoms: C1_2  and  C16_25 
REMARK    2  A    between atoms: N1_3  and  C2_5 
REMARK    3  A    between atoms: C5_8  and  C6_9 
REMARK    4  A    between atoms: C8_17  and  C9_18 
REMARK    5  A    between atoms: C9_18  and  C10_19 
REMARK    6  A    between atoms: C20_29  and  C21_30 
REMARK    7  A    between atoms: C21_30  and  C22_31 
ROOT
HETATM    1  C2  UNL     1     -25.522 -20.508 -41.175  1.00  0.00     0.041 A 
HETATM    2  C3  UNL     1     -25.410 -20.047 -39.880  1.00  0.00     0.031 A 
HETATM    3  C4  UNL     1     -25.736 -20.849 -38.772  1.00  0.00     0.017 A 
HETATM    4  C5  UNL     1     -26.185 -22.134 -38.954  1.00  0.00     0.011 A 
HETATM    5  C7  UNL     1     -26.289 -22.573 -40.253  1.00  0.00     0.025 A 
HETATM    6  C8  UNL     1     -25.972 -21.802 -41.368  1.00  0.00    -0.026 A 
ENDROOT
BRANCH   1   7
HETATM    7  N1  UNL     1     -25.255 -19.682 -42.284  1.00  0.00    -0.321 N 
HETATM    8  C1  UNL     1     -24.093 -19.602 -43.064  1.00  0.00     0.272 C 
HETATM    9  O1  UNL     1     -23.105 -20.356 -42.790  1.00  0.00    -0.266 OA
ATOM     10  H1  UNL     1     -26.011 -19.055 -42.558  1.00  0.00     0.169 HD
BRANCH   8  11
HETATM   11  C16 UNL     1     -23.951 -18.679 -44.202  1.00  0.00     0.101 A 
HETATM   12  C17 UNL     1     -22.866 -17.857 -44.302  1.00  0.00     0.035 A 
HETATM   13  C18 UNL     1     -22.745 -16.982 -45.394  1.00  0.00     0.004 A 
HETATM   14  C19 UNL     1     -23.725 -16.959 -46.357  1.00  0.00     0.025 A 
HETATM   15  C20 UNL     1     -24.810 -17.792 -46.239  1.00  0.00     0.010 A 
HETATM   16  N6  UNL     1     -24.873 -18.614 -45.166  1.00  0.00    -0.355 N 
ATOM     17  H6  UNL     1     -25.683 -19.228 -45.088  1.00  0.00     0.166 HD
BRANCH  15  18
HETATM   18  C21 UNL     1     -25.862 -17.765 -47.265  1.00  0.00     0.061 C 
BRANCH  18  19
HETATM   19  C22 UNL     1     -26.828 -16.626 -47.077  1.00  0.00    -0.009 C 
HETATM   20  C23 UNL     1     -27.106 -16.353 -45.642  1.00  0.00     0.005 C 
HETATM   21  C24 UNL     1     -28.188 -17.152 -45.008  1.00  0.00     0.000 C 
HETATM   22  C25 UNL     1     -29.419 -17.274 -45.880  1.00  0.00     0.000 C 
HETATM   23  C26 UNL     1     -29.053 -17.643 -47.299  1.00  0.00     0.000 C 
HETATM   24  C27 UNL     1     -28.068 -16.703 -47.893  1.00  0.00     0.005 C 
ENDBRANCH  18  19
ENDBRANCH  15  18
ENDBRANCH   8  11
ENDBRANCH   1   7
BRANCH   6  25
HETATM   25  C9  UNL     1     -26.074 -22.402 -42.721  1.00  0.00     0.079 C 
BRANCH  25  26
HETATM   26  C10 UNL     1     -27.179 -21.889 -43.535  1.00  0.00    -0.054 A 
HETATM   27  C11 UNL     1     -28.454 -21.762 -43.071  1.00  0.00     0.007 A 
HETATM   28  C12 UNL     1     -29.483 -21.252 -43.875  1.00  0.00     0.001 A 
HETATM   29  C13 UNL     1     -29.186 -20.876 -45.160  1.00  0.00     0.000 A 
HETATM   30  C14 UNL     1     -27.895 -21.010 -45.618  1.00  0.00     0.001 A 
HETATM   31  C15 UNL     1     -26.874 -21.506 -44.845  1.00  0.00     0.007 A 
ENDBRANCH  25  26
ENDBRANCH   6  25
BRANCH   4  32
HETATM   32  C6  UNL     1     -26.526 -22.966 -37.813  1.00  0.00     0.141 A 
HETATM   33  N2  UNL     1     -25.745 -23.930 -37.315  1.00  0.00    -0.270 N 
HETATM   34  N3  UNL     1     -26.418 -24.453 -36.276  1.00  0.00    -0.007 NA
ATOM     35  H2  UNL     1     -24.825 -24.211 -37.654  1.00  0.00     0.185 HD
HETATM   36  N4  UNL     1     -27.585 -23.806 -36.162  1.00  0.00    -0.007 NA
HETATM   37  N5  UNL     1     -27.662 -22.876 -37.116  1.00  0.00    -0.270 N 
ATOM     38  H5  UNL     1     -28.431 -22.228 -37.281  1.00  0.00     0.185 HD
ENDBRANCH   4  32
TORSDOF 7
ENDMDL
