MODEL 6
REMARK VINA RESULT: -7.924916031      2.756      9.245
REMARK  7 active torsions:
REMARK  status: ('A' for Active; 'I' for Inactive)
REMARK       I    between atoms: C1_2  and  N1_3 
REMARK    1  A    between atoms: C1_2  and  C16_25 
REMARK    2  A    between atoms: N1_3  and  C2_5 
REMARK    3  A    between atoms: C5_8  and  C6_9 
REMARK    4  A    between atoms: C8_17  and  C9_18 
REMARK    5  A    between atoms: C9_18  and  C10_19 
REMARK    6  A    between atoms: C20_29  and  C21_30 
REMARK    7  A    between atoms: C21_30  and  C22_31 
ROOT
HETATM    1  C2  UNL     1     -24.459 -19.062 -42.303  1.00  0.00     0.041 A 
HETATM    2  C3  UNL     1     -23.988 -19.906 -43.286  1.00  0.00     0.031 A 
HETATM    3  C4  UNL     1     -23.406 -19.421 -44.471  1.00  0.00     0.017 A 
HETATM    4  C5  UNL     1     -23.291 -18.069 -44.683  1.00  0.00     0.011 A 
HETATM    5  C7  UNL     1     -23.767 -17.245 -43.691  1.00  0.00     0.025 A 
HETATM    6  C8  UNL     1     -24.346 -17.697 -42.508  1.00  0.00    -0.026 A 
ENDROOT
BRANCH   1   7
HETATM    7  N1  UNL     1     -25.097 -19.549 -41.146  1.00  0.00    -0.321 N 
HETATM    8  C1  UNL     1     -26.452 -19.846 -40.945  1.00  0.00     0.272 C 
HETATM    9  O1  UNL     1     -27.275 -19.679 -41.901  1.00  0.00    -0.266 OA
ATOM     10  H1  UNL     1     -24.489 -19.709 -40.343  1.00  0.00     0.169 HD
BRANCH   8  11
HETATM   11  C16 UNL     1     -26.984 -20.349 -39.667  1.00  0.00     0.101 A 
HETATM   12  C17 UNL     1     -27.337 -19.486 -38.671  1.00  0.00     0.035 A 
HETATM   13  C18 UNL     1     -27.842 -19.982 -37.459  1.00  0.00     0.004 A 
HETATM   14  C19 UNL     1     -27.977 -21.338 -37.283  1.00  0.00     0.025 A 
HETATM   15  C20 UNL     1     -27.616 -22.191 -38.297  1.00  0.00     0.010 A 
HETATM   16  N6  UNL     1     -27.136 -21.657 -39.443  1.00  0.00    -0.355 N 
ATOM     17  H6  UNL     1     -26.871 -22.299 -40.189  1.00  0.00     0.166 HD
BRANCH  15  18
HETATM   18  C21 UNL     1     -27.756 -23.643 -38.110  1.00  0.00     0.061 C 
BRANCH  18  19
HETATM   19  C22 UNL     1     -26.430 -24.358 -38.104  1.00  0.00    -0.009 C 
HETATM   20  C23 UNL     1     -26.587 -25.836 -38.123  1.00  0.00     0.005 C 
HETATM   21  C24 UNL     1     -26.762 -26.506 -36.808  1.00  0.00     0.000 C 
HETATM   22  C25 UNL     1     -25.815 -25.982 -35.749  1.00  0.00     0.000 C 
HETATM   23  C26 UNL     1     -25.785 -24.471 -35.737  1.00  0.00     0.000 C 
HETATM   24  C27 UNL     1     -25.467 -23.900 -37.070  1.00  0.00     0.005 C 
ENDBRANCH  18  19
ENDBRANCH  15  18
ENDBRANCH   8  11
ENDBRANCH   1   7
BRANCH   6  25
HETATM   25  C9  UNL     1     -24.775 -16.713 -41.485  1.00  0.00     0.079 C 
BRANCH  25  26
HETATM   26  C10 UNL     1     -26.055 -16.059 -41.766  1.00  0.00    -0.054 A 
HETATM   27  C11 UNL     1     -26.278 -15.294 -42.871  1.00  0.00     0.007 A 
HETATM   28  C12 UNL     1     -27.522 -14.695 -43.115  1.00  0.00     0.001 A 
HETATM   29  C13 UNL     1     -28.533 -14.892 -42.209  1.00  0.00     0.000 A 
HETATM   30  C14 UNL     1     -28.296 -15.666 -41.095  1.00  0.00     0.001 A 
HETATM   31  C15 UNL     1     -27.085 -16.260 -40.841  1.00  0.00     0.007 A 
ENDBRANCH  25  26
ENDBRANCH   6  25
BRANCH   4  32
HETATM   32  C6  UNL     1     -22.693 -17.562 -45.906  1.00  0.00     0.141 A 
HETATM   33  N2  UNL     1     -21.735 -16.632 -45.956  1.00  0.00    -0.270 N 
HETATM   34  N3  UNL     1     -21.462 -16.447 -47.258  1.00  0.00    -0.007 NA
ATOM     35  H2  UNL     1     -21.299 -16.158 -45.164  1.00  0.00     0.185 HD
HETATM   36  N4  UNL     1     -22.252 -17.259 -47.972  1.00  0.00    -0.007 NA
HETATM   37  N5  UNL     1     -23.024 -17.959 -47.138  1.00  0.00    -0.270 N 
ATOM     38  H5  UNL     1     -23.724 -18.656 -47.390  1.00  0.00     0.185 HD
ENDBRANCH   4  32
TORSDOF 7
ENDMDL
