MODEL 4
REMARK VINA RESULT: -6.221785228      2.177      3.347
REMARK  1 active torsions:
REMARK  status: ('A' for Active; 'I' for Inactive)
REMARK    1  A    between atoms: C5_8  and  C6_9 
ROOT
HETATM    1  C1  UNL     1      16.374  19.196  15.292  1.00  0.00     0.070 C 
HETATM    2  C2  UNL     1      15.377  19.596  16.315  1.00  0.00     0.036 A 
HETATM    3  N1  UNL     1      14.247  20.281  16.069  1.00  0.00    -0.303 N 
ATOM      4  H1  UNL     1      13.957  20.597  15.144  1.00  0.00     0.186 HD
HETATM    5  N2  UNL     1      13.561  20.490  17.175  1.00  0.00    -0.307 N 
HETATM    6  C3  UNL     1      12.273  21.208  17.275  1.00  0.00     0.177 C 
HETATM    7  C4  UNL     1      14.251  19.933  18.171  1.00  0.00     0.125 A 
HETATM    8  C5  UNL     1      15.420  19.350  17.666  1.00  0.00     0.033 A 
ENDROOT
BRANCH   8   9
HETATM    9  C6  UNL     1      16.433  18.647  18.440  1.00  0.00     0.063 A 
HETATM   10  C7  UNL     1      16.458  17.308  18.752  1.00  0.00     0.050 A 
HETATM   11  C8  UNL     1      17.604  17.041  19.510  1.00  0.00     0.109 A 
HETATM   12  N3  UNL     1      18.220  18.215  19.626  1.00  0.00    -0.311 N 
HETATM   13  N4  UNL     1      17.522  19.175  18.988  1.00  0.00    -0.300 N 
ATOM     14  H3  UNL     1      19.096  18.367  20.127  1.00  0.00     0.186 HD
ATOM     15  H4  UNL     1      17.788  20.159  18.934  1.00  0.00     0.187 HD
ENDBRANCH   8   9
TORSDOF 1
ENDMDL
