MODEL 1
REMARK VINA RESULT: -6.461816321      0.000      0.000
REMARK  1 active torsions:
REMARK  status: ('A' for Active; 'I' for Inactive)
REMARK    1  A    between atoms: C5_8  and  C6_9 
ROOT
HETATM    1  C1  UNL     1      17.068  18.557  18.950  1.00  0.00     0.070 C 
HETATM    2  C2  UNL     1      16.036  19.092  18.029  1.00  0.00     0.036 A 
HETATM    3  N1  UNL     1      14.802  19.483  18.391  1.00  0.00    -0.303 N 
ATOM      4  H1  UNL     1      14.446  19.451  19.346  1.00  0.00     0.186 HD
HETATM    5  N2  UNL     1      14.110  19.912  17.354  1.00  0.00    -0.307 N 
HETATM    6  C3  UNL     1      12.721  20.415  17.386  1.00  0.00     0.177 C 
HETATM    7  C4  UNL     1      14.902  19.803  16.287  1.00  0.00     0.125 A 
HETATM    8  C5  UNL     1      16.144  19.282  16.673  1.00  0.00     0.033 A 
ENDROOT
BRANCH   8   9
HETATM    9  C6  UNL     1      17.275  19.016  15.794  1.00  0.00     0.063 A 
HETATM   10  C7  UNL     1      18.070  19.943  15.163  1.00  0.00     0.050 A 
HETATM   11  C8  UNL     1      19.043  19.269  14.414  1.00  0.00     0.109 A 
HETATM   12  N3  UNL     1      18.799  17.976  14.619  1.00  0.00    -0.311 N 
HETATM   13  N4  UNL     1      17.743  17.824  15.443  1.00  0.00    -0.300 N 
ATOM     14  H3  UNL     1      19.334  17.210  14.211  1.00  0.00     0.186 HD
ATOM     15  H4  UNL     1      17.361  16.929  15.750  1.00  0.00     0.187 HD
ENDBRANCH   8   9
TORSDOF 1
ENDMDL
