MODEL 5
REMARK VINA RESULT: -6.036860676      1.310      4.532
REMARK  1 active torsions:
REMARK  status: ('A' for Active; 'I' for Inactive)
REMARK    1  A    between atoms: C5_8  and  C6_9 
ROOT
HETATM    1  C1  UNL     1      16.353  17.953  18.678  1.00  0.00     0.070 C 
HETATM    2  C2  UNL     1      16.668  18.577  17.370  1.00  0.00     0.036 A 
HETATM    3  N1  UNL     1      17.845  18.478  16.727  1.00  0.00    -0.303 N 
ATOM      4  H1  UNL     1      18.648  17.958  17.078  1.00  0.00     0.186 HD
HETATM    5  N2  UNL     1      17.827  19.139  15.586  1.00  0.00    -0.307 N 
HETATM    6  C3  UNL     1      18.946  19.244  14.627  1.00  0.00     0.177 C 
HETATM    7  C4  UNL     1      16.616  19.685  15.473  1.00  0.00     0.125 A 
HETATM    8  C5  UNL     1      15.842  19.352  16.592  1.00  0.00     0.033 A 
ENDROOT
BRANCH   8   9
HETATM    9  C6  UNL     1      14.465  19.759  16.836  1.00  0.00     0.063 A 
HETATM   10  C7  UNL     1      13.936  20.230  18.014  1.00  0.00     0.050 A 
HETATM   11  C8  UNL     1      12.577  20.507  17.821  1.00  0.00     0.109 A 
HETATM   12  N3  UNL     1      12.341  20.195  16.548  1.00  0.00    -0.311 N 
HETATM   13  N4  UNL     1      13.467  19.747  15.959  1.00  0.00    -0.300 N 
ATOM     14  H3  UNL     1      11.436  20.282  16.085  1.00  0.00     0.186 HD
ATOM     15  H4  UNL     1      13.543  19.446  14.987  1.00  0.00     0.187 HD
ENDBRANCH   8   9
TORSDOF 1
ENDMDL
