MODEL 6
REMARK VINA RESULT: -4.950177130      4.789      7.004
REMARK  1 active torsions:
REMARK  status: ('A' for Active; 'I' for Inactive)
REMARK    1  A    between atoms: C5_8  and  C6_9 
ROOT
HETATM    1  C1  UNL     1       9.782  22.788  14.543  1.00  0.00     0.070 C 
HETATM    2  C2  UNL     1      10.863  23.674  15.041  1.00  0.00     0.036 A 
HETATM    3  N1  UNL     1      11.039  24.958  14.683  1.00  0.00    -0.303 N 
ATOM      4  H1  UNL     1      10.440  25.458  14.026  1.00  0.00     0.186 HD
HETATM    5  N2  UNL     1      12.083  25.487  15.289  1.00  0.00    -0.307 N 
HETATM    6  C3  UNL     1      12.567  26.874  15.130  1.00  0.00     0.177 C 
HETATM    7  C4  UNL     1      12.607  24.535  16.062  1.00  0.00     0.125 A 
HETATM    8  C5  UNL     1      11.858  23.358  15.933  1.00  0.00     0.033 A 
ENDROOT
BRANCH   8   9
HETATM    9  C6  UNL     1      12.114  22.098  16.617  1.00  0.00     0.063 A 
HETATM   10  C7  UNL     1      12.663  20.959  16.079  1.00  0.00     0.050 A 
HETATM   11  C8  UNL     1      12.737  19.977  17.075  1.00  0.00     0.109 A 
HETATM   12  N3  UNL     1      12.235  20.556  18.164  1.00  0.00    -0.311 N 
HETATM   13  N4  UNL     1      11.862  21.822  17.892  1.00  0.00    -0.300 N 
ATOM     14  H3  UNL     1      12.145  20.105  19.074  1.00  0.00     0.186 HD
ATOM     15  H4  UNL     1      11.448  22.470  18.563  1.00  0.00     0.187 HD
ENDBRANCH   8   9
TORSDOF 1
ENDMDL
