MODEL 2
REMARK VINA RESULT: -6.424987450      1.064      4.566
REMARK  1 active torsions:
REMARK  status: ('A' for Active; 'I' for Inactive)
REMARK    1  A    between atoms: C5_8  and  C6_9 
ROOT
HETATM    1  C1  UNL     1      16.430  18.109  18.871  1.00  0.00     0.070 C 
HETATM    2  C2  UNL     1      16.664  18.627  17.501  1.00  0.00     0.036 A 
HETATM    3  N1  UNL     1      17.770  18.407  16.768  1.00  0.00    -0.303 N 
ATOM      4  H1  UNL     1      18.567  17.856  17.083  1.00  0.00     0.186 HD
HETATM    5  N2  UNL     1      17.691  18.995  15.590  1.00  0.00    -0.307 N 
HETATM    6  C3  UNL     1      18.723  18.962  14.534  1.00  0.00     0.177 C 
HETATM    7  C4  UNL     1      16.511  19.614  15.544  1.00  0.00     0.125 A 
HETATM    8  C5  UNL     1      15.821  19.406  16.746  1.00  0.00     0.033 A 
ENDROOT
BRANCH   8   9
HETATM    9  C6  UNL     1      14.501  19.921  17.079  1.00  0.00     0.063 A 
HETATM   10  C7  UNL     1      13.435  20.086  16.226  1.00  0.00     0.050 A 
HETATM   11  C8  UNL     1      12.354  20.607  16.948  1.00  0.00     0.109 A 
HETATM   12  N3  UNL     1      12.804  20.735  18.195  1.00  0.00    -0.311 N 
HETATM   13  N4  UNL     1      14.086  20.327  18.274  1.00  0.00    -0.300 N 
ATOM     14  H3  UNL     1      12.257  21.092  18.978  1.00  0.00     0.186 HD
ATOM     15  H4  UNL     1      14.652  20.328  19.123  1.00  0.00     0.187 HD
ENDBRANCH   8   9
TORSDOF 1
ENDMDL
