MODEL 9
REMARK VINA RESULT: -9.252624543      5.364      9.184
REMARK  7 active torsions:
REMARK  status: ('A' for Active; 'I' for Inactive)
REMARK    1  A    between atoms: O1_1  and  C1_3 
REMARK    2  A    between atoms: C2_4  and  C3_5 
REMARK    3  A    between atoms: C3_5  and  O2_6 
REMARK    4  A    between atoms: O2_6  and  P1_7 
REMARK    5  A    between atoms: C4_12  and  N1_13 
REMARK    6  A    between atoms: C7_18  and  C8_19 
REMARK    7  A    between atoms: C20_35  and  O7_36 
ROOT
HETATM    1  N1  UNL     1      14.774  78.321  -5.391  1.00  0.00    -0.297 N 
HETATM    2  C5  UNL     1      14.387  78.193  -6.664  1.00  0.00     0.188 A 
HETATM    3  N2  UNL     1      13.352  77.360  -6.730  1.00  0.00    -0.347 N 
ATOM      4  H2  UNL     1      12.856  77.085  -7.577  1.00  0.00     0.167 HD
HETATM    5  C6  UNL     1      13.073  76.942  -5.469  1.00  0.00     0.105 A 
HETATM    6  C7  UNL     1      12.012  76.070  -5.011  1.00  0.00     0.074 A 
HETATM    7  N3  UNL     1      11.938  75.838  -3.784  1.00  0.00    -0.350 N 
ATOM      8  H3  UNL     1      11.209  75.215  -3.435  1.00  0.00     0.166 HD
HETATM    9  C18 UNL     1      12.849  76.426  -2.873  1.00  0.00     0.182 A 
HETATM   10  N4  UNL     1      13.811  77.252  -3.340  1.00  0.00    -0.336 N 
ATOM     11  H4  UNL     1      14.454  77.676  -2.671  1.00  0.00     0.168 HD
HETATM   12  C19 UNL     1      13.960  77.537  -4.628  1.00  0.00     0.141 A 
ENDROOT
BRANCH   1  13
HETATM   13  C4  UNL     1      15.652  79.274  -4.900  1.00  0.00     0.262 C 
HETATM   14  O6  UNL     1      16.706  78.977  -4.087  1.00  0.00    -0.353 OA
HETATM   15  C2  UNL     1      17.065  80.187  -3.588  1.00  0.00     0.180 C 
HETATM   16  C1  UNL     1      16.033  81.229  -3.760  1.00  0.00     0.182 C 
HETATM   17  C20 UNL     1      14.838  80.365  -4.120  1.00  0.00     0.198 C 
BRANCH  15  18
HETATM   18  C3  UNL     1      17.410  80.135  -2.108  1.00  0.00     0.217 C 
BRANCH  18  19
HETATM   19  O2  UNL     1      16.156  80.284  -1.494  1.00  0.00    -0.280 OA
BRANCH  19  20
HETATM   20  P1  UNL     1      15.723  79.020  -0.563  1.00  0.00     0.422 P 
HETATM   21  O3  UNL     1      15.915  77.437  -1.134  1.00  0.00    -0.617 OA
HETATM   22  O4  UNL     1      14.297  79.036  -0.890  1.00  0.00    -0.617 OA
HETATM   23  O5  UNL     1      15.585  79.250   1.042  1.00  0.00    -0.617 OA
ENDBRANCH  19  20
ENDBRANCH  18  19
ENDBRANCH  15  18
BRANCH  16  24
HETATM   24  O1  UNL     1      16.255  82.107  -4.844  1.00  0.00    -0.390 OA
ATOM     25  H1  UNL     1      17.020  82.662  -4.756  1.00  0.00     0.210 HD
ENDBRANCH  16  24
BRANCH  17  26
HETATM   26  O7  UNL     1      14.005  81.018  -5.000  1.00  0.00    -0.388 OA
ATOM     27  H7  UNL     1      14.412  81.102  -5.854  1.00  0.00     0.210 HD
ENDBRANCH  17  26
ENDBRANCH   1  13
BRANCH   6  28
HETATM   28  C8  UNL     1      11.097  75.909  -6.162  1.00  0.00    -0.006 A 
HETATM   29  C9  UNL     1      10.222  74.782  -5.901  1.00  0.00     0.014 A 
HETATM   30  C10 UNL     1       9.087  74.650  -6.648  1.00  0.00     0.013 A 
HETATM   31  C11 UNL     1       8.828  75.581  -7.623  1.00  0.00    -0.026 A 
HETATM   32  C12 UNL     1       7.648  75.382  -8.300  1.00  0.00     0.012 A 
HETATM   33  C16 UNL     1       9.660  76.664  -7.906  1.00  0.00    -0.025 A 
HETATM   34  C13 UNL     1       7.312  76.282  -9.265  1.00  0.00     0.001 A 
HETATM   35  C14 UNL     1       8.149  77.375  -9.547  1.00  0.00     0.001 A 
HETATM   36  C15 UNL     1       9.326  77.563  -8.862  1.00  0.00     0.012 A 
HETATM   37  C17 UNL     1      10.825  76.785  -7.115  1.00  0.00     0.026 A 
ENDBRANCH   6  28
TORSDOF 7
ENDMDL
