MODEL 7
REMARK VINA RESULT: -9.404810229      5.057      9.022
REMARK  7 active torsions:
REMARK  status: ('A' for Active; 'I' for Inactive)
REMARK    1  A    between atoms: O1_1  and  C1_3 
REMARK    2  A    between atoms: C2_4  and  C3_5 
REMARK    3  A    between atoms: C3_5  and  O2_6 
REMARK    4  A    between atoms: O2_6  and  P1_7 
REMARK    5  A    between atoms: C4_12  and  N1_13 
REMARK    6  A    between atoms: C7_18  and  C8_19 
REMARK    7  A    between atoms: C20_35  and  O7_36 
ROOT
HETATM    1  N1  UNL     1      14.256  78.111  -5.856  1.00  0.00    -0.297 N 
HETATM    2  C5  UNL     1      13.763  78.101  -7.098  1.00  0.00     0.188 A 
HETATM    3  N2  UNL     1      12.743  77.249  -7.161  1.00  0.00    -0.347 N 
ATOM      4  H2  UNL     1      12.181  77.046  -7.988  1.00  0.00     0.167 HD
HETATM    5  C6  UNL     1      12.584  76.698  -5.931  1.00  0.00     0.105 A 
HETATM    6  C7  UNL     1      11.585  75.753  -5.477  1.00  0.00     0.074 A 
HETATM    7  N3  UNL     1      11.622  75.396  -4.280  1.00  0.00    -0.350 N 
ATOM      8  H3  UNL     1      10.940  74.720  -3.936  1.00  0.00     0.166 HD
HETATM    9  C18 UNL     1      12.597  75.916  -3.393  1.00  0.00     0.182 A 
HETATM   10  N4  UNL     1      13.497  76.813  -3.852  1.00  0.00    -0.336 N 
ATOM     11  H4  UNL     1      14.187  77.186  -3.200  1.00  0.00     0.168 HD
HETATM   12  C19 UNL     1      13.528  77.231  -5.112  1.00  0.00     0.141 A 
ENDROOT
BRANCH   1  13
HETATM   13  C4  UNL     1      15.154  79.036  -5.346  1.00  0.00     0.262 C 
HETATM   14  O6  UNL     1      16.249  78.692  -4.608  1.00  0.00    -0.353 OA
HETATM   15  C2  UNL     1      16.627  79.868  -4.046  1.00  0.00     0.180 C 
HETATM   16  C1  UNL     1      15.583  80.911  -4.094  1.00  0.00     0.182 C 
HETATM   17  C20 UNL     1      14.375  80.064  -4.452  1.00  0.00     0.198 C 
BRANCH  15  18
HETATM   18  C3  UNL     1      17.046  79.718  -2.592  1.00  0.00     0.217 C 
BRANCH  18  19
HETATM   19  O2  UNL     1      16.871  78.344  -2.361  1.00  0.00    -0.280 OA
BRANCH  19  20
HETATM   20  P1  UNL     1      15.795  78.005  -1.186  1.00  0.00     0.422 P 
HETATM   21  O3  UNL     1      16.331  77.601   0.368  1.00  0.00    -0.617 OA
HETATM   22  O4  UNL     1      15.573  76.604  -1.546  1.00  0.00    -0.617 OA
HETATM   23  O5  UNL     1      14.263  78.524  -1.364  1.00  0.00    -0.617 OA
ENDBRANCH  19  20
ENDBRANCH  18  19
ENDBRANCH  15  18
BRANCH  16  24
HETATM   24  O1  UNL     1      15.745  81.863  -5.126  1.00  0.00    -0.390 OA
ATOM     25  H1  UNL     1      15.543  82.756  -4.877  1.00  0.00     0.210 HD
ENDBRANCH  16  24
BRANCH  17  26
HETATM   26  O7  UNL     1      13.496  80.769  -5.242  1.00  0.00    -0.388 OA
ATOM     27  H7  UNL     1      12.597  80.583  -5.000  1.00  0.00     0.210 HD
ENDBRANCH  17  26
ENDBRANCH   1  13
BRANCH   6  28
HETATM   28  C8  UNL     1      10.577  75.682  -6.558  1.00  0.00    -0.006 A 
HETATM   29  C9  UNL     1       9.667  74.590  -6.268  1.00  0.00     0.014 A 
HETATM   30  C10 UNL     1       8.472  74.543  -6.927  1.00  0.00     0.013 A 
HETATM   31  C11 UNL     1       8.188  75.523  -7.846  1.00  0.00    -0.026 A 
HETATM   32  C12 UNL     1       6.950  75.408  -8.434  1.00  0.00     0.012 A 
HETATM   33  C16 UNL     1       9.051  76.573  -8.155  1.00  0.00    -0.025 A 
HETATM   34  C13 UNL     1       6.588  76.361  -9.338  1.00  0.00     0.001 A 
HETATM   35  C14 UNL     1       7.457  77.421  -9.646  1.00  0.00     0.001 A 
HETATM   36  C15 UNL     1       8.691  77.524  -9.050  1.00  0.00     0.012 A 
HETATM   37  C17 UNL     1      10.278  76.607  -7.455  1.00  0.00     0.026 A 
ENDBRANCH   6  28
TORSDOF 7
ENDMDL
