MODEL 6
REMARK VINA RESULT: -9.414785467      4.544      8.347
REMARK  7 active torsions:
REMARK  status: ('A' for Active; 'I' for Inactive)
REMARK    1  A    between atoms: O1_1  and  C1_3 
REMARK    2  A    between atoms: C2_4  and  C3_5 
REMARK    3  A    between atoms: C3_5  and  O2_6 
REMARK    4  A    between atoms: O2_6  and  P1_7 
REMARK    5  A    between atoms: C4_12  and  N1_13 
REMARK    6  A    between atoms: C7_18  and  C8_19 
REMARK    7  A    between atoms: C20_35  and  O7_36 
ROOT
HETATM    1  N1  UNL     1      12.420  77.069  -5.018  1.00  0.00    -0.297 N 
HETATM    2  C5  UNL     1      11.816  77.576  -6.097  1.00  0.00     0.188 A 
HETATM    3  N2  UNL     1      10.901  76.715  -6.536  1.00  0.00    -0.347 N 
ATOM      4  H2  UNL     1      10.290  76.848  -7.342  1.00  0.00     0.167 HD
HETATM    5  C6  UNL     1      10.925  75.631  -5.721  1.00  0.00     0.105 A 
HETATM    6  C7  UNL     1      10.090  74.447  -5.753  1.00  0.00     0.074 A 
HETATM    7  N3  UNL     1      10.283  73.575  -4.878  1.00  0.00    -0.350 N 
ATOM      8  H3  UNL     1       9.720  72.724  -4.885  1.00  0.00     0.166 HD
HETATM    9  C18 UNL     1      11.271  73.750  -3.877  1.00  0.00     0.182 A 
HETATM   10  N4  UNL     1      12.013  74.879  -3.871  1.00  0.00    -0.336 N 
ATOM     11  H4  UNL     1      12.713  74.996  -3.138  1.00  0.00     0.168 HD
HETATM   12  C19 UNL     1      11.874  75.844  -4.772  1.00  0.00     0.141 A 
ENDROOT
BRANCH   1  13
HETATM   13  C4  UNL     1      13.248  77.762  -4.150  1.00  0.00     0.262 C 
HETATM   14  O6  UNL     1      13.328  79.123  -4.112  1.00  0.00    -0.353 OA
HETATM   15  C2  UNL     1      14.461  79.350  -3.401  1.00  0.00     0.180 C 
HETATM   16  C1  UNL     1      15.338  78.167  -3.290  1.00  0.00     0.182 C 
HETATM   17  C20 UNL     1      14.727  77.280  -4.361  1.00  0.00     0.198 C 
BRANCH  15  18
HETATM   18  C3  UNL     1      15.301  80.480  -3.977  1.00  0.00     0.217 C 
BRANCH  18  19
HETATM   19  O2  UNL     1      14.479  80.988  -4.995  1.00  0.00    -0.280 OA
BRANCH  19  20
HETATM   20  P1  UNL     1      15.071  80.761  -6.495  1.00  0.00     0.422 P 
HETATM   21  O3  UNL     1      14.439  79.542  -7.485  1.00  0.00    -0.617 OA
HETATM   22  O4  UNL     1      16.223  79.944  -6.111  1.00  0.00    -0.617 OA
HETATM   23  O5  UNL     1      15.889  81.980  -7.198  1.00  0.00    -0.617 OA
ENDBRANCH  19  20
ENDBRANCH  18  19
ENDBRANCH  15  18
BRANCH  16  24
HETATM   24  O1  UNL     1      15.239  77.471  -2.065  1.00  0.00    -0.390 OA
ATOM     25  H1  UNL     1      15.874  76.774  -1.952  1.00  0.00     0.210 HD
ENDBRANCH  16  24
BRANCH  17  26
HETATM   26  O7  UNL     1      14.820  75.952  -4.011  1.00  0.00    -0.388 OA
ATOM     27  H7  UNL     1      15.628  75.571  -4.335  1.00  0.00     0.210 HD
ENDBRANCH  17  26
ENDBRANCH   1  13
BRANCH   6  28
HETATM   28  C8  UNL     1       8.999  74.749  -6.705  1.00  0.00    -0.006 A 
HETATM   29  C9  UNL     1       7.752  74.259  -6.148  1.00  0.00     0.014 A 
HETATM   30  C10 UNL     1       6.579  74.716  -6.674  1.00  0.00     0.013 A 
HETATM   31  C11 UNL     1       6.627  75.608  -7.716  1.00  0.00    -0.026 A 
HETATM   32  C12 UNL     1       5.396  76.033  -8.157  1.00  0.00     0.012 A 
HETATM   33  C16 UNL     1       7.810  76.081  -8.282  1.00  0.00    -0.025 A 
HETATM   34  C13 UNL     1       5.365  76.940  -9.173  1.00  0.00     0.001 A 
HETATM   35  C14 UNL     1       6.559  77.419  -9.739  1.00  0.00     0.001 A 
HETATM   36  C15 UNL     1       7.783  76.986  -9.289  1.00  0.00     0.012 A 
HETATM   37  C17 UNL     1       9.013  75.602  -7.716  1.00  0.00     0.026 A 
ENDBRANCH   6  28
TORSDOF 7
ENDMDL
