MODEL 3
REMARK VINA RESULT: -4.745094295      2.077      5.081
REMARK  6 active torsions:
REMARK  status: ('A' for Active; 'I' for Inactive)
REMARK       I    between atoms: C2_2  and  N1_4 
REMARK    1  A    between atoms: N1_4  and  C3_6 
REMARK    2  A    between atoms: C4_7  and  O2_8 
REMARK    3  A    between atoms: C5_11  and  C6_12 
REMARK    4  A    between atoms: C6_12  and  O4_13 
REMARK    5  A    between atoms: C7_15  and  O5_16 
REMARK    6  A    between atoms: C8_18  and  O6_19 
ROOT
HETATM    1  C3  UNL     1      -5.724  16.400  13.577  1.00  0.00     0.170 C 
HETATM    2  C4  UNL     1      -4.571  15.751  12.898  1.00  0.00     0.282 C 
HETATM    3  O3  UNL     1      -4.651  14.414  12.687  1.00  0.00    -0.349 OA
HETATM    4  C5  UNL     1      -5.863  13.895  12.357  1.00  0.00     0.179 C 
HETATM    5  C7  UNL     1      -6.934  14.907  12.079  1.00  0.00     0.180 C 
HETATM    6  C8  UNL     1      -7.047  15.740  13.344  1.00  0.00     0.177 C 
ENDROOT
BRANCH   1   7
HETATM    7  N1  UNL     1      -5.461  16.589  14.993  1.00  0.00    -0.349 N 
HETATM    8  C2  UNL     1      -5.883  17.709  15.740  1.00  0.00     0.214 C 
HETATM    9  C1  UNL     1      -5.596  17.876  17.196  1.00  0.00     0.117 C 
HETATM   10  O1  UNL     1      -6.527  18.604  15.154  1.00  0.00    -0.274 OA
ATOM     11  H1  UNL     1      -4.935  15.863  15.480  1.00  0.00     0.163 HD
ENDBRANCH   1   7
BRANCH   2  12
HETATM   12  O2  UNL     1      -4.243  16.437  11.706  1.00  0.00    -0.369 OA
ATOM     13  H2  UNL     1      -3.384  16.838  11.775  1.00  0.00     0.212 HD
ENDBRANCH   2  12
BRANCH   6  14
HETATM   14  O6  UNL     1      -8.100  16.644  13.271  1.00  0.00    -0.391 OA
ATOM     15  H6  UNL     1      -8.950  16.222  13.244  1.00  0.00     0.210 HD
ENDBRANCH   6  14
BRANCH   5  16
HETATM   16  O5  UNL     1      -6.674  15.704  10.990  1.00  0.00    -0.390 OA
ATOM     17  H5  UNL     1      -6.426  16.592  11.216  1.00  0.00     0.210 HD
ENDBRANCH   5  16
BRANCH   4  18
HETATM   18  C6  UNL     1      -5.718  12.887  11.236  1.00  0.00     0.198 C 
BRANCH  18  19
HETATM   19  O4  UNL     1      -5.244  13.478  10.068  1.00  0.00    -0.398 OA
ATOM     20  H4  UNL     1      -4.608  14.161  10.252  1.00  0.00     0.209 HD
ENDBRANCH  18  19
ENDBRANCH   4  18
TORSDOF 6
ENDMDL
