MODEL 1
REMARK VINA RESULT: -4.961151597      0.000      0.000
REMARK  6 active torsions:
REMARK  status: ('A' for Active; 'I' for Inactive)
REMARK       I    between atoms: C2_2  and  N1_4 
REMARK    1  A    between atoms: N1_4  and  C3_6 
REMARK    2  A    between atoms: C4_7  and  O2_8 
REMARK    3  A    between atoms: C5_11  and  C6_12 
REMARK    4  A    between atoms: C6_12  and  O4_13 
REMARK    5  A    between atoms: C7_15  and  O5_16 
REMARK    6  A    between atoms: C8_18  and  O6_19 
ROOT
HETATM    1  C3  UNL     1      -5.403  13.809  12.210  1.00  0.00     0.170 C 
HETATM    2  C4  UNL     1      -6.661  14.517  11.850  1.00  0.00     0.282 C 
HETATM    3  O3  UNL     1      -7.409  15.006  12.870  1.00  0.00    -0.349 OA
HETATM    4  C5  UNL     1      -6.757  15.527  13.942  1.00  0.00     0.179 C 
HETATM    5  C7  UNL     1      -5.273  15.672  13.776  1.00  0.00     0.180 C 
HETATM    6  C8  UNL     1      -4.758  14.275  13.478  1.00  0.00     0.177 C 
ENDROOT
BRANCH   1   7
HETATM    7  N1  UNL     1      -5.591  12.370  12.200  1.00  0.00    -0.349 N 
HETATM    8  C2  UNL     1      -4.579  11.436  11.891  1.00  0.00     0.214 C 
HETATM    9  C1  UNL     1      -4.802   9.959  11.889  1.00  0.00     0.117 C 
HETATM   10  O1  UNL     1      -3.442  11.866  11.605  1.00  0.00    -0.274 OA
ATOM     11  H1  UNL     1      -6.516  12.009  12.432  1.00  0.00     0.163 HD
ENDBRANCH   1   7
BRANCH   2  12
HETATM   12  O2  UNL     1      -6.412  15.513  10.878  1.00  0.00    -0.369 OA
ATOM     13  H2  UNL     1      -6.693  16.365  11.192  1.00  0.00     0.212 HD
ENDBRANCH   2  12
BRANCH   6  14
HETATM   14  O6  UNL     1      -3.370  14.241  13.424  1.00  0.00    -0.391 OA
ATOM     15  H6  UNL     1      -3.006  13.429  13.757  1.00  0.00     0.210 HD
ENDBRANCH   6  14
BRANCH   5  16
HETATM   16  O5  UNL     1      -4.910  16.550  12.783  1.00  0.00    -0.390 OA
ATOM     17  H5  UNL     1      -4.686  17.416  13.101  1.00  0.00     0.210 HD
ENDBRANCH   5  16
BRANCH   4  18
HETATM   18  C6  UNL     1      -7.415  16.818  14.384  1.00  0.00     0.198 C 
BRANCH  18  19
HETATM   19  O4  UNL     1      -7.623  17.684  13.314  1.00  0.00    -0.398 OA
ATOM     20  H4  UNL     1      -7.224  17.359  12.515  1.00  0.00     0.209 HD
ENDBRANCH  18  19
ENDBRANCH   4  18
TORSDOF 6
ENDMDL
