MODEL 4
REMARK VINA RESULT: -4.691917890      1.685      5.143
REMARK  6 active torsions:
REMARK  status: ('A' for Active; 'I' for Inactive)
REMARK       I    between atoms: C2_2  and  N1_4 
REMARK    1  A    between atoms: N1_4  and  C3_6 
REMARK    2  A    between atoms: C4_7  and  O2_8 
REMARK    3  A    between atoms: C5_11  and  C6_12 
REMARK    4  A    between atoms: C6_12  and  O4_13 
REMARK    5  A    between atoms: C7_15  and  O5_16 
REMARK    6  A    between atoms: C8_18  and  O6_19 
ROOT
HETATM    1  C3  UNL     1      -6.020  15.877  13.194  1.00  0.00     0.170 C 
HETATM    2  C4  UNL     1      -4.838  15.003  13.423  1.00  0.00     0.282 C 
HETATM    3  O3  UNL     1      -5.039  13.663  13.359  1.00  0.00    -0.349 OA
HETATM    4  C5  UNL     1      -5.913  13.197  12.428  1.00  0.00     0.179 C 
HETATM    5  C7  UNL     1      -6.407  14.220  11.449  1.00  0.00     0.180 C 
HETATM    6  C8  UNL     1      -7.063  15.303  12.288  1.00  0.00     0.177 C 
ENDROOT
BRANCH   1   7
HETATM    7  N1  UNL     1      -6.588  16.330  14.451  1.00  0.00    -0.349 N 
HETATM    8  C2  UNL     1      -7.154  17.606  14.656  1.00  0.00     0.214 C 
HETATM    9  C1  UNL     1      -7.732  18.044  15.962  1.00  0.00     0.117 C 
HETATM   10  O1  UNL     1      -7.171  18.408  13.699  1.00  0.00    -0.274 OA
ATOM     11  H1  UNL     1      -6.579  15.682  15.238  1.00  0.00     0.163 HD
ENDBRANCH   1   7
BRANCH   2  12
HETATM   12  O2  UNL     1      -3.759  15.396  12.600  1.00  0.00    -0.369 OA
ATOM     13  H2  UNL     1      -3.632  14.773  11.893  1.00  0.00     0.212 HD
ENDBRANCH   2  12
BRANCH   6  14
HETATM   14  O6  UNL     1      -7.682  16.263  11.496  1.00  0.00    -0.391 OA
ATOM     15  H6  UNL     1      -7.803  17.091  11.943  1.00  0.00     0.210 HD
ENDBRANCH   6  14
BRANCH   5  16
HETATM   16  O5  UNL     1      -5.419  14.750  10.654  1.00  0.00    -0.390 OA
ATOM     17  H5  UNL     1      -5.736  15.099   9.830  1.00  0.00     0.210 HD
ENDBRANCH   5  16
BRANCH   4  18
HETATM   18  C6  UNL     1      -5.349  11.971  11.741  1.00  0.00     0.198 C 
BRANCH  18  19
HETATM   19  O4  UNL     1      -4.001  12.128  11.430  1.00  0.00    -0.398 OA
ATOM     20  H4  UNL     1      -3.772  11.686  10.620  1.00  0.00     0.209 HD
ENDBRANCH  18  19
ENDBRANCH   4  18
TORSDOF 6
ENDMDL
