MODEL 6
REMARK VINA RESULT: -4.451692137      1.592      2.171
REMARK  6 active torsions:
REMARK  status: ('A' for Active; 'I' for Inactive)
REMARK       I    between atoms: C2_2  and  N1_4 
REMARK    1  A    between atoms: N1_4  and  C3_6 
REMARK    2  A    between atoms: C4_7  and  O2_8 
REMARK    3  A    between atoms: C5_11  and  C6_12 
REMARK    4  A    between atoms: C6_12  and  O4_13 
REMARK    5  A    between atoms: C7_15  and  O5_16 
REMARK    6  A    between atoms: C8_18  and  O6_19 
ROOT
HETATM    1  C3  UNL     1      -6.034  14.006  12.845  1.00  0.00     0.170 C 
HETATM    2  C4  UNL     1      -6.487  14.408  14.204  1.00  0.00     0.282 C 
HETATM    3  O3  UNL     1      -5.702  15.280  14.883  1.00  0.00    -0.349 OA
HETATM    4  C5  UNL     1      -5.094  16.269  14.177  1.00  0.00     0.179 C 
HETATM    5  C7  UNL     1      -5.525  16.387  12.745  1.00  0.00     0.180 C 
HETATM    6  C8  UNL     1      -5.228  15.036  12.118  1.00  0.00     0.177 C 
ENDROOT
BRANCH   1   7
HETATM    7  N1  UNL     1      -5.361  12.720  12.875  1.00  0.00    -0.349 N 
HETATM    8  C2  UNL     1      -5.275  11.838  11.777  1.00  0.00     0.214 C 
HETATM    9  C1  UNL     1      -4.576  10.521  11.838  1.00  0.00     0.117 C 
HETATM   10  O1  UNL     1      -5.812  12.177  10.701  1.00  0.00    -0.274 OA
ATOM     11  H1  UNL     1      -4.920  12.434  13.749  1.00  0.00     0.163 HD
ENDBRANCH   1   7
BRANCH   2  12
HETATM   12  O2  UNL     1      -7.830  14.848  14.173  1.00  0.00    -0.369 OA
ATOM     13  H2  UNL     1      -8.188  14.894  15.052  1.00  0.00     0.212 HD
ENDBRANCH   2  12
BRANCH   6  14
HETATM   14  O6  UNL     1      -5.464  15.044  10.748  1.00  0.00    -0.391 OA
ATOM     15  H6  UNL     1      -4.989  14.363  10.286  1.00  0.00     0.210 HD
ENDBRANCH   6  14
BRANCH   5  16
HETATM   16  O5  UNL     1      -6.850  16.718  12.591  1.00  0.00    -0.390 OA
ATOM     17  H5  UNL     1      -7.162  17.353  13.224  1.00  0.00     0.210 HD
ENDBRANCH   5  16
BRANCH   4  18
HETATM   18  C6  UNL     1      -5.195  17.586  14.918  1.00  0.00     0.198 C 
BRANCH  18  19
HETATM   19  O4  UNL     1      -5.442  18.648  14.052  1.00  0.00    -0.398 OA
ATOM     20  H4  UNL     1      -6.048  19.276  14.429  1.00  0.00     0.209 HD
ENDBRANCH  18  19
ENDBRANCH   4  18
TORSDOF 6
ENDMDL
