MODEL 7
REMARK VINA RESULT: -4.391861133      2.225      3.137
REMARK  6 active torsions:
REMARK  status: ('A' for Active; 'I' for Inactive)
REMARK       I    between atoms: C2_2  and  N1_4 
REMARK    1  A    between atoms: N1_4  and  C3_6 
REMARK    2  A    between atoms: C4_7  and  O2_8 
REMARK    3  A    between atoms: C5_11  and  C6_12 
REMARK    4  A    between atoms: C6_12  and  O4_13 
REMARK    5  A    between atoms: C7_15  and  O5_16 
REMARK    6  A    between atoms: C8_18  and  O6_19 
ROOT
HETATM    1  C3  UNL     1      -5.455  16.117  12.840  1.00  0.00     0.170 C 
HETATM    2  C4  UNL     1      -6.248  16.531  14.029  1.00  0.00     0.282 C 
HETATM    3  O3  UNL     1      -5.572  16.710  15.191  1.00  0.00    -0.349 OA
HETATM    4  C5  UNL     1      -4.329  17.256  15.124  1.00  0.00     0.179 C 
HETATM    5  C7  UNL     1      -3.933  17.776  13.774  1.00  0.00     0.180 C 
HETATM    6  C8  UNL     1      -4.035  16.587  12.834  1.00  0.00     0.177 C 
ENDROOT
BRANCH   1   7
HETATM    7  N1  UNL     1      -5.549  14.685  12.621  1.00  0.00    -0.349 N 
HETATM    8  C2  UNL     1      -5.558  14.071  11.351  1.00  0.00     0.214 C 
HETATM    9  C1  UNL     1      -5.655  12.594  11.156  1.00  0.00     0.117 C 
HETATM   10  O1  UNL     1      -5.480  14.800  10.339  1.00  0.00    -0.274 OA
ATOM     11  H1  UNL     1      -5.613  14.081  13.441  1.00  0.00     0.163 HD
ENDBRANCH   1   7
BRANCH   2  12
HETATM   12  O2  UNL     1      -7.049  17.657  13.727  1.00  0.00    -0.369 OA
ATOM     13  H2  UNL     1      -6.711  18.114  12.966  1.00  0.00     0.212 HD
ENDBRANCH   2  12
BRANCH   6  14
HETATM   14  O6  UNL     1      -3.571  16.898  11.561  1.00  0.00    -0.391 OA
ATOM     15  H6  UNL     1      -3.097  16.182  11.154  1.00  0.00     0.210 HD
ENDBRANCH   6  14
BRANCH   5  16
HETATM   16  O5  UNL     1      -4.713  18.817  13.331  1.00  0.00    -0.390 OA
ATOM     17  H5  UNL     1      -4.936  18.763  12.409  1.00  0.00     0.210 HD
ENDBRANCH   5  16
BRANCH   4  18
HETATM   18  C6  UNL     1      -4.149  18.292  16.214  1.00  0.00     0.198 C 
BRANCH  18  19
HETATM   19  O4  UNL     1      -5.147  19.261  16.176  1.00  0.00    -0.398 OA
ATOM     20  H4  UNL     1      -4.897  20.004  15.639  1.00  0.00     0.209 HD
ENDBRANCH  18  19
ENDBRANCH   4  18
TORSDOF 6
ENDMDL
