MODEL 11
REMARK VINA RESULT: -10.037799072      6.265     11.710
REMARK  5 active torsions:
REMARK  status: ('A' for Active; 'I' for Inactive)
REMARK    1  A    between atoms: C1_2  and  C2_4 
REMARK    2  A    between atoms: N3_7  and  C4_8 
REMARK    3  A    between atoms: C7_11  and  N4_12 
REMARK       I    between atoms: N4_12  and  C8_14 
REMARK       I    between atoms: C8_14  and  N5_16 
REMARK    4  A    between atoms: N5_16  and  C9_18 
REMARK    5  A    between atoms: C13_22  and  C14_23 
ROOT
HETATM    1  C4  UNL     1       1.513 -10.903 -13.719  1.00  0.00     0.042 A 
HETATM    2  C5  UNL     1       2.256 -12.018 -14.037  1.00  0.00     0.032 A 
HETATM    3  C6  UNL     1       2.132 -13.210 -13.365  1.00  0.00     0.032 A 
HETATM    4  C7  UNL     1       1.218 -13.303 -12.312  1.00  0.00     0.036 A 
HETATM    5  C16 UNL     1       0.476 -12.203 -11.981  1.00  0.00     0.032 A 
HETATM    6  C17 UNL     1       0.616 -10.998 -12.678  1.00  0.00     0.032 A 
ENDROOT
BRANCH   1   7
HETATM    7  N3  UNL     1       1.631  -9.696 -14.478  1.00  0.00    -0.283 N 
HETATM    8  C3  UNL     1       1.518  -8.430 -14.036  1.00  0.00     0.142 A 
HETATM    9  C2  UNL     1       1.660  -7.521 -15.054  1.00  0.00     0.101 A 
HETATM   10  N2  UNL     1       1.282  -8.087 -12.683  1.00  0.00    -0.081 NA
HETATM   11  C25 UNL     1       1.874  -8.274 -16.189  1.00  0.00     0.097 A 
HETATM   12  C18 UNL     1       1.849  -9.615 -15.800  1.00  0.00     0.142 A 
HETATM   13  N7  UNL     1       2.085  -7.962 -17.493  1.00  0.00    -0.350 N 
HETATM   14  N6  UNL     1       2.042 -10.565 -16.736  1.00  0.00    -0.338 N 
HETATM   15  C19 UNL     1       2.252 -10.271 -18.034  1.00  0.00     0.060 A 
ATOM     16  H6  UNL     1       2.027 -11.544 -16.452  1.00  0.00     0.167 HD
HETATM   17  C20 UNL     1       2.457 -11.249 -18.985  1.00  0.00     0.032 A 
HETATM   18  C24 UNL     1       2.272  -8.932 -18.412  1.00  0.00     0.059 A 
HETATM   19  C21 UNL     1       2.681 -10.989 -20.321  1.00  0.00     0.002 A 
HETATM   20  C22 UNL     1       2.698  -9.654 -20.695  1.00  0.00     0.002 A 
HETATM   21  C23 UNL     1       2.496  -8.658 -19.749  1.00  0.00     0.032 A 
ATOM     22  H7  UNL     1       2.101  -6.984 -17.782  1.00  0.00     0.166 HD
BRANCH   9  23
HETATM   23  C1  UNL     1       1.604  -6.068 -14.945  1.00  0.00     0.270 C 
HETATM   24  N1  UNL     1       2.797  -5.350 -14.715  1.00  0.00    -0.057 NA
HETATM   25  O1  UNL     1       0.543  -5.436 -15.045  1.00  0.00    -0.271 OA
ENDBRANCH   9  23
ENDBRANCH   1   7
BRANCH   4  26
HETATM   26  N4  UNL     1       1.132 -14.570 -11.687  1.00  0.00    -0.309 N 
HETATM   27  C8  UNL     1       0.698 -15.777 -12.309  1.00  0.00     0.325 C 
HETATM   28  O2  UNL     1       0.361 -15.738 -13.504  1.00  0.00    -0.247 OA
HETATM   29  N5  UNL     1       0.670 -16.977 -11.568  1.00  0.00    -0.309 N 
ATOM     30  H5  UNL     1       0.961 -16.935 -10.592  1.00  0.00     0.170 HD
ATOM     31  H4  UNL     1       1.405 -14.624 -10.705  1.00  0.00     0.170 HD
BRANCH  29  32
HETATM   32  C9  UNL     1       0.273 -18.222 -12.073  1.00  0.00     0.037 A 
HETATM   33  C10 UNL     1       0.422 -19.372 -11.290  1.00  0.00     0.029 A 
HETATM   34  C11 UNL     1       0.042 -20.615 -11.725  1.00  0.00     0.003 A 
HETATM   35  C12 UNL     1      -0.506 -20.786 -12.968  1.00  0.00     0.016 A 
HETATM   36  C13 UNL     1      -0.662 -19.687 -13.750  1.00  0.00     0.050 A 
HETATM   37  C15 UNL     1      -0.276 -18.409 -13.307  1.00  0.00     0.045 A 
BRANCH  36  38
HETATM   38  C14 UNL     1      -1.259 -19.850 -15.108  1.00  0.00     0.417 C 
HETATM   39  F1  UNL     1      -2.272 -20.766 -15.112  1.00  0.00    -0.166 F 
HETATM   40  F2  UNL     1      -0.323 -20.311 -16.003  1.00  0.00    -0.166 F 
HETATM   41  F3  UNL     1      -1.756 -18.649 -15.580  1.00  0.00    -0.166 F 
ENDBRANCH  36  38
ENDBRANCH  29  32
ENDBRANCH   4  26
TORSDOF 5
ENDMDL
