MODEL 2
REMARK VINA RESULT: -13.025412615      0.573      1.064
REMARK  5 active torsions:
REMARK  status: ('A' for Active; 'I' for Inactive)
REMARK    1  A    between atoms: C1_2  and  C2_4 
REMARK    2  A    between atoms: N3_7  and  C4_8 
REMARK    3  A    between atoms: C7_11  and  N4_12 
REMARK       I    between atoms: N4_12  and  C8_14 
REMARK       I    between atoms: C8_14  and  N5_16 
REMARK    4  A    between atoms: N5_16  and  C9_18 
REMARK    5  A    between atoms: C13_22  and  C14_23 
ROOT
HETATM    1  C4  UNL     1       1.520  -8.971 -14.530  1.00  0.00     0.042 A 
HETATM    2  C5  UNL     1       1.760  -7.930 -13.662  1.00  0.00     0.032 A 
HETATM    3  C6  UNL     1       1.779  -6.616 -14.063  1.00  0.00     0.032 A 
HETATM    4  C7  UNL     1       1.549  -6.315 -15.408  1.00  0.00     0.036 A 
HETATM    5  C16 UNL     1       1.314  -7.339 -16.285  1.00  0.00     0.032 A 
HETATM    6  C17 UNL     1       1.297  -8.670 -15.856  1.00  0.00     0.032 A 
ENDROOT
BRANCH   1   7
HETATM    7  N3  UNL     1       1.454 -10.322 -14.064  1.00  0.00    -0.283 N 
HETATM    8  C3  UNL     1       1.206 -10.752 -12.813  1.00  0.00     0.142 A 
HETATM    9  C2  UNL     1       1.251 -12.119 -12.726  1.00  0.00     0.101 A 
HETATM   10  N2  UNL     1       0.933  -9.889 -11.724  1.00  0.00    -0.081 NA
HETATM   11  C25 UNL     1       1.542 -12.557 -14.001  1.00  0.00     0.097 A 
HETATM   12  C18 UNL     1       1.664 -11.422 -14.805  1.00  0.00     0.142 A 
HETATM   13  N7  UNL     1       1.714 -13.786 -14.553  1.00  0.00    -0.350 N 
HETATM   14  N6  UNL     1       1.944 -11.581 -16.113  1.00  0.00    -0.338 N 
HETATM   15  C19 UNL     1       2.117 -12.794 -16.675  1.00  0.00     0.060 A 
ATOM     16  H6  UNL     1       2.028 -10.752 -16.701  1.00  0.00     0.167 HD
HETATM   17  C20 UNL     1       2.395 -12.948 -18.017  1.00  0.00     0.032 A 
HETATM   18  C24 UNL     1       1.997 -13.919 -15.865  1.00  0.00     0.059 A 
HETATM   19  C21 UNL     1       2.573 -14.170 -18.630  1.00  0.00     0.002 A 
HETATM   20  C22 UNL     1       2.456 -15.290 -17.820  1.00  0.00     0.002 A 
HETATM   21  C23 UNL     1       2.173 -15.150 -16.468  1.00  0.00     0.032 A 
ATOM     22  H7  UNL     1       1.629 -14.618 -13.969  1.00  0.00     0.166 HD
BRANCH   9  23
HETATM   23  C1  UNL     1       1.025 -12.929 -11.535  1.00  0.00     0.270 C 
HETATM   24  N1  UNL     1       0.567 -14.256 -11.682  1.00  0.00    -0.057 NA
HETATM   25  O1  UNL     1       1.221 -12.495 -10.391  1.00  0.00    -0.271 OA
ENDBRANCH   9  23
ENDBRANCH   1   7
BRANCH   4  26
HETATM   26  N4  UNL     1       1.561  -4.939 -15.737  1.00  0.00    -0.309 N 
HETATM   27  C8  UNL     1       0.417  -4.092 -15.820  1.00  0.00     0.325 C 
HETATM   28  O2  UNL     1      -0.700  -4.584 -15.587  1.00  0.00    -0.247 OA
HETATM   29  N5  UNL     1       0.574  -2.730 -16.150  1.00  0.00    -0.309 N 
ATOM     30  H5  UNL     1       1.520  -2.394 -16.329  1.00  0.00     0.170 HD
ATOM     31  H4  UNL     1       2.469  -4.515 -15.932  1.00  0.00     0.170 HD
BRANCH  29  32
HETATM   32  C9  UNL     1      -0.472  -1.803 -16.252  1.00  0.00     0.037 A 
HETATM   33  C10 UNL     1      -0.368  -0.729 -17.142  1.00  0.00     0.029 A 
HETATM   34  C11 UNL     1      -1.362   0.203 -17.293  1.00  0.00     0.003 A 
HETATM   35  C12 UNL     1      -2.518   0.120 -16.563  1.00  0.00     0.016 A 
HETATM   36  C13 UNL     1      -2.646  -0.914 -15.692  1.00  0.00     0.050 A 
HETATM   37  C15 UNL     1      -1.630  -1.873 -15.534  1.00  0.00     0.045 A 
BRANCH  36  38
HETATM   38  C14 UNL     1      -3.898  -1.024 -14.887  1.00  0.00     0.417 C 
HETATM   39  F1  UNL     1      -4.843  -1.783 -15.517  1.00  0.00    -0.166 F 
HETATM   40  F2  UNL     1      -4.468   0.211 -14.692  1.00  0.00    -0.166 F 
HETATM   41  F3  UNL     1      -3.645  -1.585 -13.649  1.00  0.00    -0.166 F 
ENDBRANCH  36  38
ENDBRANCH  29  32
ENDBRANCH   4  26
TORSDOF 5
ENDMDL
