MODEL 12
REMARK VINA RESULT: -9.813710671      6.965     11.499
REMARK  5 active torsions:
REMARK  status: ('A' for Active; 'I' for Inactive)
REMARK    1  A    between atoms: C1_2  and  C2_4 
REMARK    2  A    between atoms: N3_7  and  C4_8 
REMARK    3  A    between atoms: C7_11  and  N4_12 
REMARK       I    between atoms: N4_12  and  C8_14 
REMARK       I    between atoms: C8_14  and  N5_16 
REMARK    4  A    between atoms: N5_16  and  C9_18 
REMARK    5  A    between atoms: C13_22  and  C14_23 
ROOT
HETATM    1  C4  UNL     1       1.955 -10.142 -17.607  1.00  0.00     0.042 A 
HETATM    2  C5  UNL     1       2.336  -9.575 -18.801  1.00  0.00     0.032 A 
HETATM    3  C6  UNL     1       2.486 -10.304 -19.956  1.00  0.00     0.032 A 
HETATM    4  C7  UNL     1       2.245 -11.680 -19.925  1.00  0.00     0.036 A 
HETATM    5  C16 UNL     1       1.870 -12.259 -18.744  1.00  0.00     0.032 A 
HETATM    6  C17 UNL     1       1.722 -11.499 -17.579  1.00  0.00     0.032 A 
ENDROOT
BRANCH   1   7
HETATM    7  N3  UNL     1       1.757  -9.340 -16.438  1.00  0.00    -0.283 N 
HETATM    8  C3  UNL     1       1.775  -7.998 -16.346  1.00  0.00     0.142 A 
HETATM    9  C2  UNL     1       1.576  -7.573 -15.058  1.00  0.00     0.101 A 
HETATM   10  N2  UNL     1       1.975  -7.136 -17.451  1.00  0.00    -0.081 NA
HETATM   11  C25 UNL     1       1.426  -8.724 -14.313  1.00  0.00     0.097 A 
HETATM   12  C18 UNL     1       1.544  -9.800 -15.195  1.00  0.00     0.142 A 
HETATM   13  N7  UNL     1       1.203  -8.963 -12.995  1.00  0.00    -0.350 N 
HETATM   14  N6  UNL     1       1.427 -11.051 -14.709  1.00  0.00    -0.338 N 
HETATM   15  C19 UNL     1       1.206 -11.305 -13.405  1.00  0.00     0.060 A 
ATOM     16  H6  UNL     1       1.510 -11.836 -15.354  1.00  0.00     0.167 HD
HETATM   17  C20 UNL     1       1.080 -12.589 -12.918  1.00  0.00     0.032 A 
HETATM   18  C24 UNL     1       1.093 -10.226 -12.533  1.00  0.00     0.059 A 
HETATM   19  C21 UNL     1       0.847 -12.890 -11.592  1.00  0.00     0.002 A 
HETATM   20  C22 UNL     1       0.738 -11.813 -10.725  1.00  0.00     0.002 A 
HETATM   21  C23 UNL     1       0.861 -10.515 -11.201  1.00  0.00     0.032 A 
ATOM     22  H7  UNL     1       1.119  -8.180 -12.347  1.00  0.00     0.166 HD
BRANCH   9  23
HETATM   23  C1  UNL     1       1.527  -6.194 -14.588  1.00  0.00     0.270 C 
HETATM   24  N1  UNL     1       2.727  -5.459 -14.484  1.00  0.00    -0.057 NA
HETATM   25  O1  UNL     1       0.464  -5.638 -14.272  1.00  0.00    -0.271 OA
ENDBRANCH   9  23
ENDBRANCH   1   7
BRANCH   4  26
HETATM   26  N4  UNL     1       2.397 -12.356 -21.159  1.00  0.00    -0.309 N 
HETATM   27  C8  UNL     1       1.511 -13.343 -21.683  1.00  0.00     0.325 C 
HETATM   28  O2  UNL     1       0.511 -13.653 -21.014  1.00  0.00    -0.247 OA
HETATM   29  N5  UNL     1       1.778 -13.932 -22.936  1.00  0.00    -0.309 N 
ATOM     30  H5  UNL     1       2.617 -13.629 -23.430  1.00  0.00     0.170 HD
ATOM     31  H4  UNL     1       3.212 -12.115 -21.724  1.00  0.00     0.170 HD
BRANCH  29  32
HETATM   32  C9  UNL     1       0.977 -14.901 -23.554  1.00  0.00     0.037 A 
HETATM   33  C10 UNL     1      -0.082 -14.508 -24.379  1.00  0.00     0.029 A 
HETATM   34  C11 UNL     1      -0.893 -15.409 -25.018  1.00  0.00     0.003 A 
HETATM   35  C12 UNL     1      -0.697 -16.757 -24.870  1.00  0.00     0.016 A 
HETATM   36  C13 UNL     1       0.324 -17.167 -24.075  1.00  0.00     0.050 A 
HETATM   37  C15 UNL     1       1.160 -16.246 -23.419  1.00  0.00     0.045 A 
BRANCH  36  38
HETATM   38  C14 UNL     1       0.556 -18.631 -23.901  1.00  0.00     0.417 C 
HETATM   39  F1  UNL     1       1.623 -19.068 -24.634  1.00  0.00    -0.166 F 
HETATM   40  F2  UNL     1      -0.528 -19.355 -24.335  1.00  0.00    -0.166 F 
HETATM   41  F3  UNL     1       0.783 -18.943 -22.573  1.00  0.00    -0.166 F 
ENDBRANCH  36  38
ENDBRANCH  29  32
ENDBRANCH   4  26
TORSDOF 5
ENDMDL
