MODEL 1
REMARK VINA RESULT: -14.105168446      0.000      0.000
REMARK  5 active torsions:
REMARK  status: ('A' for Active; 'I' for Inactive)
REMARK    1  A    between atoms: C1_2  and  C2_4 
REMARK    2  A    between atoms: N3_7  and  C4_8 
REMARK    3  A    between atoms: C7_11  and  N4_12 
REMARK       I    between atoms: N4_12  and  C8_14 
REMARK       I    between atoms: C8_14  and  N5_16 
REMARK    4  A    between atoms: N5_16  and  C9_18 
REMARK    5  A    between atoms: C13_22  and  C14_23 
ROOT
HETATM    1  C4  UNL     1       1.344  -8.780 -14.655  1.00  0.00     0.042 A 
HETATM    2  C5  UNL     1       1.312  -8.429 -15.985  1.00  0.00     0.032 A 
HETATM    3  C6  UNL     1       1.278  -7.123 -16.409  1.00  0.00     0.032 A 
HETATM    4  C7  UNL     1       1.273  -6.101 -15.455  1.00  0.00     0.036 A 
HETATM    5  C16 UNL     1       1.299  -6.434 -14.129  1.00  0.00     0.032 A 
HETATM    6  C17 UNL     1       1.335  -7.771 -13.718  1.00  0.00     0.032 A 
ENDROOT
BRANCH   1   7
HETATM    7  N3  UNL     1       1.434 -10.151 -14.255  1.00  0.00    -0.283 N 
HETATM    8  C3  UNL     1       1.316 -10.658 -13.013  1.00  0.00     0.142 A 
HETATM    9  C2  UNL     1       1.491 -12.018 -12.999  1.00  0.00     0.101 A 
HETATM   10  N2  UNL     1       1.043  -9.874 -11.867  1.00  0.00    -0.081 NA
HETATM   11  C25 UNL     1       1.731 -12.369 -14.311  1.00  0.00     0.097 A 
HETATM   12  C18 UNL     1       1.691 -11.192 -15.063  1.00  0.00     0.142 A 
HETATM   13  N7  UNL     1       1.975 -13.550 -14.935  1.00  0.00    -0.350 N 
HETATM   14  N6  UNL     1       1.891 -11.266 -16.393  1.00  0.00    -0.338 N 
HETATM   15  C19 UNL     1       2.134 -12.431 -17.026  1.00  0.00     0.060 A 
ATOM     16  H6  UNL     1       1.858 -10.408 -16.942  1.00  0.00     0.167 HD
HETATM   17  C20 UNL     1       2.330 -12.498 -18.389  1.00  0.00     0.032 A 
HETATM   18  C24 UNL     1       2.175 -13.597 -16.268  1.00  0.00     0.059 A 
HETATM   19  C21 UNL     1       2.575 -13.670 -19.075  1.00  0.00     0.002 A 
HETATM   20  C22 UNL     1       2.618 -14.830 -18.316  1.00  0.00     0.002 A 
HETATM   21  C23 UNL     1       2.421 -14.778 -16.943  1.00  0.00     0.032 A 
ATOM     22  H7  UNL     1       2.007 -14.411 -14.390  1.00  0.00     0.166 HD
BRANCH   9  23
HETATM   23  C1  UNL     1       1.426 -12.897 -11.839  1.00  0.00     0.270 C 
HETATM   24  N1  UNL     1       2.310 -13.994 -11.757  1.00  0.00    -0.057 NA
HETATM   25  O1  UNL     1       0.617 -12.719 -10.916  1.00  0.00    -0.271 OA
ENDBRANCH   9  23
ENDBRANCH   1   7
BRANCH   4  26
HETATM   26  N4  UNL     1       1.262  -4.784 -15.971  1.00  0.00    -0.309 N 
HETATM   27  C8  UNL     1       0.184  -3.856 -15.862  1.00  0.00     0.325 C 
HETATM   28  O2  UNL     1      -0.845  -4.214 -15.266  1.00  0.00    -0.247 OA
HETATM   29  N5  UNL     1       0.311  -2.565 -16.417  1.00  0.00    -0.309 N 
ATOM     30  H5  UNL     1       1.184  -2.340 -16.892  1.00  0.00     0.170 HD
ATOM     31  H4  UNL     1       2.098  -4.469 -16.464  1.00  0.00     0.170 HD
BRANCH  29  32
HETATM   32  C9  UNL     1      -0.674  -1.570 -16.364  1.00  0.00     0.037 A 
HETATM   33  C10 UNL     1      -0.575  -0.446 -17.192  1.00  0.00     0.029 A 
HETATM   34  C11 UNL     1      -1.511   0.555 -17.193  1.00  0.00     0.003 A 
HETATM   35  C12 UNL     1      -2.601   0.496 -16.365  1.00  0.00     0.016 A 
HETATM   36  C13 UNL     1      -2.722  -0.584 -15.551  1.00  0.00     0.050 A 
HETATM   37  C15 UNL     1      -1.765  -1.614 -15.548  1.00  0.00     0.045 A 
BRANCH  36  38
HETATM   38  C14 UNL     1      -3.903  -0.669 -14.642  1.00  0.00     0.417 C 
HETATM   39  F1  UNL     1      -4.830   0.295 -14.920  1.00  0.00    -0.166 F 
HETATM   40  F2  UNL     1      -3.531  -0.474 -13.333  1.00  0.00    -0.166 F 
HETATM   41  F3  UNL     1      -4.517  -1.904 -14.739  1.00  0.00    -0.166 F 
ENDBRANCH  36  38
ENDBRANCH  29  32
ENDBRANCH   4  26
TORSDOF 5
ENDMDL
