MODEL 6
REMARK VINA RESULT: -10.871900475      6.593     12.304
REMARK  5 active torsions:
REMARK  status: ('A' for Active; 'I' for Inactive)
REMARK    1  A    between atoms: C1_2  and  C2_4 
REMARK    2  A    between atoms: N3_7  and  C4_8 
REMARK    3  A    between atoms: C7_11  and  N4_12 
REMARK       I    between atoms: N4_12  and  C8_14 
REMARK       I    between atoms: C8_14  and  N5_16 
REMARK    4  A    between atoms: N5_16  and  C9_18 
REMARK    5  A    between atoms: C13_22  and  C14_23 
ROOT
HETATM    1  C4  UNL     1       1.985 -12.312 -16.828  1.00  0.00     0.042 A 
HETATM    2  C5  UNL     1       2.475 -13.500 -17.318  1.00  0.00     0.032 A 
HETATM    3  C6  UNL     1       2.320 -14.697 -16.660  1.00  0.00     0.032 A 
HETATM    4  C7  UNL     1       1.639 -14.715 -15.439  1.00  0.00     0.036 A 
HETATM    5  C16 UNL     1       1.150 -13.540 -14.937  1.00  0.00     0.032 A 
HETATM    6  C17 UNL     1       1.317 -12.333 -15.624  1.00  0.00     0.032 A 
ENDROOT
BRANCH   1   7
HETATM    7  N3  UNL     1       2.119 -11.096 -17.570  1.00  0.00    -0.283 N 
HETATM    8  C3  UNL     1       2.441 -10.953 -18.869  1.00  0.00     0.142 A 
HETATM    9  C2  UNL     1       2.508  -9.633 -19.236  1.00  0.00     0.101 A 
HETATM   10  N2  UNL     1       2.680 -12.040 -19.744  1.00  0.00    -0.081 NA
HETATM   11  C25 UNL     1       2.208  -8.921 -18.093  1.00  0.00     0.097 A 
HETATM   12  C18 UNL     1       1.973  -9.854 -17.080  1.00  0.00     0.142 A 
HETATM   13  N7  UNL     1       2.110  -7.596 -17.814  1.00  0.00    -0.350 N 
HETATM   14  N6  UNL     1       1.650  -9.408 -15.851  1.00  0.00    -0.338 N 
HETATM   15  C19 UNL     1       1.549  -8.096 -15.559  1.00  0.00     0.060 A 
ATOM     16  H6  UNL     1       1.475 -10.089 -15.113  1.00  0.00     0.167 HD
HETATM   17  C20 UNL     1       1.210  -7.649 -14.299  1.00  0.00     0.032 A 
HETATM   18  C24 UNL     1       1.788  -7.175 -16.574  1.00  0.00     0.059 A 
HETATM   19  C21 UNL     1       1.091  -6.316 -13.963  1.00  0.00     0.002 A 
HETATM   20  C22 UNL     1       1.332  -5.400 -14.976  1.00  0.00     0.002 A 
HETATM   21  C23 UNL     1       1.672  -5.836 -16.249  1.00  0.00     0.032 A 
ATOM     22  H7  UNL     1       2.283  -6.911 -18.550  1.00  0.00     0.166 HD
BRANCH   9  23
HETATM   23  C1  UNL     1       2.822  -9.106 -20.558  1.00  0.00     0.270 C 
HETATM   24  N1  UNL     1       3.689  -7.998 -20.668  1.00  0.00    -0.057 NA
HETATM   25  O1  UNL     1       2.352  -9.595 -21.595  1.00  0.00    -0.271 OA
ENDBRANCH   9  23
ENDBRANCH   1   7
BRANCH   4  26
HETATM   26  N4  UNL     1       1.500 -15.987 -14.836  1.00  0.00    -0.309 N 
HETATM   27  C8  UNL     1       0.289 -16.733 -14.734  1.00  0.00     0.325 C 
HETATM   28  O2  UNL     1      -0.749 -16.242 -15.209  1.00  0.00    -0.247 OA
HETATM   29  N5  UNL     1       0.294 -17.999 -14.112  1.00  0.00    -0.309 N 
ATOM     30  H5  UNL     1       1.182 -18.340 -13.745  1.00  0.00     0.170 HD
ATOM     31  H4  UNL     1       2.340 -16.409 -14.439  1.00  0.00     0.170 HD
BRANCH  29  32
HETATM   32  C9  UNL     1      -0.829 -18.823 -13.963  1.00  0.00     0.037 A 
HETATM   33  C10 UNL     1      -0.889 -19.733 -12.901  1.00  0.00     0.029 A 
HETATM   34  C11 UNL     1      -1.965 -20.558 -12.697  1.00  0.00     0.003 A 
HETATM   35  C12 UNL     1      -3.043 -20.526 -13.541  1.00  0.00     0.016 A 
HETATM   36  C13 UNL     1      -3.011 -19.652 -14.580  1.00  0.00     0.050 A 
HETATM   37  C15 UNL     1      -1.911 -18.802 -14.792  1.00  0.00     0.045 A 
BRANCH  36  38
HETATM   38  C14 UNL     1      -4.177 -19.600 -15.511  1.00  0.00     0.417 C 
HETATM   39  F1  UNL     1      -3.951 -20.320 -16.649  1.00  0.00    -0.166 F 
HETATM   40  F2  UNL     1      -4.423 -18.310 -15.917  1.00  0.00    -0.166 F 
HETATM   41  F3  UNL     1      -5.319 -20.089 -14.905  1.00  0.00    -0.166 F 
ENDBRANCH  36  38
ENDBRANCH  29  32
ENDBRANCH   4  26
TORSDOF 5
ENDMDL
