MODEL 17
REMARK VINA RESULT: -6.122067508      1.933      4.232
REMARK  8 active torsions:
REMARK  status: ('A' for Active; 'I' for Inactive)
REMARK       I    between atoms: C1_2  and  N1_3 
REMARK    1  A    between atoms: C1_2  and  C2_7 
REMARK    2  A    between atoms: N1_3  and  O2_5 
REMARK    3  A    between atoms: C2_7  and  O3_8 
REMARK    4  A    between atoms: C2_7  and  C3_10 
REMARK    5  A    between atoms: C3_10  and  O4_11 
REMARK    6  A    between atoms: C3_10  and  C4_13 
REMARK    7  A    between atoms: C4_13  and  O5_14 
REMARK    8  A    between atoms: O5_14  and  P1_15 
ROOT
HETATM    1  C2  UNL     1      -8.272   4.658 -32.347  1.00  0.00     0.242 C 
ENDROOT
BRANCH   1   2
HETATM    2  C1  UNL     1      -8.408   3.469 -33.214  1.00  0.00     0.272 C 
HETATM    3  O1  UNL     1      -7.375   2.839 -33.552  1.00  0.00    -0.268 OA
HETATM    4  N1  UNL     1      -9.663   3.019 -33.676  1.00  0.00    -0.235 N 
ATOM      5  H1  UNL     1     -10.493   3.539 -33.394  1.00  0.00     0.197 HD
BRANCH   4   6
HETATM    6  O2  UNL     1      -9.830   1.935 -34.473  1.00  0.00    -0.287 OA
ATOM      7  H2  UNL     1     -10.635   1.738 -34.938  1.00  0.00     0.244 HD
ENDBRANCH   4   6
ENDBRANCH   1   2
BRANCH   1   8
HETATM    8  O3  UNL     1      -7.569   4.380 -31.180  1.00  0.00    -0.383 OA
ATOM      9  H3  UNL     1      -8.036   4.662 -30.403  1.00  0.00     0.210 HD
ENDBRANCH   1   8
BRANCH   1  10
HETATM   10  C3  UNL     1      -9.626   5.261 -32.021  1.00  0.00     0.180 C 
BRANCH  10  11
HETATM   11  O4  UNL     1      -9.701   6.524 -32.600  1.00  0.00    -0.390 OA
ATOM     12  H4  UNL     1     -10.554   6.896 -32.409  1.00  0.00     0.210 HD
ENDBRANCH  10  11
BRANCH  10  13
HETATM   13  C4  UNL     1      -9.784   5.324 -30.518  1.00  0.00     0.217 C 
BRANCH  13  14
HETATM   14  O5  UNL     1     -10.450   4.214 -30.080  1.00  0.00    -0.280 OA
BRANCH  14  15
HETATM   15  P1  UNL     1     -11.811   3.802 -30.911  1.00  0.00     0.422 P 
HETATM   16  O6  UNL     1     -11.840   2.599 -31.985  1.00  0.00    -0.617 OA
HETATM   17  O7  UNL     1     -13.156   4.836 -30.809  1.00  0.00    -0.617 OA
HETATM   18  O8  UNL     1     -12.371   3.030 -29.718  1.00  0.00    -0.617 OA
ENDBRANCH  14  15
ENDBRANCH  13  14
ENDBRANCH  10  13
ENDBRANCH   1  10
TORSDOF 8
ENDMDL
