MODEL 18
REMARK VINA RESULT: -6.017999846      2.112      4.236
REMARK  8 active torsions:
REMARK  status: ('A' for Active; 'I' for Inactive)
REMARK       I    between atoms: C1_2  and  N1_3 
REMARK    1  A    between atoms: C1_2  and  C2_7 
REMARK    2  A    between atoms: N1_3  and  O2_5 
REMARK    3  A    between atoms: C2_7  and  O3_8 
REMARK    4  A    between atoms: C2_7  and  C3_10 
REMARK    5  A    between atoms: C3_10  and  O4_11 
REMARK    6  A    between atoms: C3_10  and  C4_13 
REMARK    7  A    between atoms: C4_13  and  O5_14 
REMARK    8  A    between atoms: O5_14  and  P1_15 
ROOT
HETATM    1  C2  UNL     1      -8.593   4.282 -32.824  1.00  0.00     0.242 C 
ENDROOT
BRANCH   1   2
HETATM    2  C1  UNL     1      -9.134   3.042 -33.417  1.00  0.00     0.272 C 
HETATM    3  O1  UNL     1      -8.463   2.442 -34.295  1.00  0.00    -0.268 OA
HETATM    4  N1  UNL     1     -10.380   2.507 -33.030  1.00  0.00    -0.235 N 
ATOM      5  H1  UNL     1     -10.914   3.003 -32.316  1.00  0.00     0.197 HD
BRANCH   4   6
HETATM    6  O2  UNL     1     -10.912   1.373 -33.549  1.00  0.00    -0.287 OA
ATOM      7  H2  UNL     1     -11.650   0.911 -33.169  1.00  0.00     0.244 HD
ENDBRANCH   4   6
ENDBRANCH   1   2
BRANCH   1   8
HETATM    8  O3  UNL     1      -7.517   4.036 -31.978  1.00  0.00    -0.383 OA
ATOM      9  H3  UNL     1      -7.127   4.837 -31.650  1.00  0.00     0.210 HD
ENDBRANCH   1   8
BRANCH   1  10
HETATM   10  C3  UNL     1      -9.673   5.063 -32.098  1.00  0.00     0.180 C 
BRANCH  10  11
HETATM   11  O4  UNL     1      -9.824   6.298 -32.720  1.00  0.00    -0.390 OA
ATOM     12  H4  UNL     1      -9.355   6.281 -33.546  1.00  0.00     0.210 HD
ENDBRANCH  10  11
BRANCH  10  13
HETATM   13  C4  UNL     1      -9.275   5.211 -30.646  1.00  0.00     0.217 C 
BRANCH  13  14
HETATM   14  O5  UNL     1      -9.671   4.105 -29.947  1.00  0.00    -0.280 OA
BRANCH  14  15
HETATM   15  P1  UNL     1     -11.263   4.030 -29.535  1.00  0.00     0.422 P 
HETATM   16  O6  UNL     1     -11.834   4.658 -28.163  1.00  0.00    -0.617 OA
HETATM   17  O7  UNL     1     -12.288   3.047 -30.468  1.00  0.00    -0.617 OA
HETATM   18  O8  UNL     1     -11.613   5.195 -30.459  1.00  0.00    -0.617 OA
ENDBRANCH  14  15
ENDBRANCH  13  14
ENDBRANCH  10  13
ENDBRANCH   1  10
TORSDOF 8
ENDMDL
