MODEL 8
REMARK VINA RESULT: -6.724679334      1.648      2.523
REMARK  8 active torsions:
REMARK  status: ('A' for Active; 'I' for Inactive)
REMARK       I    between atoms: C1_2  and  N1_3 
REMARK    1  A    between atoms: C1_2  and  C2_7 
REMARK    2  A    between atoms: N1_3  and  O2_5 
REMARK    3  A    between atoms: C2_7  and  O3_8 
REMARK    4  A    between atoms: C2_7  and  C3_10 
REMARK    5  A    between atoms: C3_10  and  O4_11 
REMARK    6  A    between atoms: C3_10  and  C4_13 
REMARK    7  A    between atoms: C4_13  and  O5_14 
REMARK    8  A    between atoms: O5_14  and  P1_15 
ROOT
HETATM    1  C2  UNL     1     -11.075   4.660 -31.263  1.00  0.00     0.242 C 
ENDROOT
BRANCH   1   2
HETATM    2  C1  UNL     1     -11.565   4.366 -29.900  1.00  0.00     0.272 C 
HETATM    3  O1  UNL     1     -12.155   3.278 -29.685  1.00  0.00    -0.268 OA
HETATM    4  N1  UNL     1     -11.391   5.269 -28.831  1.00  0.00    -0.235 N 
ATOM      5  H1  UNL     1     -10.910   6.149 -29.018  1.00  0.00     0.197 HD
BRANCH   4   6
HETATM    6  O2  UNL     1     -11.826   5.039 -27.568  1.00  0.00    -0.287 OA
ATOM      7  H2  UNL     1     -12.050   5.725 -26.950  1.00  0.00     0.244 HD
ENDBRANCH   4   6
ENDBRANCH   1   2
BRANCH   1   8
HETATM    8  O3  UNL     1     -11.034   3.524 -32.063  1.00  0.00    -0.383 OA
ATOM      9  H3  UNL     1     -10.145   3.243 -32.245  1.00  0.00     0.210 HD
ENDBRANCH   1   8
BRANCH   1  10
HETATM   10  C3  UNL     1      -9.715   5.334 -31.227  1.00  0.00     0.180 C 
BRANCH  10  11
HETATM   11  O4  UNL     1      -9.517   5.998 -32.433  1.00  0.00    -0.390 OA
ATOM     12  H4  UNL     1      -9.701   5.397 -33.145  1.00  0.00     0.210 HD
ENDBRANCH  10  11
BRANCH  10  13
HETATM   13  C4  UNL     1      -8.655   4.283 -30.985  1.00  0.00     0.217 C 
BRANCH  13  14
HETATM   14  O5  UNL     1      -7.813   4.225 -32.060  1.00  0.00    -0.280 OA
BRANCH  14  15
HETATM   15  P1  UNL     1      -8.299   3.282 -33.320  1.00  0.00     0.422 P 
HETATM   16  O6  UNL     1      -8.461   3.854 -34.819  1.00  0.00    -0.617 OA
HETATM   17  O7  UNL     1      -8.882   1.723 -32.977  1.00  0.00    -0.617 OA
HETATM   18  O8  UNL     1      -6.905   2.678 -33.476  1.00  0.00    -0.617 OA
ENDBRANCH  14  15
ENDBRANCH  13  14
ENDBRANCH  10  13
ENDBRANCH   1  10
TORSDOF 8
ENDMDL
