MODEL 11
REMARK VINA RESULT: -6.465137189      1.801      2.541
REMARK  8 active torsions:
REMARK  status: ('A' for Active; 'I' for Inactive)
REMARK       I    between atoms: C1_2  and  N1_3 
REMARK    1  A    between atoms: C1_2  and  C2_7 
REMARK    2  A    between atoms: N1_3  and  O2_5 
REMARK    3  A    between atoms: C2_7  and  O3_8 
REMARK    4  A    between atoms: C2_7  and  C3_10 
REMARK    5  A    between atoms: C3_10  and  O4_11 
REMARK    6  A    between atoms: C3_10  and  C4_13 
REMARK    7  A    between atoms: C4_13  and  O5_14 
REMARK    8  A    between atoms: O5_14  and  P1_15 
ROOT
HETATM    1  C2  UNL     1      -9.916   4.373 -30.206  1.00  0.00     0.242 C 
ENDROOT
BRANCH   1   2
HETATM    2  C1  UNL     1     -11.127   4.452 -29.363  1.00  0.00     0.272 C 
HETATM    3  O1  UNL     1     -12.124   3.748 -29.660  1.00  0.00    -0.268 OA
HETATM    4  N1  UNL     1     -11.200   5.295 -28.234  1.00  0.00    -0.235 N 
ATOM      5  H1  UNL     1     -10.383   5.860 -28.003  1.00  0.00     0.197 HD
BRANCH   4   6
HETATM    6  O2  UNL     1     -12.291   5.397 -27.436  1.00  0.00    -0.287 OA
ATOM      7  H2  UNL     1     -13.163   5.602 -27.754  1.00  0.00     0.244 HD
ENDBRANCH   4   6
ENDBRANCH   1   2
BRANCH   1   8
HETATM    8  O3  UNL     1      -8.749   4.360 -29.451  1.00  0.00    -0.383 OA
ATOM      9  H3  UNL     1      -8.604   5.182 -28.998  1.00  0.00     0.210 HD
ENDBRANCH   1   8
BRANCH   1  10
HETATM   10  C3  UNL     1      -9.878   5.499 -31.225  1.00  0.00     0.180 C 
BRANCH  10  11
HETATM   11  O4  UNL     1     -11.014   5.415 -32.023  1.00  0.00    -0.390 OA
ATOM     12  H4  UNL     1     -11.449   6.259 -32.021  1.00  0.00     0.210 HD
ENDBRANCH  10  11
BRANCH  10  13
HETATM   13  C4  UNL     1      -8.610   5.376 -32.040  1.00  0.00     0.217 C 
BRANCH  13  14
HETATM   14  O5  UNL     1      -8.224   4.065 -32.093  1.00  0.00    -0.280 OA
BRANCH  14  15
HETATM   15  P1  UNL     1      -8.513   3.274 -33.508  1.00  0.00     0.422 P 
HETATM   16  O6  UNL     1      -8.399   3.999 -34.945  1.00  0.00    -0.617 OA
HETATM   17  O7  UNL     1      -9.188   1.717 -33.433  1.00  0.00    -0.617 OA
HETATM   18  O8  UNL     1      -7.130   2.627 -33.491  1.00  0.00    -0.617 OA
ENDBRANCH  14  15
ENDBRANCH  13  14
ENDBRANCH  10  13
ENDBRANCH   1  10
TORSDOF 8
ENDMDL
