MODEL 12
REMARK VINA RESULT: -6.399617104      1.536      2.432
REMARK  8 active torsions:
REMARK  status: ('A' for Active; 'I' for Inactive)
REMARK       I    between atoms: C1_2  and  N1_3 
REMARK    1  A    between atoms: C1_2  and  C2_7 
REMARK    2  A    between atoms: N1_3  and  O2_5 
REMARK    3  A    between atoms: C2_7  and  O3_8 
REMARK    4  A    between atoms: C2_7  and  C3_10 
REMARK    5  A    between atoms: C3_10  and  O4_11 
REMARK    6  A    between atoms: C3_10  and  C4_13 
REMARK    7  A    between atoms: C4_13  and  O5_14 
REMARK    8  A    between atoms: O5_14  and  P1_15 
ROOT
HETATM    1  C2  UNL     1     -11.338   4.718 -30.727  1.00  0.00     0.242 C 
ENDROOT
BRANCH   1   2
HETATM    2  C1  UNL     1     -11.161   4.538 -29.271  1.00  0.00     0.272 C 
HETATM    3  O1  UNL     1     -10.235   3.798 -28.856  1.00  0.00    -0.268 OA
HETATM    4  N1  UNL     1     -12.000   5.172 -28.330  1.00  0.00    -0.235 N 
ATOM      5  H1  UNL     1     -12.748   5.771 -28.680  1.00  0.00     0.197 HD
BRANCH   4   6
HETATM    6  O2  UNL     1     -11.872   5.032 -26.988  1.00  0.00    -0.287 OA
ATOM      7  H2  UNL     1     -12.481   4.545 -26.445  1.00  0.00     0.244 HD
ENDBRANCH   4   6
ENDBRANCH   1   2
BRANCH   1   8
HETATM    8  O3  UNL     1     -11.263   3.515 -31.419  1.00  0.00    -0.383 OA
ATOM      9  H3  UNL     1     -10.678   2.895 -31.000  1.00  0.00     0.210 HD
ENDBRANCH   1   8
BRANCH   1  10
HETATM   10  C3  UNL     1     -10.340   5.716 -31.285  1.00  0.00     0.180 C 
BRANCH  10  11
HETATM   11  O4  UNL     1     -10.898   6.324 -32.405  1.00  0.00    -0.390 OA
ATOM     12  H4  UNL     1     -10.548   5.907 -33.183  1.00  0.00     0.210 HD
ENDBRANCH  10  11
BRANCH  10  13
HETATM   13  C4  UNL     1      -9.058   4.987 -31.623  1.00  0.00     0.217 C 
BRANCH  13  14
HETATM   14  O5  UNL     1      -8.975   4.809 -32.976  1.00  0.00    -0.280 OA
BRANCH  14  15
HETATM   15  P1  UNL     1      -8.628   3.285 -33.494  1.00  0.00     0.422 P 
HETATM   16  O6  UNL     1      -9.775   2.208 -33.849  1.00  0.00    -0.617 OA
HETATM   17  O7  UNL     1      -7.015   2.758 -33.413  1.00  0.00    -0.617 OA
HETATM   18  O8  UNL     1      -8.351   3.772 -34.914  1.00  0.00    -0.617 OA
ENDBRANCH  14  15
ENDBRANCH  13  14
ENDBRANCH  10  13
ENDBRANCH   1  10
TORSDOF 8
ENDMDL
