MODEL 9
REMARK VINA RESULT: -6.705168120      1.709      2.544
REMARK  8 active torsions:
REMARK  status: ('A' for Active; 'I' for Inactive)
REMARK       I    between atoms: C1_2  and  N1_3 
REMARK    1  A    between atoms: C1_2  and  C2_7 
REMARK    2  A    between atoms: N1_3  and  O2_5 
REMARK    3  A    between atoms: C2_7  and  O3_8 
REMARK    4  A    between atoms: C2_7  and  C3_10 
REMARK    5  A    between atoms: C3_10  and  O4_11 
REMARK    6  A    between atoms: C3_10  and  C4_13 
REMARK    7  A    between atoms: C4_13  and  O5_14 
REMARK    8  A    between atoms: O5_14  and  P1_15 
ROOT
HETATM    1  C2  UNL     1     -10.829   4.336 -30.863  1.00  0.00     0.242 C 
ENDROOT
BRANCH   1   2
HETATM    2  C1  UNL     1     -11.476   4.239 -29.539  1.00  0.00     0.272 C 
HETATM    3  O1  UNL     1     -12.107   3.194 -29.243  1.00  0.00    -0.268 OA
HETATM    4  N1  UNL     1     -11.410   5.285 -28.594  1.00  0.00    -0.235 N 
ATOM      5  H1  UNL     1     -10.894   6.128 -28.847  1.00  0.00     0.197 HD
BRANCH   4   6
HETATM    6  O2  UNL     1     -11.990   5.236 -27.370  1.00  0.00    -0.287 OA
ATOM      7  H2  UNL     1     -11.656   5.693 -26.606  1.00  0.00     0.244 HD
ENDBRANCH   4   6
ENDBRANCH   1   2
BRANCH   1   8
HETATM    8  O3  UNL     1     -11.435   3.515 -31.807  1.00  0.00    -0.383 OA
ATOM      9  H3  UNL     1     -11.300   3.825 -32.695  1.00  0.00     0.210 HD
ENDBRANCH   1   8
BRANCH   1  10
HETATM   10  C3  UNL     1      -9.343   4.037 -30.775  1.00  0.00     0.180 C 
BRANCH  10  11
HETATM   11  O4  UNL     1      -8.941   4.170 -29.450  1.00  0.00    -0.390 OA
ATOM     12  H4  UNL     1      -7.993   4.217 -29.423  1.00  0.00     0.210 HD
ENDBRANCH  10  11
BRANCH  10  13
HETATM   13  C4  UNL     1      -8.598   4.989 -31.684  1.00  0.00     0.217 C 
BRANCH  13  14
HETATM   14  O5  UNL     1      -8.945   4.747 -32.984  1.00  0.00    -0.280 OA
BRANCH  14  15
HETATM   15  P1  UNL     1      -8.593   3.248 -33.568  1.00  0.00     0.422 P 
HETATM   16  O6  UNL     1      -9.737   2.195 -33.999  1.00  0.00    -0.617 OA
HETATM   17  O7  UNL     1      -6.983   2.710 -33.480  1.00  0.00    -0.617 OA
HETATM   18  O8  UNL     1      -8.285   3.802 -34.957  1.00  0.00    -0.617 OA
ENDBRANCH  14  15
ENDBRANCH  13  14
ENDBRANCH  10  13
ENDBRANCH   1  10
TORSDOF 8
ENDMDL
