MODEL 13
REMARK VINA RESULT: -6.338392306      2.249      4.418
REMARK  8 active torsions:
REMARK  status: ('A' for Active; 'I' for Inactive)
REMARK       I    between atoms: C1_2  and  N1_3 
REMARK    1  A    between atoms: C1_2  and  C2_7 
REMARK    2  A    between atoms: N1_3  and  O2_5 
REMARK    3  A    between atoms: C2_7  and  O3_8 
REMARK    4  A    between atoms: C2_7  and  C3_10 
REMARK    5  A    between atoms: C3_10  and  O4_11 
REMARK    6  A    between atoms: C3_10  and  C4_13 
REMARK    7  A    between atoms: C4_13  and  O5_14 
REMARK    8  A    between atoms: O5_14  and  P1_15 
ROOT
HETATM    1  C2  UNL     1      -8.610   4.248 -32.850  1.00  0.00     0.242 C 
ENDROOT
BRANCH   1   2
HETATM    2  C1  UNL     1      -9.142   3.002 -33.440  1.00  0.00     0.272 C 
HETATM    3  O1  UNL     1      -8.463   2.400 -34.309  1.00  0.00    -0.268 OA
HETATM    4  N1  UNL     1     -10.389   2.464 -33.057  1.00  0.00    -0.235 N 
ATOM      5  H1  UNL     1     -10.929   2.962 -32.349  1.00  0.00     0.197 HD
BRANCH   4   6
HETATM    6  O2  UNL     1     -10.912   1.325 -33.573  1.00  0.00    -0.287 OA
ATOM      7  H2  UNL     1     -11.783   1.265 -33.949  1.00  0.00     0.244 HD
ENDBRANCH   4   6
ENDBRANCH   1   2
BRANCH   1   8
HETATM    8  O3  UNL     1      -7.496   4.018 -32.051  1.00  0.00    -0.383 OA
ATOM      9  H3  UNL     1      -6.798   4.640 -32.220  1.00  0.00     0.210 HD
ENDBRANCH   1   8
BRANCH   1  10
HETATM   10  C3  UNL     1      -9.680   4.990 -32.071  1.00  0.00     0.180 C 
BRANCH  10  11
HETATM   11  O4  UNL     1      -9.849   6.250 -32.636  1.00  0.00    -0.390 OA
ATOM     12  H4  UNL     1     -10.741   6.324 -32.952  1.00  0.00     0.210 HD
ENDBRANCH  10  11
BRANCH  10  13
HETATM   13  C4  UNL     1      -9.256   5.078 -30.622  1.00  0.00     0.217 C 
BRANCH  13  14
HETATM   14  O5  UNL     1     -10.260   5.639 -29.883  1.00  0.00    -0.280 OA
BRANCH  14  15
HETATM   15  P1  UNL     1     -11.319   4.595 -29.175  1.00  0.00     0.422 P 
HETATM   16  O6  UNL     1     -12.037   3.403 -29.991  1.00  0.00    -0.617 OA
HETATM   17  O7  UNL     1     -11.854   4.940 -27.600  1.00  0.00    -0.617 OA
HETATM   18  O8  UNL     1     -10.185   3.776 -28.562  1.00  0.00    -0.617 OA
ENDBRANCH  14  15
ENDBRANCH  13  14
ENDBRANCH  10  13
ENDBRANCH   1  10
TORSDOF 8
ENDMDL
