MODEL 7
REMARK VINA RESULT: -6.726225674      2.368      7.082
REMARK  7 active torsions:
REMARK  status: ('A' for Active; 'I' for Inactive)
REMARK    1  A    between atoms: C16_18  and  O2_19 
REMARK    2  A    between atoms: C20_24  and  O3_25 
REMARK    3  A    between atoms: C20_24  and  C26_33 
REMARK    4  A    between atoms: O3_25  and  C21_26 
REMARK    5  A    between atoms: C21_26  and  C22_28 
REMARK    6  A    between atoms: C26_33  and  O6_34 
REMARK    7  A    between atoms: C26_33  and  C27_36 
ROOT
HETATM    1  C1  UNL     1      24.570 -55.394 -39.179  1.00  0.00     0.013 C 
HETATM    2  C2  UNL     1      26.049 -55.227 -39.443  1.00  0.00     0.020 C 
HETATM    3  C3  UNL     1      26.762 -55.489 -38.142  1.00  0.00     0.013 C 
HETATM    4  C4  UNL     1      26.931 -54.124 -37.642  1.00  0.00     0.003 C 
HETATM    5  C5  UNL     1      27.913 -53.945 -36.533  1.00  0.00     0.018 C 
HETATM    6  C6  UNL     1      27.738 -54.986 -35.452  1.00  0.00     0.011 C 
HETATM    7  C7  UNL     1      28.868 -54.766 -34.469  1.00  0.00     0.036 C 
HETATM    8  C8  UNL     1      28.568 -53.392 -33.901  1.00  0.00    -0.062 A 
HETATM    9  C9  UNL     1      28.332 -53.286 -32.628  1.00  0.00     0.058 A 
HETATM   10  C10 UNL     1      28.025 -52.024 -31.957  1.00  0.00     0.172 A 
HETATM   11  O1  UNL     1      27.803 -51.942 -30.735  1.00  0.00    -0.289 OA
HETATM   12  C11 UNL     1      28.000 -50.868 -32.847  1.00  0.00     0.052 A 
HETATM   13  C12 UNL     1      28.244 -50.999 -34.139  1.00  0.00    -0.007 A 
HETATM   14  C13 UNL     1      28.560 -52.245 -34.815  1.00  0.00     0.022 A 
HETATM   15  C14 UNL     1      30.052 -52.086 -35.227  1.00  0.00     0.027 C 
HETATM   16  C15 UNL     1      27.737 -52.526 -36.043  1.00  0.00     0.081 C 
HETATM   17 CL1  UNL     1      26.021 -52.350 -35.580  1.00  0.00    -0.115 Cl
HETATM   18  C16 UNL     1      27.987 -51.584 -37.159  1.00  0.00     0.144 C 
HETATM   19  C17 UNL     1      27.300 -51.928 -38.450  1.00  0.00     0.046 C 
HETATM   20  C18 UNL     1      27.409 -53.355 -38.849  1.00  0.00    -0.003 C 
HETATM   21  C19 UNL     1      28.812 -53.734 -39.250  1.00  0.00     0.019 C 
HETATM   22  C20 UNL     1      26.396 -53.812 -39.905  1.00  0.00     0.109 C 
ENDROOT
BRANCH  22  23
HETATM   23  O3  UNL     1      25.214 -53.118 -39.915  1.00  0.00    -0.301 OA
BRANCH  23  24
HETATM   24  C21 UNL     1      24.851 -51.859 -40.213  1.00  0.00     0.318 C 
HETATM   25  O4  UNL     1      24.381 -51.672 -41.349  1.00  0.00    -0.257 OA
BRANCH  24  26
HETATM   26  C22 UNL     1      24.977 -50.718 -39.297  1.00  0.00     0.149 A 
HETATM   27  C23 UNL     1      25.589 -49.505 -39.483  1.00  0.00     0.045 A 
HETATM   28  C24 UNL     1      25.422 -48.796 -38.314  1.00  0.00     0.027 A 
HETATM   29  C25 UNL     1      24.713 -49.611 -37.464  1.00  0.00     0.143 A 
HETATM   30  O5  UNL     1      24.482 -50.715 -38.087  1.00  0.00    -0.317 OA
ENDBRANCH  24  26
ENDBRANCH  23  24
ENDBRANCH  22  23
BRANCH  22  31
HETATM   31  C26 UNL     1      27.046 -53.986 -41.246  1.00  0.00     0.168 C 
BRANCH  31  32
HETATM   32  O6  UNL     1      26.365 -53.419 -42.300  1.00  0.00    -0.391 OA
ATOM     33  H6  UNL     1      26.815 -53.456 -43.135  1.00  0.00     0.210 HD
ENDBRANCH  31  32
BRANCH  31  34
HETATM   34  C27 UNL     1      27.049 -55.495 -41.550  1.00  0.00     0.149 C 
HETATM   35 CL2  UNL     1      28.714 -56.052 -41.861  1.00  0.00    -0.128 Cl
ENDBRANCH  31  34
ENDBRANCH  22  31
BRANCH  18  36
HETATM   36  O2  UNL     1      29.297 -51.262 -37.422  1.00  0.00    -0.394 OA
ATOM     37  H2  UNL     1      29.655 -50.507 -36.970  1.00  0.00     0.210 HD
ENDBRANCH  18  36
TORSDOF 7
ENDMDL
