MODEL 1
REMARK VINA RESULT: -11.177986934      0.000      0.000
REMARK  7 active torsions:
REMARK  status: ('A' for Active; 'I' for Inactive)
REMARK    1  A    between atoms: C16_18  and  O2_19 
REMARK    2  A    between atoms: C20_24  and  O3_25 
REMARK    3  A    between atoms: C20_24  and  C26_33 
REMARK    4  A    between atoms: O3_25  and  C21_26 
REMARK    5  A    between atoms: C21_26  and  C22_28 
REMARK    6  A    between atoms: C26_33  and  O6_34 
REMARK    7  A    between atoms: C26_33  and  C27_36 
ROOT
HETATM    1  C1  UNL     1      25.309 -52.502 -33.544  1.00  0.00     0.013 C 
HETATM    2  C2  UNL     1      25.091 -51.437 -34.594  1.00  0.00     0.020 C 
HETATM    3  C3  UNL     1      24.528 -52.124 -35.811  1.00  0.00     0.013 C 
HETATM    4  C4  UNL     1      25.745 -52.327 -36.599  1.00  0.00     0.003 C 
HETATM    5  C5  UNL     1      25.549 -52.668 -38.038  1.00  0.00     0.018 C 
HETATM    6  C6  UNL     1      24.501 -53.741 -38.225  1.00  0.00     0.011 C 
HETATM    7  C7  UNL     1      24.316 -53.892 -39.720  1.00  0.00     0.036 C 
HETATM    8  C8  UNL     1      25.662 -54.415 -40.183  1.00  0.00    -0.062 A 
HETATM    9  C9  UNL     1      25.713 -55.584 -40.745  1.00  0.00     0.058 A 
HETATM   10  C10 UNL     1      26.944 -56.205 -41.230  1.00  0.00     0.172 A 
HETATM   11  O1  UNL     1      26.972 -57.327 -41.768  1.00  0.00    -0.289 OA
HETATM   12  C11 UNL     1      28.139 -55.393 -41.027  1.00  0.00     0.052 A 
HETATM   13  C12 UNL     1      28.064 -54.205 -40.453  1.00  0.00    -0.007 A 
HETATM   14  C13 UNL     1      26.846 -53.574 -39.976  1.00  0.00     0.022 A 
HETATM   15  C14 UNL     1      26.630 -52.380 -40.951  1.00  0.00     0.027 C 
HETATM   16  C15 UNL     1      26.911 -53.053 -38.567  1.00  0.00     0.081 C 
HETATM   17 CL1  UNL     1      27.505 -54.388 -37.538  1.00  0.00    -0.115 Cl
HETATM   18  C16 UNL     1      27.848 -51.918 -38.391  1.00  0.00     0.144 C 
HETATM   19  C17 UNL     1      27.821 -51.274 -37.034  1.00  0.00     0.046 C 
HETATM   20  C18 UNL     1      26.461 -51.003 -36.502  1.00  0.00    -0.003 C 
HETATM   21  C19 UNL     1      25.753 -49.912 -37.267  1.00  0.00     0.019 C 
HETATM   22  C20 UNL     1      26.394 -50.745 -34.993  1.00  0.00     0.109 C 
ENDROOT
BRANCH  22  23
HETATM   23  O3  UNL     1      27.381 -51.347 -34.256  1.00  0.00    -0.301 OA
BRANCH  23  24
HETATM   24  C21 UNL     1      28.679 -51.632 -34.456  1.00  0.00     0.318 C 
HETATM   25  O4  UNL     1      29.374 -50.728 -34.951  1.00  0.00    -0.257 OA
BRANCH  24  26
HETATM   26  C22 UNL     1      29.307 -52.919 -34.133  1.00  0.00     0.149 A 
HETATM   27  C23 UNL     1      28.840 -54.195 -34.315  1.00  0.00     0.045 A 
HETATM   28  C24 UNL     1      29.816 -55.044 -33.842  1.00  0.00     0.027 A 
HETATM   29  C25 UNL     1      30.839 -54.245 -33.390  1.00  0.00     0.143 A 
HETATM   30  O5  UNL     1      30.489 -53.020 -33.583  1.00  0.00    -0.317 OA
ENDBRANCH  24  26
ENDBRANCH  23  24
ENDBRANCH  22  23
BRANCH  22  31
HETATM   31  C26 UNL     1      26.172 -49.291 -34.696  1.00  0.00     0.168 C 
BRANCH  31  32
HETATM   32  O6  UNL     1      27.140 -48.443 -35.183  1.00  0.00    -0.391 OA
ATOM     33  H6  UNL     1      27.894 -48.326 -34.617  1.00  0.00     0.210 HD
ENDBRANCH  31  32
BRANCH  31  34
HETATM   34  C27 UNL     1      26.246 -49.130 -33.167  1.00  0.00     0.149 C 
HETATM   35 CL2  UNL     1      27.899 -48.666 -32.681  1.00  0.00    -0.128 Cl
ENDBRANCH  31  34
ENDBRANCH  22  31
BRANCH  18  36
HETATM   36  O2  UNL     1      27.824 -50.936 -39.351  1.00  0.00    -0.394 OA
ATOM     37  H2  UNL     1      28.445 -50.224 -39.255  1.00  0.00     0.210 HD
ENDBRANCH  18  36
TORSDOF 7
ENDMDL
