MODEL 2
REMARK VINA RESULT: -10.125387879      1.089      1.170
REMARK  7 active torsions:
REMARK  status: ('A' for Active; 'I' for Inactive)
REMARK    1  A    between atoms: C16_18  and  O2_19 
REMARK    2  A    between atoms: C20_24  and  O3_25 
REMARK    3  A    between atoms: C20_24  and  C26_33 
REMARK    4  A    between atoms: O3_25  and  C21_26 
REMARK    5  A    between atoms: C21_26  and  C22_28 
REMARK    6  A    between atoms: C26_33  and  O6_34 
REMARK    7  A    between atoms: C26_33  and  C27_36 
ROOT
HETATM    1  C1  UNL     1      24.880 -53.808 -33.380  1.00  0.00     0.013 C 
HETATM    2  C2  UNL     1      24.658 -52.566 -34.212  1.00  0.00     0.020 C 
HETATM    3  C3  UNL     1      24.283 -53.024 -35.597  1.00  0.00     0.013 C 
HETATM    4  C4  UNL     1      25.582 -52.962 -36.268  1.00  0.00     0.003 C 
HETATM    5  C5  UNL     1      25.557 -53.007 -37.759  1.00  0.00     0.018 C 
HETATM    6  C6  UNL     1      24.643 -54.095 -38.275  1.00  0.00     0.011 C 
HETATM    7  C7  UNL     1      24.615 -53.943 -39.781  1.00  0.00     0.036 C 
HETATM    8  C8  UNL     1      26.044 -54.250 -40.185  1.00  0.00    -0.062 A 
HETATM    9  C9  UNL     1      26.263 -55.268 -40.961  1.00  0.00     0.058 A 
HETATM   10  C10 UNL     1      27.589 -55.676 -41.419  1.00  0.00     0.172 A 
HETATM   11  O1  UNL     1      27.779 -56.655 -42.165  1.00  0.00    -0.289 OA
HETATM   12  C11 UNL     1      28.674 -54.836 -40.924  1.00  0.00     0.052 A 
HETATM   13  C12 UNL     1      28.428 -53.803 -40.135  1.00  0.00    -0.007 A 
HETATM   14  C13 UNL     1      27.114 -53.383 -39.681  1.00  0.00     0.022 A 
HETATM   15  C14 UNL     1      26.874 -52.031 -40.415  1.00  0.00     0.027 C 
HETATM   16  C15 UNL     1      26.995 -53.166 -38.198  1.00  0.00     0.081 C 
HETATM   17 CL1  UNL     1      27.618 -54.637 -37.398  1.00  0.00    -0.115 Cl
HETATM   18  C16 UNL     1      27.794 -52.025 -37.694  1.00  0.00     0.144 C 
HETATM   19  C17 UNL     1      27.576 -51.684 -36.247  1.00  0.00     0.046 C 
HETATM   20  C18 UNL     1      26.152 -51.636 -35.828  1.00  0.00    -0.003 C 
HETATM   21  C19 UNL     1      25.414 -50.468 -36.432  1.00  0.00     0.019 C 
HETATM   22  C20 UNL     1      25.918 -51.707 -34.315  1.00  0.00     0.109 C 
ENDROOT
BRANCH  22  23
HETATM   23  O3  UNL     1      26.886 -52.372 -33.608  1.00  0.00    -0.301 OA
BRANCH  23  24
HETATM   24  C21 UNL     1      28.211 -52.225 -33.437  1.00  0.00     0.318 C 
HETATM   25  O4  UNL     1      28.623 -51.064 -33.274  1.00  0.00    -0.257 OA
BRANCH  24  26
HETATM   26  C22 UNL     1      29.176 -53.332 -33.435  1.00  0.00     0.149 A 
HETATM   27  C23 UNL     1      29.102 -54.565 -34.030  1.00  0.00     0.045 A 
HETATM   28  C24 UNL     1      30.270 -55.224 -33.720  1.00  0.00     0.027 A 
HETATM   29  C25 UNL     1      31.009 -54.361 -32.947  1.00  0.00     0.143 A 
HETATM   30  O5  UNL     1      30.325 -53.277 -32.813  1.00  0.00    -0.317 OA
ENDBRANCH  24  26
ENDBRANCH  23  24
ENDBRANCH  22  23
BRANCH  22  31
HETATM   31  C26 UNL     1      25.526 -50.370 -33.758  1.00  0.00     0.168 C 
BRANCH  31  32
HETATM   32  O6  UNL     1      24.173 -50.184 -33.587  1.00  0.00    -0.391 OA
ATOM     33  H6  UNL     1      23.918 -49.306 -33.330  1.00  0.00     0.210 HD
ENDBRANCH  31  32
BRANCH  31  34
HETATM   34  C27 UNL     1      25.937 -49.313 -34.800  1.00  0.00     0.149 C 
HETATM   35 CL2  UNL     1      26.768 -47.955 -33.997  1.00  0.00    -0.128 Cl
ENDBRANCH  31  34
ENDBRANCH  22  31
BRANCH  18  36
HETATM   36  O2  UNL     1      27.763 -50.867 -38.434  1.00  0.00    -0.394 OA
ATOM     37  H2  UNL     1      28.457 -50.744 -39.072  1.00  0.00     0.210 HD
ENDBRANCH  18  36
TORSDOF 7
ENDMDL
