MODEL 5
REMARK VINA RESULT: -8.437422463      1.420      1.723
REMARK  7 active torsions:
REMARK  status: ('A' for Active; 'I' for Inactive)
REMARK    1  A    between atoms: C16_18  and  O2_19 
REMARK    2  A    between atoms: C20_24  and  O3_25 
REMARK    3  A    between atoms: C20_24  and  C26_33 
REMARK    4  A    between atoms: O3_25  and  C21_26 
REMARK    5  A    between atoms: C21_26  and  C22_28 
REMARK    6  A    between atoms: C26_33  and  O6_34 
REMARK    7  A    between atoms: C26_33  and  C27_36 
ROOT
HETATM    1  C1  UNL     1      24.063 -52.059 -34.851  1.00  0.00     0.013 C 
HETATM    2  C2  UNL     1      25.013 -51.183 -35.634  1.00  0.00     0.020 C 
HETATM    3  C3  UNL     1      24.730 -51.419 -37.094  1.00  0.00     0.013 C 
HETATM    4  C4  UNL     1      25.751 -52.417 -37.414  1.00  0.00     0.003 C 
HETATM    5  C5  UNL     1      26.019 -52.645 -38.864  1.00  0.00     0.018 C 
HETATM    6  C6  UNL     1      24.741 -52.788 -39.657  1.00  0.00     0.011 C 
HETATM    7  C7  UNL     1      25.155 -52.883 -41.111  1.00  0.00     0.036 C 
HETATM    8  C8  UNL     1      25.930 -54.185 -41.163  1.00  0.00    -0.062 A 
HETATM    9  C9  UNL     1      25.485 -55.142 -41.921  1.00  0.00     0.058 A 
HETATM   10  C10 UNL     1      26.133 -56.444 -42.057  1.00  0.00     0.172 A 
HETATM   11  O1  UNL     1      25.692 -57.348 -42.791  1.00  0.00    -0.289 OA
HETATM   12  C11 UNL     1      27.343 -56.594 -41.256  1.00  0.00     0.052 A 
HETATM   13  C12 UNL     1      27.779 -55.607 -40.492  1.00  0.00    -0.007 A 
HETATM   14  C13 UNL     1      27.149 -54.305 -40.356  1.00  0.00     0.022 A 
HETATM   15  C14 UNL     1      28.148 -53.328 -41.042  1.00  0.00     0.027 C 
HETATM   16  C15 UNL     1      26.917 -53.859 -38.939  1.00  0.00     0.081 C 
HETATM   17 CL1  UNL     1      26.062 -55.185 -38.101  1.00  0.00    -0.115 Cl
HETATM   18  C16 UNL     1      28.164 -53.597 -38.182  1.00  0.00     0.144 C 
HETATM   19  C17 UNL     1      27.968 -53.000 -36.817  1.00  0.00     0.046 C 
HETATM   20  C18 UNL     1      27.000 -51.874 -36.765  1.00  0.00    -0.003 C 
HETATM   21  C19 UNL     1      27.517 -50.640 -37.462  1.00  0.00     0.019 C 
HETATM   22  C20 UNL     1      26.476 -51.533 -35.366  1.00  0.00     0.109 C 
ENDROOT
BRANCH  22  23
HETATM   23  O3  UNL     1      26.456 -52.581 -34.481  1.00  0.00    -0.301 OA
BRANCH  23  24
HETATM   24  C21 UNL     1      27.016 -52.828 -33.285  1.00  0.00     0.318 C 
HETATM   25  O4  UNL     1      26.353 -52.499 -32.285  1.00  0.00    -0.257 OA
BRANCH  24  26
HETATM   26  C22 UNL     1      28.334 -53.446 -33.095  1.00  0.00     0.149 A 
HETATM   27  C23 UNL     1      28.702 -54.512 -32.315  1.00  0.00     0.045 A 
HETATM   28  C24 UNL     1      30.056 -54.685 -32.495  1.00  0.00     0.027 A 
HETATM   29  C25 UNL     1      30.457 -53.713 -33.381  1.00  0.00     0.143 A 
HETATM   30  O5  UNL     1      29.416 -53.022 -33.696  1.00  0.00    -0.317 OA
ENDBRANCH  24  26
ENDBRANCH  23  24
ENDBRANCH  22  23
BRANCH  22  31
HETATM   31  C26 UNL     1      27.093 -50.269 -34.844  1.00  0.00     0.168 C 
BRANCH  31  32
HETATM   32  O6  UNL     1      27.978 -50.440 -33.803  1.00  0.00    -0.391 OA
ATOM     33  H6  UNL     1      28.704 -51.023 -33.986  1.00  0.00     0.210 HD
ENDBRANCH  31  32
BRANCH  31  34
HETATM   34  C27 UNL     1      25.951 -49.425 -34.250  1.00  0.00     0.149 C 
HETATM   35 CL2  UNL     1      26.419 -47.704 -34.211  1.00  0.00    -0.128 Cl
ENDBRANCH  31  34
ENDBRANCH  22  31
BRANCH  18  36
HETATM   36  O2  UNL     1      29.155 -52.903 -38.833  1.00  0.00    -0.394 OA
ATOM     37  H2  UNL     1      29.546 -52.172 -38.369  1.00  0.00     0.210 HD
ENDBRANCH  18  36
TORSDOF 7
ENDMDL
