MODEL 4
REMARK VINA RESULT: -8.832073414      1.323      1.475
REMARK  7 active torsions:
REMARK  status: ('A' for Active; 'I' for Inactive)
REMARK    1  A    between atoms: C16_18  and  O2_19 
REMARK    2  A    between atoms: C20_24  and  O3_25 
REMARK    3  A    between atoms: C20_24  and  C26_33 
REMARK    4  A    between atoms: O3_25  and  C21_26 
REMARK    5  A    between atoms: C21_26  and  C22_28 
REMARK    6  A    between atoms: C26_33  and  O6_34 
REMARK    7  A    between atoms: C26_33  and  C27_36 
ROOT
HETATM    1  C1  UNL     1      24.555 -52.800 -33.630  1.00  0.00     0.013 C 
HETATM    2  C2  UNL     1      25.153 -51.668 -34.434  1.00  0.00     0.020 C 
HETATM    3  C3  UNL     1      24.669 -51.829 -35.851  1.00  0.00     0.013 C 
HETATM    4  C4  UNL     1      25.798 -52.543 -36.448  1.00  0.00     0.003 C 
HETATM    5  C5  UNL     1      25.844 -52.576 -37.939  1.00  0.00     0.018 C 
HETATM    6  C6  UNL     1      24.501 -52.926 -38.537  1.00  0.00     0.011 C 
HETATM    7  C7  UNL     1      24.660 -52.796 -40.037  1.00  0.00     0.036 C 
HETATM    8  C8  UNL     1      25.662 -53.884 -40.372  1.00  0.00    -0.062 A 
HETATM    9  C9  UNL     1      25.292 -54.843 -41.166  1.00  0.00     0.058 A 
HETATM   10  C10 UNL     1      26.156 -55.953 -41.564  1.00  0.00     0.172 A 
HETATM   11  O1  UNL     1      25.784 -56.862 -42.328  1.00  0.00    -0.289 OA
HETATM   12  C11 UNL     1      27.494 -55.903 -40.984  1.00  0.00     0.052 A 
HETATM   13  C12 UNL     1      27.849 -54.916 -40.179  1.00  0.00    -0.007 A 
HETATM   14  C13 UNL     1      27.003 -53.804 -39.784  1.00  0.00     0.022 A 
HETATM   15  C14 UNL     1      27.644 -52.572 -40.488  1.00  0.00     0.027 C 
HETATM   16  C15 UNL     1      26.941 -53.549 -38.304  1.00  0.00     0.081 C 
HETATM   17 CL1  UNL     1      26.536 -55.101 -37.517  1.00  0.00    -0.115 Cl
HETATM   18  C16 UNL     1      28.223 -53.087 -37.721  1.00  0.00     0.144 C 
HETATM   19  C17 UNL     1      28.156 -52.673 -36.279  1.00  0.00     0.046 C 
HETATM   20  C18 UNL     1      27.006 -51.799 -35.936  1.00  0.00    -0.003 C 
HETATM   21  C19 UNL     1      27.129 -50.424 -36.544  1.00  0.00     0.019 C 
HETATM   22  C20 UNL     1      26.681 -51.709 -34.442  1.00  0.00     0.109 C 
ENDROOT
BRANCH  22  23
HETATM   23  O3  UNL     1      27.032 -52.810 -33.703  1.00  0.00    -0.301 OA
BRANCH  23  24
HETATM   24  C21 UNL     1      27.968 -53.077 -32.778  1.00  0.00     0.318 C 
HETATM   25  O4  UNL     1      27.741 -52.668 -31.626  1.00  0.00    -0.257 OA
BRANCH  24  26
HETATM   26  C22 UNL     1      29.215 -53.805 -33.043  1.00  0.00     0.149 A 
HETATM   27  C23 UNL     1      29.410 -55.042 -33.602  1.00  0.00     0.045 A 
HETATM   28  C24 UNL     1      30.770 -55.257 -33.623  1.00  0.00     0.027 A 
HETATM   29  C25 UNL     1      31.348 -54.137 -33.075  1.00  0.00     0.143 A 
HETATM   30  O5  UNL     1      30.398 -53.327 -32.755  1.00  0.00    -0.317 OA
ENDBRANCH  24  26
ENDBRANCH  23  24
ENDBRANCH  22  23
BRANCH  22  31
HETATM   31  C26 UNL     1      27.111 -50.392 -33.866  1.00  0.00     0.168 C 
BRANCH  31  32
HETATM   32  O6  UNL     1      27.673 -50.461 -32.611  1.00  0.00    -0.391 OA
ATOM     33  H6  UNL     1      28.569 -50.150 -32.555  1.00  0.00     0.210 HD
ENDBRANCH  31  32
BRANCH  31  34
HETATM   34  C27 UNL     1      25.838 -49.548 -33.677  1.00  0.00     0.149 C 
HETATM   35 CL2  UNL     1      26.172 -47.842 -34.077  1.00  0.00    -0.128 Cl
ENDBRANCH  31  34
ENDBRANCH  22  31
BRANCH  18  36
HETATM   36  O2  UNL     1      28.921 -52.135 -38.426  1.00  0.00    -0.394 OA
ATOM     37  H2  UNL     1      29.561 -52.447 -39.055  1.00  0.00     0.210 HD
ENDBRANCH  18  36
TORSDOF 7
ENDMDL
