MODEL 2
REMARK VINA RESULT: -9.651739108      1.467      6.714
REMARK  5 active torsions:
REMARK  status: ('A' for Active; 'I' for Inactive)
REMARK    1  A    between atoms: C4_4  and  O1_5 
REMARK    2  A    between atoms: C19_22  and  O3_23 
REMARK    3  A    between atoms: C19_22  and  C20_25 
REMARK    4  A    between atoms: C20_25  and  C21_27 
REMARK    5  A    between atoms: C21_27  and  O5_28 
ROOT
HETATM    1  C1  UNL     1       4.781  34.470  -5.695  1.00  0.00     0.019 C 
HETATM    2  C2  UNL     1       4.264  33.082  -5.609  1.00  0.00     0.001 C 
HETATM    3  C3  UNL     1       5.245  32.021  -5.948  1.00  0.00     0.045 C 
HETATM    4  C4  UNL     1       5.598  32.150  -7.432  1.00  0.00     0.124 C 
HETATM    5  C5  UNL     1       4.377  31.895  -8.226  1.00  0.00     0.031 C 
HETATM    6  C6  UNL     1       3.330  32.954  -7.956  1.00  0.00    -0.002 C 
HETATM    7  C7  UNL     1       2.030  32.702  -8.681  1.00  0.00     0.010 C 
HETATM    8  C8  UNL     1       2.186  32.347 -10.130  1.00  0.00     0.035 C 
HETATM    9  C9  UNL     1       3.233  31.263 -10.215  1.00  0.00    -0.068 C 
HETATM   10  C10 UNL     1       2.924  30.099 -10.710  1.00  0.00     0.053 C 
HETATM   11  C11 UNL     1       3.943  29.064 -10.785  1.00  0.00     0.149 C 
HETATM   12  O2  UNL     1       3.784  28.113 -11.581  1.00  0.00    -0.293 OA
HETATM   13  C12 UNL     1       5.117  29.230  -9.885  1.00  0.00     0.084 C 
HETATM   14  C13 UNL     1       5.573  30.665 -10.047  1.00  0.00     0.022 C 
HETATM   15  C14 UNL     1       4.558  31.684  -9.692  1.00  0.00    -0.014 C 
HETATM   16  C15 UNL     1       4.910  32.955 -10.442  1.00  0.00     0.020 C 
HETATM   17  C16 UNL     1       3.026  32.883  -6.497  1.00  0.00     0.002 C 
HETATM   18  C17 UNL     1       2.147  33.958  -5.944  1.00  0.00     0.009 C 
HETATM   19  C18 UNL     1       2.422  33.858  -4.437  1.00  0.00     0.047 C 
HETATM   20  C19 UNL     1       3.553  32.867  -4.293  1.00  0.00     0.128 C 
ENDROOT
BRANCH  20  21
HETATM   21  O3  UNL     1       2.956  31.592  -4.406  1.00  0.00    -0.381 OA
ATOM     22  H3  UNL     1       2.144  31.657  -3.917  1.00  0.00     0.211 HD
ENDBRANCH  20  21
BRANCH  20  23
HETATM   23  C20 UNL     1       4.356  32.992  -3.093  1.00  0.00     0.184 C 
HETATM   24  O4  UNL     1       4.399  31.983  -2.362  1.00  0.00    -0.292 OA
BRANCH  23  25
HETATM   25  C21 UNL     1       5.131  34.140  -2.607  1.00  0.00     0.245 C 
BRANCH  25  26
HETATM   26  O5  UNL     1       5.484  34.015  -1.257  1.00  0.00    -0.393 OA
ATOM     27  H5  UNL     1       6.277  33.507  -1.134  1.00  0.00     0.209 HD
ENDBRANCH  25  26
ENDBRANCH  23  25
ENDBRANCH  20  23
BRANCH   4  28
HETATM   28  O1  UNL     1       6.271  33.308  -7.699  1.00  0.00    -0.395 OA
ATOM     29  H1  UNL     1       6.207  33.554  -8.614  1.00  0.00     0.210 HD
ENDBRANCH   4  28
TORSDOF 5
ENDMDL
