MODEL 1
REMARK VINA RESULT: -10.495251538      0.000      0.000
REMARK  5 active torsions:
REMARK  status: ('A' for Active; 'I' for Inactive)
REMARK    1  A    between atoms: C4_4  and  O1_5 
REMARK    2  A    between atoms: C19_22  and  O3_23 
REMARK    3  A    between atoms: C19_22  and  C20_25 
REMARK    4  A    between atoms: C20_25  and  C21_27 
REMARK    5  A    between atoms: C21_27  and  O5_28 
ROOT
HETATM    1  C1  UNL     1       3.484  32.299  -9.807  1.00  0.00     0.019 C 
HETATM    2  C2  UNL     1       4.539  31.820  -8.880  1.00  0.00     0.001 C 
HETATM    3  C3  UNL     1       4.046  31.151  -7.651  1.00  0.00     0.045 C 
HETATM    4  C4  UNL     1       3.307  32.189  -6.802  1.00  0.00     0.124 C 
HETATM    5  C5  UNL     1       4.276  33.224  -6.383  1.00  0.00     0.031 C 
HETATM    6  C6  UNL     1       4.811  33.975  -7.584  1.00  0.00    -0.002 C 
HETATM    7  C7  UNL     1       5.865  34.994  -7.224  1.00  0.00     0.010 C 
HETATM    8  C8  UNL     1       5.512  35.869  -6.058  1.00  0.00     0.035 C 
HETATM    9  C9  UNL     1       5.034  34.965  -4.949  1.00  0.00    -0.068 C 
HETATM   10  C10 UNL     1       5.667  34.942  -3.810  1.00  0.00     0.053 C 
HETATM   11  C11 UNL     1       5.195  34.066  -2.750  1.00  0.00     0.149 C 
HETATM   12  O2  UNL     1       5.531  34.306  -1.571  1.00  0.00    -0.293 OA
HETATM   13  C12 UNL     1       4.332  32.929  -3.172  1.00  0.00     0.084 C 
HETATM   14  C13 UNL     1       3.289  33.515  -4.103  1.00  0.00     0.022 C 
HETATM   15  C14 UNL     1       3.835  34.168  -5.315  1.00  0.00    -0.014 C 
HETATM   16  C15 UNL     1       2.804  35.174  -5.791  1.00  0.00     0.020 C 
HETATM   17  C16 UNL     1       5.476  32.961  -8.452  1.00  0.00     0.002 C 
HETATM   18  C17 UNL     1       5.930  33.429  -9.798  1.00  0.00     0.009 C 
HETATM   19  C18 UNL     1       6.115  32.105 -10.555  1.00  0.00     0.047 C 
HETATM   20  C19 UNL     1       5.583  31.031  -9.636  1.00  0.00     0.128 C 
ENDROOT
BRANCH  20  21
HETATM   21  O3  UNL     1       6.610  30.794  -8.696  1.00  0.00    -0.381 OA
ATOM     22  H3  UNL     1       7.313  30.395  -9.197  1.00  0.00     0.211 HD
ENDBRANCH  20  21
BRANCH  20  23
HETATM   23  C20 UNL     1       5.135  29.812 -10.279  1.00  0.00     0.184 C 
HETATM   24  O4  UNL     1       5.397  29.713 -11.494  1.00  0.00    -0.292 OA
BRANCH  23  25
HETATM   25  C21 UNL     1       4.414  28.668  -9.708  1.00  0.00     0.245 C 
BRANCH  25  26
HETATM   26  O5  UNL     1       3.290  28.311 -10.464  1.00  0.00    -0.393 OA
ATOM     27  H5  UNL     1       2.924  27.476 -10.199  1.00  0.00     0.209 HD
ENDBRANCH  25  26
ENDBRANCH  23  25
ENDBRANCH  20  23
BRANCH   4  28
HETATM   28  O1  UNL     1       2.166  32.629  -7.411  1.00  0.00    -0.395 OA
ATOM     29  H1  UNL     1       1.386  32.260  -7.012  1.00  0.00     0.210 HD
ENDBRANCH   4  28
TORSDOF 5
ENDMDL
