MODEL 10
REMARK VINA RESULT: -6.889327741      1.014      1.037
REMARK  5 active torsions:
REMARK  status: ('A' for Active; 'I' for Inactive)
REMARK    1  A    between atoms: C4_4  and  O1_5 
REMARK    2  A    between atoms: C19_22  and  O3_23 
REMARK    3  A    between atoms: C19_22  and  C20_25 
REMARK    4  A    between atoms: C20_25  and  C21_27 
REMARK    5  A    between atoms: C21_27  and  O5_28 
ROOT
HETATM    1  C1  UNL     1       2.433  31.556  -9.598  1.00  0.00     0.019 C 
HETATM    2  C2  UNL     1       3.750  31.351  -8.946  1.00  0.00     0.001 C 
HETATM    3  C3  UNL     1       3.713  30.582  -7.677  1.00  0.00     0.045 C 
HETATM    4  C4  UNL     1       2.956  31.410  -6.636  1.00  0.00     0.124 C 
HETATM    5  C5  UNL     1       3.719  32.650  -6.380  1.00  0.00     0.031 C 
HETATM    6  C6  UNL     1       3.781  33.508  -7.626  1.00  0.00    -0.002 C 
HETATM    7  C7  UNL     1       4.615  34.754  -7.447  1.00  0.00     0.010 C 
HETATM    8  C8  UNL     1       4.330  35.517  -6.188  1.00  0.00     0.035 C 
HETATM    9  C9  UNL     1       4.338  34.525  -5.052  1.00  0.00    -0.068 C 
HETATM   10  C10 UNL     1       5.194  34.658  -4.078  1.00  0.00     0.053 C 
HETATM   11  C11 UNL     1       5.191  33.694  -2.990  1.00  0.00     0.149 C 
HETATM   12  O2  UNL     1       5.712  34.010  -1.899  1.00  0.00    -0.293 OA
HETATM   13  C12 UNL     1       4.551  32.381  -3.276  1.00  0.00     0.084 C 
HETATM   14  C13 UNL     1       3.220  32.694  -3.929  1.00  0.00     0.022 C 
HETATM   15  C14 UNL     1       3.313  33.459  -5.194  1.00  0.00    -0.014 C 
HETATM   16  C15 UNL     1       1.993  34.183  -5.384  1.00  0.00     0.020 C 
HETATM   17  C16 UNL     1       4.459  32.685  -8.670  1.00  0.00     0.002 C 
HETATM   18  C17 UNL     1       4.480  33.249 -10.055  1.00  0.00     0.009 C 
HETATM   19  C18 UNL     1       4.802  32.009 -10.903  1.00  0.00     0.047 C 
HETATM   20  C19 UNL     1       4.757  30.839  -9.949  1.00  0.00     0.128 C 
ENDROOT
BRANCH  20  21
HETATM   21  O3  UNL     1       5.993  30.860  -9.265  1.00  0.00    -0.381 OA
ATOM     22  H3  UNL     1       6.256  31.773  -9.263  1.00  0.00     0.211 HD
ENDBRANCH  20  21
BRANCH  20  23
HETATM   23  C20 UNL     1       4.482  29.547 -10.545  1.00  0.00     0.184 C 
HETATM   24  O4  UNL     1       4.330  29.542 -11.782  1.00  0.00    -0.292 OA
BRANCH  23  25
HETATM   25  C21 UNL     1       4.354  28.233  -9.902  1.00  0.00     0.245 C 
BRANCH  25  26
HETATM   26  O5  UNL     1       3.745  28.310  -8.643  1.00  0.00    -0.393 OA
ATOM     27  H5  UNL     1       3.651  27.458  -8.233  1.00  0.00     0.209 HD
ENDBRANCH  25  26
ENDBRANCH  23  25
ENDBRANCH  20  23
BRANCH   4  28
HETATM   28  O1  UNL     1       1.637  31.558  -6.961  1.00  0.00    -0.395 OA
ATOM     29  H1  UNL     1       1.153  30.747  -6.857  1.00  0.00     0.210 HD
ENDBRANCH   4  28
TORSDOF 5
ENDMDL
