MODEL 6
REMARK VINA RESULT: -7.569137203      1.044      1.308
REMARK  5 active torsions:
REMARK  status: ('A' for Active; 'I' for Inactive)
REMARK    1  A    between atoms: C4_4  and  O1_5 
REMARK    2  A    between atoms: C19_22  and  O3_23 
REMARK    3  A    between atoms: C19_22  and  C20_25 
REMARK    4  A    between atoms: C20_25  and  C21_27 
REMARK    5  A    between atoms: C21_27  and  O5_28 
ROOT
HETATM    1  C1  UNL     1       3.956  31.768  -9.247  1.00  0.00     0.019 C 
HETATM    2  C2  UNL     1       5.151  31.677  -8.371  1.00  0.00     0.001 C 
HETATM    3  C3  UNL     1       4.955  30.914  -7.114  1.00  0.00     0.045 C 
HETATM    4  C4  UNL     1       3.961  31.680  -6.237  1.00  0.00     0.124 C 
HETATM    5  C5  UNL     1       4.563  32.980  -5.875  1.00  0.00     0.031 C 
HETATM    6  C6  UNL     1       4.773  33.835  -7.108  1.00  0.00    -0.002 C 
HETATM    7  C7  UNL     1       5.457  35.147  -6.809  1.00  0.00     0.010 C 
HETATM    8  C8  UNL     1       4.894  35.889  -5.634  1.00  0.00     0.035 C 
HETATM    9  C9  UNL     1       4.783  34.906  -4.495  1.00  0.00    -0.068 C 
HETATM   10  C10 UNL     1       5.441  35.115  -3.390  1.00  0.00     0.053 C 
HETATM   11  C11 UNL     1       5.325  34.159  -2.301  1.00  0.00     0.149 C 
HETATM   12  O2  UNL     1       5.619  34.522  -1.141  1.00  0.00    -0.293 OA
HETATM   13  C12 UNL     1       4.855  32.796  -2.669  1.00  0.00     0.084 C 
HETATM   14  C13 UNL     1       3.639  32.993  -3.551  1.00  0.00     0.022 C 
HETATM   15  C14 UNL     1       3.890  33.758  -4.794  1.00  0.00    -0.014 C 
HETATM   16  C15 UNL     1       2.569  34.367  -5.225  1.00  0.00     0.020 C 
HETATM   17  C16 UNL     1       5.688  33.068  -8.000  1.00  0.00     0.002 C 
HETATM   18  C17 UNL     1       5.907  33.625  -9.371  1.00  0.00     0.009 C 
HETATM   19  C18 UNL     1       6.473  32.413 -10.126  1.00  0.00     0.047 C 
HETATM   20  C19 UNL     1       6.357  31.247  -9.172  1.00  0.00     0.128 C 
ENDROOT
BRANCH  20  21
HETATM   21  O3  UNL     1       7.448  31.375  -8.284  1.00  0.00    -0.381 OA
ATOM     22  H3  UNL     1       8.131  31.796  -8.793  1.00  0.00     0.211 HD
ENDBRANCH  20  21
BRANCH  20  23
HETATM   23  C20 UNL     1       6.298  29.934  -9.782  1.00  0.00     0.184 C 
HETATM   24  O4  UNL     1       5.600  29.846 -10.812  1.00  0.00    -0.292 OA
BRANCH  23  25
HETATM   25  C21 UNL     1       6.942  28.682  -9.364  1.00  0.00     0.245 C 
BRANCH  25  26
HETATM   26  O5  UNL     1       7.322  28.700  -8.016  1.00  0.00    -0.393 OA
ATOM     27  H5  UNL     1       7.452  27.827  -7.664  1.00  0.00     0.209 HD
ENDBRANCH  25  26
ENDBRANCH  23  25
ENDBRANCH  20  23
BRANCH   4  28
HETATM   28  O1  UNL     1       2.712  31.715  -6.790  1.00  0.00    -0.395 OA
ATOM     29  H1  UNL     1       2.033  31.790  -6.130  1.00  0.00     0.210 HD
ENDBRANCH   4  28
TORSDOF 5
ENDMDL
