MODEL 3
REMARK VINA RESULT: -9.591958907      1.493      6.494
REMARK  5 active torsions:
REMARK  status: ('A' for Active; 'I' for Inactive)
REMARK    1  A    between atoms: C4_4  and  O1_5 
REMARK    2  A    between atoms: C19_22  and  O3_23 
REMARK    3  A    between atoms: C19_22  and  C20_25 
REMARK    4  A    between atoms: C20_25  and  C21_27 
REMARK    5  A    between atoms: C21_27  and  O5_28 
ROOT
HETATM    1  C1  UNL     1       6.180  33.807  -5.681  1.00  0.00     0.019 C 
HETATM    2  C2  UNL     1       4.920  33.026  -5.756  1.00  0.00     0.001 C 
HETATM    3  C3  UNL     1       5.089  31.552  -5.752  1.00  0.00     0.045 C 
HETATM    4  C4  UNL     1       5.805  31.147  -7.043  1.00  0.00     0.124 C 
HETATM    5  C5  UNL     1       4.934  31.489  -8.187  1.00  0.00     0.031 C 
HETATM    6  C6  UNL     1       4.732  32.987  -8.278  1.00  0.00    -0.002 C 
HETATM    7  C7  UNL     1       3.786  33.391  -9.383  1.00  0.00     0.010 C 
HETATM    8  C8  UNL     1       4.049  32.725 -10.701  1.00  0.00     0.035 C 
HETATM    9  C9  UNL     1       4.190  31.247 -10.434  1.00  0.00    -0.068 C 
HETATM   10  C10 UNL     1       3.369  30.404 -10.994  1.00  0.00     0.053 C 
HETATM   11  C11 UNL     1       3.517  28.982 -10.728  1.00  0.00     0.149 C 
HETATM   12  O2  UNL     1       3.015  28.161 -11.525  1.00  0.00    -0.293 OA
HETATM   13  C12 UNL     1       4.271  28.618  -9.498  1.00  0.00     0.084 C 
HETATM   14  C13 UNL     1       5.534  29.455  -9.514  1.00  0.00     0.022 C 
HETATM   15  C14 UNL     1       5.309  30.919  -9.514  1.00  0.00    -0.014 C 
HETATM   16  C15 UNL     1       6.540  31.567 -10.120  1.00  0.00     0.020 C 
HETATM   17  C16 UNL     1       4.094  33.403  -6.995  1.00  0.00     0.002 C 
HETATM   18  C17 UNL     1       3.956  34.874  -6.765  1.00  0.00     0.009 C 
HETATM   19  C18 UNL     1       3.722  34.943  -5.249  1.00  0.00     0.047 C 
HETATM   20  C19 UNL     1       3.925  33.536  -4.740  1.00  0.00     0.128 C 
ENDROOT
BRANCH  20  21
HETATM   21  O3  UNL     1       2.725  32.851  -5.030  1.00  0.00    -0.381 OA
ATOM     22  H3  UNL     1       2.033  33.453  -4.781  1.00  0.00     0.211 HD
ENDBRANCH  20  21
BRANCH  20  23
HETATM   23  C20 UNL     1       4.302  33.415  -3.345  1.00  0.00     0.184 C 
HETATM   24  O4  UNL     1       4.521  34.488  -2.749  1.00  0.00    -0.292 OA
BRANCH  23  25
HETATM   25  C21 UNL     1       4.466  32.208  -2.525  1.00  0.00     0.245 C 
BRANCH  25  26
HETATM   26  O5  UNL     1       3.346  31.368  -2.579  1.00  0.00    -0.393 OA
ATOM     27  H5  UNL     1       3.036  31.233  -3.467  1.00  0.00     0.209 HD
ENDBRANCH  25  26
ENDBRANCH  23  25
ENDBRANCH  20  23
BRANCH   4  28
HETATM   28  O1  UNL     1       7.087  31.618  -7.086  1.00  0.00    -0.395 OA
ATOM     29  H1  UNL     1       7.481  31.499  -7.942  1.00  0.00     0.210 HD
ENDBRANCH   4  28
TORSDOF 5
ENDMDL
