MODEL 2
REMARK VINA RESULT: -8.119709847      6.279      9.400
REMARK  5 active torsions:
REMARK  status: ('A' for Active; 'I' for Inactive)
REMARK    1  A    between atoms: O1_2  and  C2_3 
REMARK       I    between atoms: C2_3  and  N1_5 
REMARK    2  A    between atoms: N2_8  and  C5_9 
REMARK    3  A    between atoms: C5_9  and  C6_10 
REMARK    4  A    between atoms: C10_14  and  N3_15 
REMARK       I    between atoms: N3_15  and  C11_17 
REMARK       I    between atoms: C11_17  and  N4_19 
REMARK    5  A    between atoms: N4_19  and  C12_21 
ROOT
HETATM    1  C6  UNL     1      21.008 -29.895 143.109  1.00  0.00     0.011 A 
HETATM    2  C7  UNL     1      20.872 -31.166 142.609  1.00  0.00     0.012 A 
HETATM    3  C8  UNL     1      21.946 -31.750 141.983  1.00  0.00     0.003 A 
HETATM    4  C9  UNL     1      23.134 -31.054 141.869  1.00  0.00     0.033 A 
HETATM    5  C10 UNL     1      23.325 -29.794 142.347  1.00  0.00     0.075 A 
HETATM    6  C18 UNL     1      22.218 -29.225 142.978  1.00  0.00     0.151 A 
HETATM    7  F1  UNL     1      22.290 -27.979 143.491  1.00  0.00    -0.203 F 
ENDROOT
BRANCH   5   8
HETATM    8  N3  UNL     1      24.500 -29.014 142.275  1.00  0.00    -0.306 N 
HETATM    9  C11 UNL     1      24.750 -27.966 141.367  1.00  0.00     0.325 C 
HETATM   10  O3  UNL     1      23.866 -27.691 140.548  1.00  0.00    -0.247 OA
HETATM   11  N4  UNL     1      25.994 -27.279 141.432  1.00  0.00    -0.307 N 
ATOM     12  H4  UNL     1      26.672 -27.561 142.139  1.00  0.00     0.170 HD
ATOM     13  H3  UNL     1      25.239 -29.231 142.945  1.00  0.00     0.171 HD
BRANCH  11  14
HETATM   14  C12 UNL     1      26.324 -26.226 140.559  1.00  0.00     0.051 A 
HETATM   15  C13 UNL     1      26.108 -24.899 140.768  1.00  0.00     0.033 A 
HETATM   16  C14 UNL     1      26.500 -23.934 139.820  1.00  0.00     0.027 A 
HETATM   17  C15 UNL     1      27.117 -24.292 138.647  1.00  0.00     0.005 A 
HETATM   18  C16 UNL     1      27.543 -23.295 137.628  1.00  0.00     0.068 C 
HETATM   19  N5  UNL     1      27.325 -25.606 138.453  1.00  0.00    -0.367 N 
HETATM   20  C17 UNL     1      26.957 -26.540 139.345  1.00  0.00     0.117 A 
ATOM     21  H5  UNL     1      27.781 -25.907 137.591  1.00  0.00     0.165 HD
ENDBRANCH  11  14
ENDBRANCH   5   8
BRANCH   1  22
HETATM   22  C5  UNL     1      19.858 -29.274 143.804  1.00  0.00     0.314 C 
BRANCH  22  23
HETATM   23  N2  UNL     1      18.921 -28.612 142.959  1.00  0.00     0.095 N 
HETATM   24  C4  UNL     1      17.633 -29.294 143.183  1.00  0.00     0.292 C 
HETATM   25  C3  UNL     1      17.287 -29.321 144.673  1.00  0.00     0.158 C 
HETATM   26  N1  UNL     1      17.506 -27.955 145.167  1.00  0.00    -0.325 N 
HETATM   27  C2  UNL     1      17.635 -27.731 146.543  1.00  0.00     0.362 C 
HETATM   28  C20 UNL     1      17.565 -26.945 144.134  1.00  0.00     0.158 C 
HETATM   29  O2  UNL     1      17.566 -28.681 147.349  1.00  0.00    -0.238 OA
HETATM   30  C19 UNL     1      18.799 -27.203 143.304  1.00  0.00     0.292 C 
BRANCH  27  31
HETATM   31  O1  UNL     1      17.844 -26.466 147.098  1.00  0.00    -0.309 OA
HETATM   32  C1  UNL     1      18.314 -26.299 148.428  1.00  0.00     0.215 C 
ENDBRANCH  27  31
ENDBRANCH  22  23
ENDBRANCH   1  22
TORSDOF 5
ENDMDL
