MODEL 3
REMARK VINA RESULT: -7.805972769      6.088      9.289
REMARK  5 active torsions:
REMARK  status: ('A' for Active; 'I' for Inactive)
REMARK    1  A    between atoms: O1_2  and  C2_3 
REMARK       I    between atoms: C2_3  and  N1_5 
REMARK    2  A    between atoms: N2_8  and  C5_9 
REMARK    3  A    between atoms: C5_9  and  C6_10 
REMARK    4  A    between atoms: C10_14  and  N3_15 
REMARK       I    between atoms: N3_15  and  C11_17 
REMARK       I    between atoms: C11_17  and  N4_19 
REMARK    5  A    between atoms: N4_19  and  C12_21 
ROOT
HETATM    1  C6  UNL     1      21.126 -30.379 142.992  1.00  0.00     0.011 A 
HETATM    2  C7  UNL     1      21.118 -31.578 142.326  1.00  0.00     0.012 A 
HETATM    3  C8  UNL     1      22.241 -31.958 141.632  1.00  0.00     0.003 A 
HETATM    4  C9  UNL     1      23.350 -31.134 141.619  1.00  0.00     0.033 A 
HETATM    5  C10 UNL     1      23.413 -29.936 142.263  1.00  0.00     0.075 A 
HETATM    6  C18 UNL     1      22.258 -29.575 142.959  1.00  0.00     0.151 A 
HETATM    7  F1  UNL     1      22.205 -28.408 143.635  1.00  0.00    -0.203 F 
ENDROOT
BRANCH   5   8
HETATM    8  N3  UNL     1      24.500 -29.036 142.303  1.00  0.00    -0.306 N 
HETATM    9  C11 UNL     1      24.856 -28.115 141.298  1.00  0.00     0.325 C 
HETATM   10  O3  UNL     1      24.160 -28.080 140.276  1.00  0.00    -0.247 OA
HETATM   11  N4  UNL     1      25.987 -27.276 141.499  1.00  0.00    -0.307 N 
ATOM     12  H4  UNL     1      26.510 -27.360 142.370  1.00  0.00     0.170 HD
ATOM     13  H3  UNL     1      25.083 -29.054 143.139  1.00  0.00     0.171 HD
BRANCH  11  14
HETATM   14  C12 UNL     1      26.412 -26.336 140.543  1.00  0.00     0.051 A 
HETATM   15  C13 UNL     1      27.141 -26.589 139.422  1.00  0.00     0.033 A 
HETATM   16  C14 UNL     1      27.493 -25.559 138.528  1.00  0.00     0.027 A 
HETATM   17  C15 UNL     1      27.115 -24.258 138.750  1.00  0.00     0.005 A 
HETATM   18  C16 UNL     1      27.472 -23.149 137.823  1.00  0.00     0.068 C 
HETATM   19  N5  UNL     1      26.395 -24.021 139.860  1.00  0.00    -0.367 N 
HETATM   20  C17 UNL     1      26.051 -24.990 140.723  1.00  0.00     0.117 A 
ATOM     21  H5  UNL     1      26.097 -23.065 140.056  1.00  0.00     0.165 HD
ENDBRANCH  11  14
ENDBRANCH   5   8
BRANCH   1  22
HETATM   22  C5  UNL     1      19.924 -29.979 143.758  1.00  0.00     0.314 C 
BRANCH  22  23
HETATM   23  N2  UNL     1      18.702 -30.574 143.330  1.00  0.00     0.095 N 
HETATM   24  C4  UNL     1      17.805 -30.527 144.498  1.00  0.00     0.292 C 
HETATM   25  C3  UNL     1      17.699 -29.100 145.041  1.00  0.00     0.158 C 
HETATM   26  N1  UNL     1      17.457 -28.238 143.877  1.00  0.00    -0.325 N 
HETATM   27  C2  UNL     1      17.677 -26.859 143.981  1.00  0.00     0.362 C 
HETATM   28  C20 UNL     1      16.994 -28.937 142.698  1.00  0.00     0.158 C 
HETATM   29  O2  UNL     1      18.078 -26.361 145.053  1.00  0.00    -0.238 OA
HETATM   30  C19 UNL     1      18.111 -29.834 142.224  1.00  0.00     0.292 C 
BRANCH  27  31
HETATM   31  O1  UNL     1      17.472 -25.968 142.925  1.00  0.00    -0.309 OA
HETATM   32  C1  UNL     1      18.475 -25.717 141.951  1.00  0.00     0.215 C 
ENDBRANCH  27  31
ENDBRANCH  22  23
ENDBRANCH   1  22
TORSDOF 5
ENDMDL
