MODEL 5
REMARK VINA RESULT: -7.587681424      2.575      9.749
REMARK  5 active torsions:
REMARK  status: ('A' for Active; 'I' for Inactive)
REMARK    1  A    between atoms: O1_2  and  C2_3 
REMARK       I    between atoms: C2_3  and  N1_5 
REMARK    2  A    between atoms: N2_8  and  C5_9 
REMARK    3  A    between atoms: C5_9  and  C6_10 
REMARK    4  A    between atoms: C10_14  and  N3_15 
REMARK       I    between atoms: N3_15  and  C11_17 
REMARK       I    between atoms: C11_17  and  N4_19 
REMARK    5  A    between atoms: N4_19  and  C12_21 
ROOT
HETATM    1  C6  UNL     1      23.145 -24.633 132.536  1.00  0.00     0.011 A 
HETATM    2  C7  UNL     1      22.152 -25.575 132.445  1.00  0.00     0.012 A 
HETATM    3  C8  UNL     1      22.156 -26.629 133.327  1.00  0.00     0.003 A 
HETATM    4  C9  UNL     1      23.151 -26.719 134.281  1.00  0.00     0.033 A 
HETATM    5  C10 UNL     1      24.158 -25.814 134.416  1.00  0.00     0.075 A 
HETATM    6  C18 UNL     1      24.129 -24.754 133.509  1.00  0.00     0.151 A 
HETATM    7  F1  UNL     1      25.078 -23.795 133.548  1.00  0.00    -0.203 F 
ENDROOT
BRANCH   5   8
HETATM    8  N3  UNL     1      25.209 -25.829 135.359  1.00  0.00    -0.306 N 
HETATM    9  C11 UNL     1      25.164 -25.302 136.665  1.00  0.00     0.325 C 
HETATM   10  O3  UNL     1      24.110 -24.771 137.036  1.00  0.00    -0.247 OA
HETATM   11  N4  UNL     1      26.318 -25.401 137.490  1.00  0.00    -0.307 N 
ATOM     12  H4  UNL     1      27.149 -25.858 137.115  1.00  0.00     0.170 HD
ATOM     13  H3  UNL     1      26.084 -26.263 135.067  1.00  0.00     0.171 HD
BRANCH  11  14
HETATM   14  C12 UNL     1      26.357 -24.896 138.803  1.00  0.00     0.051 A 
HETATM   15  C13 UNL     1      25.881 -25.505 139.922  1.00  0.00     0.033 A 
HETATM   16  C14 UNL     1      25.994 -24.900 141.190  1.00  0.00     0.027 A 
HETATM   17  C15 UNL     1      26.590 -23.673 141.348  1.00  0.00     0.005 A 
HETATM   18  C16 UNL     1      26.725 -23.012 142.673  1.00  0.00     0.068 C 
HETATM   19  N5  UNL     1      27.057 -23.083 140.233  1.00  0.00    -0.367 N 
HETATM   20  C17 UNL     1      26.957 -23.644 139.018  1.00  0.00     0.117 A 
ATOM     21  H5  UNL     1      27.505 -22.171 140.315  1.00  0.00     0.165 HD
ENDBRANCH  11  14
ENDBRANCH   5   8
BRANCH   1  22
HETATM   22  C5  UNL     1      23.128 -23.485 131.601  1.00  0.00     0.314 C 
BRANCH  22  23
HETATM   23  N2  UNL     1      22.321 -23.656 130.439  1.00  0.00     0.095 N 
HETATM   24  C4  UNL     1      21.627 -22.371 130.243  1.00  0.00     0.292 C 
HETATM   25  C3  UNL     1      22.631 -21.216 130.195  1.00  0.00     0.158 C 
HETATM   26  N1  UNL     1      23.695 -21.640 129.275  1.00  0.00    -0.325 N 
HETATM   27  C2  UNL     1      24.930 -20.980 129.297  1.00  0.00     0.362 C 
HETATM   28  C20 UNL     1      23.337 -22.740 128.408  1.00  0.00     0.158 C 
HETATM   29  O2  UNL     1      25.130 -20.037 130.091  1.00  0.00    -0.238 OA
HETATM   30  C19 UNL     1      23.132 -23.962 129.271  1.00  0.00     0.292 C 
BRANCH  27  31
HETATM   31  O1  UNL     1      25.995 -21.317 128.458  1.00  0.00    -0.309 OA
HETATM   32  C1  UNL     1      26.191 -20.680 127.204  1.00  0.00     0.215 C 
ENDBRANCH  27  31
ENDBRANCH  22  23
ENDBRANCH   1  22
TORSDOF 5
ENDMDL
