MODEL 4
REMARK VINA RESULT: -6.358199498      2.404      5.544
REMARK  5 active torsions:
REMARK  status: ('A' for Active; 'I' for Inactive)
REMARK    1  A    between atoms: N2_7  and  C3_8 
REMARK    2  A    between atoms: C4_10  and  C5_11 
REMARK    3  A    between atoms: C5_11  and  O4_12 
REMARK    4  A    between atoms: C6_14  and  O5_15 
REMARK    5  A    between atoms: C7_17  and  O6_18 
ROOT
HETATM    1  C3  UNL     1      53.261 -18.660  -6.821  1.00  0.00     0.264 C 
HETATM    2  O3  UNL     1      52.592 -18.766  -5.617  1.00  0.00    -0.353 OA
HETATM    3  C4  UNL     1      51.487 -19.538  -5.882  1.00  0.00     0.179 C 
HETATM    4  C6  UNL     1      51.803 -20.440  -7.036  1.00  0.00     0.182 C 
HETATM    5  C7  UNL     1      53.293 -20.127  -7.252  1.00  0.00     0.198 C 
ENDROOT
BRANCH   1   6
HETATM    6  N2  UNL     1      54.543 -18.068  -6.748  1.00  0.00    -0.277 N 
HETATM    7  C2  UNL     1      54.739 -16.809  -7.174  1.00  0.00     0.331 A 
HETATM    8  N1  UNL     1      55.963 -16.214  -7.116  1.00  0.00    -0.273 N 
HETATM    9  O2  UNL     1      53.810 -16.105  -7.648  1.00  0.00    -0.246 OA
HETATM   10  C1  UNL     1      57.031 -16.869  -6.627  1.00  0.00     0.289 A 
ATOM     11  H1  UNL     1      56.071 -15.256  -7.449  1.00  0.00     0.173 HD
HETATM   12  O1  UNL     1      58.161 -16.310  -6.578  1.00  0.00    -0.265 OA
HETATM   13  C9  UNL     1      56.865 -18.147  -6.188  1.00  0.00     0.199 A 
HETATM   14  C8  UNL     1      55.598 -18.736  -6.258  1.00  0.00     0.146 A 
HETATM   15  F1  UNL     1      57.917 -18.846  -5.687  1.00  0.00    -0.199 F 
ENDBRANCH   1   6
BRANCH   5  16
HETATM   16  O6  UNL     1      53.673 -20.285  -8.556  1.00  0.00    -0.388 OA
ATOM     17  H6  UNL     1      53.392 -21.115  -8.921  1.00  0.00     0.210 HD
ENDBRANCH   5  16
BRANCH   3  18
HETATM   18  C5  UNL     1      51.049 -20.382  -4.707  1.00  0.00     0.198 C 
BRANCH  18  19
HETATM   19  O4  UNL     1      50.731 -19.584  -3.617  1.00  0.00    -0.398 OA
ATOM     20  H4  UNL     1      51.494 -19.108  -3.312  1.00  0.00     0.209 HD
ENDBRANCH  18  19
ENDBRANCH   3  18
BRANCH   4  21
HETATM   21  O5  UNL     1      51.161 -19.969  -8.198  1.00  0.00    -0.390 OA
ATOM     22  H5  UNL     1      51.634 -19.222  -8.546  1.00  0.00     0.210 HD
ENDBRANCH   4  21
TORSDOF 5
ENDMDL
