MODEL 3
REMARK VINA RESULT: -6.522149976      2.863      5.284
REMARK  5 active torsions:
REMARK  status: ('A' for Active; 'I' for Inactive)
REMARK    1  A    between atoms: N2_7  and  C3_8 
REMARK    2  A    between atoms: C4_10  and  C5_11 
REMARK    3  A    between atoms: C5_11  and  O4_12 
REMARK    4  A    between atoms: C6_14  and  O5_15 
REMARK    5  A    between atoms: C7_17  and  O6_18 
ROOT
HETATM    1  C3  UNL     1      54.290 -18.025  -6.725  1.00  0.00     0.264 C 
HETATM    2  O3  UNL     1      54.276 -18.700  -5.520  1.00  0.00    -0.353 OA
HETATM    3  C4  UNL     1      53.042 -18.444  -4.974  1.00  0.00     0.179 C 
HETATM    4  C6  UNL     1      52.074 -18.183  -6.088  1.00  0.00     0.182 C 
HETATM    5  C7  UNL     1      52.953 -18.479  -7.313  1.00  0.00     0.198 C 
ENDROOT
BRANCH   1   6
HETATM    6  N2  UNL     1      55.395 -18.304  -7.561  1.00  0.00    -0.277 N 
HETATM    7  C2  UNL     1      55.718 -17.474  -8.566  1.00  0.00     0.331 A 
HETATM    8  N1  UNL     1      56.778 -17.719  -9.387  1.00  0.00    -0.273 N 
HETATM    9  O2  UNL     1      55.068 -16.425  -8.809  1.00  0.00    -0.246 OA
HETATM   10  C1  UNL     1      57.546 -18.811  -9.222  1.00  0.00     0.289 A 
ATOM     11  H1  UNL     1      56.991 -17.064 -10.139  1.00  0.00     0.173 HD
HETATM   12  O1  UNL     1      58.525 -19.030  -9.987  1.00  0.00    -0.265 OA
HETATM   13  C9  UNL     1      57.243 -19.672  -8.211  1.00  0.00     0.199 A 
HETATM   14  C8  UNL     1      56.151 -19.398  -7.382  1.00  0.00     0.146 A 
HETATM   15  F1  UNL     1      57.993 -20.787  -8.009  1.00  0.00    -0.199 F 
ENDBRANCH   1   6
BRANCH   5  16
HETATM   16  O6  UNL     1      52.582 -17.745  -8.407  1.00  0.00    -0.388 OA
ATOM     17  H6  UNL     1      52.090 -18.255  -9.039  1.00  0.00     0.210 HD
ENDBRANCH   5  16
BRANCH   3  18
HETATM   18  C5  UNL     1      52.515 -19.577  -4.123  1.00  0.00     0.198 C 
BRANCH  18  19
HETATM   19  O4  UNL     1      51.128 -19.610  -4.147  1.00  0.00    -0.398 OA
ATOM     20  H4  UNL     1      50.814 -20.491  -4.316  1.00  0.00     0.209 HD
ENDBRANCH  18  19
ENDBRANCH   3  18
BRANCH   4  21
HETATM   21  O5  UNL     1      51.797 -16.803  -6.163  1.00  0.00    -0.390 OA
ATOM     22  H5  UNL     1      51.036 -16.658  -6.714  1.00  0.00     0.210 HD
ENDBRANCH   4  21
TORSDOF 5
ENDMDL
