MODEL 2
REMARK VINA RESULT: -6.536157701      2.296      2.890
REMARK  5 active torsions:
REMARK  status: ('A' for Active; 'I' for Inactive)
REMARK    1  A    between atoms: N2_7  and  C3_8 
REMARK    2  A    between atoms: C4_10  and  C5_11 
REMARK    3  A    between atoms: C5_11  and  O4_12 
REMARK    4  A    between atoms: C6_14  and  O5_15 
REMARK    5  A    between atoms: C7_17  and  O6_18 
ROOT
HETATM    1  C3  UNL     1      52.442 -19.634  -7.182  1.00  0.00     0.264 C 
HETATM    2  O3  UNL     1      53.031 -19.937  -5.969  1.00  0.00    -0.353 OA
HETATM    3  C4  UNL     1      53.901 -18.905  -5.720  1.00  0.00     0.179 C 
HETATM    4  C6  UNL     1      53.389 -17.674  -6.405  1.00  0.00     0.182 C 
HETATM    5  C7  UNL     1      52.039 -18.179  -6.939  1.00  0.00     0.198 C 
ENDROOT
BRANCH   1   6
HETATM    6  N2  UNL     1      51.359 -20.463  -7.552  1.00  0.00    -0.277 N 
HETATM    7  C2  UNL     1      50.987 -20.570  -8.838  1.00  0.00     0.331 A 
HETATM    8  N1  UNL     1      49.947 -21.361  -9.221  1.00  0.00    -0.273 N 
HETATM    9  O2  UNL     1      51.574 -19.950  -9.762  1.00  0.00    -0.246 OA
HETATM   10  C1  UNL     1      49.246 -22.072  -8.320  1.00  0.00     0.289 A 
ATOM     11  H1  UNL     1      49.695 -21.415 -10.209  1.00  0.00     0.173 HD
HETATM   12  O1  UNL     1      48.284 -22.802  -8.685  1.00  0.00    -0.265 OA
HETATM   13  C9  UNL     1      49.598 -21.985  -7.008  1.00  0.00     0.199 A 
HETATM   14  C8  UNL     1      50.670 -21.165  -6.639  1.00  0.00     0.146 A 
HETATM   15  F1  UNL     1      48.916 -22.685  -6.064  1.00  0.00    -0.199 F 
ENDBRANCH   1   6
BRANCH   5  16
HETATM   16  O6  UNL     1      51.663 -17.538  -8.087  1.00  0.00    -0.388 OA
ATOM     17  H6  UNL     1      52.257 -17.703  -8.810  1.00  0.00     0.210 HD
ENDBRANCH   5  16
BRANCH   3  18
HETATM   18  C5  UNL     1      54.074 -18.610  -4.247  1.00  0.00     0.198 C 
BRANCH  18  19
HETATM   19  O4  UNL     1      53.223 -17.590  -3.844  1.00  0.00    -0.398 OA
ATOM     20  H4  UNL     1      53.696 -16.772  -3.752  1.00  0.00     0.209 HD
ENDBRANCH  18  19
ENDBRANCH   3  18
BRANCH   4  21
HETATM   21  O5  UNL     1      54.160 -17.413  -7.554  1.00  0.00    -0.390 OA
ATOM     22  H5  UNL     1      53.597 -17.383  -8.319  1.00  0.00     0.210 HD
ENDBRANCH   4  21
TORSDOF 5
ENDMDL
