MODEL 5
REMARK VINA RESULT: -6.276539339      2.832      6.090
REMARK  5 active torsions:
REMARK  status: ('A' for Active; 'I' for Inactive)
REMARK    1  A    between atoms: N2_7  and  C3_8 
REMARK    2  A    between atoms: C4_10  and  C5_11 
REMARK    3  A    between atoms: C5_11  and  O4_12 
REMARK    4  A    between atoms: C6_14  and  O5_15 
REMARK    5  A    between atoms: C7_17  and  O6_18 
ROOT
HETATM    1  C3  UNL     1      52.064 -20.379  -8.905  1.00  0.00     0.264 C 
HETATM    2  O3  UNL     1      50.853 -20.129  -9.521  1.00  0.00    -0.353 OA
HETATM    3  C4  UNL     1      50.338 -21.365  -9.825  1.00  0.00     0.179 C 
HETATM    4  C6  UNL     1      50.875 -22.360  -8.841  1.00  0.00     0.182 C 
HETATM    5  C7  UNL     1      51.643 -21.436  -7.883  1.00  0.00     0.198 C 
ENDROOT
BRANCH   1   6
HETATM    6  N2  UNL     1      52.690 -19.253  -8.323  1.00  0.00    -0.277 N 
HETATM    7  C2  UNL     1      54.028 -19.192  -8.221  1.00  0.00     0.331 A 
HETATM    8  N1  UNL     1      54.657 -18.119  -7.664  1.00  0.00    -0.273 N 
HETATM    9  O2  UNL     1      54.778 -20.114  -8.631  1.00  0.00    -0.246 OA
HETATM   10  C1  UNL     1      53.957 -17.072  -7.192  1.00  0.00     0.289 A 
ATOM     11  H1  UNL     1      55.675 -18.110  -7.605  1.00  0.00     0.173 HD
HETATM   12  O1  UNL     1      54.548 -16.083  -6.678  1.00  0.00    -0.265 OA
HETATM   13  C9  UNL     1      52.599 -17.104  -7.281  1.00  0.00     0.199 A 
HETATM   14  C8  UNL     1      51.977 -18.217  -7.856  1.00  0.00     0.146 A 
HETATM   15  F1  UNL     1      51.853 -16.068  -6.815  1.00  0.00    -0.199 F 
ENDBRANCH   1   6
BRANCH   5  16
HETATM   16  O6  UNL     1      52.711 -22.063  -7.303  1.00  0.00    -0.388 OA
ATOM     17  H6  UNL     1      52.487 -22.916  -6.950  1.00  0.00     0.210 HD
ENDBRANCH   5  16
BRANCH   3  18
HETATM   18  C5  UNL     1      48.827 -21.409  -9.792  1.00  0.00     0.198 C 
BRANCH  18  19
HETATM   19  O4  UNL     1      48.309 -21.553 -11.071  1.00  0.00    -0.398 OA
ATOM     20  H4  UNL     1      47.455 -21.142 -11.139  1.00  0.00     0.209 HD
ENDBRANCH  18  19
ENDBRANCH   3  18
BRANCH   4  21
HETATM   21  O5  UNL     1      51.866 -23.150  -9.457  1.00  0.00    -0.390 OA
ATOM     22  H5  UNL     1      52.727 -22.826  -9.220  1.00  0.00     0.210 HD
ENDBRANCH   4  21
TORSDOF 5
ENDMDL
