MODEL 15
REMARK VINA RESULT: -5.716874383      4.750      6.410
REMARK  4 active torsions:
REMARK  status: ('A' for Active; 'I' for Inactive)
REMARK    1  A    between atoms: C3_6  and  C4_7 
REMARK    2  A    between atoms: C5_8  and  C6_9 
REMARK    3  A    between atoms: C12_15  and  O1_16 
REMARK    4  A    between atoms: C13_18  and  O2_19 
ROOT
HETATM    1  C1  UNL     1      35.310   4.506  59.104  1.00  0.00     0.043 C 
HETATM    2  C2  UNL     1      34.291   5.547  58.652  1.00  0.00     0.214 C 
HETATM    3  N1  UNL     1      33.946   6.472  59.682  1.00  0.00    -0.051 N 
ATOM      4  H11 UNL     1      34.190   7.431  59.436  1.00  0.00     0.279 HD
ATOM      5  H12 UNL     1      34.543   6.375  60.503  1.00  0.00     0.279 HD
HETATM    6  C3  UNL     1      32.567   6.333  60.001  1.00  0.00     0.296 C 
HETATM    7  C12 UNL     1      31.928   5.436  58.970  1.00  0.00     0.191 C 
HETATM    8  C13 UNL     1      33.068   4.825  58.215  1.00  0.00     0.180 C 
ENDROOT
BRANCH   6   9
HETATM    9  C4  UNL     1      31.952   7.661  60.010  1.00  0.00    -0.065 C 
HETATM   10  C5  UNL     1      31.452   8.778  60.033  1.00  0.00    -0.065 C 
BRANCH  10  11
HETATM   11  C6  UNL     1      30.865  10.088  60.084  1.00  0.00     0.017 A 
HETATM   12  C7  UNL     1      29.540  10.329  59.776  1.00  0.00     0.020 A 
HETATM   13  C8  UNL     1      28.961  11.565  59.818  1.00  0.00     0.001 A 
HETATM   14  C9  UNL     1      29.739  12.654  60.189  1.00  0.00     0.000 A 
HETATM   15  C10 UNL     1      31.065  12.453  60.503  1.00  0.00     0.001 A 
HETATM   16  C11 UNL     1      31.629  11.177  60.452  1.00  0.00     0.020 A 
ENDBRANCH  10  11
ENDBRANCH   6   9
BRANCH   7  17
HETATM   17  O1  UNL     1      31.084   4.485  59.547  1.00  0.00    -0.390 OA
ATOM     18  H1  UNL     1      31.414   3.600  59.442  1.00  0.00     0.210 HD
ENDBRANCH   7  17
BRANCH   8  19
HETATM   19  O2  UNL     1      33.125   3.450  58.430  1.00  0.00    -0.391 OA
ATOM     20  H2  UNL     1      32.421   2.970  58.010  1.00  0.00     0.210 HD
ENDBRANCH   8  19
TORSDOF 4
ENDMDL
