MODEL 10
REMARK VINA RESULT: -5.929900992      6.574      7.553
REMARK  4 active torsions:
REMARK  status: ('A' for Active; 'I' for Inactive)
REMARK    1  A    between atoms: C3_6  and  C4_7 
REMARK    2  A    between atoms: C5_8  and  C6_9 
REMARK    3  A    between atoms: C12_15  and  O1_16 
REMARK    4  A    between atoms: C13_18  and  O2_19 
ROOT
HETATM    1  C1  UNL     1      25.993  12.627  62.048  1.00  0.00     0.043 C 
HETATM    2  C2  UNL     1      26.592  11.970  60.809  1.00  0.00     0.214 C 
HETATM    3  N1  UNL     1      27.721  11.151  61.104  1.00  0.00    -0.051 N 
ATOM      4  H11 UNL     1      27.567  10.175  60.851  1.00  0.00     0.279 HD
ATOM      5  H12 UNL     1      27.854  11.023  62.107  1.00  0.00     0.279 HD
HETATM    6  C3  UNL     1      28.877  11.693  60.475  1.00  0.00     0.296 C 
HETATM    7  C12 UNL     1      28.437  12.787  59.535  1.00  0.00     0.191 C 
HETATM    8  C13 UNL     1      27.004  13.052  59.876  1.00  0.00     0.180 C 
ENDROOT
BRANCH   6   9
HETATM    9  C4  UNL     1      29.568  10.618  59.761  1.00  0.00    -0.065 C 
HETATM   10  C5  UNL     1      30.154   9.713  59.182  1.00  0.00    -0.065 C 
BRANCH  10  11
HETATM   11  C6  UNL     1      30.861   8.654  58.516  1.00  0.00     0.017 A 
HETATM   12  C7  UNL     1      32.086   8.184  58.946  1.00  0.00     0.020 A 
HETATM   13  C8  UNL     1      32.776   7.180  58.329  1.00  0.00     0.001 A 
HETATM   14  C9  UNL     1      32.226   6.588  57.201  1.00  0.00     0.000 A 
HETATM   15  C10 UNL     1      31.004   7.030  56.741  1.00  0.00     0.001 A 
HETATM   16  C11 UNL     1      30.322   8.058  57.393  1.00  0.00     0.020 A 
ENDBRANCH  10  11
ENDBRANCH   6   9
BRANCH   7  17
HETATM   17  O1  UNL     1      29.242  13.925  59.637  1.00  0.00    -0.390 OA
ATOM     18  H1  UNL     1      28.991  14.478  60.366  1.00  0.00     0.210 HD
ENDBRANCH   7  17
BRANCH   8  19
HETATM   19  O2  UNL     1      26.848  14.331  60.403  1.00  0.00    -0.391 OA
ATOM     20  H2  UNL     1      26.675  14.994  59.746  1.00  0.00     0.210 HD
ENDBRANCH   8  19
TORSDOF 4
ENDMDL
