MODEL 4
REMARK VINA RESULT: -6.443722331      2.731      3.097
REMARK  4 active torsions:
REMARK  status: ('A' for Active; 'I' for Inactive)
REMARK    1  A    between atoms: C3_6  and  C4_7 
REMARK    2  A    between atoms: C5_8  and  C6_9 
REMARK    3  A    between atoms: C12_15  and  O1_16 
REMARK    4  A    between atoms: C13_18  and  O2_19 
ROOT
HETATM    1  C1  UNL     1      28.271   5.052  55.098  1.00  0.00     0.043 C 
HETATM    2  C2  UNL     1      29.313   5.216  56.199  1.00  0.00     0.214 C 
HETATM    3  N1  UNL     1      29.541   6.580  56.551  1.00  0.00    -0.051 N 
ATOM      4  H11 UNL     1      29.307   6.771  57.526  1.00  0.00     0.279 HD
ATOM      5  H12 UNL     1      28.867   7.209  56.114  1.00  0.00     0.279 HD
HETATM    6  C3  UNL     1      30.884   6.931  56.241  1.00  0.00     0.296 C 
HETATM    7  C12 UNL     1      31.635   5.672  55.885  1.00  0.00     0.191 C 
HETATM    8  C13 UNL     1      30.585   4.619  55.714  1.00  0.00     0.180 C 
ENDROOT
BRANCH   6   9
HETATM    9  C4  UNL     1      31.475   7.596  57.404  1.00  0.00    -0.065 C 
HETATM   10  C5  UNL     1      31.977   8.166  58.364  1.00  0.00    -0.065 C 
BRANCH  10  11
HETATM   11  C6  UNL     1      32.586   8.839  59.477  1.00  0.00     0.017 A 
HETATM   12  C7  UNL     1      32.847   8.212  60.680  1.00  0.00     0.020 A 
HETATM   13  C8  UNL     1      33.425   8.831  61.751  1.00  0.00     0.001 A 
HETATM   14  C9  UNL     1      33.776  10.170  61.639  1.00  0.00     0.000 A 
HETATM   15  C10 UNL     1      33.532  10.829  60.454  1.00  0.00     0.001 A 
HETATM   16  C11 UNL     1      32.940  10.169  59.375  1.00  0.00     0.020 A 
ENDBRANCH  10  11
ENDBRANCH   6   9
BRANCH   7  17
HETATM   17  O1  UNL     1      32.433   5.836  54.750  1.00  0.00    -0.390 OA
ATOM     18  H1  UNL     1      32.449   6.737  54.450  1.00  0.00     0.210 HD
ENDBRANCH   7  17
BRANCH   8  19
HETATM   19  O2  UNL     1      30.528   4.186  54.392  1.00  0.00    -0.391 OA
ATOM     20  H2  UNL     1      30.669   4.879  53.759  1.00  0.00     0.210 HD
ENDBRANCH   8  19
TORSDOF 4
ENDMDL
