MODEL 3
REMARK VINA RESULT: -6.459652883      2.827      3.344
REMARK  4 active torsions:
REMARK  status: ('A' for Active; 'I' for Inactive)
REMARK    1  A    between atoms: C3_6  and  C4_7 
REMARK    2  A    between atoms: C5_8  and  C6_9 
REMARK    3  A    between atoms: C12_15  and  O1_16 
REMARK    4  A    between atoms: C13_18  and  O2_19 
ROOT
HETATM    1  C1  UNL     1      28.263   5.037  55.097  1.00  0.00     0.043 C 
HETATM    2  C2  UNL     1      29.300   5.214  56.201  1.00  0.00     0.214 C 
HETATM    3  N1  UNL     1      29.518   6.580  56.545  1.00  0.00    -0.051 N 
ATOM      4  H11 UNL     1      29.279   6.776  57.518  1.00  0.00     0.279 HD
ATOM      5  H12 UNL     1      28.842   7.203  56.102  1.00  0.00     0.279 HD
HETATM    6  C3  UNL     1      30.860   6.939  56.238  1.00  0.00     0.296 C 
HETATM    7  C12 UNL     1      31.620   5.682  55.892  1.00  0.00     0.191 C 
HETATM    8  C13 UNL     1      30.577   4.621  55.724  1.00  0.00     0.180 C 
ENDROOT
BRANCH   6   9
HETATM    9  C4  UNL     1      31.442   7.614  57.400  1.00  0.00    -0.065 C 
HETATM   10  C5  UNL     1      31.930   8.196  58.359  1.00  0.00    -0.065 C 
BRANCH  10  11
HETATM   11  C6  UNL     1      32.519   8.890  59.471  1.00  0.00     0.017 A 
HETATM   12  C7  UNL     1      32.986  10.187  59.383  1.00  0.00     0.020 A 
HETATM   13  C8  UNL     1      33.549  10.865  60.425  1.00  0.00     0.001 A 
HETATM   14  C9  UNL     1      33.666  10.226  61.652  1.00  0.00     0.000 A 
HETATM   15  C10 UNL     1      33.211   8.932  61.779  1.00  0.00     0.001 A 
HETATM   16  C11 UNL     1      32.639   8.263  60.695  1.00  0.00     0.020 A 
ENDBRANCH  10  11
ENDBRANCH   6   9
BRANCH   7  17
HETATM   17  O1  UNL     1      32.421   5.844  54.760  1.00  0.00    -0.390 OA
ATOM     18  H1  UNL     1      32.998   6.595  54.833  1.00  0.00     0.210 HD
ENDBRANCH   7  17
BRANCH   8  19
HETATM   19  O2  UNL     1      30.528   4.180  54.404  1.00  0.00    -0.391 OA
ATOM     20  H2  UNL     1      30.995   3.366  54.258  1.00  0.00     0.210 HD
ENDBRANCH   8  19
TORSDOF 4
ENDMDL
