MODEL 4
REMARK VINA RESULT: -7.141554111      3.154      3.881
REMARK  4 active torsions:
REMARK  status: ('A' for Active; 'I' for Inactive)
REMARK    1  A    between atoms: C3_6  and  C4_7 
REMARK    2  A    between atoms: N2_9  and  C6_10 
REMARK    3  A    between atoms: C12_20  and  O1_21 
REMARK    4  A    between atoms: C13_23  and  O2_24 
ROOT
HETATM    1  C4  UNL     1      30.799   6.766  57.425  1.00  0.00     0.078 A 
HETATM    2  C5  UNL     1      30.897   8.086  57.877  1.00  0.00     0.146 A 
HETATM    3  N2  UNL     1      31.304   8.061  59.157  1.00  0.00    -0.251 N 
HETATM    4  N3  UNL     1      31.449   6.786  59.481  1.00  0.00    -0.236 N 
ATOM      5  H3  UNL     1      31.750   6.456  60.398  1.00  0.00     0.209 HD
HETATM    6  N4  UNL     1      31.156   6.003  58.474  1.00  0.00    -0.286 N 
ATOM      7  H4  UNL     1      31.193   4.983  58.483  1.00  0.00     0.188 HD
ENDROOT
BRANCH   1   8
HETATM    8  C3  UNL     1      30.380   6.346  56.060  1.00  0.00     0.269 C 
HETATM    9  N1  UNL     1      28.965   6.387  55.863  1.00  0.00    -0.056 N 
HETATM   10  C2  UNL     1      28.538   5.011  56.149  1.00  0.00     0.214 C 
ATOM     11  H12 UNL     1      28.677   6.738  54.950  1.00  0.00     0.278 HD
ATOM     12  H11 UNL     1      28.484   7.101  56.410  1.00  0.00     0.278 HD
HETATM   13  C1  UNL     1      27.139   4.744  55.728  1.00  0.00     0.043 C 
HETATM   14  C13 UNL     1      29.564   4.246  55.301  1.00  0.00     0.179 C 
HETATM   15  C12 UNL     1      30.842   4.928  55.810  1.00  0.00     0.185 C 
BRANCH  14  16
HETATM   16  O2  UNL     1      29.457   4.577  53.963  1.00  0.00    -0.391 OA
ATOM     17  H2  UNL     1      30.300   4.534  53.528  1.00  0.00     0.210 HD
ENDBRANCH  14  16
BRANCH  15  18
HETATM   18  O1  UNL     1      31.858   4.851  54.870  1.00  0.00    -0.390 OA
ATOM     19  H1  UNL     1      32.160   3.962  54.726  1.00  0.00     0.210 HD
ENDBRANCH  15  18
ENDBRANCH   1   8
BRANCH   3  20
HETATM   20  C6  UNL     1      31.519   9.211  59.957  1.00  0.00     0.057 A 
HETATM   21  C7  UNL     1      31.901  10.371  59.334  1.00  0.00     0.031 A 
HETATM   22  C8  UNL     1      32.128  11.527  60.028  1.00  0.00     0.002 A 
HETATM   23  C9  UNL     1      31.966  11.515  61.397  1.00  0.00     0.000 A 
HETATM   24  C10 UNL     1      31.580  10.352  62.047  1.00  0.00     0.002 A 
HETATM   25  C11 UNL     1      31.360   9.206  61.315  1.00  0.00     0.031 A 
ENDBRANCH   3  20
TORSDOF 4
ENDMDL
