MODEL 10
REMARK VINA RESULT: -6.846502782      2.294      2.790
REMARK  4 active torsions:
REMARK  status: ('A' for Active; 'I' for Inactive)
REMARK    1  A    between atoms: C3_6  and  C4_7 
REMARK    2  A    between atoms: N2_9  and  C6_10 
REMARK    3  A    between atoms: C12_20  and  O1_21 
REMARK    4  A    between atoms: C13_23  and  O2_24 
ROOT
HETATM    1  C4  UNL     1      31.255   6.558  57.409  1.00  0.00     0.078 A 
HETATM    2  C5  UNL     1      32.134   7.595  57.736  1.00  0.00     0.146 A 
HETATM    3  N2  UNL     1      32.444   7.487  59.039  1.00  0.00    -0.251 N 
HETATM    4  N3  UNL     1      31.787   6.433  59.495  1.00  0.00    -0.236 N 
ATOM      5  H3  UNL     1      31.828   6.102  60.460  1.00  0.00     0.209 HD
HETATM    6  N4  UNL     1      31.078   5.868  58.551  1.00  0.00    -0.286 N 
ATOM      7  H4  UNL     1      30.489   5.043  58.662  1.00  0.00     0.188 HD
ENDROOT
BRANCH   1   8
HETATM    8  C3  UNL     1      30.666   6.313  56.065  1.00  0.00     0.269 C 
HETATM    9  N1  UNL     1      29.244   6.451  56.034  1.00  0.00    -0.056 N 
HETATM   10  C2  UNL     1      28.760   5.077  56.224  1.00  0.00     0.214 C 
ATOM     11  H12 UNL     1      28.883   6.915  55.201  1.00  0.00     0.278 HD
ATOM     12  H11 UNL     1      28.871   7.126  56.702  1.00  0.00     0.278 HD
HETATM   13  C1  UNL     1      27.311   4.932  55.939  1.00  0.00     0.043 C 
HETATM   14  C13 UNL     1      29.638   4.355  55.191  1.00  0.00     0.179 C 
HETATM   15  C12 UNL     1      31.005   4.908  55.620  1.00  0.00     0.185 C 
BRANCH  14  16
HETATM   16  O2  UNL     1      29.410   4.835  53.915  1.00  0.00    -0.391 OA
ATOM     17  H2  UNL     1      29.255   4.127  53.302  1.00  0.00     0.210 HD
ENDBRANCH  14  16
BRANCH  15  18
HETATM   18  O1  UNL     1      31.907   4.879  54.568  1.00  0.00    -0.390 OA
ATOM     19  H1  UNL     1      32.390   4.063  54.518  1.00  0.00     0.210 HD
ENDBRANCH  15  18
ENDBRANCH   1   8
BRANCH   3  20
HETATM   20  C6  UNL     1      33.313   8.362  59.736  1.00  0.00     0.057 A 
HETATM   21  C7  UNL     1      33.874   9.405  59.045  1.00  0.00     0.031 A 
HETATM   22  C8  UNL     1      34.722  10.298  59.639  1.00  0.00     0.002 A 
HETATM   23  C9  UNL     1      35.018  10.135  60.975  1.00  0.00     0.000 A 
HETATM   24  C10 UNL     1      34.461   9.087  61.694  1.00  0.00     0.002 A 
HETATM   25  C11 UNL     1      33.611   8.207  61.062  1.00  0.00     0.031 A 
ENDBRANCH   3  20
TORSDOF 4
ENDMDL
