MODEL 3
REMARK VINA RESULT: -7.261790404      3.513      4.625
REMARK  4 active torsions:
REMARK  status: ('A' for Active; 'I' for Inactive)
REMARK    1  A    between atoms: C3_6  and  C4_7 
REMARK    2  A    between atoms: N2_9  and  C6_10 
REMARK    3  A    between atoms: C12_20  and  O1_21 
REMARK    4  A    between atoms: C13_23  and  O2_24 
ROOT
HETATM    1  C4  UNL     1      30.611   7.055  57.149  1.00  0.00     0.078 A 
HETATM    2  C5  UNL     1      30.540   8.438  57.341  1.00  0.00     0.146 A 
HETATM    3  N2  UNL     1      30.814   8.697  58.631  1.00  0.00    -0.251 N 
HETATM    4  N3  UNL     1      31.041   7.528  59.208  1.00  0.00    -0.236 N 
ATOM      5  H3  UNL     1      31.275   7.409  60.194  1.00  0.00     0.209 HD
HETATM    6  N4  UNL     1      30.927   6.544  58.353  1.00  0.00    -0.286 N 
ATOM      7  H4  UNL     1      31.055   5.554  58.564  1.00  0.00     0.188 HD
ENDROOT
BRANCH   1   8
HETATM    8  C3  UNL     1      30.375   6.346  55.862  1.00  0.00     0.269 C 
HETATM    9  N1  UNL     1      28.995   6.268  55.501  1.00  0.00    -0.056 N 
HETATM   10  C2  UNL     1      28.576   4.958  56.015  1.00  0.00     0.214 C 
ATOM     11  H12 UNL     1      28.810   6.411  54.508  1.00  0.00     0.278 HD
ATOM     12  H11 UNL     1      28.428   7.051  55.829  1.00  0.00     0.278 HD
HETATM   13  C1  UNL     1      27.249   4.535  55.503  1.00  0.00     0.043 C 
HETATM   14  C13 UNL     1      29.722   4.094  55.467  1.00  0.00     0.179 C 
HETATM   15  C12 UNL     1      30.906   4.933  55.966  1.00  0.00     0.185 C 
BRANCH  14  16
HETATM   16  O2  UNL     1      29.769   4.140  54.087  1.00  0.00    -0.391 OA
ATOM     17  H2  UNL     1      30.533   3.686  53.752  1.00  0.00     0.210 HD
ENDBRANCH  14  16
BRANCH  15  18
HETATM   18  O1  UNL     1      32.031   4.722  55.185  1.00  0.00    -0.390 OA
ATOM     19  H1  UNL     1      32.840   4.775  55.680  1.00  0.00     0.210 HD
ENDBRANCH  15  18
ENDBRANCH   1   8
BRANCH   3  20
HETATM   20  C6  UNL     1      30.838   9.992  59.205  1.00  0.00     0.057 A 
HETATM   21  C7  UNL     1      32.056  10.584  59.417  1.00  0.00     0.031 A 
HETATM   22  C8  UNL     1      32.171  11.831  59.966  1.00  0.00     0.002 A 
HETATM   23  C9  UNL     1      31.021  12.506  60.314  1.00  0.00     0.000 A 
HETATM   24  C10 UNL     1      29.778  11.925  60.109  1.00  0.00     0.002 A 
HETATM   25  C11 UNL     1      29.701  10.667  59.554  1.00  0.00     0.031 A 
ENDBRANCH   3  20
TORSDOF 4
ENDMDL
