MODEL 8
REMARK VINA RESULT: -6.895106771      4.191      6.551
REMARK  4 active torsions:
REMARK  status: ('A' for Active; 'I' for Inactive)
REMARK    1  A    between atoms: C3_6  and  C4_7 
REMARK    2  A    between atoms: N2_9  and  C6_10 
REMARK    3  A    between atoms: C12_20  and  O1_21 
REMARK    4  A    between atoms: C13_23  and  O2_24 
ROOT
HETATM    1  C4  UNL     1      31.439   7.124  59.389  1.00  0.00     0.078 A 
HETATM    2  C5  UNL     1      31.364   8.393  59.971  1.00  0.00     0.146 A 
HETATM    3  N2  UNL     1      30.575   9.161  59.201  1.00  0.00    -0.251 N 
HETATM    4  N3  UNL     1      30.184   8.402  58.190  1.00  0.00    -0.236 N 
ATOM      5  H3  UNL     1      29.572   8.718  57.437  1.00  0.00     0.209 HD
HETATM    6  N4  UNL     1      30.682   7.195  58.280  1.00  0.00    -0.286 N 
ATOM      7  H4  UNL     1      30.522   6.434  57.618  1.00  0.00     0.188 HD
ENDROOT
BRANCH   1   8
HETATM    8  C3  UNL     1      32.213   5.970  59.924  1.00  0.00     0.269 C 
HETATM    9  N1  UNL     1      33.608   6.242  60.074  1.00  0.00    -0.056 N 
HETATM   10  C2  UNL     1      34.194   5.739  58.825  1.00  0.00     0.214 C 
ATOM     11  H12 UNL     1      34.023   5.856  60.922  1.00  0.00     0.278 HD
ATOM     12  H11 UNL     1      33.827   7.217  60.281  1.00  0.00     0.278 HD
HETATM   13  C1  UNL     1      35.675   5.654  58.878  1.00  0.00     0.043 C 
HETATM   14  C13 UNL     1      33.526   4.357  58.771  1.00  0.00     0.179 C 
HETATM   15  C12 UNL     1      32.070   4.794  58.983  1.00  0.00     0.185 C 
BRANCH  14  16
HETATM   16  O2  UNL     1      33.864   3.593  59.871  1.00  0.00    -0.391 OA
ATOM     17  H2  UNL     1      34.619   3.952  60.322  1.00  0.00     0.210 HD
ENDBRANCH  14  16
BRANCH  15  18
HETATM   18  O1  UNL     1      31.313   3.764  59.520  1.00  0.00    -0.390 OA
ATOM     19  H1  UNL     1      31.845   3.081  59.911  1.00  0.00     0.210 HD
ENDBRANCH  15  18
ENDBRANCH   1   8
BRANCH   3  20
HETATM   20  C6  UNL     1      30.260  10.516  59.469  1.00  0.00     0.057 A 
HETATM   21  C7  UNL     1      31.262  11.337  59.919  1.00  0.00     0.031 A 
HETATM   22  C8  UNL     1      31.046  12.658  60.201  1.00  0.00     0.002 A 
HETATM   23  C9  UNL     1      29.779  13.170  60.025  1.00  0.00     0.000 A 
HETATM   24  C10 UNL     1      28.751  12.357  59.570  1.00  0.00     0.002 A 
HETATM   25  C11 UNL     1      29.006  11.031  59.296  1.00  0.00     0.031 A 
ENDBRANCH   3  20
TORSDOF 4
ENDMDL
