MODEL 14
REMARK VINA RESULT: -6.451970534      4.478      7.069
REMARK  4 active torsions:
REMARK  status: ('A' for Active; 'I' for Inactive)
REMARK    1  A    between atoms: C3_6  and  C4_7 
REMARK    2  A    between atoms: N2_9  and  C6_10 
REMARK    3  A    between atoms: C12_20  and  O1_21 
REMARK    4  A    between atoms: C13_23  and  O2_24 
ROOT
HETATM    1  C4  UNL     1      31.255   7.281  59.906  1.00  0.00     0.078 A 
HETATM    2  C5  UNL     1      30.480   8.261  60.533  1.00  0.00     0.146 A 
HETATM    3  N2  UNL     1      29.705   8.842  59.602  1.00  0.00    -0.251 N 
HETATM    4  N3  UNL     1      29.990   8.249  58.453  1.00  0.00    -0.236 N 
ATOM      5  H3  UNL     1      29.554   8.483  57.561  1.00  0.00     0.209 HD
HETATM    6  N4  UNL     1      30.903   7.323  58.609  1.00  0.00    -0.286 N 
ATOM      7  H4  UNL     1      31.283   6.733  57.869  1.00  0.00     0.188 HD
ENDROOT
BRANCH   1   8
HETATM    8  C3  UNL     1      32.250   6.402  60.579  1.00  0.00     0.269 C 
HETATM    9  N1  UNL     1      33.604   6.784  60.332  1.00  0.00    -0.056 N 
HETATM   10  C2  UNL     1      33.998   5.942  59.195  1.00  0.00     0.214 C 
ATOM     11  H12 UNL     1      34.218   6.711  61.144  1.00  0.00     0.278 HD
ATOM     12  H11 UNL     1      33.740   7.784  60.184  1.00  0.00     0.278 HD
HETATM   13  C1  UNL     1      35.461   5.959  58.944  1.00  0.00     0.043 C 
HETATM   14  C13 UNL     1      33.504   4.581  59.704  1.00  0.00     0.179 C 
HETATM   15  C12 UNL     1      32.073   4.982  60.089  1.00  0.00     0.185 C 
BRANCH  14  16
HETATM   16  O2  UNL     1      34.135   4.225  60.881  1.00  0.00    -0.391 OA
ATOM     17  H2  UNL     1      35.048   4.487  60.875  1.00  0.00     0.210 HD
ENDBRANCH  14  16
BRANCH  15  18
HETATM   18  O1  UNL     1      31.562   4.136  61.062  1.00  0.00    -0.390 OA
ATOM     19  H1  UNL     1      31.314   4.595  61.856  1.00  0.00     0.210 HD
ENDBRANCH  15  18
ENDBRANCH   1   8
BRANCH   3  20
HETATM   20  C6  UNL     1      28.781   9.885  59.858  1.00  0.00     0.057 A 
HETATM   21  C7  UNL     1      28.932  11.066  59.179  1.00  0.00     0.031 A 
HETATM   22  C8  UNL     1      28.086  12.124  59.364  1.00  0.00     0.002 A 
HETATM   23  C9  UNL     1      27.052  11.989  60.265  1.00  0.00     0.000 A 
HETATM   24  C10 UNL     1      26.880  10.802  60.963  1.00  0.00     0.002 A 
HETATM   25  C11 UNL     1      27.753   9.758  60.750  1.00  0.00     0.031 A 
ENDBRANCH   3  20
TORSDOF 4
ENDMDL
