MODEL 9
REMARK VINA RESULT: -6.884716619      4.209      6.554
REMARK  4 active torsions:
REMARK  status: ('A' for Active; 'I' for Inactive)
REMARK    1  A    between atoms: C3_6  and  C4_7 
REMARK    2  A    between atoms: N2_9  and  C6_10 
REMARK    3  A    between atoms: C12_20  and  O1_21 
REMARK    4  A    between atoms: C13_23  and  O2_24 
ROOT
HETATM    1  C4  UNL     1      31.387   7.147  59.386  1.00  0.00     0.078 A 
HETATM    2  C5  UNL     1      31.336   8.415  59.973  1.00  0.00     0.146 A 
HETATM    3  N2  UNL     1      30.558   9.199  59.207  1.00  0.00    -0.251 N 
HETATM    4  N3  UNL     1      30.149   8.450  58.196  1.00  0.00    -0.236 N 
ATOM      5  H3  UNL     1      29.540   8.778  57.447  1.00  0.00     0.209 HD
HETATM    6  N4  UNL     1      30.626   7.234  58.281  1.00  0.00    -0.286 N 
ATOM      7  H4  UNL     1      30.451   6.478  57.618  1.00  0.00     0.188 HD
ENDROOT
BRANCH   1   8
HETATM    8  C3  UNL     1      32.143   5.978  59.915  1.00  0.00     0.269 C 
HETATM    9  N1  UNL     1      33.544   6.225  60.056  1.00  0.00    -0.056 N 
HETATM   10  C2  UNL     1      34.112   5.712  58.803  1.00  0.00     0.214 C 
ATOM     11  H12 UNL     1      33.958   5.830  60.901  1.00  0.00     0.278 HD
ATOM     12  H11 UNL     1      33.782   7.195  60.263  1.00  0.00     0.278 HD
HETATM   13  C1  UNL     1      35.592   5.600  58.845  1.00  0.00     0.043 C 
HETATM   14  C13 UNL     1      33.419   4.343  58.752  1.00  0.00     0.179 C 
HETATM   15  C12 UNL     1      31.972   4.807  58.974  1.00  0.00     0.185 C 
BRANCH  14  16
HETATM   16  O2  UNL     1      33.750   3.571  59.849  1.00  0.00    -0.391 OA
ATOM     17  H2  UNL     1      33.435   2.680  59.752  1.00  0.00     0.210 HD
ENDBRANCH  14  16
BRANCH  15  18
HETATM   18  O1  UNL     1      31.200   3.790  59.515  1.00  0.00    -0.390 OA
ATOM     19  H1  UNL     1      30.448   3.572  58.978  1.00  0.00     0.210 HD
ENDBRANCH  15  18
ENDBRANCH   1   8
BRANCH   3  20
HETATM   20  C6  UNL     1      30.268  10.558  59.481  1.00  0.00     0.057 A 
HETATM   21  C7  UNL     1      28.986  11.002  59.276  1.00  0.00     0.031 A 
HETATM   22  C8  UNL     1      28.619  12.297  59.514  1.00  0.00     0.002 A 
HETATM   23  C9  UNL     1      29.574  13.178  59.974  1.00  0.00     0.000 A 
HETATM   24  C10 UNL     1      30.876  12.750  60.189  1.00  0.00     0.002 A 
HETATM   25  C11 UNL     1      31.210  11.438  59.938  1.00  0.00     0.031 A 
ENDBRANCH   3  20
TORSDOF 4
ENDMDL
