MODEL 3
REMARK VINA RESULT: -5.868627513      2.250      5.383
REMARK  8 active torsions:
REMARK  status: ('A' for Active; 'I' for Inactive)
REMARK    1  A    between atoms: O1_1  and  C1_3 
REMARK    2  A    between atoms: C1_3  and  C2_4 
REMARK    3  A    between atoms: N1_6  and  C4_7 
REMARK    4  A    between atoms: C5_9  and  C6_10 
REMARK    5  A    between atoms: C6_10  and  O3_11 
REMARK    6  A    between atoms: C7_13  and  O4_14 
REMARK    7  A    between atoms: C8_16  and  O5_17 
REMARK    8  A    between atoms: C9_19  and  O6_20 
ROOT
HETATM    1  C4  UNL     1     -14.270 -14.002 -31.317  1.00  0.00     0.276 C 
HETATM    2  O2  UNL     1     -14.366 -15.022 -30.445  1.00  0.00    -0.352 OA
HETATM    3  C5  UNL     1     -13.293 -15.728 -30.087  1.00  0.00     0.179 C 
HETATM    4  C7  UNL     1     -11.949 -15.180 -30.406  1.00  0.00     0.180 C 
HETATM    5  C8  UNL     1     -11.976 -13.690 -30.347  1.00  0.00     0.182 C 
HETATM    6  C9  UNL     1     -13.013 -13.211 -31.312  1.00  0.00     0.200 C 
ENDROOT
BRANCH   1   7
HETATM    7  N1  UNL     1     -14.559 -14.434 -32.692  1.00  0.00    -0.255 N 
HETATM    8  C3  UNL     1     -15.773 -14.751 -33.191  1.00  0.00     0.143 A 
HETATM    9  C2  UNL     1     -15.648 -15.113 -34.527  1.00  0.00     0.067 A 
HETATM   10  N3  UNL     1     -14.331 -14.995 -34.784  1.00  0.00    -0.287 N 
HETATM   11  N2  UNL     1     -13.713 -14.595 -33.689  1.00  0.00    -0.238 N 
ATOM     12  H3  UNL     1     -13.883 -15.184 -35.681  1.00  0.00     0.188 HD
ATOM     13  H2  UNL     1     -12.708 -14.433 -33.622  1.00  0.00     0.208 HD
BRANCH   9  14
HETATM   14  C1  UNL     1     -16.742 -15.532 -35.446  1.00  0.00     0.224 C 
BRANCH  14  15
HETATM   15  O1  UNL     1     -16.854 -16.920 -35.523  1.00  0.00    -0.395 OA
ATOM     16  H1  UNL     1     -16.202 -17.297 -36.102  1.00  0.00     0.209 HD
ENDBRANCH  14  15
ENDBRANCH   9  14
ENDBRANCH   1   7
BRANCH   6  17
HETATM   17  O6  UNL     1     -13.228 -11.842 -31.031  1.00  0.00    -0.388 OA
ATOM     18  H6  UNL     1     -13.015 -11.277 -31.765  1.00  0.00     0.210 HD
ENDBRANCH   6  17
BRANCH   3  19
HETATM   19  C6  UNL     1     -13.341 -15.973 -28.574  1.00  0.00     0.198 C 
BRANCH  19  20
HETATM   20  O3  UNL     1     -14.247 -15.091 -27.961  1.00  0.00    -0.398 OA
ATOM     21  H3  UNL     1     -13.991 -14.922 -27.061  1.00  0.00     0.209 HD
ENDBRANCH  19  20
ENDBRANCH   3  19
BRANCH   5  22
HETATM   22  O5  UNL     1     -12.246 -13.230 -29.063  1.00  0.00    -0.390 OA
ATOM     23  H5  UNL     1     -11.704 -13.661 -28.413  1.00  0.00     0.210 HD
ENDBRANCH   5  22
BRANCH   4  24
HETATM   24  O4  UNL     1     -11.559 -15.612 -31.659  1.00  0.00    -0.390 OA
ATOM     25  H4  UNL     1     -10.796 -15.121 -31.942  1.00  0.00     0.210 HD
ENDBRANCH   4  24
TORSDOF 8
ENDMDL
