MODEL 2
REMARK VINA RESULT: -6.022053568      2.254      5.772
REMARK  8 active torsions:
REMARK  status: ('A' for Active; 'I' for Inactive)
REMARK    1  A    between atoms: O1_1  and  C1_3 
REMARK    2  A    between atoms: C1_3  and  C2_4 
REMARK    3  A    between atoms: N1_6  and  C4_7 
REMARK    4  A    between atoms: C5_9  and  C6_10 
REMARK    5  A    between atoms: C6_10  and  O3_11 
REMARK    6  A    between atoms: C7_13  and  O4_14 
REMARK    7  A    between atoms: C8_16  and  O5_17 
REMARK    8  A    between atoms: C9_19  and  O6_20 
ROOT
HETATM    1  C4  UNL     1     -12.977 -16.195 -31.799  1.00  0.00     0.276 C 
HETATM    2  O2  UNL     1     -11.974 -15.302 -31.731  1.00  0.00    -0.352 OA
HETATM    3  C5  UNL     1     -11.743 -14.606 -30.617  1.00  0.00     0.179 C 
HETATM    4  C7  UNL     1     -12.392 -15.054 -29.358  1.00  0.00     0.180 C 
HETATM    5  C8  UNL     1     -12.531 -16.539 -29.354  1.00  0.00     0.182 C 
HETATM    6  C9  UNL     1     -13.328 -16.930 -30.557  1.00  0.00     0.200 C 
ENDROOT
BRANCH   1   7
HETATM    7  N1  UNL     1     -14.197 -15.600 -32.365  1.00  0.00    -0.255 N 
HETATM    8  C3  UNL     1     -14.709 -15.840 -33.591  1.00  0.00     0.143 A 
HETATM    9  C2  UNL     1     -15.868 -15.094 -33.767  1.00  0.00     0.067 A 
HETATM   10  N3  UNL     1     -16.011 -14.419 -32.609  1.00  0.00    -0.287 N 
HETATM   11  N2  UNL     1     -15.015 -14.733 -31.803  1.00  0.00    -0.238 N 
ATOM     12  H3  UNL     1     -16.766 -13.769 -32.391  1.00  0.00     0.188 HD
ATOM     13  H2  UNL     1     -14.894 -14.354 -30.864  1.00  0.00     0.208 HD
BRANCH   9  14
HETATM   14  C1  UNL     1     -16.739 -15.065 -34.975  1.00  0.00     0.224 C 
BRANCH  14  15
HETATM   15  O1  UNL     1     -16.993 -16.346 -35.464  1.00  0.00    -0.395 OA
ATOM     16  H1  UNL     1     -17.041 -16.361 -36.412  1.00  0.00     0.209 HD
ENDBRANCH  14  15
ENDBRANCH   9  14
ENDBRANCH   1   7
BRANCH   6  17
HETATM   17  O6  UNL     1     -13.198 -18.331 -30.694  1.00  0.00    -0.388 OA
ATOM     18  H6  UNL     1     -12.336 -18.647 -30.448  1.00  0.00     0.210 HD
ENDBRANCH   6  17
BRANCH   3  19
HETATM   19  C6  UNL     1     -10.231 -14.561 -30.364  1.00  0.00     0.198 C 
BRANCH  19  20
HETATM   20  O3  UNL     1      -9.577 -15.555 -31.112  1.00  0.00    -0.398 OA
ATOM     21  H3  UNL     1      -9.975 -15.643 -31.970  1.00  0.00     0.209 HD
ENDBRANCH  19  20
ENDBRANCH   3  19
BRANCH   5  22
HETATM   22  O5  UNL     1     -11.293 -17.173 -29.354  1.00  0.00    -0.390 OA
ATOM     23  H5  UNL     1     -11.308 -17.976 -28.848  1.00  0.00     0.210 HD
ENDBRANCH   5  22
BRANCH   4  24
HETATM   24  O4  UNL     1     -13.627 -14.448 -29.233  1.00  0.00    -0.390 OA
ATOM     25  H4  UNL     1     -13.597 -13.805 -28.534  1.00  0.00     0.210 HD
ENDBRANCH   4  24
TORSDOF 8
ENDMDL
