MODEL 1
REMARK VINA RESULT: -6.260680597      0.000      0.000
REMARK  8 active torsions:
REMARK  status: ('A' for Active; 'I' for Inactive)
REMARK    1  A    between atoms: O1_1  and  C1_3 
REMARK    2  A    between atoms: C1_3  and  C2_4 
REMARK    3  A    between atoms: N1_6  and  C4_7 
REMARK    4  A    between atoms: C5_9  and  C6_10 
REMARK    5  A    between atoms: C6_10  and  O3_11 
REMARK    6  A    between atoms: C7_13  and  O4_14 
REMARK    7  A    between atoms: C8_16  and  O5_17 
REMARK    8  A    between atoms: C9_19  and  O6_20 
ROOT
HETATM    1  C4  UNL     1     -13.440 -14.648 -32.919  1.00  0.00     0.276 C 
HETATM    2  O2  UNL     1     -14.105 -15.393 -33.820  1.00  0.00    -0.352 OA
HETATM    3  C5  UNL     1     -15.427 -15.557 -33.741  1.00  0.00     0.179 C 
HETATM    4  C7  UNL     1     -16.197 -14.654 -32.845  1.00  0.00     0.180 C 
HETATM    5  C8  UNL     1     -15.559 -13.307 -32.804  1.00  0.00     0.182 C 
HETATM    6  C9  UNL     1     -14.149 -13.480 -32.337  1.00  0.00     0.200 C 
ENDROOT
BRANCH   1   7
HETATM    7  N1  UNL     1     -12.896 -15.472 -31.829  1.00  0.00    -0.255 N 
HETATM    8  C3  UNL     1     -11.764 -15.230 -31.134  1.00  0.00     0.143 A 
HETATM    9  C2  UNL     1     -11.578 -16.228 -30.186  1.00  0.00     0.067 A 
HETATM   10  N3  UNL     1     -12.633 -17.050 -30.352  1.00  0.00    -0.287 N 
HETATM   11  N2  UNL     1     -13.391 -16.583 -31.325  1.00  0.00    -0.238 N 
ATOM     12  H3  UNL     1     -12.815 -17.897 -29.813  1.00  0.00     0.188 HD
ATOM     13  H2  UNL     1     -14.252 -17.027 -31.646  1.00  0.00     0.208 HD
BRANCH   9  14
HETATM   14  C1  UNL     1     -10.454 -16.340 -29.214  1.00  0.00     0.224 C 
BRANCH  14  15
HETATM   15  O1  UNL     1      -9.810 -17.573 -29.303  1.00  0.00    -0.395 OA
ATOM     16  H1  UNL     1      -8.990 -17.581 -28.823  1.00  0.00     0.209 HD
ENDBRANCH  14  15
ENDBRANCH   9  14
ENDBRANCH   1   7
BRANCH   6  17
HETATM   17  O6  UNL     1     -13.485 -12.257 -32.584  1.00  0.00    -0.388 OA
ATOM     18  H6  UNL     1     -14.045 -11.611 -32.999  1.00  0.00     0.210 HD
ENDBRANCH   6  17
BRANCH   3  19
HETATM   19  C6  UNL     1     -16.028 -15.433 -35.146  1.00  0.00     0.198 C 
BRANCH  19  20
HETATM   20  O3  UNL     1     -16.837 -16.545 -35.435  1.00  0.00    -0.398 OA
ATOM     21  H3  UNL     1     -16.467 -17.050 -36.150  1.00  0.00     0.209 HD
ENDBRANCH  19  20
ENDBRANCH   3  19
BRANCH   5  22
HETATM   22  O5  UNL     1     -15.593 -12.682 -34.047  1.00  0.00    -0.390 OA
ATOM     23  H5  UNL     1     -15.632 -11.737 -33.964  1.00  0.00     0.210 HD
ENDBRANCH   5  22
BRANCH   4  24
HETATM   24  O4  UNL     1     -16.261 -15.203 -31.580  1.00  0.00    -0.390 OA
ATOM     25  H4  UNL     1     -17.159 -15.182 -31.269  1.00  0.00     0.210 HD
ENDBRANCH   4  24
TORSDOF 8
ENDMDL
