MODEL 1
REMARK VINA RESULT: -8.949299457      0.000      0.000
REMARK  11 active torsions:
REMARK  status: ('A' for Active; 'I' for Inactive)
REMARK    1  A    between atoms: C2_4  and  C3_5 
REMARK    2  A    between atoms: C3_5  and  O3_6 
REMARK    3  A    between atoms: C4_8  and  O4_9 
REMARK    4  A    between atoms: O4_9  and  C5_10 
REMARK    5  A    between atoms: C6_12  and  C7_13 
REMARK    6  A    between atoms: C7_13  and  O6_14 
REMARK    7  A    between atoms: C8_16  and  O7_17 
REMARK    8  A    between atoms: C9_19  and  O8_20 
REMARK    9  A    between atoms: C10_22  and  O9_23 
REMARK   10  A    between atoms: C11_25  and  O10_26 
REMARK   11  A    between atoms: C12_28  and  O11_29 
ROOT
HETATM    1  C5  UNL     1     123.878 101.049  13.942  1.00  0.00     0.292 C 
HETATM    2  O5  UNL     1     122.660 101.109  13.248  1.00  0.00    -0.348 OA
HETATM    3  C6  UNL     1     122.340 102.471  13.025  1.00  0.00     0.179 C 
HETATM    4  C8  UNL     1     123.138 102.899  11.831  1.00  0.00     0.180 C 
HETATM    5  C9  UNL     1     124.581 102.590  12.062  1.00  0.00     0.183 C 
HETATM    6  C10 UNL     1     124.915 101.929  13.358  1.00  0.00     0.204 C 
ENDROOT
BRANCH   1   7
HETATM    7  O4  UNL     1     124.297  99.741  14.124  1.00  0.00    -0.348 OA
BRANCH   7   8
HETATM    8  C4  UNL     1     123.999  99.240  15.365  1.00  0.00     0.188 C 
HETATM    9  C2  UNL     1     125.125  98.719  16.176  1.00  0.00     0.187 C 
HETATM   10  O2  UNL     1     124.664  98.703  17.541  1.00  0.00    -0.309 OA
HETATM   11  C1  UNL     1     123.315  98.308  17.658  1.00  0.00     0.291 C 
HETATM   12  O1  UNL     1     122.594  98.683  18.616  1.00  0.00    -0.262 OA
HETATM   13  C12 UNL     1     122.820  97.419  16.566  1.00  0.00     0.248 C 
HETATM   14  C11 UNL     1     123.032  98.046  15.188  1.00  0.00     0.188 C 
BRANCH   9  15
HETATM   15  C3  UNL     1     126.431  99.413  16.048  1.00  0.00     0.199 C 
BRANCH  15  16
HETATM   16  O3  UNL     1     127.426  98.433  16.296  1.00  0.00    -0.398 OA
ATOM     17  H3  UNL     1     127.921  98.348  15.489  1.00  0.00     0.209 HD
ENDBRANCH  15  16
ENDBRANCH   9  15
BRANCH  13  18
HETATM   18  O11 UNL     1     121.493  97.082  16.755  1.00  0.00    -0.383 OA
ATOM     19  H11 UNL     1     121.408  96.217  17.138  1.00  0.00     0.210 HD
ENDBRANCH  13  18
BRANCH  14  20
HETATM   20  O10 UNL     1     121.854  98.446  14.612  1.00  0.00    -0.390 OA
ATOM     21  H10 UNL     1     121.132  97.893  14.889  1.00  0.00     0.210 HD
ENDBRANCH  14  20
ENDBRANCH   7   8
ENDBRANCH   1   7
BRANCH   6  22
HETATM   22  O9  UNL     1     126.057 101.134  13.096  1.00  0.00    -0.388 OA
ATOM     23  H9  UNL     1     126.267 101.222  12.173  1.00  0.00     0.210 HD
ENDBRANCH   6  22
BRANCH   3  24
HETATM   24  C7  UNL     1     120.851 102.591  12.795  1.00  0.00     0.198 C 
BRANCH  24  25
HETATM   25  O6  UNL     1     120.212 101.794  13.744  1.00  0.00    -0.398 OA
ATOM     26  H6  UNL     1     119.664 101.175  13.276  1.00  0.00     0.209 HD
ENDBRANCH  24  25
ENDBRANCH   3  24
BRANCH   5  27
HETATM   27  O8  UNL     1     125.134 101.883  10.975  1.00  0.00    -0.390 OA
ATOM     28  H8  UNL     1     125.009 102.353  10.159  1.00  0.00     0.210 HD
ENDBRANCH   5  27
BRANCH   4  29
HETATM   29  O7  UNL     1     122.918 104.232  11.493  1.00  0.00    -0.390 OA
ATOM     30  H7  UNL     1     123.407 104.832  12.045  1.00  0.00     0.210 HD
ENDBRANCH   4  29
TORSDOF 11
ENDMDL
