MODEL 3
REMARK VINA RESULT: -8.641298764      1.034      1.064
REMARK  11 active torsions:
REMARK  status: ('A' for Active; 'I' for Inactive)
REMARK    1  A    between atoms: C2_4  and  C3_5 
REMARK    2  A    between atoms: C3_5  and  O3_6 
REMARK    3  A    between atoms: C4_8  and  O4_9 
REMARK    4  A    between atoms: O4_9  and  C5_10 
REMARK    5  A    between atoms: C6_12  and  C7_13 
REMARK    6  A    between atoms: C7_13  and  O6_14 
REMARK    7  A    between atoms: C8_16  and  O7_17 
REMARK    8  A    between atoms: C9_19  and  O8_20 
REMARK    9  A    between atoms: C10_22  and  O9_23 
REMARK   10  A    between atoms: C11_25  and  O10_26 
REMARK   11  A    between atoms: C12_28  and  O11_29 
ROOT
HETATM    1  C5  UNL     1     123.475 101.530  13.709  1.00  0.00     0.292 C 
HETATM    2  O5  UNL     1     122.181 101.426  13.177  1.00  0.00    -0.348 OA
HETATM    3  C6  UNL     1     121.640 102.730  13.063  1.00  0.00     0.179 C 
HETATM    4  C8  UNL     1     122.203 103.309  11.801  1.00  0.00     0.180 C 
HETATM    5  C9  UNL     1     123.693 103.215  11.834  1.00  0.00     0.183 C 
HETATM    6  C10 UNL     1     124.287 102.573  13.042  1.00  0.00     0.204 C 
ENDROOT
BRANCH   1   7
HETATM    7  O4  UNL     1     124.101 100.295  13.771  1.00  0.00    -0.348 OA
BRANCH   7   8
HETATM    8  C4  UNL     1     123.959  99.673  14.985  1.00  0.00     0.188 C 
HETATM    9  C2  UNL     1     125.197  99.237  15.674  1.00  0.00     0.187 C 
HETATM   10  O2  UNL     1     124.848  99.066  17.061  1.00  0.00    -0.309 OA
HETATM   11  C1  UNL     1     123.567  98.501  17.237  1.00  0.00     0.291 C 
HETATM   12  O1  UNL     1     122.883  98.715  18.268  1.00  0.00    -0.262 OA
HETATM   13  C12 UNL     1     123.097  97.640  16.112  1.00  0.00     0.248 C 
HETATM   14  C11 UNL     1     123.128  98.385  14.778  1.00  0.00     0.188 C 
BRANCH   9  15
HETATM   15  C3  UNL     1     126.400 100.093  15.514  1.00  0.00     0.199 C 
BRANCH  15  16
HETATM   16  O3  UNL     1     126.709 100.087  14.130  1.00  0.00    -0.398 OA
ATOM     17  H3  UNL     1     127.447  99.498  14.026  1.00  0.00     0.209 HD
ENDBRANCH  15  16
ENDBRANCH   9  15
BRANCH  13  18
HETATM   18  O11 UNL     1     121.837  97.129  16.363  1.00  0.00    -0.383 OA
ATOM     19  H11 UNL     1     121.717  96.285  15.945  1.00  0.00     0.210 HD
ENDBRANCH  13  18
BRANCH  14  20
HETATM   20  O10 UNL     1     121.870  98.678  14.317  1.00  0.00    -0.390 OA
ATOM     21  H10 UNL     1     121.725  98.303  13.456  1.00  0.00     0.210 HD
ENDBRANCH  14  20
ENDBRANCH   7   8
ENDBRANCH   1   7
BRANCH   6  22
HETATM   22  O9  UNL     1     125.489 101.967  12.600  1.00  0.00    -0.388 OA
ATOM     23  H9  UNL     1     126.197 102.301  13.139  1.00  0.00     0.210 HD
ENDBRANCH   6  22
BRANCH   3  24
HETATM   24  C7  UNL     1     120.131 102.631  13.028  1.00  0.00     0.198 C 
BRANCH  24  25
HETATM   25  O6  UNL     1     119.619 103.853  13.464  1.00  0.00    -0.398 OA
ATOM     26  H6  UNL     1     118.917 104.098  12.872  1.00  0.00     0.209 HD
ENDBRANCH  24  25
ENDBRANCH   3  24
BRANCH   5  27
HETATM   27  O8  UNL     1     124.195 102.633  10.652  1.00  0.00    -0.390 OA
ATOM     28  H8  UNL     1     124.524 101.756  10.812  1.00  0.00     0.210 HD
ENDBRANCH   5  27
BRANCH   4  29
HETATM   29  O7  UNL     1     121.748 104.604  11.560  1.00  0.00    -0.390 OA
ATOM     30  H7  UNL     1     121.999 104.923  10.701  1.00  0.00     0.210 HD
ENDBRANCH   4  29
TORSDOF 11
ENDMDL
