MODEL 2
REMARK VINA RESULT: -8.829980945      2.016      6.448
REMARK  11 active torsions:
REMARK  status: ('A' for Active; 'I' for Inactive)
REMARK    1  A    between atoms: C2_4  and  C3_5 
REMARK    2  A    between atoms: C3_5  and  O3_6 
REMARK    3  A    between atoms: C4_8  and  O4_9 
REMARK    4  A    between atoms: O4_9  and  C5_10 
REMARK    5  A    between atoms: C6_12  and  C7_13 
REMARK    6  A    between atoms: C7_13  and  O6_14 
REMARK    7  A    between atoms: C8_16  and  O7_17 
REMARK    8  A    between atoms: C9_19  and  O8_20 
REMARK    9  A    between atoms: C10_22  and  O9_23 
REMARK   10  A    between atoms: C11_25  and  O10_26 
REMARK   11  A    between atoms: C12_28  and  O11_29 
ROOT
HETATM    1  C5  UNL     1     123.408 101.960  12.672  1.00  0.00     0.292 C 
HETATM    2  O5  UNL     1     122.949 101.590  13.945  1.00  0.00    -0.348 OA
HETATM    3  C6  UNL     1     123.194 100.206  14.121  1.00  0.00     0.179 C 
HETATM    4  C8  UNL     1     124.635 100.083  14.514  1.00  0.00     0.180 C 
HETATM    5  C9  UNL     1     125.486 100.779  13.503  1.00  0.00     0.183 C 
HETATM    6  C10 UNL     1     124.764 101.443  12.378  1.00  0.00     0.204 C 
ENDROOT
BRANCH   1   7
HETATM    7  O4  UNL     1     123.276 103.324  12.460  1.00  0.00    -0.348 OA
BRANCH   7   8
HETATM    8  C4  UNL     1     122.067 103.676  11.918  1.00  0.00     0.188 C 
HETATM    9  C2  UNL     1     122.087 104.410  10.630  1.00  0.00     0.187 C 
HETATM   10  O2  UNL     1     120.776 104.248  10.054  1.00  0.00    -0.309 OA
HETATM   11  C1  UNL     1     119.745 104.302  11.015  1.00  0.00     0.291 C 
HETATM   12  O1  UNL     1     118.647 103.717  10.844  1.00  0.00    -0.262 OA
HETATM   13  C12 UNL     1     120.062 105.099  12.236  1.00  0.00     0.248 C 
HETATM   14  C11 UNL     1     121.342 104.611  12.914  1.00  0.00     0.188 C 
BRANCH   9  15
HETATM   15  C3  UNL     1     123.157 104.056   9.664  1.00  0.00     0.199 C 
BRANCH  15  16
HETATM   16  O3  UNL     1     124.360 104.589  10.193  1.00  0.00    -0.398 OA
ATOM     17  H3  UNL     1     124.720 103.918  10.761  1.00  0.00     0.209 HD
ENDBRANCH  15  16
ENDBRANCH   9  15
BRANCH  13  18
HETATM   18  O11 UNL     1     119.003 105.100  13.125  1.00  0.00    -0.383 OA
ATOM     19  H11 UNL     1     119.271 104.788  13.981  1.00  0.00     0.210 HD
ENDBRANCH  13  18
BRANCH  14  20
HETATM   20  O10 UNL     1     121.091 103.970  14.100  1.00  0.00    -0.390 OA
ATOM     21  H10 UNL     1     121.878 103.563  14.443  1.00  0.00     0.210 HD
ENDBRANCH  14  20
ENDBRANCH   7   8
ENDBRANCH   1   7
BRANCH   6  22
HETATM   22  O9  UNL     1     125.574 102.543  12.004  1.00  0.00    -0.388 OA
ATOM     23  H9  UNL     1     125.394 102.738  11.091  1.00  0.00     0.210 HD
ENDBRANCH   6  22
BRANCH   3  24
HETATM   24  C7  UNL     1     122.260  99.677  15.187  1.00  0.00     0.198 C 
BRANCH  24  25
HETATM   25  O6  UNL     1     121.887  98.386  14.815  1.00  0.00    -0.398 OA
ATOM     26  H6  UNL     1     121.599  97.933  15.600  1.00  0.00     0.209 HD
ENDBRANCH  24  25
ENDBRANCH   3  24
BRANCH   5  27
HETATM   27  O8  UNL     1     126.391 101.666  14.119  1.00  0.00    -0.390 OA
ATOM     28  H8  UNL     1     127.288 101.468  13.876  1.00  0.00     0.210 HD
ENDBRANCH   5  27
BRANCH   4  29
HETATM   29  O7  UNL     1     125.019  98.760  14.725  1.00  0.00    -0.390 OA
ATOM     30  H7  UNL     1     125.823  98.538  14.270  1.00  0.00     0.210 HD
ENDBRANCH   4  29
TORSDOF 11
ENDMDL
