MODEL 9
REMARK VINA RESULT: -7.733023545      1.192      6.531
REMARK  11 active torsions:
REMARK  status: ('A' for Active; 'I' for Inactive)
REMARK    1  A    between atoms: C2_4  and  C3_5 
REMARK    2  A    between atoms: C3_5  and  O3_6 
REMARK    3  A    between atoms: C4_8  and  O4_9 
REMARK    4  A    between atoms: O4_9  and  C5_10 
REMARK    5  A    between atoms: C6_12  and  C7_13 
REMARK    6  A    between atoms: C7_13  and  O6_14 
REMARK    7  A    between atoms: C8_16  and  O7_17 
REMARK    8  A    between atoms: C9_19  and  O8_20 
REMARK    9  A    between atoms: C10_22  and  O9_23 
REMARK   10  A    between atoms: C11_25  and  O10_26 
REMARK   11  A    between atoms: C12_28  and  O11_29 
ROOT
HETATM    1  C5  UNL     1     123.601 100.173  15.124  1.00  0.00     0.292 C 
HETATM    2  O5  UNL     1     124.851  99.541  15.191  1.00  0.00    -0.348 OA
HETATM    3  C6  UNL     1     125.209  99.404  16.555  1.00  0.00     0.179 C 
HETATM    4  C8  UNL     1     124.478  98.197  17.060  1.00  0.00     0.180 C 
HETATM    5  C9  UNL     1     123.019  98.345  16.773  1.00  0.00     0.183 C 
HETATM    6  C10 UNL     1     122.610  99.587  16.055  1.00  0.00     0.204 C 
ENDROOT
BRANCH   1   7
HETATM    7  O4  UNL     1     123.147 100.267  13.817  1.00  0.00    -0.348 OA
BRANCH   7   8
HETATM    8  C4  UNL     1     123.629 101.363  13.150  1.00  0.00     0.188 C 
HETATM    9  C2  UNL     1     122.635 102.282  12.545  1.00  0.00     0.187 C 
HETATM   10  O2  UNL     1     123.318 103.534  12.338  1.00  0.00    -0.309 OA
HETATM   11  C1  UNL     1     124.651 103.366  11.908  1.00  0.00     0.291 C 
HETATM   12  O1  UNL     1     125.537 104.226  12.140  1.00  0.00    -0.262 OA
HETATM   13  C12 UNL     1     124.920 102.100  11.166  1.00  0.00     0.248 C 
HETATM   14  C11 UNL     1     124.504 100.871  11.974  1.00  0.00     0.188 C 
BRANCH   9  15
HETATM   15  C3  UNL     1     121.355 102.471  13.272  1.00  0.00     0.199 C 
BRANCH  15  16
HETATM   16  O3  UNL     1     120.709 101.208  13.270  1.00  0.00    -0.398 OA
ATOM     17  H3  UNL     1     120.383 101.076  14.153  1.00  0.00     0.209 HD
ENDBRANCH  15  16
ENDBRANCH   9  15
BRANCH  13  18
HETATM   18  O11 UNL     1     126.246 102.013  10.783  1.00  0.00    -0.383 OA
ATOM     19  H11 UNL     1     126.685 101.294  11.221  1.00  0.00     0.210 HD
ENDBRANCH  13  18
BRANCH  14  20
HETATM   20  O10 UNL     1     125.584 100.157  12.428  1.00  0.00    -0.390 OA
ATOM     21  H10 UNL     1     126.110  99.836  11.704  1.00  0.00     0.210 HD
ENDBRANCH  14  20
ENDBRANCH   7   8
ENDBRANCH   1   7
BRANCH   6  22
HETATM   22  O9  UNL     1     121.466  99.231  15.300  1.00  0.00    -0.388 OA
ATOM     23  H9  UNL     1     121.356  98.290  15.367  1.00  0.00     0.210 HD
ENDBRANCH   6  22
BRANCH   3  24
HETATM   24  C7  UNL     1     126.710  99.250  16.653  1.00  0.00     0.198 C 
BRANCH  24  25
HETATM   25  O6  UNL     1     127.031  97.967  16.213  1.00  0.00    -0.398 OA
ATOM     26  H6  UNL     1     127.074  97.991  15.264  1.00  0.00     0.209 HD
ENDBRANCH  24  25
ENDBRANCH   3  24
BRANCH   5  27
HETATM   27  O8  UNL     1     122.505  97.198  16.135  1.00  0.00    -0.390 OA
ATOM     28  H8  UNL     1     121.627  97.351  15.806  1.00  0.00     0.210 HD
ENDBRANCH   5  27
BRANCH   4  29
HETATM   29  O7  UNL     1     124.741  97.940  18.404  1.00  0.00    -0.390 OA
ATOM     30  H7  UNL     1     125.041  97.051  18.552  1.00  0.00     0.210 HD
ENDBRANCH   4  29
TORSDOF 11
ENDMDL
