MODEL 4
REMARK VINA RESULT: -7.791903303      1.502      2.856
REMARK  12 active torsions:
REMARK  status: ('A' for Active; 'I' for Inactive)
REMARK    1  A    between atoms: O1_1  and  C1_3 
REMARK    2  A    between atoms: C1_3  and  C2_4 
REMARK    3  A    between atoms: C3_6  and  O3_7 
REMARK    4  A    between atoms: O3_7  and  C4_8 
REMARK    5  A    between atoms: C5_9  and  C6_10 
REMARK    6  A    between atoms: C6_10  and  O4_11 
REMARK    7  A    between atoms: C7_14  and  O6_15 
REMARK    8  A    between atoms: C8_17  and  O7_18 
REMARK    9  A    between atoms: C9_20  and  O8_21 
REMARK   10  A    between atoms: C10_23  and  O9_24 
REMARK   11  A    between atoms: C11_26  and  O10_27 
REMARK   12  A    between atoms: C12_29  and  O11_30 
ROOT
HETATM    1  O3  UNL     1     -35.587 -54.844  12.640  1.00  0.00    -0.348 OA
ENDROOT
BRANCH   1   2
HETATM    2  C3  UNL     1     -35.536 -56.087  12.043  1.00  0.00     0.292 C 
HETATM    3  O2  UNL     1     -35.851 -57.102  12.943  1.00  0.00    -0.348 OA
HETATM    4  C2  UNL     1     -34.740 -57.731  13.449  1.00  0.00     0.179 C 
HETATM    5  C12 UNL     1     -33.714 -56.686  13.808  1.00  0.00     0.180 C 
HETATM    6  C11 UNL     1     -33.104 -56.221  12.481  1.00  0.00     0.183 C 
HETATM    7  C10 UNL     1     -34.187 -56.308  11.397  1.00  0.00     0.204 C 
BRANCH   4   8
HETATM    8  C1  UNL     1     -35.115 -58.581  14.641  1.00  0.00     0.198 C 
BRANCH   8   9
HETATM    9  O1  UNL     1     -35.569 -57.754  15.686  1.00  0.00    -0.398 OA
ATOM     10  H1  UNL     1     -35.803 -58.288  16.436  1.00  0.00     0.209 HD
ENDBRANCH   8   9
ENDBRANCH   4   8
BRANCH   5  11
HETATM   11  O11 UNL     1     -32.755 -57.139  14.686  1.00  0.00    -0.390 OA
ATOM     12  H11 UNL     1     -32.159 -56.460  14.977  1.00  0.00     0.210 HD
ENDBRANCH   5  11
BRANCH   6  13
HETATM   13  O10 UNL     1     -32.785 -54.871  12.607  1.00  0.00    -0.390 OA
ATOM     14  H10 UNL     1     -32.712 -54.531  11.723  1.00  0.00     0.210 HD
ENDBRANCH   6  13
BRANCH   7  15
HETATM   15  O9  UNL     1     -33.993 -55.298  10.459  1.00  0.00    -0.388 OA
ATOM     16  H9  UNL     1     -34.756 -55.276   9.893  1.00  0.00     0.210 HD
ENDBRANCH   7  15
ENDBRANCH   1   2
BRANCH   1  17
HETATM   17  C4  UNL     1     -36.906 -54.440  12.938  1.00  0.00     0.187 C 
HETATM   18  C5  UNL     1     -37.477 -55.194  14.066  1.00  0.00     0.180 C 
HETATM   19  O5  UNL     1     -38.555 -55.979  13.882  1.00  0.00    -0.349 OA
HETATM   20  C7  UNL     1     -39.119 -56.096  12.658  1.00  0.00     0.288 C 
HETATM   21  C8  UNL     1     -39.144 -54.824  11.850  1.00  0.00     0.204 C 
HETATM   22  C9  UNL     1     -37.733 -54.383  11.680  1.00  0.00     0.183 C 
BRANCH  18  23
HETATM   23  C6  UNL     1     -37.781 -54.264  15.252  1.00  0.00     0.198 C 
BRANCH  23  24
HETATM   24  O4  UNL     1     -38.233 -53.031  14.820  1.00  0.00    -0.398 OA
ATOM     25  H4  UNL     1     -37.547 -52.376  14.872  1.00  0.00     0.209 HD
ENDBRANCH  23  24
ENDBRANCH  18  23
BRANCH  20  26
HETATM   26  O6  UNL     1     -40.447 -56.534  12.760  1.00  0.00    -0.369 OA
ATOM     27  H6  UNL     1     -41.032 -55.805  12.927  1.00  0.00     0.212 HD
ENDBRANCH  20  26
BRANCH  21  28
HETATM   28  O7  UNL     1     -39.993 -53.880  12.366  1.00  0.00    -0.388 OA
ATOM     29  H7  UNL     1     -40.276 -53.244  11.720  1.00  0.00     0.210 HD
ENDBRANCH  21  28
BRANCH  22  30
HETATM   30  O8  UNL     1     -37.743 -53.112  11.102  1.00  0.00    -0.390 OA
ATOM     31  H8  UNL     1     -37.085 -53.014  10.424  1.00  0.00     0.210 HD
ENDBRANCH  22  30
ENDBRANCH   1  17
TORSDOF 12
ENDMDL
