MODEL 2
REMARK VINA RESULT: -7.855554963      2.316      5.185
REMARK  12 active torsions:
REMARK  status: ('A' for Active; 'I' for Inactive)
REMARK    1  A    between atoms: O1_1  and  C1_3 
REMARK    2  A    between atoms: C1_3  and  C2_4 
REMARK    3  A    between atoms: C3_6  and  O3_7 
REMARK    4  A    between atoms: O3_7  and  C4_8 
REMARK    5  A    between atoms: C5_9  and  C6_10 
REMARK    6  A    between atoms: C6_10  and  O4_11 
REMARK    7  A    between atoms: C7_14  and  O6_15 
REMARK    8  A    between atoms: C8_17  and  O7_18 
REMARK    9  A    between atoms: C9_20  and  O8_21 
REMARK   10  A    between atoms: C10_23  and  O9_24 
REMARK   11  A    between atoms: C11_26  and  O10_27 
REMARK   12  A    between atoms: C12_29  and  O11_30 
ROOT
HETATM    1  O3  UNL     1     -35.017 -55.825  14.317  1.00  0.00    -0.348 OA
ENDROOT
BRANCH   1   2
HETATM    2  C3  UNL     1     -36.053 -56.719  14.487  1.00  0.00     0.292 C 
HETATM    3  O2  UNL     1     -37.061 -56.190  15.290  1.00  0.00    -0.348 OA
HETATM    4  C2  UNL     1     -36.991 -56.623  16.591  1.00  0.00     0.179 C 
HETATM    5  C12 UNL     1     -35.552 -56.572  17.041  1.00  0.00     0.180 C 
HETATM    6  C11 UNL     1     -34.862 -57.772  16.384  1.00  0.00     0.183 C 
HETATM    7  C10 UNL     1     -35.535 -58.032  15.030  1.00  0.00     0.204 C 
BRANCH   4   8
HETATM    8  C1  UNL     1     -37.885 -55.783  17.473  1.00  0.00     0.198 C 
BRANCH   8   9
HETATM    9  O1  UNL     1     -39.184 -55.751  16.933  1.00  0.00    -0.398 OA
ATOM     10  H1  UNL     1     -39.411 -54.857  16.702  1.00  0.00     0.209 HD
ENDBRANCH   8   9
ENDBRANCH   4   8
BRANCH   5  11
HETATM   11  O11 UNL     1     -35.407 -56.579  18.410  1.00  0.00    -0.390 OA
ATOM     12  H11 UNL     1     -35.518 -55.723  18.806  1.00  0.00     0.210 HD
ENDBRANCH   5  11
BRANCH   6  13
HETATM   13  O10 UNL     1     -33.547 -57.407  16.103  1.00  0.00    -0.390 OA
ATOM     14  H10 UNL     1     -33.352 -57.757  15.242  1.00  0.00     0.210 HD
ENDBRANCH   6  13
BRANCH   7  15
HETATM   15  O9  UNL     1     -34.596 -58.525  14.128  1.00  0.00    -0.388 OA
ATOM     16  H9  UNL     1     -33.735 -58.260  14.430  1.00  0.00     0.210 HD
ENDBRANCH   7  15
ENDBRANCH   1   2
BRANCH   1  17
HETATM   17  C4  UNL     1     -34.949 -55.318  13.002  1.00  0.00     0.187 C 
HETATM   18  C5  UNL     1     -36.212 -55.501  12.269  1.00  0.00     0.180 C 
HETATM   19  O5  UNL     1     -36.253 -56.278  11.170  1.00  0.00    -0.349 OA
HETATM   20  C7  UNL     1     -35.140 -56.909  10.733  1.00  0.00     0.288 C 
HETATM   21  C8  UNL     1     -33.867 -56.115  10.872  1.00  0.00     0.204 C 
HETATM   22  C9  UNL     1     -33.697 -55.806  12.318  1.00  0.00     0.183 C 
BRANCH  18  23
HETATM   23  C6  UNL     1     -36.835 -54.145  11.899  1.00  0.00     0.198 C 
BRANCH  23  24
HETATM   24  O4  UNL     1     -35.887 -53.281  11.385  1.00  0.00    -0.398 OA
ATOM     25  H4  UNL     1     -36.282 -52.467  11.097  1.00  0.00     0.209 HD
ENDBRANCH  23  24
ENDBRANCH  18  23
BRANCH  20  26
HETATM   26  O6  UNL     1     -35.257 -57.246   9.376  1.00  0.00    -0.369 OA
ATOM     27  H6  UNL     1     -34.454 -57.638   9.055  1.00  0.00     0.212 HD
ENDBRANCH  20  26
BRANCH  21  28
HETATM   28  O7  UNL     1     -33.818 -55.032  10.034  1.00  0.00    -0.388 OA
ATOM     29  H7  UNL     1     -33.223 -55.155   9.304  1.00  0.00     0.210 HD
ENDBRANCH  21  28
BRANCH  22  30
HETATM   30  O8  UNL     1     -32.632 -54.912  12.448  1.00  0.00    -0.390 OA
ATOM     31  H8  UNL     1     -32.426 -54.720  13.355  1.00  0.00     0.210 HD
ENDBRANCH  22  30
ENDBRANCH   1  17
TORSDOF 12
ENDMDL
