MODEL 1
REMARK VINA RESULT: -8.670553848      0.000      0.000
REMARK  12 active torsions:
REMARK  status: ('A' for Active; 'I' for Inactive)
REMARK    1  A    between atoms: O1_1  and  C1_3 
REMARK    2  A    between atoms: C1_3  and  C2_4 
REMARK    3  A    between atoms: C3_6  and  O3_7 
REMARK    4  A    between atoms: O3_7  and  C4_8 
REMARK    5  A    between atoms: C5_9  and  C6_10 
REMARK    6  A    between atoms: C6_10  and  O4_11 
REMARK    7  A    between atoms: C7_14  and  O6_15 
REMARK    8  A    between atoms: C8_17  and  O7_18 
REMARK    9  A    between atoms: C9_20  and  O8_21 
REMARK   10  A    between atoms: C10_23  and  O9_24 
REMARK   11  A    between atoms: C11_26  and  O10_27 
REMARK   12  A    between atoms: C12_29  and  O11_30 
ROOT
HETATM    1  O3  UNL     1     -36.400 -56.069  11.524  1.00  0.00    -0.348 OA
ENDROOT
BRANCH   1   2
HETATM    2  C3  UNL     1     -35.632 -57.214  11.577  1.00  0.00     0.292 C 
HETATM    3  O2  UNL     1     -35.103 -57.418  12.850  1.00  0.00    -0.348 OA
HETATM    4  C2  UNL     1     -33.798 -57.006  12.958  1.00  0.00     0.179 C 
HETATM    5  C12 UNL     1     -33.656 -55.667  12.280  1.00  0.00     0.180 C 
HETATM    6  C11 UNL     1     -33.659 -55.955  10.775  1.00  0.00     0.183 C 
HETATM    7  C10 UNL     1     -34.551 -57.176  10.520  1.00  0.00     0.204 C 
BRANCH   4   8
HETATM    8  C1  UNL     1     -33.385 -56.946  14.411  1.00  0.00     0.198 C 
BRANCH   8   9
HETATM    9  O1  UNL     1     -34.532 -56.936  15.227  1.00  0.00    -0.398 OA
ATOM     10  H1  UNL     1     -34.298 -56.645  16.101  1.00  0.00     0.209 HD
ENDBRANCH   8   9
ENDBRANCH   4   8
BRANCH   5  11
HETATM   11  O11 UNL     1     -32.532 -54.973  12.670  1.00  0.00    -0.390 OA
ATOM     12  H11 UNL     1     -32.123 -54.489  11.963  1.00  0.00     0.210 HD
ENDBRANCH   5  11
BRANCH   6  13
HETATM   13  O10 UNL     1     -34.275 -54.880  10.136  1.00  0.00    -0.390 OA
ATOM     14  H10 UNL     1     -33.791 -54.735   9.332  1.00  0.00     0.210 HD
ENDBRANCH   6  13
BRANCH   7  15
HETATM   15  O9  UNL     1     -35.173 -57.052   9.280  1.00  0.00    -0.388 OA
ATOM     16  H9  UNL     1     -34.843 -57.744   8.719  1.00  0.00     0.210 HD
ENDBRANCH   7  15
ENDBRANCH   1   2
BRANCH   1  17
HETATM   17  C4  UNL     1     -37.669 -56.240  12.116  1.00  0.00     0.187 C 
HETATM   18  C5  UNL     1     -38.748 -55.673  11.292  1.00  0.00     0.180 C 
HETATM   19  O5  UNL     1     -39.495 -54.653  11.759  1.00  0.00    -0.349 OA
HETATM   20  C7  UNL     1     -39.255 -54.130  12.982  1.00  0.00     0.288 C 
HETATM   21  C8  UNL     1     -38.869 -55.136  14.036  1.00  0.00     0.204 C 
HETATM   22  C9  UNL     1     -37.633 -55.816  13.562  1.00  0.00     0.183 C 
BRANCH  18  23
HETATM   23  C6  UNL     1     -39.714 -56.771  10.817  1.00  0.00     0.198 C 
BRANCH  23  24
HETATM   24  O4  UNL     1     -40.966 -56.616  11.382  1.00  0.00    -0.398 OA
ATOM     25  H4  UNL     1     -41.567 -57.286  11.078  1.00  0.00     0.209 HD
ENDBRANCH  23  24
ENDBRANCH  18  23
BRANCH  20  26
HETATM   26  O6  UNL     1     -40.384 -53.454  13.466  1.00  0.00    -0.369 OA
ATOM     27  H6  UNL     1     -40.196 -53.034  14.297  1.00  0.00     0.212 HD
ENDBRANCH  20  26
BRANCH  21  28
HETATM   28  O7  UNL     1     -39.899 -55.971  14.380  1.00  0.00    -0.388 OA
ATOM     29  H7  UNL     1     -39.812 -56.840  14.007  1.00  0.00     0.210 HD
ENDBRANCH  21  28
BRANCH  22  30
HETATM   30  O8  UNL     1     -37.365 -56.880  14.426  1.00  0.00    -0.390 OA
ATOM     31  H8  UNL     1     -37.760 -56.763  15.282  1.00  0.00     0.210 HD
ENDBRANCH  22  30
ENDBRANCH   1  17
TORSDOF 12
ENDMDL
