MODEL 9
REMARK VINA RESULT: -9.963868228      4.743      6.342
REMARK  11 active torsions:
REMARK  status: ('A' for Active; 'I' for Inactive)
REMARK    1  A    between atoms: C4_4  and  O1_5 
REMARK    2  A    between atoms: O1_5  and  C5_6 
REMARK    3  A    between atoms: C5_6  and  C6_7 
REMARK    4  A    between atoms: C6_7  and  C7_8 
REMARK    5  A    between atoms: C7_8  and  S1_9 
REMARK    6  A    between atoms: C12_16  and  C13_17 
REMARK    7  A    between atoms: C17_21  and  C18_22 
REMARK    8  A    between atoms: C18_22  and  O4_23 
REMARK    9  A    between atoms: O4_23  and  C19_24 
REMARK   10  A    between atoms: C26_32  and  C27_33 
REMARK   11  A    between atoms: C27_33  and  C28_34 
ROOT
HETATM    1  C13 UNL     1     -51.137  -2.258  57.355  1.00  0.00    -0.024 A 
HETATM    2  C14 UNL     1     -51.502  -1.078  57.994  1.00  0.00     0.012 A 
HETATM    3  C15 UNL     1     -50.572  -0.276  58.628  1.00  0.00     0.002 A 
HETATM    4  C16 UNL     1     -49.238  -0.659  58.628  1.00  0.00     0.009 A 
HETATM    5  C17 UNL     1     -48.826  -1.829  58.003  1.00  0.00    -0.033 A 
HETATM    6  C29 UNL     1     -49.793  -2.587  57.388  1.00  0.00     0.021 A 
ENDROOT
BRANCH   1   7
HETATM    7  C12 UNL     1     -52.124  -3.106  56.685  1.00  0.00    -0.014 A 
HETATM    8  C2  UNL     1     -53.013  -3.798  57.498  1.00  0.00    -0.048 A 
HETATM    9  C1  UNL     1     -52.974  -3.695  58.961  1.00  0.00     0.049 C 
HETATM   10  C3  UNL     1     -53.952  -4.606  56.851  1.00  0.00     0.044 A 
HETATM   11  C4  UNL     1     -54.039  -4.745  55.503  1.00  0.00     0.069 A 
HETATM   12  C9  UNL     1     -53.104  -4.012  54.744  1.00  0.00     0.044 A 
HETATM   13  C10 UNL     1     -52.170  -3.212  55.320  1.00  0.00    -0.048 A 
HETATM   14  C11 UNL     1     -51.177  -2.432  54.515  1.00  0.00     0.049 C 
BRANCH  11  15
HETATM   15  O1  UNL     1     -54.935  -5.522  54.842  1.00  0.00    -0.351 OA
BRANCH  15  16
HETATM   16  C5  UNL     1     -56.210  -5.885  55.140  1.00  0.00     0.176 C 
BRANCH  16  17
HETATM   17  C6  UNL     1     -56.452  -7.305  55.558  1.00  0.00     0.041 C 
BRANCH  17  18
HETATM   18  C7  UNL     1     -56.008  -7.582  56.965  1.00  0.00     0.142 C 
BRANCH  18  19
HETATM   19  S1  UNL     1     -54.635  -8.665  57.099  1.00  0.00     0.140 S 
HETATM   20  C8  UNL     1     -55.088 -10.307  56.537  1.00  0.00     0.161 C 
HETATM   21  O2  UNL     1     -54.236  -8.843  58.553  1.00  0.00    -0.228 OA
HETATM   22  O3  UNL     1     -53.467  -8.223  56.273  1.00  0.00    -0.228 OA
ENDBRANCH  18  19
ENDBRANCH  17  18
ENDBRANCH  16  17
ENDBRANCH  15  16
ENDBRANCH  11  15
ENDBRANCH   1   7
BRANCH   5  23
HETATM   23  C18 UNL     1     -47.386  -2.227  58.013  1.00  0.00     0.214 C 
BRANCH  23  24
HETATM   24  O4  UNL     1     -46.808  -1.968  59.271  1.00  0.00    -0.347 OA
BRANCH  24  25
HETATM   25  C19 UNL     1     -45.626  -2.568  59.680  1.00  0.00     0.071 A 
HETATM   26  C20 UNL     1     -44.527  -1.790  60.054  1.00  0.00     0.037 A 
HETATM   27  C21 UNL     1     -43.344  -2.360  60.463  1.00  0.00     0.013 A 
HETATM   28  C22 UNL     1     -43.191  -3.722  60.521  1.00  0.00    -0.018 A 
HETATM   29  C23 UNL     1     -44.251  -4.520  60.160  1.00  0.00     0.078 A 
HETATM   30  C26 UNL     1     -42.076  -4.617  60.910  1.00  0.00     0.056 C 
HETATM   31  C24 UNL     1     -45.449  -3.932  59.747  1.00  0.00     0.074 A 
HETATM   32  O5  UNL     1     -43.875  -5.871  60.296  1.00  0.00    -0.350 OA
HETATM   33  C25 UNL     1     -42.827  -5.885  61.263  1.00  0.00     0.185 C 
BRANCH  30  34
HETATM   34  C27 UNL     1     -41.066  -4.831  59.807  1.00  0.00     0.124 C 
BRANCH  34  35
HETATM   35  C28 UNL     1     -40.172  -3.647  59.780  1.00  0.00     0.173 C 
HETATM   36  O6  UNL     1     -39.840  -3.128  58.704  1.00  0.00    -0.648 OA
HETATM   37  O7  UNL     1     -39.693  -3.103  60.965  1.00  0.00    -0.648 OA
ENDBRANCH  34  35
ENDBRANCH  30  34
ENDBRANCH  24  25
ENDBRANCH  23  24
ENDBRANCH   5  23
TORSDOF 11
ENDMDL
