MODEL 2
REMARK VINA RESULT: -10.190241242      0.263      1.417
REMARK  11 active torsions:
REMARK  status: ('A' for Active; 'I' for Inactive)
REMARK    1  A    between atoms: C4_4  and  O1_5 
REMARK    2  A    between atoms: O1_5  and  C5_6 
REMARK    3  A    between atoms: C5_6  and  C6_7 
REMARK    4  A    between atoms: C6_7  and  C7_8 
REMARK    5  A    between atoms: C7_8  and  S1_9 
REMARK    6  A    between atoms: C12_16  and  C13_17 
REMARK    7  A    between atoms: C17_21  and  C18_22 
REMARK    8  A    between atoms: C18_22  and  O4_23 
REMARK    9  A    between atoms: O4_23  and  C19_24 
REMARK   10  A    between atoms: C26_32  and  C27_33 
REMARK   11  A    between atoms: C27_33  and  C28_34 
ROOT
HETATM    1  C13 UNL     1     -51.121  -1.743  57.264  1.00  0.00    -0.024 A 
HETATM    2  C14 UNL     1     -51.278  -2.326  56.011  1.00  0.00     0.012 A 
HETATM    3  C15 UNL     1     -50.194  -2.761  55.270  1.00  0.00     0.002 A 
HETATM    4  C16 UNL     1     -48.917  -2.611  55.790  1.00  0.00     0.009 A 
HETATM    5  C17 UNL     1     -48.710  -2.034  57.037  1.00  0.00    -0.033 A 
HETATM    6  C29 UNL     1     -49.823  -1.620  57.729  1.00  0.00     0.021 A 
ENDROOT
BRANCH   1   7
HETATM    7  C12 UNL     1     -52.268  -1.283  58.047  1.00  0.00    -0.014 A 
HETATM    8  C2  UNL     1     -52.856  -2.206  58.903  1.00  0.00    -0.048 A 
HETATM    9  C1  UNL     1     -52.361  -3.582  59.025  1.00  0.00     0.049 C 
HETATM   10  C3  UNL     1     -53.951  -1.759  59.647  1.00  0.00     0.044 A 
HETATM   11  C4  UNL     1     -54.458  -0.501  59.579  1.00  0.00     0.069 A 
HETATM   12  C9  UNL     1     -53.810   0.380  58.688  1.00  0.00     0.044 A 
HETATM   13  C10 UNL     1     -52.742  -0.002  57.941  1.00  0.00    -0.048 A 
HETATM   14  C11 UNL     1     -52.052   0.933  56.995  1.00  0.00     0.049 C 
BRANCH  11  15
HETATM   15  O1  UNL     1     -55.521  -0.034  60.283  1.00  0.00    -0.351 OA
BRANCH  15  16
HETATM   16  C5  UNL     1     -56.306   1.062  60.114  1.00  0.00     0.176 C 
BRANCH  16  17
HETATM   17  C6  UNL     1     -55.992   2.279  60.933  1.00  0.00     0.041 C 
BRANCH  17  18
HETATM   18  C7  UNL     1     -55.971   1.997  62.408  1.00  0.00     0.142 C 
BRANCH  18  19
HETATM   19  S1  UNL     1     -56.353   3.378  63.421  1.00  0.00     0.140 S 
HETATM   20  C8  UNL     1     -55.289   3.397  64.864  1.00  0.00     0.161 C 
HETATM   21  O2  UNL     1     -57.763   3.259  63.972  1.00  0.00    -0.228 OA
HETATM   22  O3  UNL     1     -56.162   4.684  62.714  1.00  0.00    -0.228 OA
ENDBRANCH  18  19
ENDBRANCH  17  18
ENDBRANCH  16  17
ENDBRANCH  15  16
ENDBRANCH  11  15
ENDBRANCH   1   7
BRANCH   5  23
HETATM   23  C18 UNL     1     -47.328  -1.879  57.581  1.00  0.00     0.214 C 
BRANCH  23  24
HETATM   24  O4  UNL     1     -47.229  -2.464  58.860  1.00  0.00    -0.347 OA
BRANCH  24  25
HETATM   25  C19 UNL     1     -46.007  -2.769  59.440  1.00  0.00     0.071 A 
HETATM   26  C20 UNL     1     -45.260  -1.778  60.084  1.00  0.00     0.037 A 
HETATM   27  C21 UNL     1     -44.046  -2.054  60.669  1.00  0.00     0.013 A 
HETATM   28  C22 UNL     1     -43.512  -3.317  60.643  1.00  0.00    -0.018 A 
HETATM   29  C23 UNL     1     -44.219  -4.317  60.018  1.00  0.00     0.078 A 
HETATM   30  C26 UNL     1     -42.264  -3.918  61.168  1.00  0.00     0.056 C 
HETATM   31  C24 UNL     1     -45.452  -4.028  59.428  1.00  0.00     0.074 A 
HETATM   32  O5  UNL     1     -43.490  -5.520  60.112  1.00  0.00    -0.350 OA
HETATM   33  C25 UNL     1     -42.657  -5.378  61.261  1.00  0.00     0.185 C 
BRANCH  30  34
HETATM   34  C27 UNL     1     -41.069  -3.698  60.269  1.00  0.00     0.124 C 
BRANCH  34  35
HETATM   35  C28 UNL     1     -40.128  -2.799  60.984  1.00  0.00     0.173 C 
HETATM   36  O6  UNL     1     -38.902  -2.927  60.849  1.00  0.00    -0.648 OA
HETATM   37  O7  UNL     1     -40.612  -1.800  61.819  1.00  0.00    -0.648 OA
ENDBRANCH  34  35
ENDBRANCH  30  34
ENDBRANCH  24  25
ENDBRANCH  23  24
ENDBRANCH   5  23
TORSDOF 11
ENDMDL
