MODEL 5
REMARK VINA RESULT: -10.126018186      4.773      6.535
REMARK  11 active torsions:
REMARK  status: ('A' for Active; 'I' for Inactive)
REMARK    1  A    between atoms: C4_4  and  O1_5 
REMARK    2  A    between atoms: O1_5  and  C5_6 
REMARK    3  A    between atoms: C5_6  and  C6_7 
REMARK    4  A    between atoms: C6_7  and  C7_8 
REMARK    5  A    between atoms: C7_8  and  S1_9 
REMARK    6  A    between atoms: C12_16  and  C13_17 
REMARK    7  A    between atoms: C17_21  and  C18_22 
REMARK    8  A    between atoms: C18_22  and  O4_23 
REMARK    9  A    between atoms: O4_23  and  C19_24 
REMARK   10  A    between atoms: C26_32  and  C27_33 
REMARK   11  A    between atoms: C27_33  and  C28_34 
ROOT
HETATM    1  C13 UNL     1     -51.280  -2.177  57.402  1.00  0.00    -0.024 A 
HETATM    2  C14 UNL     1     -51.550  -0.969  58.035  1.00  0.00     0.012 A 
HETATM    3  C15 UNL     1     -50.558  -0.236  58.660  1.00  0.00     0.002 A 
HETATM    4  C16 UNL     1     -49.257  -0.720  58.656  1.00  0.00     0.009 A 
HETATM    5  C17 UNL     1     -48.938  -1.922  58.036  1.00  0.00    -0.033 A 
HETATM    6  C29 UNL     1     -49.965  -2.608  57.431  1.00  0.00     0.021 A 
ENDROOT
BRANCH   1   7
HETATM    7  C12 UNL     1     -52.331  -2.951  56.742  1.00  0.00    -0.014 A 
HETATM    8  C2  UNL     1     -52.459  -2.793  55.367  1.00  0.00    -0.048 A 
HETATM    9  C1  UNL     1     -51.589  -1.894  54.601  1.00  0.00     0.049 C 
HETATM   10  C3  UNL     1     -53.465  -3.536  54.744  1.00  0.00     0.044 A 
HETATM   11  C4  UNL     1     -54.304  -4.383  55.395  1.00  0.00     0.069 A 
HETATM   12  C9  UNL     1     -54.114  -4.491  56.789  1.00  0.00     0.044 A 
HETATM   13  C10 UNL     1     -53.151  -3.793  57.445  1.00  0.00    -0.048 A 
HETATM   14  C11 UNL     1     -52.949  -3.907  58.925  1.00  0.00     0.049 C 
BRANCH  11  15
HETATM   15  O1  UNL     1     -55.293  -5.116  54.823  1.00  0.00    -0.351 OA
BRANCH  15  16
HETATM   16  C5  UNL     1     -55.435  -5.618  53.569  1.00  0.00     0.176 C 
BRANCH  16  17
HETATM   17  C6  UNL     1     -55.197  -7.085  53.372  1.00  0.00     0.041 C 
BRANCH  17  18
HETATM   18  C7  UNL     1     -55.202  -7.854  54.663  1.00  0.00     0.142 C 
BRANCH  18  19
HETATM   19  S1  UNL     1     -53.612  -8.301  55.254  1.00  0.00     0.140 S 
HETATM   20  C8  UNL     1     -53.152  -9.917  54.625  1.00  0.00     0.161 C 
HETATM   21  O2  UNL     1     -53.631  -8.456  56.765  1.00  0.00    -0.228 OA
HETATM   22  O3  UNL     1     -52.545  -7.341  54.827  1.00  0.00    -0.228 OA
ENDBRANCH  18  19
ENDBRANCH  17  18
ENDBRANCH  16  17
ENDBRANCH  15  16
ENDBRANCH  11  15
ENDBRANCH   1   7
BRANCH   5  23
HETATM   23  C18 UNL     1     -47.534  -2.429  58.042  1.00  0.00     0.214 C 
BRANCH  23  24
HETATM   24  O4  UNL     1     -46.858  -2.005  59.204  1.00  0.00    -0.347 OA
BRANCH  24  25
HETATM   25  C19 UNL     1     -45.672  -2.590  59.623  1.00  0.00     0.071 A 
HETATM   26  C20 UNL     1     -44.581  -1.797  59.992  1.00  0.00     0.037 A 
HETATM   27  C21 UNL     1     -43.395  -2.352  60.413  1.00  0.00     0.013 A 
HETATM   28  C22 UNL     1     -43.230  -3.711  60.488  1.00  0.00    -0.018 A 
HETATM   29  C23 UNL     1     -44.282  -4.523  60.133  1.00  0.00     0.078 A 
HETATM   30  C26 UNL     1     -42.108  -4.591  60.892  1.00  0.00     0.056 C 
HETATM   31  C24 UNL     1     -45.483  -3.950  59.708  1.00  0.00     0.074 A 
HETATM   32  O5  UNL     1     -43.893  -5.869  60.287  1.00  0.00    -0.350 OA
HETATM   33  C25 UNL     1     -42.849  -5.861  61.258  1.00  0.00     0.185 C 
BRANCH  30  34
HETATM   34  C27 UNL     1     -41.092  -4.810  59.795  1.00  0.00     0.124 C 
BRANCH  34  35
HETATM   35  C28 UNL     1     -40.182  -3.638  59.786  1.00  0.00     0.173 C 
HETATM   36  O6  UNL     1     -39.826  -3.120  58.717  1.00  0.00    -0.648 OA
HETATM   37  O7  UNL     1     -39.714  -3.105  60.980  1.00  0.00    -0.648 OA
ENDBRANCH  34  35
ENDBRANCH  30  34
ENDBRANCH  24  25
ENDBRANCH  23  24
ENDBRANCH   5  23
TORSDOF 11
ENDMDL
