MODEL 1
REMARK VINA RESULT: -10.201037189      0.000      0.000
REMARK  11 active torsions:
REMARK  status: ('A' for Active; 'I' for Inactive)
REMARK    1  A    between atoms: C4_4  and  O1_5 
REMARK    2  A    between atoms: O1_5  and  C5_6 
REMARK    3  A    between atoms: C5_6  and  C6_7 
REMARK    4  A    between atoms: C6_7  and  C7_8 
REMARK    5  A    between atoms: C7_8  and  S1_9 
REMARK    6  A    between atoms: C12_16  and  C13_17 
REMARK    7  A    between atoms: C17_21  and  C18_22 
REMARK    8  A    between atoms: C18_22  and  O4_23 
REMARK    9  A    between atoms: O4_23  and  C19_24 
REMARK   10  A    between atoms: C26_32  and  C27_33 
REMARK   11  A    between atoms: C27_33  and  C28_34 
ROOT
HETATM    1  C13 UNL     1     -51.279  -1.736  57.333  1.00  0.00    -0.024 A 
HETATM    2  C14 UNL     1     -51.436  -2.294  56.069  1.00  0.00     0.012 A 
HETATM    3  C15 UNL     1     -50.353  -2.707  55.315  1.00  0.00     0.002 A 
HETATM    4  C16 UNL     1     -49.074  -2.560  55.835  1.00  0.00     0.009 A 
HETATM    5  C17 UNL     1     -48.867  -2.009  57.094  1.00  0.00    -0.033 A 
HETATM    6  C29 UNL     1     -49.981  -1.616  57.797  1.00  0.00     0.021 A 
ENDROOT
BRANCH   1   7
HETATM    7  C12 UNL     1     -52.427  -1.299  58.128  1.00  0.00    -0.014 A 
HETATM    8  C2  UNL     1     -52.806   0.032  58.006  1.00  0.00    -0.048 A 
HETATM    9  C1  UNL     1     -52.096   0.967  57.126  1.00  0.00     0.049 C 
HETATM   10  C3  UNL     1     -53.903   0.442  58.768  1.00  0.00     0.044 A 
HETATM   11  C4  UNL     1     -54.601  -0.373  59.602  1.00  0.00     0.069 A 
HETATM   12  C9  UNL     1     -54.158  -1.710  59.673  1.00  0.00     0.044 A 
HETATM   13  C10 UNL     1     -53.098  -2.161  58.954  1.00  0.00    -0.048 A 
HETATM   14  C11 UNL     1     -52.627  -3.582  59.030  1.00  0.00     0.049 C 
BRANCH  11  15
HETATM   15  O1  UNL     1     -55.667  -0.008  60.358  1.00  0.00    -0.351 OA
BRANCH  15  16
HETATM   16  C5  UNL     1     -56.417   1.125  60.376  1.00  0.00     0.176 C 
BRANCH  16  17
HETATM   17  C6  UNL     1     -55.914   2.283  61.184  1.00  0.00     0.041 C 
BRANCH  17  18
HETATM   18  C7  UNL     1     -55.940   2.016  62.662  1.00  0.00     0.142 C 
BRANCH  18  19
HETATM   19  S1  UNL     1     -56.302   3.418  63.652  1.00  0.00     0.140 S 
HETATM   20  C8  UNL     1     -55.202   3.474  65.068  1.00  0.00     0.161 C 
HETATM   21  O2  UNL     1     -57.697   3.308  64.242  1.00  0.00    -0.228 OA
HETATM   22  O3  UNL     1     -56.133   4.709  62.911  1.00  0.00    -0.228 OA
ENDBRANCH  18  19
ENDBRANCH  17  18
ENDBRANCH  16  17
ENDBRANCH  15  16
ENDBRANCH  11  15
ENDBRANCH   1   7
BRANCH   5  23
HETATM   23  C18 UNL     1     -47.485  -1.857  57.637  1.00  0.00     0.214 C 
BRANCH  23  24
HETATM   24  O4  UNL     1     -47.314  -2.650  58.790  1.00  0.00    -0.347 OA
BRANCH  24  25
HETATM   25  C19 UNL     1     -46.076  -2.826  59.389  1.00  0.00     0.071 A 
HETATM   26  C20 UNL     1     -45.409  -1.746  59.973  1.00  0.00     0.037 A 
HETATM   27  C21 UNL     1     -44.181  -1.894  60.574  1.00  0.00     0.013 A 
HETATM   28  C22 UNL     1     -43.555  -3.113  60.625  1.00  0.00    -0.018 A 
HETATM   29  C23 UNL     1     -44.181  -4.199  60.061  1.00  0.00     0.078 A 
HETATM   30  C26 UNL     1     -42.267  -3.586  61.187  1.00  0.00     0.056 C 
HETATM   31  C24 UNL     1     -45.429  -4.039  59.453  1.00  0.00     0.074 A 
HETATM   32  O5  UNL     1     -43.365  -5.336  60.228  1.00  0.00    -0.350 OA
HETATM   33  C25 UNL     1     -42.551  -5.063  61.367  1.00  0.00     0.185 C 
BRANCH  30  34
HETATM   34  C27 UNL     1     -41.087  -3.331  60.278  1.00  0.00     0.124 C 
BRANCH  34  35
HETATM   35  C28 UNL     1     -39.963  -2.858  61.123  1.00  0.00     0.173 C 
HETATM   36  O6  UNL     1     -38.797  -2.884  60.701  1.00  0.00    -0.648 OA
HETATM   37  O7  UNL     1     -40.204  -2.378  62.404  1.00  0.00    -0.648 OA
ENDBRANCH  34  35
ENDBRANCH  30  34
ENDBRANCH  24  25
ENDBRANCH  23  24
ENDBRANCH   5  23
TORSDOF 11
ENDMDL
