MODEL 4
REMARK VINA RESULT: -10.157760195      0.897      1.032
REMARK  11 active torsions:
REMARK  status: ('A' for Active; 'I' for Inactive)
REMARK    1  A    between atoms: C4_4  and  O1_5 
REMARK    2  A    between atoms: O1_5  and  C5_6 
REMARK    3  A    between atoms: C5_6  and  C6_7 
REMARK    4  A    between atoms: C6_7  and  C7_8 
REMARK    5  A    between atoms: C7_8  and  S1_9 
REMARK    6  A    between atoms: C12_16  and  C13_17 
REMARK    7  A    between atoms: C17_21  and  C18_22 
REMARK    8  A    between atoms: C18_22  and  O4_23 
REMARK    9  A    between atoms: O4_23  and  C19_24 
REMARK   10  A    between atoms: C26_32  and  C27_33 
REMARK   11  A    between atoms: C27_33  and  C28_34 
ROOT
HETATM    1  C13 UNL     1     -50.937  -1.734  57.402  1.00  0.00    -0.024 A 
HETATM    2  C14 UNL     1     -51.017  -2.297  56.133  1.00  0.00     0.012 A 
HETATM    3  C15 UNL     1     -49.887  -2.682  55.435  1.00  0.00     0.002 A 
HETATM    4  C16 UNL     1     -48.640  -2.501  56.016  1.00  0.00     0.009 A 
HETATM    5  C17 UNL     1     -48.510  -1.942  57.282  1.00  0.00    -0.033 A 
HETATM    6  C29 UNL     1     -49.667  -1.578  57.929  1.00  0.00     0.021 A 
ENDROOT
BRANCH   1   7
HETATM    7  C12 UNL     1     -52.134  -1.326  58.138  1.00  0.00    -0.014 A 
HETATM    8  C2  UNL     1     -52.557  -0.013  57.971  1.00  0.00    -0.048 A 
HETATM    9  C1  UNL     1     -51.846   0.931  57.102  1.00  0.00     0.049 C 
HETATM   10  C3  UNL     1     -53.701   0.369  58.677  1.00  0.00     0.044 A 
HETATM   11  C4  UNL     1     -54.403  -0.455  59.498  1.00  0.00     0.069 A 
HETATM   12  C9  UNL     1     -53.913  -1.772  59.617  1.00  0.00     0.044 A 
HETATM   13  C10 UNL     1     -52.806  -2.197  58.953  1.00  0.00    -0.048 A 
HETATM   14  C11 UNL     1     -52.285  -3.596  59.079  1.00  0.00     0.049 C 
BRANCH  11  15
HETATM   15  O1  UNL     1     -55.514  -0.118  60.201  1.00  0.00    -0.351 OA
BRANCH  15  16
HETATM   16  C5  UNL     1     -56.223   1.039  60.268  1.00  0.00     0.176 C 
BRANCH  16  17
HETATM   17  C6  UNL     1     -55.758   2.088  61.234  1.00  0.00     0.041 C 
BRANCH  17  18
HETATM   18  C7  UNL     1     -56.246   1.847  62.634  1.00  0.00     0.142 C 
BRANCH  18  19
HETATM   19  S1  UNL     1     -56.229   3.264  63.669  1.00  0.00     0.140 S 
HETATM   20  C8  UNL     1     -57.803   3.430  64.512  1.00  0.00     0.161 C 
HETATM   21  O2  UNL     1     -56.090   4.528  62.838  1.00  0.00    -0.228 OA
HETATM   22  O3  UNL     1     -55.168   3.197  64.724  1.00  0.00    -0.228 OA
ENDBRANCH  18  19
ENDBRANCH  17  18
ENDBRANCH  16  17
ENDBRANCH  15  16
ENDBRANCH  11  15
ENDBRANCH   1   7
BRANCH   5  23
HETATM   23  C18 UNL     1     -47.160  -1.753  57.892  1.00  0.00     0.214 C 
BRANCH  23  24
HETATM   24  O4  UNL     1     -47.030  -2.528  59.061  1.00  0.00    -0.347 OA
BRANCH  24  25
HETATM   25  C19 UNL     1     -45.801  -2.982  59.515  1.00  0.00     0.071 A 
HETATM   26  C20 UNL     1     -44.778  -2.078  59.818  1.00  0.00     0.037 A 
HETATM   27  C21 UNL     1     -43.551  -2.501  60.270  1.00  0.00     0.013 A 
HETATM   28  C22 UNL     1     -43.274  -3.834  60.442  1.00  0.00    -0.018 A 
HETATM   29  C23 UNL     1     -44.256  -4.752  60.153  1.00  0.00     0.078 A 
HETATM   30  C26 UNL     1     -42.084  -4.587  60.901  1.00  0.00     0.056 C 
HETATM   31  C24 UNL     1     -45.501  -4.313  59.696  1.00  0.00     0.074 A 
HETATM   32  O5  UNL     1     -43.758  -6.048  60.401  1.00  0.00    -0.350 OA
HETATM   33  C25 UNL     1     -42.717  -5.884  61.362  1.00  0.00     0.185 C 
BRANCH  30  34
HETATM   34  C27 UNL     1     -41.054  -4.801  59.817  1.00  0.00     0.124 C 
BRANCH  34  35
HETATM   35  C28 UNL     1     -40.173  -3.607  59.792  1.00  0.00     0.173 C 
HETATM   36  O6  UNL     1     -39.795  -3.119  58.717  1.00  0.00    -0.648 OA
HETATM   37  O7  UNL     1     -39.757  -3.019  60.980  1.00  0.00    -0.648 OA
ENDBRANCH  34  35
ENDBRANCH  30  34
ENDBRANCH  24  25
ENDBRANCH  23  24
ENDBRANCH   5  23
TORSDOF 11
ENDMDL
