MODEL 3
REMARK VINA RESULT: -10.173670841      4.861      6.864
REMARK  11 active torsions:
REMARK  status: ('A' for Active; 'I' for Inactive)
REMARK    1  A    between atoms: C4_4  and  O1_5 
REMARK    2  A    between atoms: O1_5  and  C5_6 
REMARK    3  A    between atoms: C5_6  and  C6_7 
REMARK    4  A    between atoms: C6_7  and  C7_8 
REMARK    5  A    between atoms: C7_8  and  S1_9 
REMARK    6  A    between atoms: C12_16  and  C13_17 
REMARK    7  A    between atoms: C17_21  and  C18_22 
REMARK    8  A    between atoms: C18_22  and  O4_23 
REMARK    9  A    between atoms: O4_23  and  C19_24 
REMARK   10  A    between atoms: C26_32  and  C27_33 
REMARK   11  A    between atoms: C27_33  and  C28_34 
ROOT
HETATM    1  C13 UNL     1     -51.137  -2.217  57.340  1.00  0.00    -0.024 A 
HETATM    2  C14 UNL     1     -51.503  -1.043  57.989  1.00  0.00     0.012 A 
HETATM    3  C15 UNL     1     -50.574  -0.250  58.638  1.00  0.00     0.002 A 
HETATM    4  C16 UNL     1     -49.242  -0.636  58.642  1.00  0.00     0.009 A 
HETATM    5  C17 UNL     1     -48.828  -1.802  58.008  1.00  0.00    -0.033 A 
HETATM    6  C29 UNL     1     -49.794  -2.550  57.379  1.00  0.00     0.021 A 
ENDROOT
BRANCH   1   7
HETATM    7  C12 UNL     1     -52.121  -3.056  56.655  1.00  0.00    -0.014 A 
HETATM    8  C2  UNL     1     -52.965  -3.816  57.456  1.00  0.00    -0.048 A 
HETATM    9  C1  UNL     1     -52.883  -3.790  58.920  1.00  0.00     0.049 C 
HETATM   10  C3  UNL     1     -53.903  -4.613  56.794  1.00  0.00     0.044 A 
HETATM   11  C4  UNL     1     -54.028  -4.683  55.443  1.00  0.00     0.069 A 
HETATM   12  C9  UNL     1     -53.137  -3.884  54.697  1.00  0.00     0.044 A 
HETATM   13  C10 UNL     1     -52.207  -3.090  55.289  1.00  0.00    -0.048 A 
HETATM   14  C11 UNL     1     -51.260  -2.241  54.497  1.00  0.00     0.049 C 
BRANCH  11  15
HETATM   15  O1  UNL     1     -54.923  -5.448  54.768  1.00  0.00    -0.351 OA
BRANCH  15  16
HETATM   16  C5  UNL     1     -55.002  -5.803  53.459  1.00  0.00     0.176 C 
BRANCH  16  17
HETATM   17  C6  UNL     1     -54.356  -7.091  53.044  1.00  0.00     0.041 C 
BRANCH  17  18
HETATM   18  C7  UNL     1     -54.766  -8.252  53.905  1.00  0.00     0.142 C 
BRANCH  18  19
HETATM   19  S1  UNL     1     -53.498  -8.874  54.946  1.00  0.00     0.140 S 
HETATM   20  C8  UNL     1     -54.150  -9.200  56.585  1.00  0.00     0.161 C 
HETATM   21  O2  UNL     1     -52.417  -7.827  55.152  1.00  0.00    -0.228 OA
HETATM   22  O3  UNL     1     -52.912 -10.156  54.440  1.00  0.00    -0.228 OA
ENDBRANCH  18  19
ENDBRANCH  17  18
ENDBRANCH  16  17
ENDBRANCH  15  16
ENDBRANCH  11  15
ENDBRANCH   1   7
BRANCH   5  23
HETATM   23  C18 UNL     1     -47.390  -2.203  58.023  1.00  0.00     0.214 C 
BRANCH  23  24
HETATM   24  O4  UNL     1     -46.826  -1.982  59.295  1.00  0.00    -0.347 OA
BRANCH  24  25
HETATM   25  C19 UNL     1     -45.645  -2.589  59.696  1.00  0.00     0.071 A 
HETATM   26  C20 UNL     1     -44.548  -1.818  60.091  1.00  0.00     0.037 A 
HETATM   27  C21 UNL     1     -43.366  -2.395  60.493  1.00  0.00     0.013 A 
HETATM   28  C22 UNL     1     -43.212  -3.757  60.523  1.00  0.00    -0.018 A 
HETATM   29  C23 UNL     1     -44.269  -4.548  60.142  1.00  0.00     0.078 A 
HETATM   30  C26 UNL     1     -42.097  -4.658  60.899  1.00  0.00     0.056 C 
HETATM   31  C24 UNL     1     -45.466  -3.953  59.736  1.00  0.00     0.074 A 
HETATM   32  O5  UNL     1     -43.891  -5.902  60.250  1.00  0.00    -0.350 OA
HETATM   33  C25 UNL     1     -42.847  -5.935  61.221  1.00  0.00     0.185 C 
BRANCH  30  34
HETATM   34  C27 UNL     1     -41.082  -4.848  59.796  1.00  0.00     0.124 C 
BRANCH  34  35
HETATM   35  C28 UNL     1     -40.172  -3.676  59.815  1.00  0.00     0.173 C 
HETATM   36  O6  UNL     1     -39.786  -3.155  58.758  1.00  0.00    -0.648 OA
HETATM   37  O7  UNL     1     -39.739  -3.146  61.023  1.00  0.00    -0.648 OA
ENDBRANCH  34  35
ENDBRANCH  30  34
ENDBRANCH  24  25
ENDBRANCH  23  24
ENDBRANCH   5  23
TORSDOF 11
ENDMDL
