MODEL 3
REMARK VINA RESULT: -4.800906650      6.341      7.643
REMARK  4 active torsions:
REMARK  status: ('A' for Active; 'I' for Inactive)
REMARK    1  A    between atoms: N1_2  and  C3_4 
REMARK    2  A    between atoms: C3_4  and  C4_5 
REMARK    3  A    between atoms: C3_4  and  C8_13 
REMARK    4  A    between atoms: C4_5  and  C5_6 
ROOT
HETATM    1  C4  UNL     1       9.758  18.217  21.092  1.00  0.00     0.105 C 
ENDROOT
BRANCH   1   2
HETATM    2  C3  UNL     1      11.091  17.590  20.776  1.00  0.00     0.327 C 
BRANCH   2   3
HETATM    3  N1  UNL     1      12.171  18.146  21.524  1.00  0.00     0.095 N 
HETATM    4  C1  UNL     1      11.741  19.026  22.582  1.00  0.00     0.310 C 
HETATM    5  C2  UNL     1      13.096  17.166  22.035  1.00  0.00     0.310 C 
ENDBRANCH   2   3
BRANCH   2   6
HETATM    6  C8  UNL     1      11.425  17.595  19.341  1.00  0.00     0.207 C 
HETATM    7  O1  UNL     1      12.073  18.569  18.870  1.00  0.00    -0.646 OA
HETATM    8  O2  UNL     1      11.069  16.583  18.456  1.00  0.00    -0.646 OA
ENDBRANCH   2   6
ENDBRANCH   1   2
BRANCH   1   9
HETATM    9  C5  UNL     1       8.655  17.230  20.998  1.00  0.00     0.028 A 
HETATM   10  C6  UNL     1       7.775  16.902  22.036  1.00  0.00     0.114 A 
HETATM   11  N2  UNL     1       6.906  15.978  21.597  1.00  0.00    -0.360 N 
HETATM   12  C7  UNL     1       7.208  15.712  20.319  1.00  0.00     0.180 A 
ATOM     13  H2  UNL     1       6.152  15.555  22.138  1.00  0.00     0.166 HD
HETATM   14  N3  UNL     1       8.261  16.468  19.965  1.00  0.00    -0.355 N 
ATOM     15  H3  UNL     1       8.698  16.464  19.043  1.00  0.00     0.166 HD
ENDBRANCH   1   9
TORSDOF 4
ENDMDL
