MODEL 2
REMARK VINA RESULT: -4.912614071      6.834      8.796
REMARK  4 active torsions:
REMARK  status: ('A' for Active; 'I' for Inactive)
REMARK    1  A    between atoms: N1_2  and  C3_4 
REMARK    2  A    between atoms: C3_4  and  C4_5 
REMARK    3  A    between atoms: C3_4  and  C8_13 
REMARK    4  A    between atoms: C4_5  and  C5_6 
ROOT
HETATM    1  C4  UNL     1      13.411  18.457  19.848  1.00  0.00     0.105 C 
ENDROOT
BRANCH   1   2
HETATM    2  C3  UNL     1      12.017  17.935  20.079  1.00  0.00     0.327 C 
BRANCH   2   3
HETATM    3  N1  UNL     1      11.852  17.297  21.345  1.00  0.00     0.095 N 
HETATM    4  C1  UNL     1      13.074  17.212  22.106  1.00  0.00     0.310 C 
HETATM    5  C2  UNL     1      10.799  17.860  22.152  1.00  0.00     0.310 C 
ENDBRANCH   2   3
BRANCH   2   6
HETATM    6  C8  UNL     1      11.528  17.050  19.008  1.00  0.00     0.207 C 
HETATM    7  O1  UNL     1      12.329  16.229  18.485  1.00  0.00    -0.646 OA
HETATM    8  O2  UNL     1      10.224  17.057  18.527  1.00  0.00    -0.646 OA
ENDBRANCH   2   6
ENDBRANCH   1   2
BRANCH   1   9
HETATM    9  C5  UNL     1      13.412  19.623  18.931  1.00  0.00     0.028 A 
HETATM   10  C6  UNL     1      12.511  20.692  18.984  1.00  0.00     0.114 A 
HETATM   11  N2  UNL     1      12.810  21.565  18.008  1.00  0.00    -0.360 N 
HETATM   12  C7  UNL     1      13.867  21.083  17.344  1.00  0.00     0.180 A 
ATOM     13  H2  UNL     1      12.320  22.437  17.810  1.00  0.00     0.166 HD
HETATM   14  N3  UNL     1      14.226  19.914  17.903  1.00  0.00    -0.355 N 
ATOM     15  H3  UNL     1      15.003  19.332  17.592  1.00  0.00     0.166 HD
ENDBRANCH   1   9
TORSDOF 4
ENDMDL
