MODEL 8
REMARK VINA RESULT: -9.934503118      2.364      4.232
REMARK  2 active torsions:
REMARK  status: ('A' for Active; 'I' for Inactive)
REMARK    1  A    between atoms: C3_8  and  C4_9 
REMARK    2  A    between atoms: C13_26  and  C14_27 
ROOT
HETATM    1  C4  UNL     1     -90.284  -2.838   3.140  1.00  0.00     0.134 C 
HETATM    2  C5  UNL     1     -90.767  -1.552   3.634  1.00  0.00     0.053 A 
HETATM    3  N4  UNL     1     -92.027  -1.103   3.337  1.00  0.00    -0.300 N 
ATOM      4  H4  UNL     1     -92.635  -1.695   2.772  1.00  0.00     0.186 HD
HETATM    5  N5  UNL     1     -92.488   0.056   3.748  1.00  0.00    -0.266 N 
ATOM      6  H5  UNL     1     -93.436   0.333   3.495  1.00  0.00     0.190 HD
HETATM    7  C6  UNL     1     -91.739   0.884   4.495  1.00  0.00     0.271 A 
HETATM    8  O1  UNL     1     -92.173   1.995   4.891  1.00  0.00    -0.266 OA
HETATM    9  C7  UNL     1     -90.464   0.509   4.837  1.00  0.00     0.051 A 
HETATM   10  C8  UNL     1     -89.641   1.324   5.607  1.00  0.00     0.060 A 
HETATM   11  C9  UNL     1     -88.365   0.902   5.923  1.00  0.00     0.119 A 
HETATM   12  F1  UNL     1     -87.589   1.711   6.671  1.00  0.00    -0.206 F 
HETATM   13  C10 UNL     1     -87.895  -0.330   5.481  1.00  0.00     0.072 A 
HETATM   14  C11 UNL     1     -88.708  -1.140   4.718  1.00  0.00     0.044 A 
HETATM   15  C12 UNL     1     -89.985  -0.730   4.393  1.00  0.00     0.031 A 
HETATM   16  N6  UNL     1     -88.251  -2.428   4.266  1.00  0.00    -0.379 N 
ATOM     17  H6  UNL     1     -87.261  -2.622   4.110  1.00  0.00     0.160 HD
HETATM   18  C13 UNL     1     -89.287  -3.454   4.041  1.00  0.00     0.132 C 
ENDROOT
BRANCH   1  19
HETATM   19  C3  UNL     1     -91.372  -3.742   2.705  1.00  0.00     0.111 A 
HETATM   20  N1  UNL     1     -91.664  -4.035   1.429  1.00  0.00    -0.283 N 
HETATM   21  C1  UNL     1     -91.003  -3.567   0.248  1.00  0.00     0.179 C 
HETATM   22  N2  UNL     1     -92.711  -4.878   1.390  1.00  0.00    -0.293 N 
HETATM   23  C2  UNL     1     -93.087  -5.124   2.652  1.00  0.00     0.199 A 
ATOM     24  H2  UNL     1     -93.141  -5.262   0.549  1.00  0.00     0.188 HD
HETATM   25  N3  UNL     1     -92.265  -4.428   3.451  1.00  0.00    -0.339 N 
ATOM     26  H3  UNL     1     -92.308  -4.417   4.469  1.00  0.00     0.168 HD
ENDBRANCH   1  19
BRANCH  18  27
HETATM   27  C14 UNL     1     -88.581  -4.618   3.410  1.00  0.00    -0.034 A 
HETATM   28  C15 UNL     1     -87.808  -4.451   2.286  1.00  0.00     0.012 A 
HETATM   29  C16 UNL     1     -87.142  -5.525   1.688  1.00  0.00     0.043 A 
HETATM   30  C17 UNL     1     -87.246  -6.793   2.216  1.00  0.00     0.116 A 
HETATM   31  F2  UNL     1     -86.594  -7.824   1.622  1.00  0.00    -0.206 F 
HETATM   32  C18 UNL     1     -88.022  -6.961   3.343  1.00  0.00     0.043 A 
HETATM   33  C19 UNL     1     -88.681  -5.891   3.934  1.00  0.00     0.012 A 
ENDBRANCH  18  27
TORSDOF 2
ENDMDL
