MODEL 3
REMARK VINA RESULT: -10.875258196      2.047      2.405
REMARK  2 active torsions:
REMARK  status: ('A' for Active; 'I' for Inactive)
REMARK    1  A    between atoms: C3_8  and  C4_9 
REMARK    2  A    between atoms: C13_26  and  C14_27 
ROOT
HETATM    1  C4  UNL     1     -90.466  -2.181   3.482  1.00  0.00     0.134 C 
HETATM    2  C5  UNL     1     -89.423  -1.624   4.338  1.00  0.00     0.053 A 
HETATM    3  N4  UNL     1     -88.295  -2.340   4.644  1.00  0.00    -0.300 N 
ATOM      4  H4  UNL     1     -88.187  -3.274   4.247  1.00  0.00     0.186 HD
HETATM    5  N5  UNL     1     -87.346  -1.879   5.425  1.00  0.00    -0.266 N 
ATOM      6  H5  UNL     1     -86.529  -2.461   5.614  1.00  0.00     0.190 HD
HETATM    7  C6  UNL     1     -87.425  -0.659   5.980  1.00  0.00     0.271 A 
HETATM    8  O1  UNL     1     -86.522  -0.211   6.730  1.00  0.00    -0.266 OA
HETATM    9  C7  UNL     1     -88.523   0.124   5.723  1.00  0.00     0.051 A 
HETATM   10  C8  UNL     1     -88.662   1.395   6.271  1.00  0.00     0.060 A 
HETATM   11  C9  UNL     1     -89.786   2.143   5.982  1.00  0.00     0.119 A 
HETATM   12  F1  UNL     1     -89.896   3.371   6.525  1.00  0.00    -0.206 F 
HETATM   13  C10 UNL     1     -90.781   1.638   5.151  1.00  0.00     0.072 A 
HETATM   14  C11 UNL     1     -90.646   0.379   4.608  1.00  0.00     0.044 A 
HETATM   15  C12 UNL     1     -89.528  -0.380   4.888  1.00  0.00     0.031 A 
HETATM   16  N6  UNL     1     -91.652  -0.156   3.727  1.00  0.00    -0.379 N 
ATOM     17  H6  UNL     1     -92.629   0.132   3.792  1.00  0.00     0.160 HD
HETATM   18  C13 UNL     1     -91.197  -1.141   2.728  1.00  0.00     0.132 C 
ENDROOT
BRANCH   1  19
HETATM   19  C3  UNL     1     -90.003  -3.329   2.669  1.00  0.00     0.111 A 
HETATM   20  N1  UNL     1     -90.480  -4.579   2.764  1.00  0.00    -0.283 N 
HETATM   21  C1  UNL     1     -91.514  -5.060   3.630  1.00  0.00     0.179 C 
HETATM   22  N2  UNL     1     -89.836  -5.373   1.890  1.00  0.00    -0.293 N 
HETATM   23  C2  UNL     1     -88.943  -4.620   1.232  1.00  0.00     0.199 A 
ATOM     24  H2  UNL     1     -89.999  -6.370   1.751  1.00  0.00     0.188 HD
HETATM   25  N3  UNL     1     -89.050  -3.373   1.713  1.00  0.00    -0.339 N 
ATOM     26  H3  UNL     1     -88.495  -2.575   1.403  1.00  0.00     0.168 HD
ENDBRANCH   1  19
BRANCH  18  27
HETATM   27  C14 UNL     1     -92.442  -1.668   2.076  1.00  0.00    -0.034 A 
HETATM   28  C15 UNL     1     -93.509  -2.092   2.831  1.00  0.00     0.012 A 
HETATM   29  C16 UNL     1     -94.677  -2.584   2.240  1.00  0.00     0.043 A 
HETATM   30  C17 UNL     1     -94.787  -2.658   0.869  1.00  0.00     0.116 A 
HETATM   31  F2  UNL     1     -95.927  -3.138   0.311  1.00  0.00    -0.206 F 
HETATM   32  C18 UNL     1     -93.716  -2.233   0.112  1.00  0.00     0.043 A 
HETATM   33  C19 UNL     1     -92.559  -1.745   0.703  1.00  0.00     0.012 A 
ENDBRANCH  18  27
TORSDOF 2
ENDMDL
