MODEL 2
REMARK VINA RESULT: -10.968566282      2.097      2.738
REMARK  2 active torsions:
REMARK  status: ('A' for Active; 'I' for Inactive)
REMARK    1  A    between atoms: C3_8  and  C4_9 
REMARK    2  A    between atoms: C13_26  and  C14_27 
ROOT
HETATM    1  C4  UNL     1     -90.347  -1.887   3.753  1.00  0.00     0.134 C 
HETATM    2  C5  UNL     1     -89.304  -1.322   4.603  1.00  0.00     0.053 A 
HETATM    3  N4  UNL     1     -88.185  -2.043   4.933  1.00  0.00    -0.300 N 
ATOM      4  H4  UNL     1     -88.085  -2.986   4.557  1.00  0.00     0.186 HD
HETATM    5  N5  UNL     1     -87.236  -1.575   5.710  1.00  0.00    -0.266 N 
ATOM      6  H5  UNL     1     -86.427  -2.160   5.917  1.00  0.00     0.190 HD
HETATM    7  C6  UNL     1     -87.307  -0.342   6.238  1.00  0.00     0.271 A 
HETATM    8  O1  UNL     1     -86.403   0.113   6.983  1.00  0.00    -0.266 OA
HETATM    9  C7  UNL     1     -88.395   0.447   5.957  1.00  0.00     0.051 A 
HETATM   10  C8  UNL     1     -88.524   1.731   6.475  1.00  0.00     0.060 A 
HETATM   11  C9  UNL     1     -89.638   2.484   6.163  1.00  0.00     0.119 A 
HETATM   12  F1  UNL     1     -89.738   3.725   6.678  1.00  0.00    -0.206 F 
HETATM   13  C10 UNL     1     -90.633   1.971   5.336  1.00  0.00     0.072 A 
HETATM   14  C11 UNL     1     -90.507   0.700   4.822  1.00  0.00     0.044 A 
HETATM   15  C12 UNL     1     -89.399  -0.065   5.126  1.00  0.00     0.031 A 
HETATM   16  N6  UNL     1     -91.513   0.156   3.947  1.00  0.00    -0.379 N 
ATOM     17  H6  UNL     1     -92.488   0.455   3.998  1.00  0.00     0.160 HD
HETATM   18  C13 UNL     1     -91.063  -0.856   2.972  1.00  0.00     0.132 C 
ENDROOT
BRANCH   1  19
HETATM   19  C3  UNL     1     -89.891  -3.057   2.969  1.00  0.00     0.111 A 
HETATM   20  N1  UNL     1     -89.104  -2.995   1.885  1.00  0.00    -0.283 N 
HETATM   21  C1  UNL     1     -88.537  -1.829   1.277  1.00  0.00     0.179 C 
HETATM   22  N2  UNL     1     -88.891  -4.236   1.413  1.00  0.00    -0.293 N 
HETATM   23  C2  UNL     1     -89.548  -5.095   2.205  1.00  0.00     0.199 A 
ATOM     24  H2  UNL     1     -88.328  -4.481   0.598  1.00  0.00     0.188 HD
HETATM   25  N3  UNL     1     -90.157  -4.368   3.153  1.00  0.00    -0.339 N 
ATOM     26  H3  UNL     1     -90.735  -4.748   3.902  1.00  0.00     0.168 HD
ENDBRANCH   1  19
BRANCH  18  27
HETATM   27  C14 UNL     1     -92.309  -1.385   2.324  1.00  0.00    -0.034 A 
HETATM   28  C15 UNL     1     -93.302  -1.968   3.074  1.00  0.00     0.012 A 
HETATM   29  C16 UNL     1     -94.470  -2.463   2.486  1.00  0.00     0.043 A 
HETATM   30  C17 UNL     1     -94.655  -2.379   1.123  1.00  0.00     0.116 A 
HETATM   31  F2  UNL     1     -95.794  -2.865   0.569  1.00  0.00    -0.206 F 
HETATM   32  C18 UNL     1     -93.659  -1.794   0.372  1.00  0.00     0.043 A 
HETATM   33  C19 UNL     1     -92.501  -1.303   0.960  1.00  0.00     0.012 A 
ENDBRANCH  18  27
TORSDOF 2
ENDMDL
