MODEL 5
REMARK VINA RESULT: -10.404351204      5.609      7.746
REMARK  2 active torsions:
REMARK  status: ('A' for Active; 'I' for Inactive)
REMARK    1  A    between atoms: C3_8  and  C4_9 
REMARK    2  A    between atoms: C13_26  and  C14_27 
ROOT
HETATM    1  C4  UNL     1     -85.946  -5.882   0.549  1.00  0.00     0.134 C 
HETATM    2  C5  UNL     1     -86.607  -6.010   1.844  1.00  0.00     0.053 A 
HETATM    3  N4  UNL     1     -86.452  -5.060   2.820  1.00  0.00    -0.300 N 
ATOM      4  H4  UNL     1     -85.872  -4.246   2.619  1.00  0.00     0.186 HD
HETATM    5  N5  UNL     1     -87.016  -5.152   4.002  1.00  0.00    -0.266 N 
ATOM      6  H5  UNL     1     -86.863  -4.411   4.686  1.00  0.00     0.190 HD
HETATM    7  C6  UNL     1     -87.791  -6.198   4.331  1.00  0.00     0.271 A 
HETATM    8  O1  UNL     1     -88.333  -6.293   5.460  1.00  0.00    -0.266 OA
HETATM    9  C7  UNL     1     -87.999  -7.194   3.408  1.00  0.00     0.051 A 
HETATM   10  C8  UNL     1     -88.790  -8.302   3.691  1.00  0.00     0.060 A 
HETATM   11  C9  UNL     1     -88.967  -9.277   2.730  1.00  0.00     0.119 A 
HETATM   12  F1  UNL     1     -89.739 -10.340   3.030  1.00  0.00    -0.206 F 
HETATM   13  C10 UNL     1     -88.363  -9.163   1.483  1.00  0.00     0.072 A 
HETATM   14  C11 UNL     1     -87.579  -8.066   1.200  1.00  0.00     0.044 A 
HETATM   15  C12 UNL     1     -87.392  -7.083   2.151  1.00  0.00     0.031 A 
HETATM   16  N6  UNL     1     -86.960  -7.914  -0.092  1.00  0.00    -0.379 N 
ATOM     17  H6  UNL     1     -86.714  -8.721  -0.666  1.00  0.00     0.160 HD
HETATM   18  C13 UNL     1     -86.702  -6.533  -0.542  1.00  0.00     0.132 C 
ENDROOT
BRANCH   1  19
HETATM   19  C3  UNL     1     -85.496  -4.502   0.256  1.00  0.00     0.111 A 
HETATM   20  N1  UNL     1     -84.229  -4.145   0.003  1.00  0.00    -0.283 N 
HETATM   21  C1  UNL     1     -83.074  -4.990  -0.055  1.00  0.00     0.179 C 
HETATM   22  N2  UNL     1     -84.170  -2.819  -0.212  1.00  0.00    -0.293 N 
HETATM   23  C2  UNL     1     -85.412  -2.329  -0.095  1.00  0.00     0.199 A 
ATOM     24  H2  UNL     1     -83.330  -2.281  -0.427  1.00  0.00     0.188 HD
HETATM   25  N3  UNL     1     -86.217  -3.363   0.191  1.00  0.00    -0.339 N 
ATOM     26  H3  UNL     1     -87.224  -3.298   0.338  1.00  0.00     0.168 HD
ENDBRANCH   1  19
BRANCH  18  27
HETATM   27  C14 UNL     1     -85.901  -6.657  -1.805  1.00  0.00    -0.034 A 
HETATM   28  C15 UNL     1     -85.080  -7.738  -2.018  1.00  0.00     0.012 A 
HETATM   29  C16 UNL     1     -84.330  -7.869  -3.190  1.00  0.00     0.043 A 
HETATM   30  C17 UNL     1     -84.394  -6.905  -4.172  1.00  0.00     0.116 A 
HETATM   31  F2  UNL     1     -83.659  -7.048  -5.303  1.00  0.00    -0.206 F 
HETATM   32  C18 UNL     1     -85.217  -5.821  -3.958  1.00  0.00     0.043 A 
HETATM   33  C19 UNL     1     -85.961  -5.695  -2.792  1.00  0.00     0.012 A 
ENDBRANCH  18  27
TORSDOF 2
ENDMDL
