MODEL 6
REMARK VINA RESULT: -10.294003821      4.228      6.666
REMARK  2 active torsions:
REMARK  status: ('A' for Active; 'I' for Inactive)
REMARK    1  A    between atoms: C3_8  and  C4_9 
REMARK    2  A    between atoms: C13_26  and  C14_27 
ROOT
HETATM    1  C4  UNL     1     -87.875  -5.966   1.708  1.00  0.00     0.134 C 
HETATM    2  C5  UNL     1     -86.528  -6.099   1.163  1.00  0.00     0.053 A 
HETATM    3  N4  UNL     1     -85.459  -6.395   1.968  1.00  0.00    -0.300 N 
ATOM      4  H4  UNL     1     -85.624  -6.538   2.964  1.00  0.00     0.186 HD
HETATM    5  N5  UNL     1     -84.231  -6.504   1.516  1.00  0.00    -0.266 N 
ATOM      6  H5  UNL     1     -83.478  -6.727   2.166  1.00  0.00     0.190 HD
HETATM    7  C6  UNL     1     -83.945  -6.328   0.216  1.00  0.00     0.271 A 
HETATM    8  O1  UNL     1     -82.772  -6.429  -0.225  1.00  0.00    -0.266 OA
HETATM    9  C7  UNL     1     -84.959  -6.029  -0.660  1.00  0.00     0.051 A 
HETATM   10  C8  UNL     1     -84.724  -5.834  -2.017  1.00  0.00     0.060 A 
HETATM   11  C9  UNL     1     -85.779  -5.535  -2.856  1.00  0.00     0.119 A 
HETATM   12  F1  UNL     1     -85.523  -5.352  -4.166  1.00  0.00    -0.206 F 
HETATM   13  C10 UNL     1     -87.073  -5.425  -2.359  1.00  0.00     0.072 A 
HETATM   14  C11 UNL     1     -87.309  -5.618  -1.015  1.00  0.00     0.044 A 
HETATM   15  C12 UNL     1     -86.264  -5.917  -0.164  1.00  0.00     0.031 A 
HETATM   16  N6  UNL     1     -88.643  -5.531  -0.480  1.00  0.00    -0.379 N 
ATOM     17  H6  UNL     1     -89.358  -4.948  -0.916  1.00  0.00     0.160 HD
HETATM   18  C13 UNL     1     -88.922  -6.328   0.729  1.00  0.00     0.132 C 
ENDROOT
BRANCH   1  19
HETATM   19  C3  UNL     1     -88.029  -6.589   3.042  1.00  0.00     0.111 A 
HETATM   20  N1  UNL     1     -88.222  -5.916   4.186  1.00  0.00    -0.283 N 
HETATM   21  C1  UNL     1     -88.333  -4.500   4.363  1.00  0.00     0.179 C 
HETATM   22  N2  UNL     1     -88.312  -6.785   5.209  1.00  0.00    -0.293 N 
HETATM   23  C2  UNL     1     -88.176  -8.022   4.710  1.00  0.00     0.199 A 
ATOM     24  H2  UNL     1     -88.458  -6.546   6.189  1.00  0.00     0.188 HD
HETATM   25  N3  UNL     1     -88.004  -7.895   3.386  1.00  0.00    -0.339 N 
ATOM     26  H3  UNL     1     -87.873  -8.668   2.735  1.00  0.00     0.168 HD
ENDBRANCH   1  19
BRANCH  18  27
HETATM   27  C14 UNL     1     -90.296  -5.924   1.178  1.00  0.00    -0.034 A 
HETATM   28  C15 UNL     1     -90.617  -4.601   1.366  1.00  0.00     0.012 A 
HETATM   29  C16 UNL     1     -91.893  -4.208   1.782  1.00  0.00     0.043 A 
HETATM   30  C17 UNL     1     -92.871  -5.148   2.018  1.00  0.00     0.116 A 
HETATM   31  F2  UNL     1     -94.103  -4.750   2.421  1.00  0.00    -0.206 F 
HETATM   32  C18 UNL     1     -92.549  -6.475   1.830  1.00  0.00     0.043 A 
HETATM   33  C19 UNL     1     -91.280  -6.861   1.416  1.00  0.00     0.012 A 
ENDBRANCH  18  27
TORSDOF 2
ENDMDL
