MODEL 1
REMARK VINA RESULT: -11.409054736      0.000      0.000
REMARK  8 active torsions:
REMARK  status: ('A' for Active; 'I' for Inactive)
REMARK    1  A    between atoms: O1_2  and  C2_3 
REMARK    2  A    between atoms: C4_5  and  C5_6 
REMARK    3  A    between atoms: N1_8  and  C7_9 
REMARK    4  A    between atoms: C7_9  and  C8_10 
REMARK       I    between atoms: C8_10  and  N2_12 
REMARK    5  A    between atoms: N2_12  and  C9_14 
REMARK    6  A    between atoms: C11_16  and  C12_17 
REMARK    7  A    between atoms: N4_22  and  C15_23 
REMARK    8  A    between atoms: C23_35  and  N7_36 
ROOT
HETATM    1  C5  UNL     1      32.244 -34.067  -8.366  1.00  0.00     0.076 A 
HETATM    2  C6  UNL     1      33.611 -34.190  -8.549  1.00  0.00     0.144 A 
HETATM    3  N1  UNL     1      33.908 -34.028  -9.847  1.00  0.00    -0.278 N 
HETATM    4  N5  UNL     1      32.773 -33.809 -10.476  1.00  0.00    -0.240 N 
ATOM      5  H5  UNL     1      32.677 -33.648 -11.479  1.00  0.00     0.208 HD
HETATM    6  N6  UNL     1      31.763 -33.830  -9.596  1.00  0.00    -0.284 N 
ATOM      7  H6  UNL     1      30.780 -33.687  -9.826  1.00  0.00     0.188 HD
ENDROOT
BRANCH   3   8
HETATM    8  C7  UNL     1      35.205 -34.078 -10.472  1.00  0.00     0.252 C 
BRANCH   8   9
HETATM    9  C8  UNL     1      36.017 -32.888 -10.027  1.00  0.00     0.243 C 
HETATM   10  O2  UNL     1      35.595 -32.076  -9.197  1.00  0.00    -0.271 OA
HETATM   11  N2  UNL     1      37.315 -32.703 -10.590  1.00  0.00    -0.310 N 
ATOM     12  H2  UNL     1      37.635 -33.390 -11.274  1.00  0.00     0.170 HD
BRANCH  11  13
HETATM   13  C9  UNL     1      38.189 -31.639 -10.272  1.00  0.00     0.132 A 
HETATM   14  C10 UNL     1      38.531 -31.182  -9.030  1.00  0.00     0.078 A 
HETATM   15  C11 UNL     1      39.411 -30.132  -9.251  1.00  0.00     0.041 A 
HETATM   16  N3  UNL     1      39.567 -29.991 -10.577  1.00  0.00    -0.295 N 
HETATM   17  N4  UNL     1      38.834 -30.895 -11.211  1.00  0.00    -0.240 N 
ATOM     18  H3  UNL     1      40.160 -29.294 -11.029  1.00  0.00     0.187 HD
BRANCH  15  19
HETATM   19  C12 UNL     1      40.060 -29.313  -8.212  1.00  0.00     0.082 A 
HETATM   20  C13 UNL     1      39.707 -27.882  -8.155  1.00  0.00    -0.015 A 
HETATM   21  C14 UNL     1      40.928 -28.193  -8.597  1.00  0.00    -0.015 A 
ENDBRANCH  15  19
BRANCH  17  22
HETATM   22  C15 UNL     1      38.735 -31.064 -12.617  1.00  0.00     0.058 A 
HETATM   23  C16 UNL     1      37.529 -30.977 -13.275  1.00  0.00     0.031 A 
HETATM   24  C17 UNL     1      37.439 -31.144 -14.660  1.00  0.00     0.002 A 
HETATM   25  C18 UNL     1      38.580 -31.404 -15.393  1.00  0.00     0.000 A 
HETATM   26  C19 UNL     1      39.791 -31.495 -14.745  1.00  0.00     0.002 A 
HETATM   27  C20 UNL     1      39.871 -31.326 -13.368  1.00  0.00     0.031 A 
ENDBRANCH  17  22
ENDBRANCH  11  13
ENDBRANCH   8   9
ENDBRANCH   3   8
BRANCH   1  28
HETATM   28  C4  UNL     1      31.539 -34.180  -7.090  1.00  0.00    -0.004 A 
HETATM   29  C3  UNL     1      30.426 -33.424  -6.844  1.00  0.00     0.053 A 
HETATM   30  C2  UNL     1      29.751 -33.518  -5.649  1.00  0.00     0.096 A 
HETATM   31  C23 UNL     1      30.187 -34.386  -4.661  1.00  0.00     0.073 A 
HETATM   32  C22 UNL     1      31.318 -35.140  -4.938  1.00  0.00     0.034 A 
HETATM   33  C21 UNL     1      31.985 -35.048  -6.116  1.00  0.00     0.016 A 
BRANCH  30  34
HETATM   34  O1  UNL     1      28.621 -32.773  -5.360  1.00  0.00    -0.354 OA
HETATM   35  C1  UNL     1      28.332 -31.570  -6.047  1.00  0.00     0.210 C 
ENDBRANCH  30  34
BRANCH  31  36
HETATM   36  N7  UNL     1      29.509 -34.499  -3.427  1.00  0.00    -0.314 N 
HETATM   37  C24 UNL     1      30.080 -34.515  -2.211  1.00  0.00     0.188 A 
HETATM   38  N8  UNL     1      29.128 -34.637  -1.243  1.00  0.00    -0.354 N 
HETATM   39  C25 UNL     1      27.936 -34.699  -1.858  1.00  0.00     0.022 A 
ATOM     40  H8  UNL     1      29.292 -34.673  -0.237  1.00  0.00     0.166 HD
HETATM   41  C26 UNL     1      26.612 -34.833  -1.207  1.00  0.00     0.069 C 
HETATM   42  C27 UNL     1      28.196 -34.612  -3.202  1.00  0.00     0.122 A 
ENDBRANCH  31  36
ENDBRANCH   1  28
TORSDOF 8
ENDMDL
