MODEL 6
REMARK VINA RESULT: -10.569911973      5.688     10.200
REMARK  8 active torsions:
REMARK  status: ('A' for Active; 'I' for Inactive)
REMARK    1  A    between atoms: O1_2  and  C2_3 
REMARK    2  A    between atoms: C4_5  and  C5_6 
REMARK    3  A    between atoms: N1_8  and  C7_9 
REMARK    4  A    between atoms: C7_9  and  C8_10 
REMARK       I    between atoms: C8_10  and  N2_12 
REMARK    5  A    between atoms: N2_12  and  C9_14 
REMARK    6  A    between atoms: C11_16  and  C12_17 
REMARK    7  A    between atoms: N4_22  and  C15_23 
REMARK    8  A    between atoms: C23_35  and  N7_36 
ROOT
HETATM    1  C5  UNL     1      23.975 -32.765  -4.673  1.00  0.00     0.076 A 
HETATM    2  C6  UNL     1      25.144 -32.105  -5.009  1.00  0.00     0.144 A 
HETATM    3  N1  UNL     1      25.258 -32.038  -6.343  1.00  0.00    -0.278 N 
HETATM    4  N5  UNL     1      24.198 -32.634  -6.849  1.00  0.00    -0.240 N 
ATOM      5  H5  UNL     1      24.002 -32.743  -7.844  1.00  0.00     0.208 HD
HETATM    6  N6  UNL     1      23.418 -33.076  -5.854  1.00  0.00    -0.284 N 
ATOM      7  H6  UNL     1      22.536 -33.574  -5.976  1.00  0.00     0.188 HD
ENDROOT
BRANCH   3   8
HETATM    8  C7  UNL     1      26.318 -31.439  -7.114  1.00  0.00     0.252 C 
BRANCH   8   9
HETATM    9  C8  UNL     1      27.353 -32.488  -7.434  1.00  0.00     0.243 C 
HETATM   10  O2  UNL     1      27.146 -33.390  -8.253  1.00  0.00    -0.271 OA
HETATM   11  N2  UNL     1      28.609 -32.427  -6.761  1.00  0.00    -0.310 N 
ATOM     12  H2  UNL     1      28.750 -31.672  -6.090  1.00  0.00     0.170 HD
BRANCH  11  13
HETATM   13  C9  UNL     1      29.675 -33.337  -6.956  1.00  0.00     0.132 A 
HETATM   14  C10 UNL     1      30.410 -33.529  -8.092  1.00  0.00     0.078 A 
HETATM   15  C11 UNL     1      31.326 -34.523  -7.775  1.00  0.00     0.041 A 
HETATM   16  N3  UNL     1      31.121 -34.888  -6.499  1.00  0.00    -0.295 N 
HETATM   17  N4  UNL     1      30.124 -34.180  -5.988  1.00  0.00    -0.240 N 
ATOM     18  H3  UNL     1      31.652 -35.601  -5.999  1.00  0.00     0.187 HD
BRANCH  15  19
HETATM   19  C12 UNL     1      32.346 -35.080  -8.680  1.00  0.00     0.082 A 
HETATM   20  C13 UNL     1      33.641 -34.377  -8.761  1.00  0.00    -0.015 A 
HETATM   21  C14 UNL     1      32.829 -34.288  -9.817  1.00  0.00    -0.015 A 
ENDBRANCH  15  19
BRANCH  17  22
HETATM   22  C15 UNL     1      29.611 -34.278  -4.668  1.00  0.00     0.058 A 
HETATM   23  C16 UNL     1      30.426 -34.550  -3.592  1.00  0.00     0.031 A 
HETATM   24  C17 UNL     1      29.914 -34.645  -2.294  1.00  0.00     0.002 A 
HETATM   25  C18 UNL     1      28.563 -34.465  -2.077  1.00  0.00     0.000 A 
HETATM   26  C19 UNL     1      27.739 -34.193  -3.146  1.00  0.00     0.002 A 
HETATM   27  C20 UNL     1      28.256 -34.100  -4.433  1.00  0.00     0.031 A 
ENDBRANCH  17  22
ENDBRANCH  11  13
ENDBRANCH   8   9
ENDBRANCH   3   8
BRANCH   1  28
HETATM   28  C4  UNL     1      23.503 -33.033  -3.316  1.00  0.00    -0.004 A 
HETATM   29  C3  UNL     1      24.385 -33.065  -2.270  1.00  0.00     0.053 A 
HETATM   30  C2  UNL     1      23.958 -33.316  -0.987  1.00  0.00     0.096 A 
HETATM   31  C23 UNL     1      22.618 -33.544  -0.722  1.00  0.00     0.073 A 
HETATM   32  C22 UNL     1      21.747 -33.506  -1.802  1.00  0.00     0.034 A 
HETATM   33  C21 UNL     1      22.165 -33.258  -3.069  1.00  0.00     0.016 A 
BRANCH  30  34
HETATM   34  O1  UNL     1      24.815 -33.356   0.100  1.00  0.00    -0.354 OA
HETATM   35  C1  UNL     1      25.760 -34.397   0.257  1.00  0.00     0.210 C 
ENDBRANCH  30  34
BRANCH  31  36
HETATM   36  N7  UNL     1      22.157 -33.804   0.587  1.00  0.00    -0.314 N 
HETATM   37  C24 UNL     1      21.902 -35.014   1.109  1.00  0.00     0.188 A 
HETATM   38  N8  UNL     1      21.473 -34.894   2.398  1.00  0.00    -0.354 N 
HETATM   39  C25 UNL     1      21.457 -33.584   2.694  1.00  0.00     0.022 A 
ATOM     40  H8  UNL     1      21.213 -35.658   3.022  1.00  0.00     0.166 HD
HETATM   41  C26 UNL     1      21.060 -32.976   3.985  1.00  0.00     0.069 C 
HETATM   42  C27 UNL     1      21.882 -32.933   1.565  1.00  0.00     0.122 A 
ENDBRANCH  31  36
ENDBRANCH   1  28
TORSDOF 8
ENDMDL
