MODEL 4
REMARK VINA RESULT: -10.733616577      6.073     10.597
REMARK  8 active torsions:
REMARK  status: ('A' for Active; 'I' for Inactive)
REMARK    1  A    between atoms: O1_2  and  C2_3 
REMARK    2  A    between atoms: C4_5  and  C5_6 
REMARK    3  A    between atoms: N1_8  and  C7_9 
REMARK    4  A    between atoms: C7_9  and  C8_10 
REMARK       I    between atoms: C8_10  and  N2_12 
REMARK    5  A    between atoms: N2_12  and  C9_14 
REMARK    6  A    between atoms: C11_16  and  C12_17 
REMARK    7  A    between atoms: N4_22  and  C15_23 
REMARK    8  A    between atoms: C23_35  and  N7_36 
ROOT
HETATM    1  C5  UNL     1      24.483 -30.923  -4.455  1.00  0.00     0.076 A 
HETATM    2  C6  UNL     1      25.726 -30.457  -4.847  1.00  0.00     0.144 A 
HETATM    3  N1  UNL     1      25.865 -30.602  -6.173  1.00  0.00    -0.278 N 
HETATM    4  N5  UNL     1      24.750 -31.143  -6.618  1.00  0.00    -0.240 N 
ATOM      5  H5  UNL     1      24.557 -31.375  -7.593  1.00  0.00     0.208 HD
HETATM    6  N6  UNL     1      23.910 -31.342  -5.595  1.00  0.00    -0.284 N 
ATOM      7  H6  UNL     1      22.978 -31.749  -5.670  1.00  0.00     0.188 HD
ENDROOT
BRANCH   3   8
HETATM    8  C7  UNL     1      26.997 -30.247  -6.989  1.00  0.00     0.252 C 
BRANCH   8   9
HETATM    9  C8  UNL     1      27.810 -31.485  -7.276  1.00  0.00     0.243 C 
HETATM   10  O2  UNL     1      27.665 -32.143  -8.312  1.00  0.00    -0.271 OA
HETATM   11  N2  UNL     1      28.775 -31.901  -6.311  1.00  0.00    -0.310 N 
ATOM     12  H2  UNL     1      28.871 -31.337  -5.466  1.00  0.00     0.170 HD
BRANCH  11  13
HETATM   13  C9  UNL     1      29.608 -33.036  -6.440  1.00  0.00     0.132 A 
HETATM   14  C10 UNL     1      30.432 -33.352  -7.484  1.00  0.00     0.078 A 
HETATM   15  C11 UNL     1      31.028 -34.555  -7.132  1.00  0.00     0.041 A 
HETATM   16  N3  UNL     1      30.561 -34.916  -5.927  1.00  0.00    -0.295 N 
HETATM   17  N4  UNL     1      29.699 -34.007  -5.493  1.00  0.00    -0.240 N 
ATOM     18  H3  UNL     1      30.828 -35.761  -5.421  1.00  0.00     0.187 HD
BRANCH  15  19
HETATM   19  C12 UNL     1      32.005 -35.306  -7.941  1.00  0.00     0.082 A 
HETATM   20  C13 UNL     1      33.188 -34.574  -8.431  1.00  0.00    -0.015 A 
HETATM   21  C14 UNL     1      32.263 -34.911  -9.331  1.00  0.00    -0.015 A 
ENDBRANCH  15  19
BRANCH  17  22
HETATM   22  C15 UNL     1      28.994 -34.036  -4.261  1.00  0.00     0.058 A 
HETATM   23  C16 UNL     1      29.620 -34.343  -3.074  1.00  0.00     0.031 A 
HETATM   24  C17 UNL     1      28.919 -34.369  -1.865  1.00  0.00     0.002 A 
HETATM   25  C18 UNL     1      27.568 -34.083  -1.850  1.00  0.00     0.000 A 
HETATM   26  C19 UNL     1      26.932 -33.776  -3.032  1.00  0.00     0.002 A 
HETATM   27  C20 UNL     1      27.637 -33.752  -4.230  1.00  0.00     0.031 A 
ENDBRANCH  17  22
ENDBRANCH  11  13
ENDBRANCH   8   9
ENDBRANCH   3   8
BRANCH   1  28
HETATM   28  C4  UNL     1      23.965 -30.932  -3.088  1.00  0.00    -0.004 A 
HETATM   29  C3  UNL     1      23.706 -32.117  -2.453  1.00  0.00     0.053 A 
HETATM   30  C2  UNL     1      23.219 -32.142  -1.167  1.00  0.00     0.096 A 
HETATM   31  C23 UNL     1      22.976 -30.964  -0.482  1.00  0.00     0.073 A 
HETATM   32  C22 UNL     1      23.247 -29.779  -1.150  1.00  0.00     0.034 A 
HETATM   33  C21 UNL     1      23.728 -29.750  -2.419  1.00  0.00     0.016 A 
BRANCH  30  34
HETATM   34  O1  UNL     1      22.945 -33.317  -0.488  1.00  0.00    -0.354 OA
HETATM   35  C1  UNL     1      22.045 -34.278  -1.006  1.00  0.00     0.210 C 
ENDBRANCH  30  34
BRANCH  31  36
HETATM   36  N7  UNL     1      22.476 -30.967   0.838  1.00  0.00    -0.314 N 
HETATM   37  C24 UNL     1      21.180 -30.947   1.193  1.00  0.00     0.188 A 
HETATM   38  N8  UNL     1      21.060 -30.957   2.551  1.00  0.00    -0.354 N 
HETATM   39  C25 UNL     1      22.301 -30.983   3.063  1.00  0.00     0.022 A 
ATOM     40  H8  UNL     1      20.189 -30.947   3.080  1.00  0.00     0.166 HD
HETATM   41  C26 UNL     1      22.664 -31.004   4.499  1.00  0.00     0.069 C 
HETATM   42  C27 UNL     1      23.156 -30.989   1.990  1.00  0.00     0.122 A 
ENDBRANCH  31  36
ENDBRANCH   1  28
TORSDOF 8
ENDMDL
