MODEL 5
REMARK VINA RESULT: -10.641921564      3.579     12.321
REMARK  8 active torsions:
REMARK  status: ('A' for Active; 'I' for Inactive)
REMARK    1  A    between atoms: O1_2  and  C2_3 
REMARK    2  A    between atoms: C4_5  and  C5_6 
REMARK    3  A    between atoms: N1_8  and  C7_9 
REMARK    4  A    between atoms: C7_9  and  C8_10 
REMARK       I    between atoms: C8_10  and  N2_12 
REMARK    5  A    between atoms: N2_12  and  C9_14 
REMARK    6  A    between atoms: C11_16  and  C12_17 
REMARK    7  A    between atoms: N4_22  and  C15_23 
REMARK    8  A    between atoms: C23_35  and  N7_36 
ROOT
HETATM    1  C5  UNL     1      29.900 -34.530  -3.984  1.00  0.00     0.076 A 
HETATM    2  C6  UNL     1      28.598 -34.062  -3.935  1.00  0.00     0.144 A 
HETATM    3  N1  UNL     1      28.072 -34.317  -2.729  1.00  0.00    -0.278 N 
HETATM    4  N5  UNL     1      29.003 -34.928  -2.026  1.00  0.00    -0.240 N 
ATOM      5  H5  UNL     1      28.898 -35.250  -1.063  1.00  0.00     0.208 HD
HETATM    6  N6  UNL     1      30.108 -35.063  -2.770  1.00  0.00    -0.284 N 
ATOM      7  H6  UNL     1      30.974 -35.503  -2.462  1.00  0.00     0.188 HD
ENDROOT
BRANCH   3   8
HETATM    8  C7  UNL     1      26.749 -34.001  -2.254  1.00  0.00     0.252 C 
BRANCH   8   9
HETATM    9  C8  UNL     1      25.997 -33.263  -3.332  1.00  0.00     0.243 C 
HETATM   10  O2  UNL     1      25.108 -33.800  -4.001  1.00  0.00    -0.271 OA
HETATM   11  N2  UNL     1      26.333 -31.899  -3.581  1.00  0.00    -0.310 N 
ATOM     12  H2  UNL     1      27.072 -31.483  -3.013  1.00  0.00     0.170 HD
BRANCH  11  13
HETATM   13  C9  UNL     1      25.718 -31.080  -4.555  1.00  0.00     0.132 A 
HETATM   14  C10 UNL     1      26.203 -30.741  -5.788  1.00  0.00     0.078 A 
HETATM   15  C11 UNL     1      25.233 -29.927  -6.356  1.00  0.00     0.041 A 
HETATM   16  N3  UNL     1      24.225 -29.803  -5.477  1.00  0.00    -0.295 N 
HETATM   17  N4  UNL     1      24.503 -30.495  -4.381  1.00  0.00    -0.240 N 
ATOM     18  H3  UNL     1      23.375 -29.260  -5.630  1.00  0.00     0.187 HD
BRANCH  15  19
HETATM   19  C12 UNL     1      25.298 -29.306  -7.691  1.00  0.00     0.082 A 
HETATM   20  C13 UNL     1      25.422 -30.205  -8.853  1.00  0.00    -0.015 A 
HETATM   21  C14 UNL     1      26.494 -29.481  -8.523  1.00  0.00    -0.015 A 
ENDBRANCH  15  19
BRANCH  17  22
HETATM   22  C15 UNL     1      23.683 -30.609  -3.228  1.00  0.00     0.058 A 
HETATM   23  C16 UNL     1      22.701 -31.568  -3.128  1.00  0.00     0.031 A 
HETATM   24  C17 UNL     1      21.897 -31.675  -1.989  1.00  0.00     0.002 A 
HETATM   25  C18 UNL     1      22.085 -30.802  -0.935  1.00  0.00     0.000 A 
HETATM   26  C19 UNL     1      23.063 -29.838  -1.025  1.00  0.00     0.002 A 
HETATM   27  C20 UNL     1      23.858 -29.740  -2.161  1.00  0.00     0.031 A 
ENDBRANCH  17  22
ENDBRANCH  11  13
ENDBRANCH   8   9
ENDBRANCH   3   8
BRANCH   1  28
HETATM   28  C4  UNL     1      30.800 -34.435  -5.132  1.00  0.00    -0.004 A 
HETATM   29  C3  UNL     1      30.322 -34.060  -6.359  1.00  0.00     0.053 A 
HETATM   30  C2  UNL     1      31.156 -33.966  -7.448  1.00  0.00     0.096 A 
HETATM   31  C23 UNL     1      32.506 -34.253  -7.330  1.00  0.00     0.073 A 
HETATM   32  C22 UNL     1      32.962 -34.631  -6.076  1.00  0.00     0.034 A 
HETATM   33  C21 UNL     1      32.142 -34.724  -4.998  1.00  0.00     0.016 A 
BRANCH  30  34
HETATM   34  O1  UNL     1      30.715 -33.589  -8.705  1.00  0.00    -0.354 OA
HETATM   35  C1  UNL     1      29.423 -33.046  -8.904  1.00  0.00     0.210 C 
ENDBRANCH  30  34
BRANCH  31  36
HETATM   36  N7  UNL     1      33.379 -34.163  -8.436  1.00  0.00    -0.314 N 
HETATM   37  C24 UNL     1      33.174 -34.698  -9.651  1.00  0.00     0.188 A 
HETATM   38  N8  UNL     1      34.222 -34.416 -10.476  1.00  0.00    -0.354 N 
HETATM   39  C25 UNL     1      35.105 -33.692  -9.770  1.00  0.00     0.022 A 
ATOM     40  H8  UNL     1      34.317 -34.702 -11.450  1.00  0.00     0.166 HD
HETATM   41  C26 UNL     1      36.398 -33.158 -10.256  1.00  0.00     0.069 C 
HETATM   42  C27 UNL     1      34.565 -33.549  -8.517  1.00  0.00     0.122 A 
ENDBRANCH  31  36
ENDBRANCH   1  28
TORSDOF 8
ENDMDL
