MODEL 14
REMARK VINA RESULT: -10.173613428      1.086      1.699
REMARK  8 active torsions:
REMARK  status: ('A' for Active; 'I' for Inactive)
REMARK    1  A    between atoms: O1_2  and  C2_3 
REMARK    2  A    between atoms: C4_5  and  C5_6 
REMARK    3  A    between atoms: N1_8  and  C7_9 
REMARK    4  A    between atoms: C7_9  and  C8_10 
REMARK       I    between atoms: C8_10  and  N2_12 
REMARK    5  A    between atoms: N2_12  and  C9_14 
REMARK    6  A    between atoms: C11_16  and  C12_17 
REMARK    7  A    between atoms: N4_22  and  C15_23 
REMARK    8  A    between atoms: C23_35  and  N7_36 
ROOT
HETATM    1  C5  UNL     1      31.683 -33.761  -8.926  1.00  0.00     0.076 A 
HETATM    2  C6  UNL     1      33.030 -34.081  -8.939  1.00  0.00     0.144 A 
HETATM    3  N1  UNL     1      33.511 -33.957 -10.184  1.00  0.00    -0.278 N 
HETATM    4  N5  UNL     1      32.509 -33.570 -10.945  1.00  0.00    -0.240 N 
ATOM      5  H5  UNL     1      32.567 -33.390 -11.948  1.00  0.00     0.208 HD
HETATM    6  N6  UNL     1      31.403 -33.448 -10.201  1.00  0.00    -0.284 N 
ATOM      7  H6  UNL     1      30.488 -33.163 -10.549  1.00  0.00     0.188 HD
ENDROOT
BRANCH   3   8
HETATM    8  C7  UNL     1      34.857 -34.191 -10.641  1.00  0.00     0.252 C 
BRANCH   8   9
HETATM    9  C8  UNL     1      35.767 -33.131 -10.073  1.00  0.00     0.243 C 
HETATM   10  O2  UNL     1      35.578 -32.629  -8.960  1.00  0.00    -0.271 OA
HETATM   11  N2  UNL     1      36.879 -32.702 -10.856  1.00  0.00    -0.310 N 
ATOM     12  H2  UNL     1      37.008 -33.134 -11.771  1.00  0.00     0.170 HD
BRANCH  11  13
HETATM   13  C9  UNL     1      37.816 -31.720 -10.458  1.00  0.00     0.132 A 
HETATM   14  C10 UNL     1      38.122 -31.325  -9.186  1.00  0.00     0.078 A 
HETATM   15  C11 UNL     1      39.093 -30.344  -9.326  1.00  0.00     0.041 A 
HETATM   16  N3  UNL     1      39.335 -30.181 -10.637  1.00  0.00    -0.295 N 
HETATM   17  N4  UNL     1      38.569 -31.006 -11.337  1.00  0.00    -0.240 N 
ATOM     18  H3  UNL     1      40.006 -29.523 -11.033  1.00  0.00     0.187 HD
BRANCH  15  19
HETATM   19  C12 UNL     1      39.745 -29.608  -8.228  1.00  0.00     0.082 A 
HETATM   20  C13 UNL     1      39.691 -28.135  -8.272  1.00  0.00    -0.015 A 
HETATM   21  C14 UNL     1      40.871 -28.711  -8.515  1.00  0.00    -0.015 A 
ENDBRANCH  15  19
BRANCH  17  22
HETATM   22  C15 UNL     1      38.537 -31.129 -12.751  1.00  0.00     0.058 A 
HETATM   23  C16 UNL     1      37.364 -31.016 -13.462  1.00  0.00     0.031 A 
HETATM   24  C17 UNL     1      37.340 -31.139 -14.855  1.00  0.00     0.002 A 
HETATM   25  C18 UNL     1      38.515 -31.379 -15.541  1.00  0.00     0.000 A 
HETATM   26  C19 UNL     1      39.693 -31.495 -14.839  1.00  0.00     0.002 A 
HETATM   27  C20 UNL     1      39.707 -31.371 -13.455  1.00  0.00     0.031 A 
ENDBRANCH  17  22
ENDBRANCH  11  13
ENDBRANCH   8   9
ENDBRANCH   3   8
BRANCH   1  28
HETATM   28  C4  UNL     1      30.811 -33.778  -7.753  1.00  0.00    -0.004 A 
HETATM   29  C3  UNL     1      31.274 -34.243  -6.552  1.00  0.00     0.053 A 
HETATM   30  C2  UNL     1      30.467 -34.265  -5.439  1.00  0.00     0.096 A 
HETATM   31  C23 UNL     1      29.158 -33.817  -5.508  1.00  0.00     0.073 A 
HETATM   32  C22 UNL     1      28.716 -33.352  -6.738  1.00  0.00     0.034 A 
HETATM   33  C21 UNL     1      29.510 -33.328  -7.838  1.00  0.00     0.016 A 
BRANCH  30  34
HETATM   34  O1  UNL     1      30.895 -34.726  -4.205  1.00  0.00    -0.354 OA
HETATM   35  C1  UNL     1      32.222 -35.173  -4.003  1.00  0.00     0.210 C 
ENDBRANCH  30  34
BRANCH  31  36
HETATM   36  N7  UNL     1      28.312 -33.831  -4.378  1.00  0.00    -0.314 N 
HETATM   37  C24 UNL     1      27.317 -32.965  -4.125  1.00  0.00     0.188 A 
HETATM   38  N8  UNL     1      26.707 -33.274  -2.946  1.00  0.00    -0.354 N 
HETATM   39  C25 UNL     1      27.328 -34.355  -2.445  1.00  0.00     0.022 A 
ATOM     40  H8  UNL     1      25.924 -32.777  -2.522  1.00  0.00     0.166 HD
HETATM   41  C26 UNL     1      27.005 -35.050  -1.177  1.00  0.00     0.069 C 
HETATM   42  C27 UNL     1      28.311 -34.680  -3.344  1.00  0.00     0.122 A 
ENDBRANCH  31  36
ENDBRANCH   1  28
TORSDOF 8
ENDMDL
