MODEL 2
REMARK VINA RESULT: -6.578098690      2.572      5.208
REMARK  7 active torsions:
REMARK  status: ('A' for Active; 'I' for Inactive)
REMARK    1  A    between atoms: C1_2  and  C2_3 
REMARK       I    between atoms: C1_2  and  N2_21 
REMARK    2  A    between atoms: C2_3  and  N1_4 
REMARK    3  A    between atoms: C13_16  and  C14_17 
REMARK    4  A    between atoms: N2_21  and  C16_23 
REMARK    5  A    between atoms: C16_23  and  C17_24 
REMARK    6  A    between atoms: C16_23  and  C24_31 
REMARK    7  A    between atoms: C17_24  and  C18_25 
ROOT
HETATM    1  N1  UNL     1      12.108  -5.082 -11.760  1.00  0.00    -0.340 N 
HETATM    2  C3  UNL     1      12.736  -6.279 -11.668  1.00  0.00     0.020 A 
HETATM    3  C4  UNL     1      13.191  -6.632 -12.923  1.00  0.00    -0.023 A 
HETATM    4  C5  UNL     1      12.812  -5.604 -13.772  1.00  0.00     0.000 A 
HETATM    5  C6  UNL     1      13.008  -5.435 -15.128  1.00  0.00     0.033 A 
HETATM    6  C7  UNL     1      12.533  -4.307 -15.766  1.00  0.00     0.011 A 
HETATM    7 BR1  UNL     1      12.763  -4.009 -17.632  1.00  0.00    -0.051 Br
HETATM    8  C8  UNL     1      11.859  -3.341 -15.044  1.00  0.00     0.021 A 
HETATM    9  C9  UNL     1      11.674  -3.529 -13.697  1.00  0.00     0.032 A 
HETATM   10  C10 UNL     1      12.136  -4.643 -13.028  1.00  0.00     0.046 A 
HETATM   11  C11 UNL     1      13.913  -7.924 -13.043  1.00  0.00     0.042 C 
HETATM   12  C12 UNL     1      13.168  -9.027 -12.322  1.00  0.00     0.020 C 
HETATM   13  C13 UNL     1      12.476  -8.591 -11.077  1.00  0.00     0.093 C 
HETATM   14  C15 UNL     1      13.031  -7.253 -10.581  1.00  0.00     0.073 C 
ENDROOT
BRANCH   1  15
HETATM   15  C2  UNL     1      11.508  -4.394 -10.631  1.00  0.00     0.231 C 
BRANCH  15  16
HETATM   16  C1  UNL     1      10.040  -4.415 -10.645  1.00  0.00     0.236 C 
HETATM   17  O1  UNL     1       9.436  -5.489 -10.439  1.00  0.00    -0.272 OA
HETATM   18  N2  UNL     1       9.310  -3.237 -10.891  1.00  0.00    -0.345 N 
ATOM     19  H2  UNL     1       9.837  -2.380 -11.060  1.00  0.00     0.163 HD
BRANCH  18  20
HETATM   20  C16 UNL     1       7.849  -3.154 -10.921  1.00  0.00     0.189 C 
BRANCH  20  21
HETATM   21  C17 UNL     1       7.417  -2.364 -12.129  1.00  0.00     0.074 C 
BRANCH  21  22
HETATM   22  C18 UNL     1       7.722  -3.075 -13.372  1.00  0.00    -0.056 A 
HETATM   23  C19 UNL     1       7.680  -4.448 -13.452  1.00  0.00     0.007 A 
HETATM   24  C20 UNL     1       7.973  -5.106 -14.629  1.00  0.00     0.001 A 
HETATM   25  C21 UNL     1       8.321  -4.423 -15.773  1.00  0.00     0.000 A 
HETATM   26  C22 UNL     1       8.364  -3.054 -15.697  1.00  0.00     0.001 A 
HETATM   27  C23 UNL     1       8.074  -2.389 -14.526  1.00  0.00     0.007 A 
ENDBRANCH  21  22
ENDBRANCH  20  21
BRANCH  20  28
HETATM   28  C24 UNL     1       7.349  -2.490  -9.696  1.00  0.00     0.197 C 
HETATM   29  O4  UNL     1       7.622  -2.975  -8.546  1.00  0.00    -0.646 OA
HETATM   30  O5  UNL     1       6.581  -1.350  -9.677  1.00  0.00    -0.646 OA
ENDBRANCH  20  28
ENDBRANCH  18  20
ENDBRANCH  15  16
ENDBRANCH   1  15
BRANCH  13  31
HETATM   31  C14 UNL     1      12.405  -9.593 -10.029  1.00  0.00     0.177 C 
HETATM   32  O2  UNL     1      12.200 -10.797 -10.287  1.00  0.00    -0.648 OA
HETATM   33  O3  UNL     1      12.565  -9.216  -8.709  1.00  0.00    -0.648 OA
ENDBRANCH  13  31
TORSDOF 7
ENDMDL
