MODEL 3
REMARK VINA RESULT: -6.533984450      3.089      6.409
REMARK  7 active torsions:
REMARK  status: ('A' for Active; 'I' for Inactive)
REMARK    1  A    between atoms: C1_2  and  C2_3 
REMARK       I    between atoms: C1_2  and  N2_21 
REMARK    2  A    between atoms: C2_3  and  N1_4 
REMARK    3  A    between atoms: C13_16  and  C14_17 
REMARK    4  A    between atoms: N2_21  and  C16_23 
REMARK    5  A    between atoms: C16_23  and  C17_24 
REMARK    6  A    between atoms: C16_23  and  C24_31 
REMARK    7  A    between atoms: C17_24  and  C18_25 
ROOT
HETATM    1  N1  UNL     1       8.869  -5.246 -12.363  1.00  0.00    -0.340 N 
HETATM    2  C3  UNL     1       8.752  -4.055 -11.729  1.00  0.00     0.020 A 
HETATM    3  C4  UNL     1       9.484  -4.109 -10.559  1.00  0.00    -0.023 A 
HETATM    4  C5  UNL     1      10.043  -5.377 -10.513  1.00  0.00     0.000 A 
HETATM    5  C6  UNL     1      10.863  -5.968  -9.574  1.00  0.00     0.033 A 
HETATM    6  C7  UNL     1      11.302  -7.264  -9.749  1.00  0.00     0.011 A 
HETATM    7 BR1  UNL     1      12.432  -8.145  -8.494  1.00  0.00    -0.051 Br
HETATM    8  C8  UNL     1      10.921  -7.974 -10.871  1.00  0.00     0.021 A 
HETATM    9  C9  UNL     1      10.105  -7.367 -11.793  1.00  0.00     0.032 A 
HETATM   10  C10 UNL     1       9.648  -6.075 -11.650  1.00  0.00     0.046 A 
HETATM   11  C11 UNL     1       9.488  -2.893  -9.706  1.00  0.00     0.042 C 
HETATM   12  C12 UNL     1       8.084  -2.351  -9.534  1.00  0.00     0.020 C 
HETATM   13  C13 UNL     1       7.214  -2.504 -10.733  1.00  0.00     0.093 C 
HETATM   14  C15 UNL     1       8.051  -2.767 -11.988  1.00  0.00     0.073 C 
ENDROOT
BRANCH   1  15
HETATM   15  C2  UNL     1       8.238  -5.551 -13.635  1.00  0.00     0.231 C 
BRANCH  15  16
HETATM   16  C1  UNL     1       9.152  -5.457 -14.779  1.00  0.00     0.236 C 
HETATM   17  O1  UNL     1       9.414  -6.479 -15.447  1.00  0.00    -0.272 OA
HETATM   18  N2  UNL     1       9.737  -4.224 -15.128  1.00  0.00    -0.345 N 
ATOM     19  H2  UNL     1       9.504  -3.412 -14.557  1.00  0.00     0.163 HD
BRANCH  18  20
HETATM   20  C16 UNL     1      10.655  -4.026 -16.251  1.00  0.00     0.189 C 
BRANCH  20  21
HETATM   21  C17 UNL     1      11.980  -3.532 -15.732  1.00  0.00     0.074 C 
BRANCH  21  22
HETATM   22  C18 UNL     1      12.514  -4.417 -14.695  1.00  0.00    -0.056 A 
HETATM   23  C19 UNL     1      12.925  -5.699 -14.977  1.00  0.00     0.007 A 
HETATM   24  C20 UNL     1      13.424  -6.524 -13.989  1.00  0.00     0.001 A 
HETATM   25  C21 UNL     1      13.533  -6.105 -12.682  1.00  0.00     0.000 A 
HETATM   26  C22 UNL     1      13.124  -4.827 -12.397  1.00  0.00     0.001 A 
HETATM   27  C23 UNL     1      12.625  -3.996 -13.377  1.00  0.00     0.007 A 
ENDBRANCH  21  22
ENDBRANCH  20  21
BRANCH  20  28
HETATM   28  C24 UNL     1      10.097  -3.034 -17.198  1.00  0.00     0.197 C 
HETATM   29  O4  UNL     1      10.844  -2.514 -18.095  1.00  0.00    -0.646 OA
HETATM   30  O5  UNL     1       8.794  -2.596 -17.201  1.00  0.00    -0.646 OA
ENDBRANCH  20  28
ENDBRANCH  18  20
ENDBRANCH  15  16
ENDBRANCH   1  15
BRANCH  13  31
HETATM   31  C14 UNL     1       6.235  -1.450 -10.922  1.00  0.00     0.177 C 
HETATM   32  O2  UNL     1       5.457  -1.108 -10.008  1.00  0.00    -0.648 OA
HETATM   33  O3  UNL     1       6.153  -0.801 -12.139  1.00  0.00    -0.648 OA
ENDBRANCH  13  31
TORSDOF 7
ENDMDL
