MODEL 1
REMARK VINA RESULT: -6.587115370      0.000      0.000
REMARK  7 active torsions:
REMARK  status: ('A' for Active; 'I' for Inactive)
REMARK    1  A    between atoms: C1_2  and  C2_3 
REMARK       I    between atoms: C1_2  and  N2_21 
REMARK    2  A    between atoms: C2_3  and  N1_4 
REMARK    3  A    between atoms: C13_16  and  C14_17 
REMARK    4  A    between atoms: N2_21  and  C16_23 
REMARK    5  A    between atoms: C16_23  and  C17_24 
REMARK    6  A    between atoms: C16_23  and  C24_31 
REMARK    7  A    between atoms: C17_24  and  C18_25 
ROOT
HETATM    1  N1  UNL     1      12.769  -6.753 -13.125  1.00  0.00    -0.340 N 
HETATM    2  C3  UNL     1      12.295  -5.823 -13.988  1.00  0.00     0.020 A 
HETATM    3  C4  UNL     1      13.333  -4.982 -14.338  1.00  0.00    -0.023 A 
HETATM    4  C5  UNL     1      14.447  -5.440 -13.653  1.00  0.00     0.000 A 
HETATM    5  C6  UNL     1      15.747  -4.979 -13.634  1.00  0.00     0.033 A 
HETATM    6  C7  UNL     1      16.701  -5.611 -12.862  1.00  0.00     0.011 A 
HETATM    7 BR1  UNL     1      18.512  -5.029 -12.784  1.00  0.00    -0.051 Br
HETATM    8  C8  UNL     1      16.352  -6.714 -12.106  1.00  0.00     0.021 A 
HETATM    9  C9  UNL     1      15.053  -7.157 -12.139  1.00  0.00     0.032 A 
HETATM   10  C10 UNL     1      14.077  -6.549 -12.899  1.00  0.00     0.046 A 
HETATM   11  C11 UNL     1      13.022  -3.881 -15.285  1.00  0.00     0.042 C 
HETATM   12  C12 UNL     1      11.753  -3.162 -14.878  1.00  0.00     0.020 C 
HETATM   13  C13 UNL     1      10.712  -4.042 -14.279  1.00  0.00     0.093 C 
HETATM   14  C15 UNL     1      10.979  -5.513 -14.612  1.00  0.00     0.073 C 
ENDROOT
BRANCH   1  15
HETATM   15  C2  UNL     1      11.959  -7.812 -12.550  1.00  0.00     0.231 C 
BRANCH  15  16
HETATM   16  C1  UNL     1      11.112  -7.362 -11.438  1.00  0.00     0.236 C 
HETATM   17  O1  UNL     1      10.114  -8.037 -11.109  1.00  0.00    -0.272 OA
HETATM   18  N2  UNL     1      11.414  -6.175 -10.743  1.00  0.00    -0.345 N 
ATOM     19  H2  UNL     1      12.233  -5.647 -11.043  1.00  0.00     0.163 HD
BRANCH  18  20
HETATM   20  C16 UNL     1      10.637  -5.647  -9.621  1.00  0.00     0.189 C 
BRANCH  20  21
HETATM   21  C17 UNL     1      10.579  -4.144  -9.717  1.00  0.00     0.074 C 
BRANCH  21  22
HETATM   22  C18 UNL     1       9.234  -3.680 -10.063  1.00  0.00    -0.056 A 
HETATM   23  C19 UNL     1       8.543  -4.192 -11.136  1.00  0.00     0.007 A 
HETATM   24  C20 UNL     1       7.277  -3.743 -11.453  1.00  0.00     0.001 A 
HETATM   25  C21 UNL     1       6.650  -2.765 -10.715  1.00  0.00     0.000 A 
HETATM   26  C22 UNL     1       7.336  -2.252  -9.643  1.00  0.00     0.001 A 
HETATM   27  C23 UNL     1       8.600  -2.694  -9.320  1.00  0.00     0.007 A 
ENDBRANCH  21  22
ENDBRANCH  20  21
BRANCH  20  28
HETATM   28  C24 UNL     1      11.264  -6.033  -8.337  1.00  0.00     0.197 C 
HETATM   29  O4  UNL     1      10.804  -5.577  -7.236  1.00  0.00    -0.646 OA
HETATM   30  O5  UNL     1      12.347  -6.871  -8.211  1.00  0.00    -0.646 OA
ENDBRANCH  20  28
ENDBRANCH  18  20
ENDBRANCH  15  16
ENDBRANCH   1  15
BRANCH  13  31
HETATM   31  C14 UNL     1       9.341  -3.646 -14.548  1.00  0.00     0.177 C 
HETATM   32  O2  UNL     1       8.501  -4.457 -14.989  1.00  0.00    -0.648 OA
HETATM   33  O3  UNL     1       8.946  -2.343 -14.313  1.00  0.00    -0.648 OA
ENDBRANCH  13  31
TORSDOF 7
ENDMDL
