MODEL 1
REMARK VINA RESULT: -9.870347323      0.000      0.000
REMARK  8 active torsions:
REMARK  status: ('A' for Active; 'I' for Inactive)
REMARK    1  A    between atoms: C2_2  and  C3_3 
REMARK    2  A    between atoms: C2_2  and  C15_15 
REMARK    3  A    between atoms: C3_3  and  C4_4 
REMARK    4  A    between atoms: C15_15  and  C16_16 
REMARK    5  A    between atoms: C16_16  and  C17_17 
REMARK    6  A    between atoms: C17_17  and  C18_18 
REMARK    7  A    between atoms: C18_18  and  C20_20 
REMARK    8  A    between atoms: C20_20  and  C21_21 
ROOT
HETATM    1  C3  UNL     1      65.003  48.417  29.514  1.00  0.00     0.014 C 
ENDROOT
BRANCH   1   2
HETATM    2  C2  UNL     1      64.152  48.811  28.409  1.00  0.00    -0.061 C 
HETATM    3  C1  UNL     1      64.689  49.285  27.071  1.00  0.00     0.048 C 
BRANCH   2   4
HETATM    4  C15 UNL     1      62.840  48.758  28.535  1.00  0.00     0.007 C 
BRANCH   4   5
HETATM    5  C16 UNL     1      62.094  47.518  28.658  1.00  0.00     0.001 C 
BRANCH   5   6
HETATM    6  C17 UNL     1      60.766  47.515  28.460  1.00  0.00     0.007 C 
BRANCH   6   7
HETATM    7  C18 UNL     1      59.831  46.747  29.304  1.00  0.00    -0.056 C 
HETATM    8  C19 UNL     1      60.116  46.297  30.660  1.00  0.00     0.048 C 
BRANCH   7   9
HETATM    9  C20 UNL     1      58.645  46.452  28.780  1.00  0.00     0.091 C 
BRANCH   9  10
HETATM   10  C21 UNL     1      57.399  47.046  29.176  1.00  0.00     0.199 C 
HETATM   11  O1  UNL     1      57.106  48.216  28.799  1.00  0.00    -0.644 OA
HETATM   12  O2  UNL     1      56.478  46.407  29.960  1.00  0.00    -0.644 OA
ENDBRANCH   9  10
ENDBRANCH   7   9
ENDBRANCH   6   7
ENDBRANCH   5   6
ENDBRANCH   4   5
ENDBRANCH   2   4
ENDBRANCH   1   2
BRANCH   1  13
HETATM   13  C4  UNL     1      65.580  47.277  29.754  1.00  0.00    -0.046 C 
HETATM   14  C5  UNL     1      65.680  46.135  28.796  1.00  0.00     0.040 C 
HETATM   15  C6  UNL     1      66.780  45.162  29.260  1.00  0.00     0.009 C 
HETATM   16  C7  UNL     1      67.938  45.914  29.902  1.00  0.00     0.040 C 
HETATM   17  C8  UNL     1      67.403  46.388  31.196  1.00  0.00    -0.047 A 
HETATM   18  C9  UNL     1      68.035  46.160  32.380  1.00  0.00     0.008 A 
HETATM   19  C14 UNL     1      66.168  47.056  31.096  1.00  0.00    -0.018 A 
HETATM   20  C10 UNL     1      67.411  46.618  33.547  1.00  0.00     0.001 A 
HETATM   21  C11 UNL     1      66.207  47.265  33.449  1.00  0.00     0.007 A 
HETATM   22  C12 UNL     1      65.556  47.500  32.224  1.00  0.00    -0.051 A 
HETATM   23  C13 UNL     1      64.238  48.149  32.166  1.00  0.00     0.049 C 
ENDBRANCH   1  13
TORSDOF 8
ENDMDL
