MODEL 11
REMARK VINA RESULT: -8.837783938      1.166      1.961
REMARK  8 active torsions:
REMARK  status: ('A' for Active; 'I' for Inactive)
REMARK    1  A    between atoms: C2_2  and  C3_3 
REMARK    2  A    between atoms: C2_2  and  C15_15 
REMARK    3  A    between atoms: C3_3  and  C4_4 
REMARK    4  A    between atoms: C15_15  and  C16_16 
REMARK    5  A    between atoms: C16_16  and  C17_17 
REMARK    6  A    between atoms: C17_17  and  C18_18 
REMARK    7  A    between atoms: C18_18  and  C20_20 
REMARK    8  A    between atoms: C20_20  and  C21_21 
ROOT
HETATM    1  C3  UNL     1      65.887  47.512  29.906  1.00  0.00     0.014 C 
ENDROOT
BRANCH   1   2
HETATM    2  C2  UNL     1      65.105  47.392  28.692  1.00  0.00    -0.061 C 
HETATM    3  C1  UNL     1      64.859  46.071  27.986  1.00  0.00     0.048 C 
BRANCH   2   4
HETATM    4  C15 UNL     1      64.556  48.463  28.151  1.00  0.00     0.007 C 
BRANCH   4   5
HETATM    5  C16 UNL     1      63.264  48.456  27.489  1.00  0.00     0.001 C 
BRANCH   5   6
HETATM    6  C17 UNL     1      62.147  48.676  28.200  1.00  0.00     0.007 C 
BRANCH   6   7
HETATM    7  C18 UNL     1      61.183  47.611  28.533  1.00  0.00    -0.056 C 
HETATM    8  C19 UNL     1      61.330  46.675  29.640  1.00  0.00     0.048 C 
BRANCH   7   9
HETATM    9  C20 UNL     1      60.105  47.507  27.762  1.00  0.00     0.091 C 
BRANCH   9  10
HETATM   10  C21 UNL     1      58.758  47.384  28.241  1.00  0.00     0.199 C 
HETATM   11  O1  UNL     1      57.961  48.360  28.151  1.00  0.00    -0.644 OA
HETATM   12  O2  UNL     1      58.264  46.241  28.808  1.00  0.00    -0.644 OA
ENDBRANCH   9  10
ENDBRANCH   7   9
ENDBRANCH   6   7
ENDBRANCH   5   6
ENDBRANCH   4   5
ENDBRANCH   2   4
ENDBRANCH   1   2
BRANCH   1  13
HETATM   13  C4  UNL     1      66.121  46.633  30.835  1.00  0.00    -0.046 C 
HETATM   14  C5  UNL     1      66.514  45.210  30.606  1.00  0.00     0.040 C 
HETATM   15  C6  UNL     1      67.118  44.623  31.895  1.00  0.00     0.009 C 
HETATM   16  C7  UNL     1      67.917  45.675  32.651  1.00  0.00     0.040 C 
HETATM   17  C8  UNL     1      66.898  46.596  33.199  1.00  0.00    -0.047 A 
HETATM   18  C9  UNL     1      66.852  46.939  34.515  1.00  0.00     0.008 A 
HETATM   19  C14 UNL     1      65.963  47.046  32.249  1.00  0.00    -0.018 A 
HETATM   20  C10 UNL     1      65.815  47.785  34.928  1.00  0.00     0.001 A 
HETATM   21  C11 UNL     1      64.902  48.221  34.003  1.00  0.00     0.007 A 
HETATM   22  C12 UNL     1      64.952  47.863  32.644  1.00  0.00    -0.051 A 
HETATM   23  C13 UNL     1      63.922  48.307  31.694  1.00  0.00     0.049 C 
ENDBRANCH   1  13
TORSDOF 8
ENDMDL
