MODEL 10
REMARK VINA RESULT: -8.872494803      4.167      5.438
REMARK  8 active torsions:
REMARK  status: ('A' for Active; 'I' for Inactive)
REMARK    1  A    between atoms: C2_2  and  C3_3 
REMARK    2  A    between atoms: C2_2  and  C15_15 
REMARK    3  A    between atoms: C3_3  and  C4_4 
REMARK    4  A    between atoms: C15_15  and  C16_16 
REMARK    5  A    between atoms: C16_16  and  C17_17 
REMARK    6  A    between atoms: C17_17  and  C18_18 
REMARK    7  A    between atoms: C18_18  and  C20_20 
REMARK    8  A    between atoms: C20_20  and  C21_21 
ROOT
HETATM    1  C3  UNL     1      66.216  46.864  30.630  1.00  0.00     0.014 C 
ENDROOT
BRANCH   1   2
HETATM    2  C2  UNL     1      66.705  46.117  29.488  1.00  0.00    -0.061 C 
HETATM    3  C1  UNL     1      68.155  45.701  29.322  1.00  0.00     0.048 C 
BRANCH   2   4
HETATM    4  C15 UNL     1      65.872  45.754  28.531  1.00  0.00     0.007 C 
BRANCH   4   5
HETATM    5  C16 UNL     1      64.612  46.425  28.265  1.00  0.00     0.001 C 
BRANCH   5   6
HETATM    6  C17 UNL     1      64.472  47.170  27.157  1.00  0.00     0.007 C 
BRANCH   6   7
HETATM    7  C18 UNL     1      64.353  48.640  27.187  1.00  0.00    -0.056 C 
HETATM    8  C19 UNL     1      63.148  49.382  26.839  1.00  0.00     0.048 C 
BRANCH   7   9
HETATM    9  C20 UNL     1      65.428  49.327  27.562  1.00  0.00     0.091 C 
BRANCH   9  10
HETATM   10  C21 UNL     1      66.655  49.406  26.820  1.00  0.00     0.199 C 
HETATM   11  O1  UNL     1      67.333  48.362  26.605  1.00  0.00    -0.644 OA
HETATM   12  O2  UNL     1      67.154  50.575  26.316  1.00  0.00    -0.644 OA
ENDBRANCH   9  10
ENDBRANCH   7   9
ENDBRANCH   6   7
ENDBRANCH   5   6
ENDBRANCH   4   5
ENDBRANCH   2   4
ENDBRANCH   1   2
BRANCH   1  13
HETATM   13  C4  UNL     1      66.230  46.557  31.893  1.00  0.00    -0.046 C 
HETATM   14  C5  UNL     1      66.676  45.250  32.464  1.00  0.00     0.040 C 
HETATM   15  C6  UNL     1      66.962  45.410  33.968  1.00  0.00     0.009 C 
HETATM   16  C7  UNL     1      67.553  46.782  34.268  1.00  0.00     0.040 C 
HETATM   17  C8  UNL     1      66.426  47.721  34.083  1.00  0.00    -0.047 A 
HETATM   18  C9  UNL     1      66.068  48.632  35.029  1.00  0.00     0.008 A 
HETATM   19  C14 UNL     1      65.739  47.560  32.866  1.00  0.00    -0.018 A 
HETATM   20  C10 UNL     1      64.956  49.441  34.761  1.00  0.00     0.001 A 
HETATM   21  C11 UNL     1      64.285  49.281  33.577  1.00  0.00     0.007 A 
HETATM   22  C12 UNL     1      64.658  48.338  32.602  1.00  0.00    -0.051 A 
HETATM   23  C13 UNL     1      63.878  48.160  31.368  1.00  0.00     0.049 C 
ENDBRANCH   1  13
TORSDOF 8
ENDMDL
