MODEL 2
REMARK VINA RESULT: -9.738525175      0.977      1.196
REMARK  8 active torsions:
REMARK  status: ('A' for Active; 'I' for Inactive)
REMARK    1  A    between atoms: C2_2  and  C3_3 
REMARK    2  A    between atoms: C2_2  and  C15_15 
REMARK    3  A    between atoms: C3_3  and  C4_4 
REMARK    4  A    between atoms: C15_15  and  C16_16 
REMARK    5  A    between atoms: C16_16  and  C17_17 
REMARK    6  A    between atoms: C17_17  and  C18_18 
REMARK    7  A    between atoms: C18_18  and  C20_20 
REMARK    8  A    between atoms: C20_20  and  C21_21 
ROOT
HETATM    1  C3  UNL     1      65.151  48.468  28.900  1.00  0.00     0.014 C 
ENDROOT
BRANCH   1   2
HETATM    2  C2  UNL     1      65.019  49.048  27.578  1.00  0.00    -0.061 C 
HETATM    3  C1  UNL     1      66.193  49.258  26.639  1.00  0.00     0.048 C 
BRANCH   2   4
HETATM    4  C15 UNL     1      63.832  49.413  27.132  1.00  0.00     0.007 C 
BRANCH   4   5
HETATM    5  C16 UNL     1      62.691  48.518  27.061  1.00  0.00     0.001 C 
BRANCH   5   6
HETATM    6  C17 UNL     1      61.666  48.674  27.915  1.00  0.00     0.007 C 
BRANCH   6   7
HETATM    7  C18 UNL     1      60.881  47.542  28.443  1.00  0.00    -0.056 C 
HETATM    8  C19 UNL     1      61.255  46.743  29.603  1.00  0.00     0.048 C 
BRANCH   7   9
HETATM    9  C20 UNL     1      59.753  47.240  27.809  1.00  0.00     0.091 C 
BRANCH   9  10
HETATM   10  C21 UNL     1      58.437  47.336  28.376  1.00  0.00     0.199 C 
HETATM   11  O1  UNL     1      57.780  48.410  28.273  1.00  0.00    -0.644 OA
HETATM   12  O2  UNL     1      57.830  46.308  29.043  1.00  0.00    -0.644 OA
ENDBRANCH   9  10
ENDBRANCH   7   9
ENDBRANCH   6   7
ENDBRANCH   5   6
ENDBRANCH   4   5
ENDBRANCH   2   4
ENDBRANCH   1   2
BRANCH   1  13
HETATM   13  C4  UNL     1      65.404  47.242  29.249  1.00  0.00    -0.046 C 
HETATM   14  C5  UNL     1      65.271  46.042  28.368  1.00  0.00     0.040 C 
HETATM   15  C6  UNL     1      66.058  44.864  28.971  1.00  0.00     0.009 C 
HETATM   16  C7  UNL     1      67.326  45.350  29.659  1.00  0.00     0.040 C 
HETATM   17  C8  UNL     1      66.849  46.038  30.878  1.00  0.00    -0.047 A 
HETATM   18  C9  UNL     1      67.328  45.748  32.119  1.00  0.00     0.008 A 
HETATM   19  C14 UNL     1      65.832  46.982  30.643  1.00  0.00    -0.018 A 
HETATM   20  C10 UNL     1      66.769  46.433  33.206  1.00  0.00     0.001 A 
HETATM   21  C11 UNL     1      65.777  47.351  32.976  1.00  0.00     0.007 A 
HETATM   22  C12 UNL     1      65.284  47.647  31.693  1.00  0.00    -0.051 A 
HETATM   23  C13 UNL     1      64.180  48.597  31.494  1.00  0.00     0.049 C 
ENDBRANCH   1  13
TORSDOF 8
ENDMDL
