MODEL 6
REMARK VINA RESULT: -9.202382447      3.013      4.658
REMARK  8 active torsions:
REMARK  status: ('A' for Active; 'I' for Inactive)
REMARK    1  A    between atoms: C2_2  and  C3_3 
REMARK    2  A    between atoms: C2_2  and  C15_15 
REMARK    3  A    between atoms: C3_3  and  C4_4 
REMARK    4  A    between atoms: C15_15  and  C16_16 
REMARK    5  A    between atoms: C16_16  and  C17_17 
REMARK    6  A    between atoms: C17_17  and  C18_18 
REMARK    7  A    between atoms: C18_18  and  C20_20 
REMARK    8  A    between atoms: C20_20  and  C21_21 
ROOT
HETATM    1  C3  UNL     1      66.318  46.764  30.697  1.00  0.00     0.014 C 
ENDROOT
BRANCH   1   2
HETATM    2  C2  UNL     1      66.806  45.964  29.591  1.00  0.00    -0.061 C 
HETATM    3  C1  UNL     1      68.276  45.660  29.367  1.00  0.00     0.048 C 
BRANCH   2   4
HETATM    4  C15 UNL     1      65.957  45.449  28.722  1.00  0.00     0.007 C 
BRANCH   4   5
HETATM    5  C16 UNL     1      64.844  46.188  28.152  1.00  0.00     0.001 C 
BRANCH   5   6
HETATM    6  C17 UNL     1      65.047  46.988  27.092  1.00  0.00     0.007 C 
BRANCH   6   7
HETATM    7  C18 UNL     1      65.397  48.415  27.219  1.00  0.00    -0.056 C 
HETATM    8  C19 UNL     1      66.642  49.009  26.748  1.00  0.00     0.048 C 
BRANCH   7   9
HETATM    9  C20 UNL     1      64.504  49.208  27.804  1.00  0.00     0.091 C 
BRANCH   9  10
HETATM   10  C21 UNL     1      63.120  49.304  27.434  1.00  0.00     0.199 C 
HETATM   11  O1  UNL     1      62.801  49.666  26.266  1.00  0.00    -0.644 OA
HETATM   12  O2  UNL     1      62.092  49.022  28.290  1.00  0.00    -0.644 OA
ENDBRANCH   9  10
ENDBRANCH   7   9
ENDBRANCH   6   7
ENDBRANCH   5   6
ENDBRANCH   4   5
ENDBRANCH   2   4
ENDBRANCH   1   2
BRANCH   1  13
HETATM   13  C4  UNL     1      66.298  46.499  31.969  1.00  0.00    -0.046 C 
HETATM   14  C5  UNL     1      66.749  45.221  32.598  1.00  0.00     0.040 C 
HETATM   15  C6  UNL     1      66.984  45.438  34.105  1.00  0.00     0.009 C 
HETATM   16  C7  UNL     1      67.539  46.830  34.376  1.00  0.00     0.040 C 
HETATM   17  C8  UNL     1      66.402  47.741  34.123  1.00  0.00    -0.047 A 
HETATM   18  C9  UNL     1      65.996  48.675  35.026  1.00  0.00     0.008 A 
HETATM   19  C14 UNL     1      65.757  47.525  32.892  1.00  0.00    -0.018 A 
HETATM   20  C10 UNL     1      64.879  49.452  34.696  1.00  0.00     0.001 A 
HETATM   21  C11 UNL     1      64.249  49.239  33.497  1.00  0.00     0.007 A 
HETATM   22  C12 UNL     1      64.670  48.272  32.567  1.00  0.00    -0.051 A 
HETATM   23  C13 UNL     1      63.934  48.037  31.317  1.00  0.00     0.049 C 
ENDBRANCH   1  13
TORSDOF 8
ENDMDL
