MODEL 12
REMARK VINA RESULT: -8.794442175      3.443      6.804
REMARK  8 active torsions:
REMARK  status: ('A' for Active; 'I' for Inactive)
REMARK    1  A    between atoms: C2_2  and  C3_3 
REMARK    2  A    between atoms: C2_2  and  C15_15 
REMARK    3  A    between atoms: C3_3  and  C4_4 
REMARK    4  A    between atoms: C15_15  and  C16_16 
REMARK    5  A    between atoms: C16_16  and  C17_17 
REMARK    6  A    between atoms: C17_17  and  C18_18 
REMARK    7  A    between atoms: C18_18  and  C20_20 
REMARK    8  A    between atoms: C20_20  and  C21_21 
ROOT
HETATM    1  C3  UNL     1      65.435  47.622  29.619  1.00  0.00     0.014 C 
ENDROOT
BRANCH   1   2
HETATM    2  C2  UNL     1      66.181  46.421  29.298  1.00  0.00    -0.061 C 
HETATM    3  C1  UNL     1      65.635  45.312  28.415  1.00  0.00     0.048 C 
BRANCH   2   4
HETATM    4  C15 UNL     1      67.401  46.255  29.770  1.00  0.00     0.007 C 
BRANCH   4   5
HETATM    5  C16 UNL     1      67.959  47.048  30.850  1.00  0.00     0.001 C 
BRANCH   5   6
HETATM    6  C17 UNL     1      68.218  46.474  32.036  1.00  0.00     0.007 C 
BRANCH   6   7
HETATM    7  C18 UNL     1      67.186  45.793  32.840  1.00  0.00    -0.056 C 
HETATM    8  C19 UNL     1      67.173  44.366  33.137  1.00  0.00     0.048 C 
BRANCH   7   9
HETATM    9  C20 UNL     1      66.202  46.544  33.325  1.00  0.00     0.091 C 
BRANCH   9  10
HETATM   10  C21 UNL     1      66.339  47.491  34.396  1.00  0.00     0.199 C 
HETATM   11  O1  UNL     1      66.643  47.094  35.556  1.00  0.00    -0.644 OA
HETATM   12  O2  UNL     1      66.156  48.837  34.237  1.00  0.00    -0.644 OA
ENDBRANCH   9  10
ENDBRANCH   7   9
ENDBRANCH   6   7
ENDBRANCH   5   6
ENDBRANCH   4   5
ENDBRANCH   2   4
ENDBRANCH   1   2
BRANCH   1  13
HETATM   13  C4  UNL     1      64.538  48.255  28.923  1.00  0.00    -0.046 C 
HETATM   14  C5  UNL     1      64.803  49.398  27.998  1.00  0.00     0.040 C 
HETATM   15  C6  UNL     1      63.605  49.587  27.049  1.00  0.00     0.009 C 
HETATM   16  C7  UNL     1      62.982  48.247  26.683  1.00  0.00     0.040 C 
HETATM   17  C8  UNL     1      62.307  47.799  27.920  1.00  0.00    -0.047 A 
HETATM   18  C9  UNL     1      61.002  47.414  27.945  1.00  0.00     0.008 A 
HETATM   19  C14 UNL     1      63.121  47.847  29.067  1.00  0.00    -0.018 A 
HETATM   20  C10 UNL     1      60.457  47.051  29.184  1.00  0.00     0.001 A 
HETATM   21  C11 UNL     1      61.250  47.101  30.301  1.00  0.00     0.007 A 
HETATM   22  C12 UNL     1      62.598  47.500  30.271  1.00  0.00    -0.051 A 
HETATM   23  C13 UNL     1      63.399  47.594  31.501  1.00  0.00     0.049 C 
ENDBRANCH   1  13
TORSDOF 8
ENDMDL
