MODEL 12
REMARK VINA RESULT: -8.806062165      1.398      1.671
REMARK  5 active torsions:
REMARK  status: ('A' for Active; 'I' for Inactive)
REMARK    1  A    between atoms: C2_2  and  C10_12 
REMARK    2  A    between atoms: C3_3  and  C4_4 
REMARK    3  A    between atoms: C5_5  and  C6_6 
REMARK    4  A    between atoms: C8_8  and  C9_9 
REMARK    5  A    between atoms: C10_12  and  C11_13 
ROOT
HETATM    1  C10 UNL     1      63.115  47.281  31.083  1.00  0.00     0.073 C 
ENDROOT
BRANCH   1   2
HETATM    2  C2  UNL     1      63.183  47.552  29.629  1.00  0.00    -0.080 C 
HETATM    3  C1  UNL     1      64.547  47.933  29.077  1.00  0.00     0.043 C 
HETATM    4  C3  UNL     1      62.187  47.515  28.785  1.00  0.00     0.003 C 
BRANCH   4   5
HETATM    5  C4  UNL     1      60.818  47.154  29.210  1.00  0.00     0.001 C 
HETATM    6  C5  UNL     1      59.780  47.457  28.498  1.00  0.00     0.007 C 
BRANCH   6   7
HETATM    7  C6  UNL     1      58.421  47.119  28.880  1.00  0.00    -0.056 C 
HETATM    8  C7  UNL     1      58.087  45.835  29.483  1.00  0.00     0.048 C 
HETATM    9  C8  UNL     1      57.433  47.985  28.685  1.00  0.00     0.091 C 
BRANCH   9  10
HETATM   10  C9  UNL     1      56.042  47.767  29.024  1.00  0.00     0.199 C 
HETATM   11  O1  UNL     1      55.116  48.468  28.520  1.00  0.00    -0.644 OA
HETATM   12  O2  UNL     1      55.635  46.787  29.912  1.00  0.00    -0.644 OA
ENDBRANCH   9  10
ENDBRANCH   6   7
ENDBRANCH   4   5
ENDBRANCH   1   2
BRANCH   1  13
HETATM   13  C11 UNL     1      64.449  47.364  31.726  1.00  0.00    -0.043 A 
HETATM   14  C12 UNL     1      65.559  46.927  31.017  1.00  0.00     0.008 A 
HETATM   15  C13 UNL     1      66.839  46.998  31.524  1.00  0.00     0.001 A 
HETATM   16  C14 UNL     1      67.069  47.512  32.770  1.00  0.00     0.012 A 
HETATM   17  C15 UNL     1      65.980  47.955  33.499  1.00  0.00    -0.025 A 
HETATM   18  C16 UNL     1      66.144  48.478  34.770  1.00  0.00     0.013 A 
HETATM   19  C21 UNL     1      64.693  47.877  32.974  1.00  0.00    -0.019 A 
HETATM   20  C17 UNL     1      65.095  48.925  35.542  1.00  0.00     0.007 A 
HETATM   21  C18 UNL     1      63.816  48.844  35.013  1.00  0.00    -0.061 A 
HETATM   22  C19 UNL     1      62.648  49.319  35.832  1.00  0.00     0.048 C 
HETATM   23  C20 UNL     1      63.646  48.324  33.748  1.00  0.00     0.019 A 
ENDBRANCH   1  13
TORSDOF 5
ENDMDL
