MODEL 7
REMARK VINA RESULT: -9.070597152      3.257      5.511
REMARK  5 active torsions:
REMARK  status: ('A' for Active; 'I' for Inactive)
REMARK    1  A    between atoms: C2_2  and  C10_12 
REMARK    2  A    between atoms: C3_3  and  C4_4 
REMARK    3  A    between atoms: C5_5  and  C6_6 
REMARK    4  A    between atoms: C8_8  and  C9_9 
REMARK    5  A    between atoms: C10_12  and  C11_13 
ROOT
HETATM    1  C10 UNL     1      66.391  48.263  33.806  1.00  0.00     0.073 C 
ENDROOT
BRANCH   1   2
HETATM    2  C2  UNL     1      65.067  48.684  34.317  1.00  0.00    -0.080 C 
HETATM    3  C1  UNL     1      64.933  48.804  35.826  1.00  0.00     0.043 C 
HETATM    4  C3  UNL     1      64.004  48.940  33.602  1.00  0.00     0.003 C 
BRANCH   4   5
HETATM    5  C4  UNL     1      64.019  48.859  32.126  1.00  0.00     0.001 C 
HETATM    6  C5  UNL     1      63.191  48.106  31.475  1.00  0.00     0.007 C 
BRANCH   6   7
HETATM    7  C6  UNL     1      63.173  48.000  30.028  1.00  0.00    -0.056 C 
HETATM    8  C7  UNL     1      62.802  46.763  29.350  1.00  0.00     0.048 C 
HETATM    9  C8  UNL     1      63.503  49.042  29.274  1.00  0.00     0.091 C 
BRANCH   9  10
HETATM   10  C9  UNL     1      63.522  49.062  27.826  1.00  0.00     0.199 C 
HETATM   11  O1  UNL     1      62.460  49.178  27.147  1.00  0.00    -0.644 OA
HETATM   12  O2  UNL     1      64.691  48.957  27.093  1.00  0.00    -0.644 OA
ENDBRANCH   9  10
ENDBRANCH   6   7
ENDBRANCH   4   5
ENDBRANCH   1   2
BRANCH   1  13
HETATM   13  C11 UNL     1      66.504  46.788  33.707  1.00  0.00    -0.043 A 
HETATM   14  C12 UNL     1      66.600  46.048  34.878  1.00  0.00     0.008 A 
HETATM   15  C13 UNL     1      66.675  44.671  34.881  1.00  0.00     0.001 A 
HETATM   16  C14 UNL     1      66.659  43.968  33.709  1.00  0.00     0.012 A 
HETATM   17  C15 UNL     1      66.564  44.681  32.527  1.00  0.00    -0.025 A 
HETATM   18  C16 UNL     1      66.552  44.029  31.306  1.00  0.00     0.013 A 
HETATM   19  C21 UNL     1      66.489  46.071  32.538  1.00  0.00    -0.019 A 
HETATM   20  C17 UNL     1      66.468  44.689  30.100  1.00  0.00     0.007 A 
HETATM   21  C18 UNL     1      66.394  46.074  30.120  1.00  0.00    -0.061 A 
HETATM   22  C19 UNL     1      66.306  46.825  28.821  1.00  0.00     0.048 C 
HETATM   23  C20 UNL     1      66.406  46.728  31.332  1.00  0.00     0.019 A 
ENDBRANCH   1  13
TORSDOF 5
ENDMDL
