MODEL 1
REMARK VINA RESULT: -11.142342486      0.000      0.000
REMARK  5 active torsions:
REMARK  status: ('A' for Active; 'I' for Inactive)
REMARK    1  A    between atoms: C2_2  and  C10_12 
REMARK    2  A    between atoms: C3_3  and  C4_4 
REMARK    3  A    between atoms: C5_5  and  C6_6 
REMARK    4  A    between atoms: C8_8  and  C9_9 
REMARK    5  A    between atoms: C10_12  and  C11_13 
ROOT
HETATM    1  C10 UNL     1      63.655  48.758  30.079  1.00  0.00     0.073 C 
ENDROOT
BRANCH   1   2
HETATM    2  C2  UNL     1      63.395  48.509  28.643  1.00  0.00    -0.080 C 
HETATM    3  C1  UNL     1      64.363  49.147  27.661  1.00  0.00     0.043 C 
HETATM    4  C3  UNL     1      62.407  47.816  28.141  1.00  0.00     0.003 C 
BRANCH   4   5
HETATM    5  C4  UNL     1      61.407  47.148  29.002  1.00  0.00     0.001 C 
HETATM    6  C5  UNL     1      60.156  47.088  28.674  1.00  0.00     0.007 C 
BRANCH   6   7
HETATM    7  C6  UNL     1      59.145  46.442  29.490  1.00  0.00    -0.056 C 
HETATM    8  C7  UNL     1      59.495  45.610  30.635  1.00  0.00     0.048 C 
HETATM    9  C8  UNL     1      57.856  46.593  29.208  1.00  0.00     0.091 C 
BRANCH   9  10
HETATM   10  C9  UNL     1      56.758  46.004  29.945  1.00  0.00     0.199 C 
HETATM   11  O1  UNL     1      56.223  44.914  29.586  1.00  0.00    -0.644 OA
HETATM   12  O2  UNL     1      56.223  46.586  31.080  1.00  0.00    -0.644 OA
ENDBRANCH   9  10
ENDBRANCH   6   7
ENDBRANCH   4   5
ENDBRANCH   1   2
BRANCH   1  13
HETATM   13  C11 UNL     1      64.625  47.788  30.643  1.00  0.00    -0.043 A 
HETATM   14  C12 UNL     1      65.419  47.056  29.771  1.00  0.00     0.008 A 
HETATM   15  C13 UNL     1      66.369  46.157  30.210  1.00  0.00     0.001 A 
HETATM   16  C14 UNL     1      66.568  45.948  31.546  1.00  0.00     0.012 A 
HETATM   17  C15 UNL     1      65.789  46.665  32.437  1.00  0.00    -0.025 A 
HETATM   18  C16 UNL     1      65.936  46.493  33.803  1.00  0.00     0.013 A 
HETATM   19  C21 UNL     1      64.834  47.569  31.981  1.00  0.00    -0.019 A 
HETATM   20  C17 UNL     1      65.182  47.173  34.733  1.00  0.00     0.007 A 
HETATM   21  C18 UNL     1      64.233  48.071  34.271  1.00  0.00    -0.061 A 
HETATM   22  C19 UNL     1      63.389  48.826  35.260  1.00  0.00     0.048 C 
HETATM   23  C20 UNL     1      64.082  48.247  32.912  1.00  0.00     0.019 A 
ENDBRANCH   1  13
TORSDOF 5
ENDMDL
