MODEL 11
REMARK VINA RESULT: -8.808278061      4.187      6.031
REMARK  5 active torsions:
REMARK  status: ('A' for Active; 'I' for Inactive)
REMARK    1  A    between atoms: C2_2  and  C10_12 
REMARK    2  A    between atoms: C3_3  and  C4_4 
REMARK    3  A    between atoms: C5_5  and  C6_6 
REMARK    4  A    between atoms: C8_8  and  C9_9 
REMARK    5  A    between atoms: C10_12  and  C11_13 
ROOT
HETATM    1  C10 UNL     1      67.314  46.003  32.645  1.00  0.00     0.073 C 
ENDROOT
BRANCH   1   2
HETATM    2  C2  UNL     1      66.714  44.705  32.262  1.00  0.00    -0.080 C 
HETATM    3  C1  UNL     1      66.729  43.615  33.322  1.00  0.00     0.043 C 
HETATM    4  C3  UNL     1      66.197  44.401  31.102  1.00  0.00     0.003 C 
BRANCH   4   5
HETATM    5  C4  UNL     1      66.127  45.382  29.998  1.00  0.00     0.001 C 
HETATM    6  C5  UNL     1      64.996  45.809  29.534  1.00  0.00     0.007 C 
BRANCH   6   7
HETATM    7  C6  UNL     1      64.887  46.772  28.455  1.00  0.00    -0.056 C 
HETATM    8  C7  UNL     1      64.081  46.511  27.267  1.00  0.00     0.048 C 
HETATM    9  C8  UNL     1      65.529  47.932  28.521  1.00  0.00     0.091 C 
BRANCH   9  10
HETATM   10  C9  UNL     1      65.498  48.972  27.513  1.00  0.00     0.199 C 
HETATM   11  O1  UNL     1      64.451  49.647  27.284  1.00  0.00    -0.644 OA
HETATM   12  O2  UNL     1      66.599  49.296  26.740  1.00  0.00    -0.644 OA
ENDBRANCH   9  10
ENDBRANCH   6   7
ENDBRANCH   4   5
ENDBRANCH   1   2
BRANCH   1  13
HETATM   13  C11 UNL     1      66.582  46.642  33.766  1.00  0.00    -0.043 A 
HETATM   14  C12 UNL     1      66.943  46.321  35.067  1.00  0.00     0.008 A 
HETATM   15  C13 UNL     1      66.339  46.892  36.167  1.00  0.00     0.001 A 
HETATM   16  C14 UNL     1      65.342  47.815  36.016  1.00  0.00     0.012 A 
HETATM   17  C15 UNL     1      64.963  48.154  34.730  1.00  0.00    -0.025 A 
HETATM   18  C16 UNL     1      63.954  49.076  34.508  1.00  0.00     0.013 A 
HETATM   19  C21 UNL     1      65.581  47.569  33.628  1.00  0.00    -0.019 A 
HETATM   20  C17 UNL     1      63.531  49.442  33.250  1.00  0.00     0.007 A 
HETATM   21  C18 UNL     1      64.151  48.855  32.158  1.00  0.00    -0.061 A 
HETATM   22  C19 UNL     1      63.710  49.231  30.770  1.00  0.00     0.048 C 
HETATM   23  C20 UNL     1      65.157  47.937  32.371  1.00  0.00     0.019 A 
ENDBRANCH   1  13
TORSDOF 5
ENDMDL
