MODEL 5
REMARK VINA RESULT: -9.810156586      4.319      5.403
REMARK  5 active torsions:
REMARK  status: ('A' for Active; 'I' for Inactive)
REMARK    1  A    between atoms: C2_2  and  C10_12 
REMARK    2  A    between atoms: C3_3  and  C4_4 
REMARK    3  A    between atoms: C5_5  and  C6_6 
REMARK    4  A    between atoms: C8_8  and  C9_9 
REMARK    5  A    between atoms: C10_12  and  C11_13 
ROOT
HETATM    1  C10 UNL     1      65.290  48.158  28.539  1.00  0.00     0.073 C 
ENDROOT
BRANCH   1   2
HETATM    2  C2  UNL     1      63.943  48.773  28.529  1.00  0.00    -0.080 C 
HETATM    3  C1  UNL     1      63.315  48.999  27.163  1.00  0.00     0.043 C 
HETATM    4  C3  UNL     1      63.256  49.156  29.572  1.00  0.00     0.003 C 
BRANCH   4   5
HETATM    5  C4  UNL     1      63.767  48.983  30.948  1.00  0.00     0.001 C 
HETATM    6  C5  UNL     1      63.257  48.114  31.761  1.00  0.00     0.007 C 
BRANCH   6   7
HETATM    7  C6  UNL     1      63.731  47.913  33.117  1.00  0.00    -0.056 C 
HETATM    8  C7  UNL     1      62.982  47.123  34.088  1.00  0.00     0.048 C 
HETATM    9  C8  UNL     1      64.877  48.454  33.516  1.00  0.00     0.091 C 
BRANCH   9  10
HETATM   10  C9  UNL     1      65.455  48.325  34.838  1.00  0.00     0.199 C 
HETATM   11  O1  UNL     1      65.478  49.293  35.653  1.00  0.00    -0.644 OA
HETATM   12  O2  UNL     1      66.016  47.146  35.295  1.00  0.00    -0.644 OA
ENDBRANCH   9  10
ENDBRANCH   6   7
ENDBRANCH   4   5
ENDBRANCH   1   2
BRANCH   1  13
HETATM   13  C11 UNL     1      65.249  46.739  28.968  1.00  0.00    -0.043 A 
HETATM   14  C12 UNL     1      64.473  45.846  28.242  1.00  0.00     0.008 A 
HETATM   15  C13 UNL     1      64.403  44.503  28.550  1.00  0.00     0.001 A 
HETATM   16  C14 UNL     1      65.107  43.991  29.603  1.00  0.00     0.012 A 
HETATM   17  C15 UNL     1      65.888  44.860  30.344  1.00  0.00    -0.025 A 
HETATM   18  C16 UNL     1      66.619  44.405  31.428  1.00  0.00     0.013 A 
HETATM   19  C21 UNL     1      65.950  46.212  30.022  1.00  0.00    -0.019 A 
HETATM   20  C17 UNL     1      67.405  45.227  32.204  1.00  0.00     0.007 A 
HETATM   21  C18 UNL     1      67.462  46.573  31.878  1.00  0.00    -0.061 A 
HETATM   22  C19 UNL     1      68.307  47.498  32.709  1.00  0.00     0.048 C 
HETATM   23  C20 UNL     1      66.736  47.032  30.800  1.00  0.00     0.019 A 
ENDBRANCH   1  13
TORSDOF 5
ENDMDL
