MODEL 2
REMARK VINA RESULT: -7.554509452      4.386      6.338
REMARK  4 active torsions:
REMARK  status: ('A' for Active; 'I' for Inactive)
REMARK    1  A    between atoms: C4_6  and  C5_7 
REMARK    2  A    between atoms: C5_7  and  C6_8 
REMARK    3  A    between atoms: C8_11  and  C9_12 
REMARK    4  A    between atoms: C9_12  and  O1_13 
ROOT
HETATM    1  C1  UNL     1      18.938   7.276  43.961  1.00  0.00     0.089 C 
HETATM    2  C2  UNL     1      19.495   6.669  45.212  1.00  0.00     0.078 A 
HETATM    3  N1  UNL     1      20.603   5.951  45.096  1.00  0.00    -0.355 N 
ATOM      4  H1  UNL     1      21.048   5.825  44.187  1.00  0.00     0.166 HD
HETATM    5  C3  UNL     1      21.131   5.390  46.200  1.00  0.00     0.100 A 
HETATM    6  C4  UNL     1      20.567   5.532  47.449  1.00  0.00     0.003 A 
HETATM    7  C12 UNL     1      19.415   6.284  47.543  1.00  0.00     0.125 A 
HETATM    8  N2  UNL     1      18.756   6.492  48.774  1.00  0.00    -0.082 NA
HETATM    9  N3  UNL     1      18.904   6.840  46.406  1.00  0.00    -0.334 N 
ATOM     10  H3  UNL     1      18.051   7.398  46.463  1.00  0.00     0.168 HD
ENDROOT
BRANCH   6  11
HETATM   11  C5  UNL     1      21.180   4.901  48.620  1.00  0.00     0.083 C 
BRANCH  11  12
HETATM   12  C6  UNL     1      22.236   5.785  49.268  1.00  0.00    -0.040 A 
HETATM   13  C7  UNL     1      22.292   7.122  48.952  1.00  0.00     0.058 A 
HETATM   14  S1  UNL     1      23.594   7.694  49.885  1.00  0.00    -0.103 SA
HETATM   15  C8  UNL     1      24.038   6.236  50.651  1.00  0.00     0.012 A 
HETATM   16  C10 UNL     1      23.140   5.335  50.145  1.00  0.00    -0.040 A 
HETATM   17  C11 UNL     1      23.220   3.892  50.604  1.00  0.00     0.050 C 
BRANCH  15  18
HETATM   18  C9  UNL     1      25.149   6.004  51.644  1.00  0.00     0.210 C 
BRANCH  18  19
HETATM   19  O1  UNL     1      24.626   6.202  52.917  1.00  0.00    -0.396 OA
ATOM     20  H1  UNL     1      25.349   6.406  53.498  1.00  0.00     0.209 HD
ENDBRANCH  18  19
ENDBRANCH  15  18
ENDBRANCH  11  12
ENDBRANCH   6  11
TORSDOF 4
ENDMDL
