MODEL 3
REMARK VINA RESULT: -7.470771478      4.235      6.041
REMARK  4 active torsions:
REMARK  status: ('A' for Active; 'I' for Inactive)
REMARK    1  A    between atoms: C4_6  and  C5_7 
REMARK    2  A    between atoms: C5_7  and  C6_8 
REMARK    3  A    between atoms: C8_11  and  C9_12 
REMARK    4  A    between atoms: C9_12  and  O1_13 
ROOT
HETATM    1  C1  UNL     1      17.605   8.366  45.326  1.00  0.00     0.089 C 
HETATM    2  C2  UNL     1      18.505   7.450  46.096  1.00  0.00     0.078 A 
HETATM    3  N1  UNL     1      18.329   7.388  47.407  1.00  0.00    -0.355 N 
ATOM      4  H1  UNL     1      17.606   7.946  47.861  1.00  0.00     0.166 HD
HETATM    5  C3  UNL     1      19.121   6.575  48.131  1.00  0.00     0.100 A 
HETATM    6  C4  UNL     1      20.109   5.802  47.564  1.00  0.00     0.003 A 
HETATM    7  C12 UNL     1      20.273   5.884  46.197  1.00  0.00     0.125 A 
HETATM    8  N2  UNL     1      21.257   5.135  45.516  1.00  0.00    -0.082 NA
HETATM    9  N3  UNL     1      19.455   6.718  45.491  1.00  0.00    -0.334 N 
ATOM     10  H3  UNL     1      19.567   6.786  44.479  1.00  0.00     0.168 HD
ENDROOT
BRANCH   6  11
HETATM   11  C5  UNL     1      20.946   4.932  48.395  1.00  0.00     0.083 C 
BRANCH  11  12
HETATM   12  C6  UNL     1      22.039   5.703  49.122  1.00  0.00    -0.040 A 
HETATM   13  C7  UNL     1      22.219   7.040  48.858  1.00  0.00     0.058 A 
HETATM   14  S1  UNL     1      23.517   7.471  49.870  1.00  0.00    -0.103 SA
HETATM   15  C8  UNL     1      23.802   5.956  50.601  1.00  0.00     0.012 A 
HETATM   16  C10 UNL     1      22.859   5.150  50.022  1.00  0.00    -0.040 A 
HETATM   17  C11 UNL     1      22.798   3.691  50.431  1.00  0.00     0.050 C 
BRANCH  15  18
HETATM   18  C9  UNL     1      24.842   5.599  51.634  1.00  0.00     0.210 C 
BRANCH  18  19
HETATM   19  O1  UNL     1      24.333   5.945  52.881  1.00  0.00    -0.396 OA
ATOM     20  H1  UNL     1      24.726   6.772  53.134  1.00  0.00     0.209 HD
ENDBRANCH  18  19
ENDBRANCH  15  18
ENDBRANCH  11  12
ENDBRANCH   6  11
TORSDOF 4
ENDMDL
