MODEL 4
REMARK VINA RESULT: -7.226423123      5.005      7.732
REMARK  4 active torsions:
REMARK  status: ('A' for Active; 'I' for Inactive)
REMARK    1  A    between atoms: C4_6  and  C5_7 
REMARK    2  A    between atoms: C5_7  and  C6_8 
REMARK    3  A    between atoms: C8_11  and  C9_12 
REMARK    4  A    between atoms: C9_12  and  O1_13 
ROOT
HETATM    1  C1  UNL     1      26.223   6.854  49.133  1.00  0.00     0.089 C 
HETATM    2  C2  UNL     1      24.783   6.471  48.994  1.00  0.00     0.078 A 
HETATM    3  N1  UNL     1      24.003   7.284  48.297  1.00  0.00    -0.355 N 
ATOM      4  H1  UNL     1      24.382   8.132  47.877  1.00  0.00     0.166 HD
HETATM    5  C3  UNL     1      22.702   6.970  48.152  1.00  0.00     0.100 A 
HETATM    6  C4  UNL     1      22.146   5.836  48.699  1.00  0.00     0.003 A 
HETATM    7  C12 UNL     1      22.977   5.005  49.421  1.00  0.00     0.125 A 
HETATM    8  N2  UNL     1      22.509   3.818  50.024  1.00  0.00    -0.082 NA
HETATM    9  N3  UNL     1      24.292   5.351  49.550  1.00  0.00    -0.334 N 
ATOM     10  H3  UNL     1      24.916   4.744  50.082  1.00  0.00     0.168 HD
ENDROOT
BRANCH   6  11
HETATM   11  C5  UNL     1      20.723   5.539  48.514  1.00  0.00     0.083 C 
BRANCH  11  12
HETATM   12  C6  UNL     1      20.198   6.033  47.174  1.00  0.00    -0.040 A 
HETATM   13  C7  UNL     1      20.810   5.627  46.012  1.00  0.00     0.058 A 
HETATM   14  S1  UNL     1      19.911   6.411  44.798  1.00  0.00    -0.103 SA
HETATM   15  C8  UNL     1      18.786   7.231  45.783  1.00  0.00     0.012 A 
HETATM   16  C10 UNL     1      19.155   6.861  47.049  1.00  0.00    -0.040 A 
HETATM   17  C11 UNL     1      18.366   7.403  48.225  1.00  0.00     0.050 C 
BRANCH  15  18
HETATM   18  C9  UNL     1      17.661   8.141  45.357  1.00  0.00     0.210 C 
BRANCH  18  19
HETATM   19  O1  UNL     1      16.904   7.461  44.410  1.00  0.00    -0.396 OA
ATOM     20  H1  UNL     1      17.255   7.672  43.554  1.00  0.00     0.209 HD
ENDBRANCH  18  19
ENDBRANCH  15  18
ENDBRANCH  11  12
ENDBRANCH   6  11
TORSDOF 4
ENDMDL
