MODEL 1
REMARK VINA RESULT: -7.920192276      0.000      0.000
REMARK  4 active torsions:
REMARK  status: ('A' for Active; 'I' for Inactive)
REMARK    1  A    between atoms: C4_6  and  C5_7 
REMARK    2  A    between atoms: C5_7  and  C6_8 
REMARK    3  A    between atoms: C8_11  and  C9_12 
REMARK    4  A    between atoms: C9_12  and  O1_13 
ROOT
HETATM    1  C1  UNL     1      14.757  11.610  41.813  1.00  0.00     0.089 C 
HETATM    2  C2  UNL     1      15.344  10.844  42.958  1.00  0.00     0.078 A 
HETATM    3  N1  UNL     1      16.240  11.467  43.708  1.00  0.00    -0.355 N 
ATOM      4  H1  UNL     1      16.510  12.430  43.505  1.00  0.00     0.166 HD
HETATM    5  C3  UNL     1      16.790  10.808  44.746  1.00  0.00     0.100 A 
HETATM    6  C4  UNL     1      16.459   9.509  45.060  1.00  0.00     0.003 A 
HETATM    7  C12 UNL     1      15.524   8.881  44.264  1.00  0.00     0.125 A 
HETATM    8  N2  UNL     1      15.114   7.551  44.498  1.00  0.00    -0.082 NA
HETATM    9  N3  UNL     1      14.985   9.576  43.220  1.00  0.00    -0.334 N 
ATOM     10  H3  UNL     1      14.292   9.122  42.624  1.00  0.00     0.168 HD
ENDROOT
BRANCH   6  11
HETATM   11  C5  UNL     1      17.086   8.834  46.200  1.00  0.00     0.083 C 
BRANCH  11  12
HETATM   12  C6  UNL     1      18.224   7.918  45.776  1.00  0.00    -0.040 A 
HETATM   13  C7  UNL     1      18.585   7.849  44.451  1.00  0.00     0.058 A 
HETATM   14  S1  UNL     1      19.863   6.726  44.447  1.00  0.00    -0.103 SA
HETATM   15  C8  UNL     1      19.913   6.370  46.114  1.00  0.00     0.012 A 
HETATM   16  C10 UNL     1      18.913   7.152  46.628  1.00  0.00    -0.040 A 
HETATM   17  C11 UNL     1      18.648   7.106  48.120  1.00  0.00     0.050 C 
BRANCH  15  18
HETATM   18  C9  UNL     1      20.837   5.423  46.840  1.00  0.00     0.210 C 
BRANCH  18  19
HETATM   19  O1  UNL     1      21.232   4.444  45.936  1.00  0.00    -0.396 OA
ATOM     20  H1  UNL     1      20.505   3.843  45.825  1.00  0.00     0.209 HD
ENDBRANCH  18  19
ENDBRANCH  15  18
ENDBRANCH  11  12
ENDBRANCH   6  11
TORSDOF 4
ENDMDL
