MODEL 20
REMARK VINA RESULT: -5.101887593      2.494      6.828
REMARK  8 active torsions:
REMARK  status: ('A' for Active; 'I' for Inactive)
REMARK    1  A    between atoms: N3_4  and  C2_6 
REMARK    2  A    between atoms: C2_6  and  C3_7 
REMARK    3  A    between atoms: C3_7  and  C4_8 
REMARK    4  A    between atoms: C4_8  and  C5_9 
REMARK    5  A    between atoms: C5_9  and  C6_10 
REMARK    6  A    between atoms: C5_9  and  N4_13 
REMARK    7  A    between atoms: C7_14  and  O3_15 
REMARK    8  A    between atoms: C10_19  and  C11_20 
ROOT
HETATM    1  C5  UNL     1       2.814  18.363   2.323  1.00  0.00     0.327 C 
ENDROOT
BRANCH   1   2
HETATM    2  C4  UNL     1       2.789  19.439   3.315  1.00  0.00     0.049 C 
BRANCH   2   3
HETATM    3  C3  UNL     1       3.597  19.305   4.527  1.00  0.00     0.022 C 
BRANCH   3   4
HETATM    4  C2  UNL     1       4.222  20.471   5.176  1.00  0.00     0.122 C 
BRANCH   4   5
HETATM    5  N3  UNL     1       4.252  20.147   6.635  1.00  0.00    -0.367 N 
HETATM    6  C1  UNL     1       3.821  20.994   7.473  1.00  0.00     0.196 C 
HETATM    7  N1  UNL     1       3.308  22.247   7.056  1.00  0.00    -0.067 NA
HETATM    8  N2  UNL     1       3.845  20.702   8.862  1.00  0.00    -0.067 NA
ATOM      9  H3  UNL     1       4.618  19.250   6.953  1.00  0.00     0.161 HD
ENDBRANCH   4   5
ENDBRANCH   3   4
ENDBRANCH   2   3
ENDBRANCH   1   2
BRANCH   1  10
HETATM   10  C6  UNL     1       2.037  17.182   2.685  1.00  0.00     0.207 C 
HETATM   11  O1  UNL     1       1.179  16.756   1.839  1.00  0.00    -0.646 OA
HETATM   12  O2  UNL     1       2.126  16.449   3.851  1.00  0.00    -0.646 OA
ENDBRANCH   1  10
BRANCH   1  13
HETATM   13  N4  UNL     1       2.194  18.833   1.063  1.00  0.00     0.147 N 
HETATM   14  C7  UNL     1       2.217  17.851   0.037  1.00  0.00     0.358 C 
HETATM   15  C8  UNL     1       1.666  18.606  -1.152  1.00  0.00     0.067 C 
HETATM   16  C9  UNL     1       2.120  20.023  -0.886  1.00  0.00     0.051 C 
HETATM   17  C10 UNL     1       2.780  19.979   0.502  1.00  0.00     0.327 C 
BRANCH  14  18
HETATM   18  O3  UNL     1       3.483  17.400  -0.291  1.00  0.00    -0.368 OA
ATOM     19  H3  UNL     1       3.733  16.589   0.137  1.00  0.00     0.212 HD
ENDBRANCH  14  18
BRANCH  17  20
HETATM   20  C11 UNL     1       4.229  20.049   0.399  1.00  0.00     0.207 C 
HETATM   21  O4  UNL     1       5.088  19.823   1.257  1.00  0.00    -0.646 OA
HETATM   22  O5  UNL     1       4.731  20.430  -0.865  1.00  0.00    -0.646 OA
ENDBRANCH  17  20
ENDBRANCH   1  13
TORSDOF 8
ENDMDL
