MODEL 3
REMARK VINA RESULT: -7.907268336      2.566      6.864
REMARK  8 active torsions:
REMARK  status: ('A' for Active; 'I' for Inactive)
REMARK    1  A    between atoms: N3_4  and  C2_6 
REMARK    2  A    between atoms: C2_6  and  C3_7 
REMARK    3  A    between atoms: C3_7  and  C4_8 
REMARK    4  A    between atoms: C4_8  and  C5_9 
REMARK    5  A    between atoms: C5_9  and  C6_10 
REMARK    6  A    between atoms: C5_9  and  N4_13 
REMARK    7  A    between atoms: C7_14  and  O3_15 
REMARK    8  A    between atoms: C10_19  and  C11_20 
ROOT
HETATM    1  C5  UNL     1       3.253  18.807   2.989  1.00  0.00     0.327 C 
ENDROOT
BRANCH   1   2
HETATM    2  C4  UNL     1       3.600  19.938   3.851  1.00  0.00     0.049 C 
BRANCH   2   3
HETATM    3  C3  UNL     1       4.404  19.697   5.048  1.00  0.00     0.022 C 
BRANCH   3   4
HETATM    4  C2  UNL     1       3.827  19.787   6.402  1.00  0.00     0.122 C 
BRANCH   4   5
HETATM    5  N3  UNL     1       3.419  21.215   6.567  1.00  0.00    -0.367 N 
HETATM    6  C1  UNL     1       3.519  21.767   7.704  1.00  0.00     0.196 C 
HETATM    7  N1  UNL     1       4.010  21.055   8.827  1.00  0.00    -0.067 NA
HETATM    8  N2  UNL     1       3.135  23.121   7.878  1.00  0.00    -0.067 NA
ATOM      9  H3  UNL     1       3.064  21.742   5.771  1.00  0.00     0.161 HD
ENDBRANCH   4   5
ENDBRANCH   3   4
ENDBRANCH   2   3
ENDBRANCH   1   2
BRANCH   1  10
HETATM   10  C6  UNL     1       2.159  17.978   3.483  1.00  0.00     0.207 C 
HETATM   11  O1  UNL     1       1.143  18.574   3.983  1.00  0.00    -0.646 OA
HETATM   12  O2  UNL     1       2.082  16.600   3.468  1.00  0.00    -0.646 OA
ENDBRANCH   1  10
BRANCH   1  13
HETATM   13  N4  UNL     1       2.768  19.307   1.682  1.00  0.00     0.147 N 
HETATM   14  C7  UNL     1       2.778  18.309   0.672  1.00  0.00     0.358 C 
HETATM   15  C8  UNL     1       2.382  19.087  -0.563  1.00  0.00     0.067 C 
HETATM   16  C9  UNL     1       2.938  20.465  -0.280  1.00  0.00     0.051 C 
HETATM   17  C10 UNL     1       3.491  20.387   1.153  1.00  0.00     0.327 C 
BRANCH  14  18
HETATM   18  O3  UNL     1       4.020  17.744   0.441  1.00  0.00    -0.368 OA
ATOM     19  H3  UNL     1       4.661  17.917   1.120  1.00  0.00     0.212 HD
ENDBRANCH  14  18
BRANCH  17  20
HETATM   20  C11 UNL     1       4.944  20.330   1.154  1.00  0.00     0.207 C 
HETATM   21  O4  UNL     1       5.691  19.372   0.931  1.00  0.00    -0.646 OA
HETATM   22  O5  UNL     1       5.601  21.543   1.454  1.00  0.00    -0.646 OA
ENDBRANCH  17  20
ENDBRANCH   1  13
TORSDOF 8
ENDMDL
