MODEL 1
REMARK VINA RESULT: -8.079463429      0.000      0.000
REMARK  8 active torsions:
REMARK  status: ('A' for Active; 'I' for Inactive)
REMARK    1  A    between atoms: N3_4  and  C2_6 
REMARK    2  A    between atoms: C2_6  and  C3_7 
REMARK    3  A    between atoms: C3_7  and  C4_8 
REMARK    4  A    between atoms: C4_8  and  C5_9 
REMARK    5  A    between atoms: C5_9  and  C6_10 
REMARK    6  A    between atoms: C5_9  and  N4_13 
REMARK    7  A    between atoms: C7_14  and  O3_15 
REMARK    8  A    between atoms: C10_19  and  C11_20 
ROOT
HETATM    1  C5  UNL     1       3.937  19.393   1.559  1.00  0.00     0.327 C 
ENDROOT
BRANCH   1   2
HETATM    2  C4  UNL     1       2.934  19.386   0.493  1.00  0.00     0.049 C 
BRANCH   2   3
HETATM    3  C3  UNL     1       2.869  18.238  -0.412  1.00  0.00     0.022 C 
BRANCH   3   4
HETATM    4  C2  UNL     1       1.854  18.147  -1.477  1.00  0.00     0.122 C 
BRANCH   4   5
HETATM    5  N3  UNL     1       1.976  19.418  -2.253  1.00  0.00    -0.367 N 
HETATM    6  C1  UNL     1       1.531  19.473  -3.438  1.00  0.00     0.196 C 
HETATM    7  N1  UNL     1       0.918  18.349  -4.047  1.00  0.00    -0.067 NA
HETATM    8  N2  UNL     1       1.639  20.672  -4.189  1.00  0.00    -0.067 NA
ATOM      9  H3  UNL     1       2.413  20.237  -1.832  1.00  0.00     0.161 HD
ENDBRANCH   4   5
ENDBRANCH   3   4
ENDBRANCH   2   3
ENDBRANCH   1   2
BRANCH   1  10
HETATM   10  C6  UNL     1       4.958  20.428   1.427  1.00  0.00     0.207 C 
HETATM   11  O1  UNL     1       6.182  20.061   1.477  1.00  0.00    -0.646 OA
HETATM   12  O2  UNL     1       4.758  21.781   1.243  1.00  0.00    -0.646 OA
ENDBRANCH   1  10
BRANCH   1  13
HETATM   13  N4  UNL     1       3.285  19.690   2.855  1.00  0.00     0.147 N 
HETATM   14  C7  UNL     1       4.215  19.852   3.916  1.00  0.00     0.358 C 
HETATM   15  C8  UNL     1       3.315  20.004   5.121  1.00  0.00     0.067 C 
HETATM   16  C9  UNL     1       2.111  19.170   4.744  1.00  0.00     0.051 C 
HETATM   17  C10 UNL     1       2.372  18.720   3.298  1.00  0.00     0.327 C 
BRANCH  14  18
HETATM   18  O3  UNL     1       5.034  18.757   4.128  1.00  0.00    -0.368 OA
ATOM     19  H3  UNL     1       4.750  18.187   4.833  1.00  0.00     0.212 HD
ENDBRANCH  14  18
BRANCH  17  20
HETATM   20  C11 UNL     1       2.755  17.318   3.243  1.00  0.00     0.207 C 
HETATM   21  O4  UNL     1       3.856  16.797   3.446  1.00  0.00    -0.646 OA
HETATM   22  O5  UNL     1       1.720  16.417   2.910  1.00  0.00    -0.646 OA
ENDBRANCH  17  20
ENDBRANCH   1  13
TORSDOF 8
ENDMDL
