MODEL 4
REMARK VINA RESULT: -7.532467840      2.226      4.003
REMARK  8 active torsions:
REMARK  status: ('A' for Active; 'I' for Inactive)
REMARK    1  A    between atoms: N3_4  and  C2_6 
REMARK    2  A    between atoms: C2_6  and  C3_7 
REMARK    3  A    between atoms: C3_7  and  C4_8 
REMARK    4  A    between atoms: C4_8  and  C5_9 
REMARK    5  A    between atoms: C5_9  and  C6_10 
REMARK    6  A    between atoms: C5_9  and  N4_13 
REMARK    7  A    between atoms: C7_14  and  O3_15 
REMARK    8  A    between atoms: C10_19  and  C11_20 
ROOT
HETATM    1  C5  UNL     1       2.312  18.680  -0.441  1.00  0.00     0.327 C 
ENDROOT
BRANCH   1   2
HETATM    2  C4  UNL     1       2.739  19.190  -1.745  1.00  0.00     0.049 C 
BRANCH   2   3
HETATM    3  C3  UNL     1       1.722  19.617  -2.706  1.00  0.00     0.022 C 
BRANCH   3   4
HETATM    4  C2  UNL     1       0.872  18.646  -3.418  1.00  0.00     0.122 C 
BRANCH   4   5
HETATM    5  N3  UNL     1       1.816  17.665  -4.035  1.00  0.00    -0.367 N 
HETATM    6  C1  UNL     1       1.999  17.676  -5.289  1.00  0.00     0.196 C 
HETATM    7  N1  UNL     1       1.323  18.602  -6.123  1.00  0.00    -0.067 NA
HETATM    8  N2  UNL     1       2.890  16.751  -5.890  1.00  0.00    -0.067 NA
ATOM      9  H3  UNL     1       2.311  16.992  -3.451  1.00  0.00     0.161 HD
ENDBRANCH   4   5
ENDBRANCH   3   4
ENDBRANCH   2   3
ENDBRANCH   1   2
BRANCH   1  10
HETATM   10  C6  UNL     1       2.046  17.246  -0.405  1.00  0.00     0.207 C 
HETATM   11  O1  UNL     1       2.752  16.493  -1.160  1.00  0.00    -0.646 OA
HETATM   12  O2  UNL     1       1.110  16.589   0.368  1.00  0.00    -0.646 OA
ENDBRANCH   1  10
BRANCH   1  13
HETATM   13  N4  UNL     1       3.398  18.873   0.549  1.00  0.00     0.147 N 
HETATM   14  C7  UNL     1       3.003  18.541   1.872  1.00  0.00     0.358 C 
HETATM   15  C8  UNL     1       4.211  18.945   2.686  1.00  0.00     0.067 C 
HETATM   16  C9  UNL     1       4.773  20.105   1.894  1.00  0.00     0.051 C 
HETATM   17  C10 UNL     1       3.910  20.177   0.623  1.00  0.00     0.327 C 
BRANCH  14  18
HETATM   18  O3  UNL     1       1.914  19.256   2.338  1.00  0.00    -0.368 OA
ATOM     19  H3  UNL     1       1.822  19.257   3.283  1.00  0.00     0.212 HD
ENDBRANCH  14  18
BRANCH  17  20
HETATM   20  C11 UNL     1       2.982  21.295   0.680  1.00  0.00     0.207 C 
HETATM   21  O4  UNL     1       1.751  21.299   0.577  1.00  0.00    -0.646 OA
HETATM   22  O5  UNL     1       3.569  22.564   0.881  1.00  0.00    -0.646 OA
ENDBRANCH  17  20
ENDBRANCH   1  13
TORSDOF 8
ENDMDL
