MODEL 2
REMARK VINA RESULT: -8.042302018      1.135      1.426
REMARK  8 active torsions:
REMARK  status: ('A' for Active; 'I' for Inactive)
REMARK    1  A    between atoms: N3_4  and  C2_6 
REMARK    2  A    between atoms: C2_6  and  C3_7 
REMARK    3  A    between atoms: C3_7  and  C4_8 
REMARK    4  A    between atoms: C4_8  and  C5_9 
REMARK    5  A    between atoms: C5_9  and  C6_10 
REMARK    6  A    between atoms: C5_9  and  N4_13 
REMARK    7  A    between atoms: C7_14  and  O3_15 
REMARK    8  A    between atoms: C10_19  and  C11_20 
ROOT
HETATM    1  C5  UNL     1       3.678  19.620   1.224  1.00  0.00     0.327 C 
ENDROOT
BRANCH   1   2
HETATM    2  C4  UNL     1       2.716  20.182   0.276  1.00  0.00     0.049 C 
BRANCH   2   3
HETATM    3  C3  UNL     1       2.806  19.803  -1.134  1.00  0.00     0.022 C 
BRANCH   3   4
HETATM    4  C2  UNL     1       1.677  19.173  -1.842  1.00  0.00     0.122 C 
BRANCH   4   5
HETATM    5  N3  UNL     1       2.292  18.145  -2.737  1.00  0.00    -0.367 N 
HETATM    6  C1  UNL     1       2.046  18.169  -3.980  1.00  0.00     0.196 C 
HETATM    7  N1  UNL     1       1.197  19.155  -4.543  1.00  0.00    -0.067 NA
HETATM    8  N2  UNL     1       2.620  17.200  -4.842  1.00  0.00    -0.067 NA
ATOM      9  H3  UNL     1       2.905  17.429  -2.349  1.00  0.00     0.161 HD
ENDBRANCH   4   5
ENDBRANCH   3   4
ENDBRANCH   2   3
ENDBRANCH   1   2
BRANCH   1  10
HETATM   10  C6  UNL     1       4.915  20.382   1.360  1.00  0.00     0.207 C 
HETATM   11  O1  UNL     1       6.018  19.739   1.280  1.00  0.00    -0.646 OA
HETATM   12  O2  UNL     1       5.042  21.741   1.560  1.00  0.00    -0.646 OA
ENDBRANCH   1  10
BRANCH   1  13
HETATM   13  N4  UNL     1       3.096  19.626   2.586  1.00  0.00     0.147 N 
HETATM   14  C7  UNL     1       3.998  19.144   3.573  1.00  0.00     0.358 C 
HETATM   15  C8  UNL     1       3.140  19.122   4.818  1.00  0.00     0.067 C 
HETATM   16  C9  UNL     1       1.760  18.844   4.266  1.00  0.00     0.051 C 
HETATM   17  C10 UNL     1       1.928  18.863   2.738  1.00  0.00     0.327 C 
BRANCH  14  18
HETATM   18  O3  UNL     1       4.458  17.860   3.347  1.00  0.00    -0.368 OA
ATOM     19  H3  UNL     1       5.207  17.613   3.876  1.00  0.00     0.212 HD
ENDBRANCH  14  18
BRANCH  17  20
HETATM   20  C11 UNL     1       1.891  17.517   2.188  1.00  0.00     0.207 C 
HETATM   21  O4  UNL     1       1.840  17.153   1.008  1.00  0.00    -0.646 OA
HETATM   22  O5  UNL     1       1.915  16.471   3.135  1.00  0.00    -0.646 OA
ENDBRANCH  17  20
ENDBRANCH   1  13
TORSDOF 8
ENDMDL
