MODEL 6
REMARK VINA RESULT: -7.445159995      2.527      6.826
REMARK  8 active torsions:
REMARK  status: ('A' for Active; 'I' for Inactive)
REMARK    1  A    between atoms: N3_4  and  C2_6 
REMARK    2  A    between atoms: C2_6  and  C3_7 
REMARK    3  A    between atoms: C3_7  and  C4_8 
REMARK    4  A    between atoms: C4_8  and  C5_9 
REMARK    5  A    between atoms: C5_9  and  C6_10 
REMARK    6  A    between atoms: C5_9  and  N4_13 
REMARK    7  A    between atoms: C7_14  and  O3_15 
REMARK    8  A    between atoms: C10_19  and  C11_20 
ROOT
HETATM    1  C5  UNL     1       3.272  18.794   3.229  1.00  0.00     0.327 C 
ENDROOT
BRANCH   1   2
HETATM    2  C4  UNL     1       2.580  19.549   4.275  1.00  0.00     0.049 C 
BRANCH   2   3
HETATM    3  C3  UNL     1       3.108  19.517   5.639  1.00  0.00     0.022 C 
BRANCH   3   4
HETATM    4  C2  UNL     1       4.206  20.403   6.067  1.00  0.00     0.122 C 
BRANCH   4   5
HETATM    5  N3  UNL     1       3.545  21.658   6.539  1.00  0.00    -0.367 N 
HETATM    6  C1  UNL     1       3.495  21.911   7.779  1.00  0.00     0.196 C 
HETATM    7  N1  UNL     1       4.055  21.025   8.734  1.00  0.00    -0.067 NA
HETATM    8  N2  UNL     1       2.870  23.097   8.243  1.00  0.00    -0.067 NA
ATOM      9  H3  UNL     1       3.137  22.306   5.866  1.00  0.00     0.161 HD
ENDBRANCH   4   5
ENDBRANCH   3   4
ENDBRANCH   2   3
ENDBRANCH   1   2
BRANCH   1  10
HETATM   10  C6  UNL     1       3.084  17.348   3.295  1.00  0.00     0.207 C 
HETATM   11  O1  UNL     1       4.124  16.623   3.464  1.00  0.00    -0.646 OA
HETATM   12  O2  UNL     1       1.895  16.655   3.205  1.00  0.00    -0.646 OA
ENDBRANCH   1  10
BRANCH   1  13
HETATM   13  N4  UNL     1       2.732  19.170   1.903  1.00  0.00     0.147 N 
HETATM   14  C7  UNL     1       3.098  18.257   0.879  1.00  0.00     0.358 C 
HETATM   15  C8  UNL     1       2.553  18.922  -0.365  1.00  0.00     0.067 C 
HETATM   16  C9  UNL     1       2.651  20.393  -0.025  1.00  0.00     0.051 C 
HETATM   17  C10 UNL     1       3.122  20.435   1.438  1.00  0.00     0.327 C 
BRANCH  14  18
HETATM   18  O3  UNL     1       4.463  18.099   0.717  1.00  0.00    -0.368 OA
ATOM     19  H3  UNL     1       4.970  18.884   0.888  1.00  0.00     0.212 HD
ENDBRANCH  14  18
BRANCH  17  20
HETATM   20  C11 UNL     1       4.522  20.817   1.529  1.00  0.00     0.207 C 
HETATM   21  O4  UNL     1       5.484  20.173   1.962  1.00  0.00    -0.646 OA
HETATM   22  O5  UNL     1       4.833  22.111   1.057  1.00  0.00    -0.646 OA
ENDBRANCH  17  20
ENDBRANCH   1  13
TORSDOF 8
ENDMDL
