MODEL 13
REMARK VINA RESULT: -6.496687267      2.550      6.455
REMARK  8 active torsions:
REMARK  status: ('A' for Active; 'I' for Inactive)
REMARK    1  A    between atoms: N3_4  and  C2_6 
REMARK    2  A    between atoms: C2_6  and  C3_7 
REMARK    3  A    between atoms: C3_7  and  C4_8 
REMARK    4  A    between atoms: C4_8  and  C5_9 
REMARK    5  A    between atoms: C5_9  and  C6_10 
REMARK    6  A    between atoms: C5_9  and  N4_13 
REMARK    7  A    between atoms: C7_14  and  O3_15 
REMARK    8  A    between atoms: C10_19  and  C11_20 
ROOT
HETATM    1  C5  UNL     1       2.965  18.590   1.915  1.00  0.00     0.327 C 
ENDROOT
BRANCH   1   2
HETATM    2  C4  UNL     1       2.609  18.674   3.332  1.00  0.00     0.049 C 
BRANCH   2   3
HETATM    3  C3  UNL     1       3.638  18.416   4.338  1.00  0.00     0.022 C 
BRANCH   3   4
HETATM    4  C2  UNL     1       4.559  19.473   4.795  1.00  0.00     0.122 C 
BRANCH   4   5
HETATM    5  N3  UNL     1       4.428  19.500   6.283  1.00  0.00    -0.367 N 
HETATM    6  C1  UNL     1       3.949  20.526   6.852  1.00  0.00     0.196 C 
HETATM    7  N1  UNL     1       3.533  21.655   6.103  1.00  0.00    -0.067 NA
HETATM    8  N2  UNL     1       3.820  20.568   8.264  1.00  0.00    -0.067 NA
ATOM      9  H3  UNL     1       4.722  18.696   6.838  1.00  0.00     0.161 HD
ENDBRANCH   4   5
ENDBRANCH   3   4
ENDBRANCH   2   3
ENDBRANCH   1   2
BRANCH   1  10
HETATM   10  C6  UNL     1       2.244  17.566   1.165  1.00  0.00     0.207 C 
HETATM   11  O1  UNL     1       1.200  17.062   1.705  1.00  0.00    -0.646 OA
HETATM   12  O2  UNL     1       2.556  17.072  -0.085  1.00  0.00    -0.646 OA
ENDBRANCH   1  10
BRANCH   1  13
HETATM   13  N4  UNL     1       2.607  19.857   1.235  1.00  0.00     0.147 N 
HETATM   14  C7  UNL     1       2.642  19.752  -0.181  1.00  0.00     0.358 C 
HETATM   15  C8  UNL     1       2.381  21.174  -0.622  1.00  0.00     0.067 C 
HETATM   16  C9  UNL     1       2.985  21.987   0.502  1.00  0.00     0.051 C 
HETATM   17  C10 UNL     1       3.422  20.954   1.553  1.00  0.00     0.327 C 
BRANCH  14  18
HETATM   18  O3  UNL     1       3.866  19.362  -0.693  1.00  0.00    -0.368 OA
ATOM     19  H3  UNL     1       4.014  19.623  -1.595  1.00  0.00     0.212 HD
ENDBRANCH  14  18
BRANCH  17  20
HETATM   20  C11 UNL     1       4.866  20.781   1.552  1.00  0.00     0.207 C 
HETATM   21  O4  UNL     1       5.531  19.740   1.578  1.00  0.00    -0.646 OA
HETATM   22  O5  UNL     1       5.622  21.973   1.515  1.00  0.00    -0.646 OA
ENDBRANCH  17  20
ENDBRANCH   1  13
TORSDOF 8
ENDMDL
