MODEL 15
REMARK VINA RESULT: -6.760962172      3.453      7.665
REMARK  10 active torsions:
REMARK  status: ('A' for Active; 'I' for Inactive)
REMARK    1  A    between atoms: N3_4  and  C2_6 
REMARK    2  A    between atoms: C3_7  and  C4_8 
REMARK    3  A    between atoms: C4_8  and  C5_9 
REMARK    4  A    between atoms: C5_9  and  N4_10 
REMARK    5  A    between atoms: C5_9  and  C11_22 
REMARK    6  A    between atoms: N4_10  and  C6_13 
REMARK    7  A    between atoms: C6_13  and  C7_14 
REMARK    8  A    between atoms: C6_13  and  C10_19 
REMARK    9  A    between atoms: C7_14  and  C8_15 
REMARK   10  A    between atoms: C8_15  and  C9_16 
ROOT
HETATM    1  C5  UNL     1      18.146  -6.480  -2.195  1.00  0.00     0.290 C 
ENDROOT
BRANCH   1   2
HETATM    2  C4  UNL     1      19.115  -5.895  -3.235  1.00  0.00     0.072 C 
BRANCH   2   3
HETATM    3  C3  UNL     1      19.862  -6.988  -3.860  1.00  0.00    -0.007 C 
HETATM    4  C2  UNL     1      19.910  -7.106  -5.179  1.00  0.00     0.086 C 
BRANCH   4   5
HETATM    5  N3  UNL     1      20.648  -8.181  -5.727  1.00  0.00    -0.343 N 
HETATM    6  C1  UNL     1      20.929  -8.201  -6.968  1.00  0.00     0.200 C 
HETATM    7  N1  UNL     1      20.505  -7.136  -7.838  1.00  0.00    -0.067 NA
HETATM    8  N2  UNL     1      21.669  -9.267  -7.521  1.00  0.00    -0.067 NA
ATOM      9  H3  UNL     1      20.956  -8.944  -5.124  1.00  0.00     0.167 HD
ENDBRANCH   4   5
ENDBRANCH   2   3
ENDBRANCH   1   2
BRANCH   1  10
HETATM   10  N4  UNL     1      18.927  -7.343  -1.325  1.00  0.00    -0.047 N 
ATOM     11  H42 UNL     1      18.696  -8.322  -1.491  1.00  0.00     0.279 HD
ATOM     12  H41 UNL     1      19.906  -7.346  -1.610  1.00  0.00     0.279 HD
BRANCH  10  13
HETATM   13  C6  UNL     1      18.807  -7.023   0.086  1.00  0.00     0.287 C 
BRANCH  13  14
HETATM   14  C7  UNL     1      18.934  -8.238   0.945  1.00  0.00     0.055 C 
BRANCH  14  15
HETATM   15  C8  UNL     1      19.545  -7.908   2.263  1.00  0.00     0.116 C 
BRANCH  15  16
HETATM   16  C9  UNL     1      18.672  -8.525   3.315  1.00  0.00     0.172 C 
HETATM   17  O1  UNL     1      17.466  -8.718   3.035  1.00  0.00    -0.648 OA
HETATM   18  O2  UNL     1      19.251  -8.844   4.526  1.00  0.00    -0.648 OA
ENDBRANCH  15  16
ENDBRANCH  14  15
ENDBRANCH  13  14
BRANCH  13  19
HETATM   19  C10 UNL     1      17.468  -6.423   0.262  1.00  0.00     0.204 C 
HETATM   20  O3  UNL     1      17.361  -5.162   0.100  1.00  0.00    -0.646 OA
HETATM   21  O4  UNL     1      16.325  -7.104   0.589  1.00  0.00    -0.646 OA
ENDBRANCH  13  19
ENDBRANCH  10  13
ENDBRANCH   1  10
BRANCH   1  22
HETATM   22  C11 UNL     1      17.099  -7.229  -2.915  1.00  0.00     0.205 C 
HETATM   23  O5  UNL     1      16.854  -8.444  -2.664  1.00  0.00    -0.646 OA
HETATM   24  O6  UNL     1      16.323  -6.650  -3.901  1.00  0.00    -0.646 OA
ENDBRANCH   1  22
TORSDOF 10
ENDMDL
