MODEL 1
REMARK VINA RESULT: -8.172330683      0.000      0.000
REMARK  10 active torsions:
REMARK  status: ('A' for Active; 'I' for Inactive)
REMARK    1  A    between atoms: N3_4  and  C2_6 
REMARK    2  A    between atoms: C3_7  and  C4_8 
REMARK    3  A    between atoms: C4_8  and  C5_9 
REMARK    4  A    between atoms: C5_9  and  N4_10 
REMARK    5  A    between atoms: C5_9  and  C11_22 
REMARK    6  A    between atoms: N4_10  and  C6_13 
REMARK    7  A    between atoms: C6_13  and  C7_14 
REMARK    8  A    between atoms: C6_13  and  C10_19 
REMARK    9  A    between atoms: C7_14  and  C8_15 
REMARK   10  A    between atoms: C8_15  and  C9_16 
ROOT
HETATM    1  C5  UNL     1      19.003  -6.139   0.003  1.00  0.00     0.290 C 
ENDROOT
BRANCH   1   2
HETATM    2  C4  UNL     1      18.772  -7.615   0.367  1.00  0.00     0.072 C 
BRANCH   2   3
HETATM    3  C3  UNL     1      17.813  -7.690   1.470  1.00  0.00    -0.007 C 
HETATM    4  C2  UNL     1      18.127  -8.312   2.598  1.00  0.00     0.086 C 
BRANCH   4   5
HETATM    5  N3  UNL     1      17.160  -8.352   3.630  1.00  0.00    -0.343 N 
HETATM    6  C1  UNL     1      17.523  -8.356   4.850  1.00  0.00     0.200 C 
HETATM    7  N1  UNL     1      18.917  -8.320   5.206  1.00  0.00    -0.067 NA
HETATM    8  N2  UNL     1      16.565  -8.390   5.884  1.00  0.00    -0.067 NA
ATOM      9  H3  UNL     1      16.168  -8.378   3.395  1.00  0.00     0.167 HD
ENDBRANCH   4   5
ENDBRANCH   2   3
ENDBRANCH   1   2
BRANCH   1  10
HETATM   10  N4  UNL     1      18.153  -5.846  -1.139  1.00  0.00    -0.047 N 
ATOM     11  H42 UNL     1      17.186  -5.723  -0.842  1.00  0.00     0.279 HD
ATOM     12  H41 UNL     1      18.344  -4.910  -1.496  1.00  0.00     0.279 HD
BRANCH  10  13
HETATM   13  C6  UNL     1      18.239  -6.827  -2.205  1.00  0.00     0.287 C 
BRANCH  13  14
HETATM   14  C7  UNL     1      18.829  -6.248  -3.448  1.00  0.00     0.055 C 
BRANCH  14  15
HETATM   15  C8  UNL     1      19.993  -7.049  -3.920  1.00  0.00     0.116 C 
BRANCH  15  16
HETATM   16  C9  UNL     1      19.868  -7.163  -5.411  1.00  0.00     0.172 C 
HETATM   17  O1  UNL     1      18.939  -6.536  -5.970  1.00  0.00    -0.648 OA
HETATM   18  O2  UNL     1      20.786  -7.952  -6.075  1.00  0.00    -0.648 OA
ENDBRANCH  15  16
ENDBRANCH  14  15
ENDBRANCH  13  14
BRANCH  13  19
HETATM   19  C10 UNL     1      16.854  -7.274  -2.468  1.00  0.00     0.204 C 
HETATM   20  O3  UNL     1      16.693  -8.456  -2.919  1.00  0.00    -0.646 OA
HETATM   21  O4  UNL     1      15.724  -6.526  -2.272  1.00  0.00    -0.646 OA
ENDBRANCH  13  19
ENDBRANCH  10  13
ENDBRANCH   1  10
BRANCH   1  22
HETATM   22  C11 UNL     1      20.432  -5.966  -0.317  1.00  0.00     0.205 C 
HETATM   23  O5  UNL     1      20.970  -4.822  -0.374  1.00  0.00    -0.646 OA
HETATM   24  O6  UNL     1      21.268  -7.038  -0.568  1.00  0.00    -0.646 OA
ENDBRANCH   1  22
TORSDOF 10
ENDMDL
