MODEL 2
REMARK VINA RESULT: -8.024267790      0.907      1.281
REMARK  10 active torsions:
REMARK  status: ('A' for Active; 'I' for Inactive)
REMARK    1  A    between atoms: N3_4  and  C2_6 
REMARK    2  A    between atoms: C3_7  and  C4_8 
REMARK    3  A    between atoms: C4_8  and  C5_9 
REMARK    4  A    between atoms: C5_9  and  N4_10 
REMARK    5  A    between atoms: C5_9  and  C11_22 
REMARK    6  A    between atoms: N4_10  and  C6_13 
REMARK    7  A    between atoms: C6_13  and  C7_14 
REMARK    8  A    between atoms: C6_13  and  C10_19 
REMARK    9  A    between atoms: C7_14  and  C8_15 
REMARK   10  A    between atoms: C8_15  and  C9_16 
ROOT
HETATM    1  C5  UNL     1      19.610  -6.657   0.362  1.00  0.00     0.290 C 
ENDROOT
BRANCH   1   2
HETATM    2  C4  UNL     1      18.770  -7.939   0.484  1.00  0.00     0.072 C 
BRANCH   2   3
HETATM    3  C3  UNL     1      17.857  -7.807   1.620  1.00  0.00    -0.007 C 
HETATM    4  C2  UNL     1      18.059  -8.495   2.734  1.00  0.00     0.086 C 
BRANCH   4   5
HETATM    5  N3  UNL     1      17.144  -8.326   3.799  1.00  0.00    -0.343 N 
HETATM    6  C1  UNL     1      17.553  -8.333   5.004  1.00  0.00     0.200 C 
HETATM    7  N1  UNL     1      18.948  -8.513   5.310  1.00  0.00    -0.067 NA
HETATM    8  N2  UNL     1      16.648  -8.159   6.072  1.00  0.00    -0.067 NA
ATOM      9  H3  UNL     1      16.152  -8.197   3.600  1.00  0.00     0.167 HD
ENDBRANCH   4   5
ENDBRANCH   2   3
ENDBRANCH   1   2
BRANCH   1  10
HETATM   10  N4  UNL     1      18.987  -5.838  -0.664  1.00  0.00    -0.047 N 
ATOM     11  H42 UNL     1      18.224  -5.289  -0.269  1.00  0.00     0.279 HD
ATOM     12  H41 UNL     1      19.611  -5.084  -0.949  1.00  0.00     0.279 HD
BRANCH  10  13
HETATM   13  C6  UNL     1      18.530  -6.587  -1.820  1.00  0.00     0.287 C 
BRANCH  13  14
HETATM   14  C7  UNL     1      19.247  -6.180  -3.065  1.00  0.00     0.055 C 
BRANCH  14  15
HETATM   15  C8  UNL     1      18.594  -6.750  -4.277  1.00  0.00     0.116 C 
BRANCH  15  16
HETATM   16  C9  UNL     1      19.693  -7.193  -5.197  1.00  0.00     0.172 C 
HETATM   17  O1  UNL     1      20.711  -7.714  -4.685  1.00  0.00    -0.648 OA
HETATM   18  O2  UNL     1      19.516  -6.999  -6.552  1.00  0.00    -0.648 OA
ENDBRANCH  15  16
ENDBRANCH  14  15
ENDBRANCH  13  14
BRANCH  13  19
HETATM   19  C10 UNL     1      17.086  -6.300  -1.956  1.00  0.00     0.204 C 
HETATM   20  O3  UNL     1      16.732  -5.076  -2.006  1.00  0.00    -0.646 OA
HETATM   21  O4  UNL     1      16.090  -7.238  -2.029  1.00  0.00    -0.646 OA
ENDBRANCH  13  19
ENDBRANCH  10  13
ENDBRANCH   1  10
BRANCH   1  22
HETATM   22  C11 UNL     1      20.984  -7.044  -0.004  1.00  0.00     0.205 C 
HETATM   23  O5  UNL     1      21.841  -6.191  -0.379  1.00  0.00    -0.646 OA
HETATM   24  O6  UNL     1      21.421  -8.354   0.045  1.00  0.00    -0.646 OA
ENDBRANCH   1  22
TORSDOF 10
ENDMDL
