MODEL 5
REMARK VINA RESULT: -7.522103083      1.124      1.484
REMARK  10 active torsions:
REMARK  status: ('A' for Active; 'I' for Inactive)
REMARK    1  A    between atoms: N3_4  and  C2_6 
REMARK    2  A    between atoms: C3_7  and  C4_8 
REMARK    3  A    between atoms: C4_8  and  C5_9 
REMARK    4  A    between atoms: C5_9  and  N4_10 
REMARK    5  A    between atoms: C5_9  and  C11_22 
REMARK    6  A    between atoms: N4_10  and  C6_13 
REMARK    7  A    between atoms: C6_13  and  C7_14 
REMARK    8  A    between atoms: C6_13  and  C10_19 
REMARK    9  A    between atoms: C7_14  and  C8_15 
REMARK   10  A    between atoms: C8_15  and  C9_16 
ROOT
HETATM    1  C5  UNL     1      19.144  -6.200   0.449  1.00  0.00     0.290 C 
ENDROOT
BRANCH   1   2
HETATM    2  C4  UNL     1      19.091  -7.728   0.618  1.00  0.00     0.072 C 
BRANCH   2   3
HETATM    3  C3  UNL     1      19.514  -8.074   1.975  1.00  0.00    -0.007 C 
HETATM    4  C2  UNL     1      18.628  -8.161   2.958  1.00  0.00     0.086 C 
BRANCH   4   5
HETATM    5  N3  UNL     1      19.095  -8.500   4.249  1.00  0.00    -0.343 N 
HETATM    6  C1  UNL     1      18.304  -8.474   5.246  1.00  0.00     0.200 C 
HETATM    7  N1  UNL     1      16.923  -8.102   5.082  1.00  0.00    -0.067 NA
HETATM    8  N2  UNL     1      18.760  -8.815   6.535  1.00  0.00    -0.067 NA
ATOM      9  H3  UNL     1      20.071  -8.766   4.382  1.00  0.00     0.167 HD
ENDBRANCH   4   5
ENDBRANCH   2   3
ENDBRANCH   1   2
BRANCH   1  10
HETATM   10  N4  UNL     1      17.957  -5.814  -0.295  1.00  0.00    -0.047 N 
ATOM     11  H42 UNL     1      17.158  -5.719   0.331  1.00  0.00     0.279 HD
ATOM     12  H41 UNL     1      18.036  -4.851  -0.621  1.00  0.00     0.279 HD
BRANCH  10  13
HETATM   13  C6  UNL     1      17.638  -6.701  -1.398  1.00  0.00     0.287 C 
BRANCH  13  14
HETATM   14  C7  UNL     1      17.912  -6.065  -2.721  1.00  0.00     0.055 C 
BRANCH  14  15
HETATM   15  C8  UNL     1      18.467  -7.050  -3.692  1.00  0.00     0.116 C 
BRANCH  15  16
HETATM   16  C9  UNL     1      19.284  -6.273  -4.682  1.00  0.00     0.172 C 
HETATM   17  O1  UNL     1      19.552  -5.080  -4.412  1.00  0.00    -0.648 OA
HETATM   18  O2  UNL     1      19.692  -6.922  -5.830  1.00  0.00    -0.648 OA
ENDBRANCH  15  16
ENDBRANCH  14  15
ENDBRANCH  13  14
BRANCH  13  19
HETATM   19  C10 UNL     1      16.198  -7.010  -1.279  1.00  0.00     0.204 C 
HETATM   20  O3  UNL     1      15.427  -6.590  -2.205  1.00  0.00    -0.646 OA
HETATM   21  O4  UNL     1      15.614  -7.707  -0.255  1.00  0.00    -0.646 OA
ENDBRANCH  13  19
ENDBRANCH  10  13
ENDBRANCH   1  10
BRANCH   1  22
HETATM   22  C11 UNL     1      20.382  -5.863  -0.277  1.00  0.00     0.205 C 
HETATM   23  O5  UNL     1      20.852  -4.689  -0.286  1.00  0.00    -0.646 OA
HETATM   24  O6  UNL     1      21.103  -6.806  -0.985  1.00  0.00    -0.646 OA
ENDBRANCH   1  22
TORSDOF 10
ENDMDL
