MODEL 3
REMARK VINA RESULT: -7.686113193      3.278      7.661
REMARK  10 active torsions:
REMARK  status: ('A' for Active; 'I' for Inactive)
REMARK    1  A    between atoms: N3_4  and  C2_6 
REMARK    2  A    between atoms: C3_7  and  C4_8 
REMARK    3  A    between atoms: C4_8  and  C5_9 
REMARK    4  A    between atoms: C5_9  and  N4_10 
REMARK    5  A    between atoms: C5_9  and  C11_22 
REMARK    6  A    between atoms: N4_10  and  C6_13 
REMARK    7  A    between atoms: C6_13  and  C7_14 
REMARK    8  A    between atoms: C6_13  and  C10_19 
REMARK    9  A    between atoms: C7_14  and  C8_15 
REMARK   10  A    between atoms: C8_15  and  C9_16 
ROOT
HETATM    1  C5  UNL     1      18.512  -6.266  -1.775  1.00  0.00     0.290 C 
ENDROOT
BRANCH   1   2
HETATM    2  C4  UNL     1      19.004  -5.806  -3.158  1.00  0.00     0.072 C 
BRANCH   2   3
HETATM    3  C3  UNL     1      19.781  -6.883  -3.771  1.00  0.00    -0.007 C 
HETATM    4  C2  UNL     1      19.777  -7.056  -5.086  1.00  0.00     0.086 C 
BRANCH   4   5
HETATM    5  N3  UNL     1      20.548  -8.114  -5.622  1.00  0.00    -0.343 N 
HETATM    6  C1  UNL     1      20.856  -8.122  -6.857  1.00  0.00     0.200 C 
HETATM    7  N1  UNL     1      20.429  -7.060  -7.731  1.00  0.00    -0.067 NA
HETATM    8  N2  UNL     1      21.628  -9.169  -7.399  1.00  0.00    -0.067 NA
ATOM      9  H3  UNL     1      20.859  -8.873  -5.017  1.00  0.00     0.167 HD
ENDBRANCH   4   5
ENDBRANCH   2   3
ENDBRANCH   1   2
BRANCH   1  10
HETATM   10  N4  UNL     1      19.308  -7.423  -1.405  1.00  0.00    -0.047 N 
ATOM     11  H42 UNL     1      18.748  -8.274  -1.455  1.00  0.00     0.279 HD
ATOM     12  H41 UNL     1      19.998  -7.629  -2.128  1.00  0.00     0.279 HD
BRANCH  10  13
HETATM   13  C6  UNL     1      19.948  -7.309  -0.108  1.00  0.00     0.287 C 
BRANCH  13  14
HETATM   14  C7  UNL     1      18.954  -7.336   1.007  1.00  0.00     0.055 C 
BRANCH  14  15
HETATM   15  C8  UNL     1      19.597  -7.714   2.297  1.00  0.00     0.116 C 
BRANCH  15  16
HETATM   16  C9  UNL     1      18.517  -8.278   3.173  1.00  0.00     0.172 C 
HETATM   17  O1  UNL     1      17.380  -8.436   2.672  1.00  0.00    -0.648 OA
HETATM   18  O2  UNL     1      18.844  -8.591   4.476  1.00  0.00    -0.648 OA
ENDBRANCH  15  16
ENDBRANCH  14  15
ENDBRANCH  13  14
BRANCH  13  19
HETATM   19  C10 UNL     1      20.663  -6.015  -0.111  1.00  0.00     0.204 C 
HETATM   20  O3  UNL     1      21.878  -6.015  -0.497  1.00  0.00    -0.646 OA
HETATM   21  O4  UNL     1      20.133  -4.811   0.270  1.00  0.00    -0.646 OA
ENDBRANCH  13  19
ENDBRANCH  10  13
ENDBRANCH   1  10
BRANCH   1  22
HETATM   22  C11 UNL     1      17.080  -6.597  -1.887  1.00  0.00     0.205 C 
HETATM   23  O5  UNL     1      16.229  -5.754  -2.296  1.00  0.00    -0.646 OA
HETATM   24  O6  UNL     1      16.581  -7.843  -1.557  1.00  0.00    -0.646 OA
ENDBRANCH   1  22
TORSDOF 10
ENDMDL
