MODEL 3
REMARK VINA RESULT: -7.944362057      3.286      7.147
REMARK  8 active torsions:
REMARK  status: ('A' for Active; 'I' for Inactive)
REMARK    1  A    between atoms: N3_4  and  C2_6 
REMARK    2  A    between atoms: C2_6  and  C3_7 
REMARK    3  A    between atoms: C3_7  and  C4_8 
REMARK    4  A    between atoms: C4_8  and  C5_9 
REMARK    5  A    between atoms: C5_9  and  C6_10 
REMARK    6  A    between atoms: C5_9  and  N4_13 
REMARK    7  A    between atoms: C7_14  and  O3_15 
REMARK    8  A    between atoms: C10_19  and  C11_20 
ROOT
HETATM    1  C5  UNL     1      17.427  -7.160  -1.542  1.00  0.00     0.327 C 
ENDROOT
BRANCH   1   2
HETATM    2  C4  UNL     1      18.217  -7.875  -0.512  1.00  0.00     0.049 C 
BRANCH   2   3
HETATM    3  C3  UNL     1      18.231  -7.407   0.889  1.00  0.00     0.022 C 
BRANCH   3   4
HETATM    4  C2  UNL     1      17.277  -7.987   1.859  1.00  0.00     0.122 C 
BRANCH   4   5
HETATM    5  N3  UNL     1      16.602  -6.878   2.571  1.00  0.00    -0.367 N 
HETATM    6  C1  UNL     1      16.391  -6.930   3.827  1.00  0.00     0.196 C 
HETATM    7  N1  UNL     1      16.801  -8.056   4.570  1.00  0.00    -0.067 NA
HETATM    8  N2  UNL     1      15.749  -5.882   4.539  1.00  0.00    -0.067 NA
ATOM      9  H3  UNL     1      16.299  -6.058   2.046  1.00  0.00     0.161 HD
ENDBRANCH   4   5
ENDBRANCH   3   4
ENDBRANCH   2   3
ENDBRANCH   1   2
BRANCH   1  10
HETATM   10  C6  UNL     1      16.479  -6.142  -1.084  1.00  0.00     0.207 C 
HETATM   11  O1  UNL     1      16.662  -4.912  -1.088  1.00  0.00    -0.646 OA
HETATM   12  O2  UNL     1      15.218  -6.567  -0.593  1.00  0.00    -0.646 OA
ENDBRANCH   1  10
BRANCH   1  13
HETATM   13  N4  UNL     1      18.300  -6.549  -2.532  1.00  0.00     0.147 N 
HETATM   14  C7  UNL     1      19.669  -6.869  -2.468  1.00  0.00     0.358 C 
HETATM   15  C8  UNL     1      20.206  -6.380  -3.826  1.00  0.00     0.067 C 
HETATM   16  C9  UNL     1      18.999  -5.887  -4.582  1.00  0.00     0.051 C 
HETATM   17  C10 UNL     1      17.918  -6.755  -3.883  1.00  0.00     0.327 C 
BRANCH  14  18
HETATM   18  O3  UNL     1      19.946  -8.232  -2.437  1.00  0.00    -0.368 OA
ATOM     19  H3  UNL     1      19.507  -8.741  -3.110  1.00  0.00     0.212 HD
ENDBRANCH  14  18
BRANCH  17  20
HETATM   20  C11 UNL     1      16.589  -6.297  -4.284  1.00  0.00     0.207 C 
HETATM   21  O4  UNL     1      15.687  -7.117  -4.544  1.00  0.00    -0.646 OA
HETATM   22  O5  UNL     1      16.313  -4.951  -4.380  1.00  0.00    -0.646 OA
ENDBRANCH  17  20
ENDBRANCH   1  13
TORSDOF 8
ENDMDL
