MODEL 5
REMARK VINA RESULT: -7.501477978      2.850      6.547
REMARK  8 active torsions:
REMARK  status: ('A' for Active; 'I' for Inactive)
REMARK    1  A    between atoms: N3_4  and  C2_6 
REMARK    2  A    between atoms: C2_6  and  C3_7 
REMARK    3  A    between atoms: C3_7  and  C4_8 
REMARK    4  A    between atoms: C4_8  and  C5_9 
REMARK    5  A    between atoms: C5_9  and  C6_10 
REMARK    6  A    between atoms: C5_9  and  N4_13 
REMARK    7  A    between atoms: C7_14  and  O3_15 
REMARK    8  A    between atoms: C10_19  and  C11_20 
ROOT
HETATM    1  C5  UNL     1      17.701  -6.530  -1.729  1.00  0.00     0.327 C 
ENDROOT
BRANCH   1   2
HETATM    2  C4  UNL     1      18.923  -6.564  -0.891  1.00  0.00     0.049 C 
BRANCH   2   3
HETATM    3  C3  UNL     1      19.143  -7.656   0.079  1.00  0.00     0.022 C 
BRANCH   3   4
HETATM    4  C2  UNL     1      18.008  -8.150   0.887  1.00  0.00     0.122 C 
BRANCH   4   5
HETATM    5  N3  UNL     1      17.649  -7.108   1.877  1.00  0.00    -0.367 N 
HETATM    6  C1  UNL     1      16.705  -7.288   2.714  1.00  0.00     0.196 C 
HETATM    7  N1  UNL     1      15.975  -8.495   2.713  1.00  0.00    -0.067 NA
HETATM    8  N2  UNL     1      16.339  -6.309   3.677  1.00  0.00    -0.067 NA
ATOM      9  H3  UNL     1      18.168  -6.230   1.888  1.00  0.00     0.161 HD
ENDBRANCH   4   5
ENDBRANCH   3   4
ENDBRANCH   2   3
ENDBRANCH   1   2
BRANCH   1  10
HETATM   10  C6  UNL     1      16.609  -5.654  -1.300  1.00  0.00     0.207 C 
HETATM   11  O1  UNL     1      16.412  -4.485  -1.677  1.00  0.00    -0.646 OA
HETATM   12  O2  UNL     1      15.662  -6.161  -0.375  1.00  0.00    -0.646 OA
ENDBRANCH   1  10
BRANCH   1  13
HETATM   13  N4  UNL     1      18.029  -6.198  -3.107  1.00  0.00     0.147 N 
HETATM   14  C7  UNL     1      19.391  -6.196  -3.463  1.00  0.00     0.358 C 
HETATM   15  C8  UNL     1      19.351  -6.184  -5.002  1.00  0.00     0.067 C 
HETATM   16  C9  UNL     1      17.891  -6.269  -5.366  1.00  0.00     0.051 C 
HETATM   17  C10 UNL     1      17.375  -6.985  -4.090  1.00  0.00     0.327 C 
BRANCH  14  18
HETATM   18  O3  UNL     1      20.080  -7.358  -3.127  1.00  0.00    -0.368 OA
ATOM     19  H3  UNL     1      21.026  -7.289  -3.183  1.00  0.00     0.212 HD
ENDBRANCH  14  18
BRANCH  17  20
HETATM   20  C11 UNL     1      15.913  -6.987  -4.087  1.00  0.00     0.207 C 
HETATM   21  O4  UNL     1      15.276  -6.338  -4.938  1.00  0.00    -0.646 OA
HETATM   22  O5  UNL     1      15.218  -7.710  -3.142  1.00  0.00    -0.646 OA
ENDBRANCH  17  20
ENDBRANCH   1  13
TORSDOF 8
ENDMDL
