MODEL 15
REMARK VINA RESULT: -6.744418692      0.859      3.158
REMARK  8 active torsions:
REMARK  status: ('A' for Active; 'I' for Inactive)
REMARK    1  A    between atoms: N3_4  and  C2_6 
REMARK    2  A    between atoms: C2_6  and  C3_7 
REMARK    3  A    between atoms: C3_7  and  C4_8 
REMARK    4  A    between atoms: C4_8  and  C5_9 
REMARK    5  A    between atoms: C5_9  and  C6_10 
REMARK    6  A    between atoms: C5_9  and  N4_13 
REMARK    7  A    between atoms: C7_14  and  O3_15 
REMARK    8  A    between atoms: C10_19  and  C11_20 
ROOT
HETATM    1  C5  UNL     1      17.496  -5.887  -4.306  1.00  0.00     0.327 C 
ENDROOT
BRANCH   1   2
HETATM    2  C4  UNL     1      18.800  -6.159  -4.955  1.00  0.00     0.049 C 
BRANCH   2   3
HETATM    3  C3  UNL     1      19.084  -5.662  -6.316  1.00  0.00     0.022 C 
BRANCH   3   4
HETATM    4  C2  UNL     1      18.822  -6.536  -7.479  1.00  0.00     0.122 C 
BRANCH   4   5
HETATM    5  N3  UNL     1      19.916  -7.530  -7.574  1.00  0.00    -0.367 N 
HETATM    6  C1  UNL     1      20.531  -7.734  -8.671  1.00  0.00     0.196 C 
HETATM    7  N1  UNL     1      20.177  -7.010  -9.829  1.00  0.00    -0.067 NA
HETATM    8  N2  UNL     1      21.586  -8.677  -8.794  1.00  0.00    -0.067 NA
ATOM      9  H3  UNL     1      20.182  -8.061  -6.744  1.00  0.00     0.161 HD
ENDBRANCH   4   5
ENDBRANCH   3   4
ENDBRANCH   2   3
ENDBRANCH   1   2
BRANCH   1  10
HETATM   10  C6  UNL     1      16.369  -6.754  -4.657  1.00  0.00     0.207 C 
HETATM   11  O1  UNL     1      15.174  -6.416  -4.722  1.00  0.00    -0.646 OA
HETATM   12  O2  UNL     1      16.635  -8.111  -4.969  1.00  0.00    -0.646 OA
ENDBRANCH   1  10
BRANCH   1  13
HETATM   13  N4  UNL     1      17.629  -5.888  -2.857  1.00  0.00     0.147 N 
HETATM   14  C7  UNL     1      16.505  -6.286  -2.108  1.00  0.00     0.358 C 
HETATM   15  C8  UNL     1      17.088  -6.528  -0.704  1.00  0.00     0.067 C 
HETATM   16  C9  UNL     1      18.573  -6.310  -0.843  1.00  0.00     0.051 C 
HETATM   17  C10 UNL     1      18.717  -6.646  -2.351  1.00  0.00     0.327 C 
BRANCH  14  18
HETATM   18  O3  UNL     1      15.955  -7.506  -2.489  1.00  0.00    -0.368 OA
ATOM     19  H3  UNL     1      15.010  -7.503  -2.584  1.00  0.00     0.212 HD
ENDBRANCH  14  18
BRANCH  17  20
HETATM   20  C11 UNL     1      20.058  -6.285  -2.807  1.00  0.00     0.207 C 
HETATM   21  O4  UNL     1      20.368  -5.091  -2.984  1.00  0.00    -0.646 OA
HETATM   22  O5  UNL     1      21.000  -7.261  -3.047  1.00  0.00    -0.646 OA
ENDBRANCH  17  20
ENDBRANCH   1  13
TORSDOF 8
ENDMDL
