MODEL 12
REMARK VINA RESULT: -7.088563265      1.107      3.319
REMARK  8 active torsions:
REMARK  status: ('A' for Active; 'I' for Inactive)
REMARK    1  A    between atoms: N3_4  and  C2_6 
REMARK    2  A    between atoms: C2_6  and  C3_7 
REMARK    3  A    between atoms: C3_7  and  C4_8 
REMARK    4  A    between atoms: C4_8  and  C5_9 
REMARK    5  A    between atoms: C5_9  and  C6_10 
REMARK    6  A    between atoms: C5_9  and  N4_13 
REMARK    7  A    between atoms: C7_14  and  O3_15 
REMARK    8  A    between atoms: C10_19  and  C11_20 
ROOT
HETATM    1  C5  UNL     1      17.641  -6.067  -4.156  1.00  0.00     0.327 C 
ENDROOT
BRANCH   1   2
HETATM    2  C4  UNL     1      18.069  -7.326  -4.811  1.00  0.00     0.049 C 
BRANCH   2   3
HETATM    3  C3  UNL     1      18.200  -7.406  -6.280  1.00  0.00     0.022 C 
BRANCH   3   4
HETATM    4  C2  UNL     1      19.335  -6.734  -6.947  1.00  0.00     0.122 C 
BRANCH   4   5
HETATM    5  N3  UNL     1      20.285  -7.770  -7.411  1.00  0.00    -0.367 N 
HETATM    6  C1  UNL     1      20.638  -7.845  -8.633  1.00  0.00     0.196 C 
HETATM    7  N1  UNL     1      20.123  -6.933  -9.578  1.00  0.00    -0.067 NA
HETATM    8  N2  UNL     1      21.550  -8.825  -9.109  1.00  0.00    -0.067 NA
ATOM      9  H3  UNL     1      20.665  -8.437  -6.739  1.00  0.00     0.161 HD
ENDBRANCH   4   5
ENDBRANCH   3   4
ENDBRANCH   2   3
ENDBRANCH   1   2
BRANCH   1  10
HETATM   10  C6  UNL     1      16.269  -5.614  -4.390  1.00  0.00     0.207 C 
HETATM   11  O1  UNL     1      15.316  -6.317  -4.770  1.00  0.00    -0.646 OA
HETATM   12  O2  UNL     1      15.962  -4.249  -4.160  1.00  0.00    -0.646 OA
ENDBRANCH   1  10
BRANCH   1  13
HETATM   13  N4  UNL     1      17.853  -6.134  -2.718  1.00  0.00     0.147 N 
HETATM   14  C7  UNL     1      16.768  -6.555  -1.926  1.00  0.00     0.358 C 
HETATM   15  C8  UNL     1      17.425  -6.865  -0.569  1.00  0.00     0.067 C 
HETATM   16  C9  UNL     1      18.902  -6.654  -0.780  1.00  0.00     0.051 C 
HETATM   17  C10 UNL     1      18.959  -6.923  -2.307  1.00  0.00     0.327 C 
BRANCH  14  18
HETATM   18  O3  UNL     1      16.185  -7.753  -2.330  1.00  0.00    -0.368 OA
ATOM     19  H3  UNL     1      16.363  -8.492  -1.759  1.00  0.00     0.212 HD
ENDBRANCH  14  18
BRANCH  17  20
HETATM   20  C11 UNL     1      20.277  -6.553  -2.820  1.00  0.00     0.207 C 
HETATM   21  O4  UNL     1      21.167  -7.414  -2.963  1.00  0.00    -0.646 OA
HETATM   22  O5  UNL     1      20.554  -5.247  -3.156  1.00  0.00    -0.646 OA
ENDBRANCH  17  20
ENDBRANCH   1  13
TORSDOF 8
ENDMDL
