MODEL 4
REMARK VINA RESULT: -7.644470599      2.674      5.896
REMARK  8 active torsions:
REMARK  status: ('A' for Active; 'I' for Inactive)
REMARK    1  A    between atoms: N3_4  and  C2_6 
REMARK    2  A    between atoms: C2_6  and  C3_7 
REMARK    3  A    between atoms: C3_7  and  C4_8 
REMARK    4  A    between atoms: C4_8  and  C5_9 
REMARK    5  A    between atoms: C5_9  and  C6_10 
REMARK    6  A    between atoms: C5_9  and  N4_13 
REMARK    7  A    between atoms: C7_14  and  O3_15 
REMARK    8  A    between atoms: C10_19  and  C11_20 
ROOT
HETATM    1  C5  UNL     1      19.034  -6.371  -2.706  1.00  0.00     0.327 C 
ENDROOT
BRANCH   1   2
HETATM    2  C4  UNL     1      18.990  -7.825  -2.420  1.00  0.00     0.049 C 
BRANCH   2   3
HETATM    3  C3  UNL     1      18.847  -8.318  -1.035  1.00  0.00     0.022 C 
BRANCH   3   4
HETATM    4  C2  UNL     1      18.518  -7.364   0.046  1.00  0.00     0.122 C 
BRANCH   4   5
HETATM    5  N3  UNL     1      17.891  -8.115   1.157  1.00  0.00    -0.367 N 
HETATM    6  C1  UNL     1      16.916  -7.628   1.817  1.00  0.00     0.196 C 
HETATM    7  N1  UNL     1      16.411  -6.350   1.499  1.00  0.00    -0.067 NA
HETATM    8  N2  UNL     1      16.291  -8.324   2.887  1.00  0.00    -0.067 NA
ATOM      9  H3  UNL     1      18.246  -9.040   1.399  1.00  0.00     0.161 HD
ENDBRANCH   4   5
ENDBRANCH   3   4
ENDBRANCH   2   3
ENDBRANCH   1   2
BRANCH   1  10
HETATM   10  C6  UNL     1      20.351  -5.748  -2.849  1.00  0.00     0.207 C 
HETATM   11  O1  UNL     1      20.581  -4.530  -2.950  1.00  0.00    -0.646 OA
HETATM   12  O2  UNL     1      21.495  -6.585  -2.866  1.00  0.00    -0.646 OA
ENDBRANCH   1  10
BRANCH   1  13
HETATM   13  N4  UNL     1      18.256  -6.054  -3.894  1.00  0.00     0.147 N 
HETATM   14  C7  UNL     1      18.932  -6.064  -5.128  1.00  0.00     0.358 C 
HETATM   15  C8  UNL     1      17.786  -6.065  -6.156  1.00  0.00     0.067 C 
HETATM   16  C9  UNL     1      16.519  -6.145  -5.344  1.00  0.00     0.051 C 
HETATM   17  C10 UNL     1      17.094  -6.847  -4.085  1.00  0.00     0.327 C 
BRANCH  14  18
HETATM   18  O3  UNL     1      19.653  -7.226  -5.386  1.00  0.00    -0.368 OA
ATOM     19  H3  UNL     1      20.272  -7.468  -4.707  1.00  0.00     0.212 HD
ENDBRANCH  14  18
BRANCH  17  20
HETATM   20  C11 UNL     1      16.093  -6.841  -3.020  1.00  0.00     0.207 C 
HETATM   21  O4  UNL     1      15.220  -7.728  -2.965  1.00  0.00    -0.646 OA
HETATM   22  O5  UNL     1      16.101  -5.854  -2.059  1.00  0.00    -0.646 OA
ENDBRANCH  17  20
ENDBRANCH   1  13
TORSDOF 8
ENDMDL
