MODEL 5
REMARK VINA RESULT: -9.602929384      2.856      6.789
REMARK  4 active torsions:
REMARK  status: ('A' for Active; 'I' for Inactive)
REMARK    1  A    between atoms: C2_2  and  C10_12 
REMARK    2  A    between atoms: C3_3  and  C4_4 
REMARK    3  A    between atoms: C5_5  and  C6_6 
REMARK    4  A    between atoms: C8_8  and  C9_9 
ROOT
HETATM    1  C10 UNL     1      65.217  47.161  30.084  1.00  0.00     0.014 C 
HETATM    2  C11 UNL     1      64.634  47.619  29.003  1.00  0.00    -0.047 C 
HETATM    3  C12 UNL     1      65.303  48.205  27.873  1.00  0.00     0.040 C 
HETATM    4  C13 UNL     1      64.672  49.627  27.726  1.00  0.00     0.009 C 
HETATM    5  C14 UNL     1      63.242  49.465  27.257  1.00  0.00     0.040 C 
HETATM    6  C15 UNL     1      62.490  48.456  28.036  1.00  0.00    -0.047 A 
HETATM    7  C16 UNL     1      61.120  48.417  27.912  1.00  0.00     0.014 A 
HETATM    8  C17 UNL     1      60.421  47.466  28.640  1.00  0.00    -0.061 A 
HETATM    9  C18 UNL     1      58.944  47.409  28.519  1.00  0.00     0.048 C 
HETATM   10  C19 UNL     1      61.081  46.583  29.468  1.00  0.00     0.007 A 
HETATM   11  C20 UNL     1      62.454  46.615  29.599  1.00  0.00     0.013 A 
HETATM   12  C21 UNL     1      63.139  47.559  28.874  1.00  0.00    -0.024 A 
ENDROOT
BRANCH   1  13
HETATM   13  C2  UNL     1      66.613  47.113  30.426  1.00  0.00    -0.061 C 
HETATM   14  C1  UNL     1      67.753  46.906  29.458  1.00  0.00     0.048 C 
HETATM   15  C3  UNL     1      66.946  47.267  31.694  1.00  0.00     0.007 C 
BRANCH  15  16
HETATM   16  C4  UNL     1      65.992  47.474  32.750  1.00  0.00     0.001 C 
HETATM   17  C5  UNL     1      66.341  47.365  34.033  1.00  0.00     0.007 C 
BRANCH  17  18
HETATM   18  C6  UNL     1      65.464  47.553  35.177  1.00  0.00    -0.056 C 
HETATM   19  C7  UNL     1      65.880  47.296  36.578  1.00  0.00     0.048 C 
HETATM   20  C8  UNL     1      64.222  47.975  34.979  1.00  0.00     0.091 C 
BRANCH  20  21
HETATM   21  C9  UNL     1      63.300  48.183  36.068  1.00  0.00     0.199 C 
HETATM   22  O1  UNL     1      62.881  49.266  36.518  1.00  0.00    -0.644 OA
HETATM   23  O2  UNL     1      62.782  47.049  36.739  1.00  0.00    -0.644 OA
ENDBRANCH  20  21
ENDBRANCH  17  18
ENDBRANCH  15  16
ENDBRANCH   1  13
TORSDOF 4
ENDMDL
