MODEL 7
REMARK VINA RESULT: -9.038247614      2.984      6.470
REMARK  4 active torsions:
REMARK  status: ('A' for Active; 'I' for Inactive)
REMARK    1  A    between atoms: C2_2  and  C10_12 
REMARK    2  A    between atoms: C3_3  and  C4_4 
REMARK    3  A    between atoms: C5_5  and  C6_6 
REMARK    4  A    between atoms: C8_8  and  C9_9 
ROOT
HETATM    1  C10 UNL     1      65.271  47.066  30.105  1.00  0.00     0.014 C 
HETATM    2  C11 UNL     1      64.722  47.565  29.024  1.00  0.00    -0.047 C 
HETATM    3  C12 UNL     1      65.428  48.167  27.926  1.00  0.00     0.040 C 
HETATM    4  C13 UNL     1      64.828  49.605  27.803  1.00  0.00     0.009 C 
HETATM    5  C14 UNL     1      63.406  49.484  27.298  1.00  0.00     0.040 C 
HETATM    6  C15 UNL     1      62.618  48.469  28.032  1.00  0.00    -0.047 A 
HETATM    7  C16 UNL     1      61.250  48.460  27.876  1.00  0.00     0.014 A 
HETATM    8  C17 UNL     1      60.517  47.504  28.562  1.00  0.00    -0.061 A 
HETATM    9  C18 UNL     1      59.042  47.480  28.406  1.00  0.00     0.048 C 
HETATM   10  C19 UNL     1      61.140  46.586  29.380  1.00  0.00     0.007 A 
HETATM   11  C20 UNL     1      62.510  46.588  29.543  1.00  0.00     0.013 A 
HETATM   12  C21 UNL     1      63.229  47.537  28.860  1.00  0.00    -0.024 A 
ENDROOT
BRANCH   1  13
HETATM   13  C2  UNL     1      66.658  46.982  30.477  1.00  0.00    -0.061 C 
HETATM   14  C1  UNL     1      67.828  46.946  29.523  1.00  0.00     0.048 C 
HETATM   15  C3  UNL     1      66.953  46.934  31.762  1.00  0.00     0.007 C 
BRANCH  15  16
HETATM   16  C4  UNL     1      65.966  46.958  32.809  1.00  0.00     0.001 C 
HETATM   17  C5  UNL     1      65.020  47.897  32.850  1.00  0.00     0.007 C 
BRANCH  17  18
HETATM   18  C6  UNL     1      63.977  48.017  33.855  1.00  0.00    -0.056 C 
HETATM   19  C7  UNL     1      62.569  47.606  33.627  1.00  0.00     0.048 C 
HETATM   20  C8  UNL     1      64.278  48.520  35.045  1.00  0.00     0.091 C 
BRANCH  20  21
HETATM   21  C9  UNL     1      63.293  48.667  36.087  1.00  0.00     0.199 C 
HETATM   22  O1  UNL     1      62.707  49.706  36.443  1.00  0.00    -0.644 OA
HETATM   23  O2  UNL     1      62.915  47.518  36.824  1.00  0.00    -0.644 OA
ENDBRANCH  20  21
ENDBRANCH  17  18
ENDBRANCH  15  16
ENDBRANCH   1  13
TORSDOF 4
ENDMDL
