MODEL 1
REMARK VINA RESULT: -11.664640327      0.000      0.000
REMARK  4 active torsions:
REMARK  status: ('A' for Active; 'I' for Inactive)
REMARK    1  A    between atoms: C2_2  and  C10_12 
REMARK    2  A    between atoms: C3_3  and  C4_4 
REMARK    3  A    between atoms: C5_5  and  C6_6 
REMARK    4  A    between atoms: C8_8  and  C9_9 
ROOT
HETATM    1  C10 UNL     1      64.565  48.227  30.109  1.00  0.00     0.014 C 
HETATM    2  C11 UNL     1      65.614  47.668  30.660  1.00  0.00    -0.047 C 
HETATM    3  C12 UNL     1      66.743  47.124  29.955  1.00  0.00     0.040 C 
HETATM    4  C13 UNL     1      66.829  45.636  30.423  1.00  0.00     0.009 C 
HETATM    5  C14 UNL     1      67.263  45.617  31.872  1.00  0.00     0.040 C 
HETATM    6  C15 UNL     1      66.496  46.561  32.716  1.00  0.00    -0.047 A 
HETATM    7  C16 UNL     1      66.584  46.440  34.084  1.00  0.00     0.014 A 
HETATM    8  C17 UNL     1      65.867  47.329  34.870  1.00  0.00    -0.061 A 
HETATM    9  C18 UNL     1      65.950  47.213  36.347  1.00  0.00     0.048 C 
HETATM   10  C19 UNL     1      65.086  48.309  34.297  1.00  0.00     0.007 A 
HETATM   11  C20 UNL     1      64.991  48.438  32.927  1.00  0.00     0.013 A 
HETATM   12  C21 UNL     1      65.705  47.554  32.155  1.00  0.00    -0.024 A 
ENDROOT
BRANCH   1  13
HETATM   13  C2  UNL     1      64.262  48.445  28.719  1.00  0.00    -0.061 C 
HETATM   14  C1  UNL     1      65.167  49.115  27.713  1.00  0.00     0.048 C 
HETATM   15  C3  UNL     1      63.096  48.024  28.266  1.00  0.00     0.007 C 
BRANCH  15  16
HETATM   16  C4  UNL     1      62.113  47.366  29.083  1.00  0.00     0.001 C 
HETATM   17  C5  UNL     1      60.829  47.321  28.724  1.00  0.00     0.007 C 
BRANCH  17  18
HETATM   18  C6  UNL     1      59.754  46.686  29.468  1.00  0.00    -0.056 C 
HETATM   19  C7  UNL     1      59.980  45.803  30.640  1.00  0.00     0.048 C 
HETATM   20  C8  UNL     1      58.498  46.892  29.096  1.00  0.00     0.091 C 
BRANCH  20  21
HETATM   21  C9  UNL     1      57.385  46.294  29.790  1.00  0.00     0.199 C 
HETATM   22  O1  UNL     1      56.711  45.306  29.444  1.00  0.00    -0.644 OA
HETATM   23  O2  UNL     1      56.970  46.864  31.018  1.00  0.00    -0.644 OA
ENDBRANCH  20  21
ENDBRANCH  17  18
ENDBRANCH  15  16
ENDBRANCH   1  13
TORSDOF 4
ENDMDL
