MODEL 8
REMARK VINA RESULT: -8.381545290      3.579      6.778
REMARK  4 active torsions:
REMARK  status: ('A' for Active; 'I' for Inactive)
REMARK    1  A    between atoms: C2_2  and  C10_12 
REMARK    2  A    between atoms: C3_3  and  C4_4 
REMARK    3  A    between atoms: C5_5  and  C6_6 
REMARK    4  A    between atoms: C8_8  and  C9_9 
ROOT
HETATM    1  C10 UNL     1      63.651  47.980  28.273  1.00  0.00     0.014 C 
HETATM    2  C11 UNL     1      63.118  48.110  29.463  1.00  0.00    -0.047 C 
HETATM    3  C12 UNL     1      63.702  48.816  30.572  1.00  0.00     0.040 C 
HETATM    4  C13 UNL     1      63.792  47.757  31.718  1.00  0.00     0.009 C 
HETATM    5  C14 UNL     1      62.387  47.444  32.186  1.00  0.00     0.040 C 
HETATM    6  C15 UNL     1      61.454  47.172  31.070  1.00  0.00    -0.047 A 
HETATM    7  C16 UNL     1      60.237  46.597  31.356  1.00  0.00     0.014 A 
HETATM    8  C17 UNL     1      59.365  46.349  30.307  1.00  0.00    -0.061 A 
HETATM    9  C18 UNL     1      58.049  45.729  30.596  1.00  0.00     0.048 C 
HETATM   10  C19 UNL     1      59.707  46.669  29.011  1.00  0.00     0.007 A 
HETATM   11  C20 UNL     1      60.925  47.245  28.714  1.00  0.00     0.013 A 
HETATM   12  C21 UNL     1      61.783  47.488  29.759  1.00  0.00    -0.024 A 
ENDROOT
BRANCH   1  13
HETATM   13  C2  UNL     1      64.901  48.481  27.765  1.00  0.00    -0.061 C 
HETATM   14  C1  UNL     1      65.062  49.575  26.737  1.00  0.00     0.048 C 
HETATM   15  C3  UNL     1      66.016  47.951  28.231  1.00  0.00     0.007 C 
BRANCH  15  16
HETATM   16  C4  UNL     1      66.050  46.900  29.213  1.00  0.00     0.001 C 
HETATM   17  C5  UNL     1      66.897  46.940  30.243  1.00  0.00     0.007 C 
BRANCH  17  18
HETATM   18  C6  UNL     1      67.017  45.938  31.290  1.00  0.00    -0.056 C 
HETATM   19  C7  UNL     1      66.878  44.481  31.049  1.00  0.00     0.048 C 
HETATM   20  C8  UNL     1      67.263  46.328  32.534  1.00  0.00     0.091 C 
BRANCH  20  21
HETATM   21  C9  UNL     1      67.395  45.388  33.620  1.00  0.00     0.199 C 
HETATM   22  O1  UNL     1      67.980  44.289  33.611  1.00  0.00    -0.644 OA
HETATM   23  O2  UNL     1      66.804  45.710  34.866  1.00  0.00    -0.644 OA
ENDBRANCH  20  21
ENDBRANCH  17  18
ENDBRANCH  15  16
ENDBRANCH   1  13
TORSDOF 4
ENDMDL
