MODEL 3
REMARK VINA RESULT: -10.001390908      1.035      1.402
REMARK  4 active torsions:
REMARK  status: ('A' for Active; 'I' for Inactive)
REMARK    1  A    between atoms: C2_2  and  C10_12 
REMARK    2  A    between atoms: C3_3  and  C4_4 
REMARK    3  A    between atoms: C5_5  and  C6_6 
REMARK    4  A    between atoms: C8_8  and  C9_9 
ROOT
HETATM    1  C10 UNL     1      64.096  47.832  30.306  1.00  0.00     0.014 C 
HETATM    2  C11 UNL     1      65.072  47.747  31.176  1.00  0.00    -0.047 C 
HETATM    3  C12 UNL     1      66.470  47.624  30.860  1.00  0.00     0.040 C 
HETATM    4  C13 UNL     1      66.929  46.311  31.573  1.00  0.00     0.009 C 
HETATM    5  C14 UNL     1      66.914  46.551  33.067  1.00  0.00     0.040 C 
HETATM    6  C15 UNL     1      65.663  47.188  33.536  1.00  0.00    -0.047 A 
HETATM    7  C16 UNL     1      65.397  47.198  34.887  1.00  0.00     0.014 A 
HETATM    8  C17 UNL     1      64.226  47.799  35.322  1.00  0.00    -0.061 A 
HETATM    9  C18 UNL     1      63.923  47.819  36.774  1.00  0.00     0.048 C 
HETATM   10  C19 UNL     1      63.350  48.373  34.426  1.00  0.00     0.007 A 
HETATM   11  C20 UNL     1      63.608  48.369  33.070  1.00  0.00     0.013 A 
HETATM   12  C21 UNL     1      64.770  47.771  32.648  1.00  0.00    -0.024 A 
ENDROOT
BRANCH   1  13
HETATM   13  C2  UNL     1      64.143  47.829  28.868  1.00  0.00    -0.061 C 
HETATM   14  C1  UNL     1      65.383  48.001  28.025  1.00  0.00     0.048 C 
HETATM   15  C3  UNL     1      63.010  47.660  28.212  1.00  0.00     0.007 C 
BRANCH  15  16
HETATM   16  C4  UNL     1      61.735  47.481  28.853  1.00  0.00     0.001 C 
HETATM   17  C5  UNL     1      60.595  47.556  28.165  1.00  0.00     0.007 C 
BRANCH  17  18
HETATM   18  C6  UNL     1      59.256  47.393  28.707  1.00  0.00    -0.056 C 
HETATM   19  C7  UNL     1      58.095  48.214  28.282  1.00  0.00     0.048 C 
HETATM   20  C8  UNL     1      59.040  46.468  29.632  1.00  0.00     0.091 C 
BRANCH  20  21
HETATM   21  C9  UNL     1      57.738  46.252  30.211  1.00  0.00     0.199 C 
HETATM   22  O1  UNL     1      56.771  45.647  29.713  1.00  0.00    -0.644 OA
HETATM   23  O2  UNL     1      57.479  46.774  31.502  1.00  0.00    -0.644 OA
ENDBRANCH  20  21
ENDBRANCH  17  18
ENDBRANCH  15  16
ENDBRANCH   1  13
TORSDOF 4
ENDMDL
