MODEL 6
REMARK VINA RESULT: -8.602757852      3.069      7.067
REMARK  4 active torsions:
REMARK  status: ('A' for Active; 'I' for Inactive)
REMARK    1  A    between atoms: C2_2  and  C10_12 
REMARK    2  A    between atoms: C3_3  and  C4_4 
REMARK    3  A    between atoms: C5_5  and  C6_6 
REMARK    4  A    between atoms: C8_8  and  C9_9 
ROOT
HETATM    1  C10 UNL     1      63.280  46.774  29.395  1.00  0.00     0.014 C 
HETATM    2  C11 UNL     1      62.084  47.260  29.104  1.00  0.00    -0.047 C 
HETATM    3  C12 UNL     1      61.892  48.178  27.960  1.00  0.00     0.040 C 
HETATM    4  C13 UNL     1      60.510  48.822  28.034  1.00  0.00     0.009 C 
HETATM    5  C14 UNL     1      59.450  47.732  28.138  1.00  0.00     0.040 C 
HETATM    6  C15 UNL     1      59.627  47.063  29.479  1.00  0.00    -0.041 A 
HETATM    7  C16 UNL     1      58.520  46.709  30.202  1.00  0.00    -0.055 A 
HETATM    8  C17 UNL     1      57.134  46.898  29.721  1.00  0.00     0.049 C 
HETATM    9  C18 UNL     1      58.703  46.141  31.459  1.00  0.00     0.007 A 
HETATM   10  C19 UNL     1      59.990  45.968  31.902  1.00  0.00     0.001 A 
HETATM   11  C20 UNL     1      61.120  46.334  31.153  1.00  0.00     0.012 A 
HETATM   12  C21 UNL     1      60.918  46.888  29.923  1.00  0.00    -0.023 A 
ENDROOT
BRANCH   1  13
HETATM   13  C2  UNL     1      64.525  47.022  28.719  1.00  0.00    -0.061 C 
HETATM   14  C1  UNL     1      64.845  46.613  27.343  1.00  0.00     0.048 C 
HETATM   15  C3  UNL     1      65.455  47.682  29.408  1.00  0.00     0.007 C 
BRANCH  15  16
HETATM   16  C4  UNL     1      65.285  48.148  30.771  1.00  0.00     0.001 C 
HETATM   17  C5  UNL     1      65.892  47.520  31.781  1.00  0.00     0.007 C 
BRANCH  17  18
HETATM   18  C6  UNL     1      65.816  47.867  33.177  1.00  0.00    -0.056 C 
HETATM   19  C7  UNL     1      66.407  47.019  34.218  1.00  0.00     0.048 C 
HETATM   20  C8  UNL     1      65.195  48.986  33.584  1.00  0.00     0.091 C 
BRANCH  20  21
HETATM   21  C9  UNL     1      65.078  49.401  34.954  1.00  0.00     0.199 C 
HETATM   22  O1  UNL     1      65.983  49.816  35.693  1.00  0.00    -0.644 OA
HETATM   23  O2  UNL     1      63.797  49.335  35.543  1.00  0.00    -0.644 OA
ENDBRANCH  20  21
ENDBRANCH  17  18
ENDBRANCH  15  16
ENDBRANCH   1  13
TORSDOF 4
ENDMDL
