MODEL 3
REMARK VINA RESULT: -10.594146845      1.074      1.491
REMARK  4 active torsions:
REMARK  status: ('A' for Active; 'I' for Inactive)
REMARK    1  A    between atoms: C2_2  and  C10_12 
REMARK    2  A    between atoms: C3_3  and  C4_4 
REMARK    3  A    between atoms: C5_5  and  C6_6 
REMARK    4  A    between atoms: C8_8  and  C9_9 
ROOT
HETATM    1  C10 UNL     1      64.751  49.221  29.443  1.00  0.00     0.014 C 
HETATM    2  C11 UNL     1      65.336  48.169  29.993  1.00  0.00    -0.047 C 
HETATM    3  C12 UNL     1      65.998  47.141  29.159  1.00  0.00     0.040 C 
HETATM    4  C13 UNL     1      66.311  45.908  30.001  1.00  0.00     0.009 C 
HETATM    5  C14 UNL     1      67.117  46.324  31.226  1.00  0.00     0.040 C 
HETATM    6  C15 UNL     1      66.209  47.155  32.098  1.00  0.00    -0.041 A 
HETATM    7  C16 UNL     1      66.255  46.996  33.456  1.00  0.00    -0.055 A 
HETATM    8  C17 UNL     1      67.193  46.079  34.141  1.00  0.00     0.049 C 
HETATM    9  C18 UNL     1      65.373  47.734  34.240  1.00  0.00     0.007 A 
HETATM   10  C19 UNL     1      64.505  48.582  33.602  1.00  0.00     0.001 A 
HETATM   11  C20 UNL     1      64.465  48.739  32.207  1.00  0.00     0.012 A 
HETATM   12  C21 UNL     1      65.338  48.007  31.457  1.00  0.00    -0.023 A 
ENDROOT
BRANCH   1  13
HETATM   13  C2  UNL     1      64.645  49.547  28.046  1.00  0.00    -0.061 C 
HETATM   14  C1  UNL     1      65.764  49.938  27.175  1.00  0.00     0.048 C 
HETATM   15  C3  UNL     1      63.428  49.478  27.510  1.00  0.00     0.007 C 
BRANCH  15  16
HETATM   16  C4  UNL     1      62.232  49.108  28.242  1.00  0.00     0.001 C 
HETATM   17  C5  UNL     1      61.767  47.857  28.190  1.00  0.00     0.007 C 
BRANCH  17  18
HETATM   18  C6  UNL     1      60.599  47.347  28.860  1.00  0.00    -0.056 C 
HETATM   19  C7  UNL     1      59.268  47.404  28.245  1.00  0.00     0.048 C 
HETATM   20  C8  UNL     1      60.681  46.797  30.083  1.00  0.00     0.091 C 
BRANCH  20  21
HETATM   21  C9  UNL     1      59.565  46.267  30.815  1.00  0.00     0.199 C 
HETATM   22  O1  UNL     1      58.528  46.864  31.141  1.00  0.00    -0.644 OA
HETATM   23  O2  UNL     1      59.638  44.917  31.218  1.00  0.00    -0.644 OA
ENDBRANCH  20  21
ENDBRANCH  17  18
ENDBRANCH  15  16
ENDBRANCH   1  13
TORSDOF 4
ENDMDL
