MODEL 2
REMARK VINA RESULT: -10.818107705      0.719      1.030
REMARK  4 active torsions:
REMARK  status: ('A' for Active; 'I' for Inactive)
REMARK    1  A    between atoms: C2_2  and  C10_12 
REMARK    2  A    between atoms: C3_3  and  C4_4 
REMARK    3  A    between atoms: C5_5  and  C6_6 
REMARK    4  A    between atoms: C8_8  and  C9_9 
ROOT
HETATM    1  C10 UNL     1      64.262  48.688  29.607  1.00  0.00     0.014 C 
HETATM    2  C11 UNL     1      65.094  47.879  30.241  1.00  0.00    -0.047 C 
HETATM    3  C12 UNL     1      66.019  46.997  29.495  1.00  0.00     0.040 C 
HETATM    4  C13 UNL     1      66.632  45.966  30.439  1.00  0.00     0.009 C 
HETATM    5  C14 UNL     1      67.277  46.682  31.619  1.00  0.00     0.040 C 
HETATM    6  C15 UNL     1      66.166  47.313  32.421  1.00  0.00    -0.041 A 
HETATM    7  C16 UNL     1      66.228  47.286  33.788  1.00  0.00    -0.055 A 
HETATM    8  C17 UNL     1      67.362  46.711  34.545  1.00  0.00     0.049 C 
HETATM    9  C18 UNL     1      65.168  47.827  34.511  1.00  0.00     0.007 A 
HETATM   10  C19 UNL     1      64.119  48.358  33.806  1.00  0.00     0.001 A 
HETATM   11  C20 UNL     1      64.063  48.381  32.403  1.00  0.00     0.012 A 
HETATM   12  C21 UNL     1      65.113  47.847  31.714  1.00  0.00    -0.023 A 
ENDROOT
BRANCH   1  13
HETATM   13  C2  UNL     1      64.099  48.856  28.188  1.00  0.00    -0.061 C 
HETATM   14  C1  UNL     1      65.179  49.152  27.235  1.00  0.00     0.048 C 
HETATM   15  C3  UNL     1      62.862  48.724  27.711  1.00  0.00     0.007 C 
BRANCH  15  16
HETATM   16  C4  UNL     1      61.699  48.433  28.527  1.00  0.00     0.001 C 
HETATM   17  C5  UNL     1      60.563  48.016  27.962  1.00  0.00     0.007 C 
BRANCH  17  18
HETATM   18  C6  UNL     1      59.335  47.691  28.641  1.00  0.00    -0.056 C 
HETATM   19  C7  UNL     1      58.069  48.355  28.309  1.00  0.00     0.048 C 
HETATM   20  C8  UNL     1      59.299  46.764  29.612  1.00  0.00     0.091 C 
BRANCH  20  21
HETATM   21  C9  UNL     1      58.117  46.384  30.333  1.00  0.00     0.199 C 
HETATM   22  O1  UNL     1      57.131  45.777  29.891  1.00  0.00    -0.644 OA
HETATM   23  O2  UNL     1      58.053  46.732  31.699  1.00  0.00    -0.644 OA
ENDBRANCH  20  21
ENDBRANCH  17  18
ENDBRANCH  15  16
ENDBRANCH   1  13
TORSDOF 4
ENDMDL
