MODEL 7
REMARK VINA RESULT: -8.403437810      3.516      7.241
REMARK  4 active torsions:
REMARK  status: ('A' for Active; 'I' for Inactive)
REMARK    1  A    between atoms: C2_2  and  C10_12 
REMARK    2  A    between atoms: C3_3  and  C4_4 
REMARK    3  A    between atoms: C5_5  and  C6_6 
REMARK    4  A    between atoms: C8_8  and  C9_9 
ROOT
HETATM    1  C10 UNL     1      63.459  46.990  29.347  1.00  0.00     0.014 C 
HETATM    2  C11 UNL     1      62.212  47.347  29.084  1.00  0.00    -0.047 C 
HETATM    3  C12 UNL     1      61.873  48.083  27.846  1.00  0.00     0.040 C 
HETATM    4  C13 UNL     1      60.452  48.632  27.938  1.00  0.00     0.009 C 
HETATM    5  C14 UNL     1      59.491  47.495  28.263  1.00  0.00     0.040 C 
HETATM    6  C15 UNL     1      59.807  47.031  29.664  1.00  0.00    -0.041 A 
HETATM    7  C16 UNL     1      58.781  46.702  30.508  1.00  0.00    -0.055 A 
HETATM    8  C17 UNL     1      57.355  46.726  30.110  1.00  0.00     0.049 C 
HETATM    9  C18 UNL     1      59.089  46.326  31.811  1.00  0.00     0.007 A 
HETATM   10  C19 UNL     1      60.410  46.306  32.176  1.00  0.00     0.001 A 
HETATM   11  C20 UNL     1      61.457  46.644  31.303  1.00  0.00     0.012 A 
HETATM   12  C21 UNL     1      61.133  47.009  30.030  1.00  0.00    -0.023 A 
ENDROOT
BRANCH   1  13
HETATM   13  C2  UNL     1      64.634  47.229  28.553  1.00  0.00    -0.061 C 
HETATM   14  C1  UNL     1      64.709  47.129  27.088  1.00  0.00     0.048 C 
HETATM   15  C3  UNL     1      65.738  47.574  29.215  1.00  0.00     0.007 C 
BRANCH  15  16
HETATM   16  C4  UNL     1      65.817  47.713  30.656  1.00  0.00     0.001 C 
HETATM   17  C5  UNL     1      66.885  47.267  31.321  1.00  0.00     0.007 C 
BRANCH  17  18
HETATM   18  C6  UNL     1      67.102  47.335  32.744  1.00  0.00    -0.056 C 
HETATM   19  C7  UNL     1      68.426  47.114  33.335  1.00  0.00     0.048 C 
HETATM   20  C8  UNL     1      66.094  47.604  33.590  1.00  0.00     0.091 C 
BRANCH  20  21
HETATM   21  C9  UNL     1      66.229  47.690  35.017  1.00  0.00     0.199 C 
HETATM   22  O1  UNL     1      66.451  46.761  35.807  1.00  0.00    -0.644 OA
HETATM   23  O2  UNL     1      66.097  48.966  35.604  1.00  0.00    -0.644 OA
ENDBRANCH  20  21
ENDBRANCH  17  18
ENDBRANCH  15  16
ENDBRANCH   1  13
TORSDOF 4
ENDMDL
