MODEL 1
REMARK VINA RESULT: -11.575362862      0.000      0.000
REMARK  4 active torsions:
REMARK  status: ('A' for Active; 'I' for Inactive)
REMARK    1  A    between atoms: C2_2  and  C10_12 
REMARK    2  A    between atoms: C3_3  and  C4_4 
REMARK    3  A    between atoms: C5_5  and  C6_6 
REMARK    4  A    between atoms: C8_8  and  C9_9 
ROOT
HETATM    1  C10 UNL     1      64.350  48.859  29.814  1.00  0.00     0.014 C 
HETATM    2  C11 UNL     1      65.222  47.980  30.282  1.00  0.00    -0.047 C 
HETATM    3  C12 UNL     1      65.977  47.094  29.369  1.00  0.00     0.040 C 
HETATM    4  C13 UNL     1      66.664  45.988  30.166  1.00  0.00     0.009 C 
HETATM    5  C14 UNL     1      67.514  46.612  31.266  1.00  0.00     0.040 C 
HETATM    6  C15 UNL     1      66.568  47.253  32.251  1.00  0.00    -0.041 A 
HETATM    7  C16 UNL     1      66.828  47.154  33.591  1.00  0.00    -0.055 A 
HETATM    8  C17 UNL     1      68.028  46.488  34.145  1.00  0.00     0.049 C 
HETATM    9  C18 UNL     1      65.917  47.707  34.486  1.00  0.00     0.007 A 
HETATM   10  C19 UNL     1      64.806  48.323  33.969  1.00  0.00     0.001 A 
HETATM   11  C20 UNL     1      64.548  48.420  32.593  1.00  0.00     0.012 A 
HETATM   12  C21 UNL     1      65.454  47.872  31.733  1.00  0.00    -0.023 A 
ENDROOT
BRANCH   1  13
HETATM   13  C2  UNL     1      63.991  49.106  28.443  1.00  0.00    -0.061 C 
HETATM   14  C1  UNL     1      64.780  49.892  27.483  1.00  0.00     0.048 C 
HETATM   15  C3  UNL     1      62.847  48.567  28.022  1.00  0.00     0.007 C 
BRANCH  15  16
HETATM   16  C4  UNL     1      61.966  47.769  28.851  1.00  0.00     0.001 C 
HETATM   17  C5  UNL     1      60.652  47.741  28.611  1.00  0.00     0.007 C 
BRANCH  17  18
HETATM   18  C6  UNL     1      59.661  46.999  29.346  1.00  0.00    -0.056 C 
HETATM   19  C7  UNL     1      60.033  46.016  30.371  1.00  0.00     0.048 C 
HETATM   20  C8  UNL     1      58.349  47.176  29.121  1.00  0.00     0.091 C 
BRANCH  20  21
HETATM   21  C9  UNL     1      57.301  46.477  29.812  1.00  0.00     0.199 C 
HETATM   22  O1  UNL     1      56.670  45.487  29.413  1.00  0.00    -0.644 OA
HETATM   23  O2  UNL     1      56.935  46.956  31.087  1.00  0.00    -0.644 OA
ENDBRANCH  20  21
ENDBRANCH  17  18
ENDBRANCH  15  16
ENDBRANCH   1  13
TORSDOF 4
ENDMDL
