MODEL 5
REMARK VINA RESULT: -8.680008222      3.617      7.209
REMARK  4 active torsions:
REMARK  status: ('A' for Active; 'I' for Inactive)
REMARK    1  A    between atoms: C2_2  and  C10_12 
REMARK    2  A    between atoms: C3_3  and  C4_4 
REMARK    3  A    between atoms: C5_5  and  C6_6 
REMARK    4  A    between atoms: C8_8  and  C9_9 
ROOT
HETATM    1  C10 UNL     1      63.233  46.910  29.403  1.00  0.00     0.014 C 
HETATM    2  C11 UNL     1      62.009  47.316  29.107  1.00  0.00    -0.047 C 
HETATM    3  C12 UNL     1      61.754  48.177  27.931  1.00  0.00     0.040 C 
HETATM    4  C13 UNL     1      60.338  48.743  27.996  1.00  0.00     0.009 C 
HETATM    5  C14 UNL     1      59.344  47.598  28.151  1.00  0.00     0.040 C 
HETATM    6  C15 UNL     1      59.570  46.992  29.514  1.00  0.00    -0.041 A 
HETATM    7  C16 UNL     1      58.491  46.603  30.261  1.00  0.00    -0.055 A 
HETATM    8  C17 UNL     1      57.092  46.693  29.787  1.00  0.00     0.049 C 
HETATM    9  C18 UNL     1      58.717  46.094  31.536  1.00  0.00     0.007 A 
HETATM   10  C19 UNL     1      60.014  46.012  31.972  1.00  0.00     0.001 A 
HETATM   11  C20 UNL     1      61.115  46.413  31.199  1.00  0.00     0.012 A 
HETATM   12  C21 UNL     1      60.872  46.909  29.951  1.00  0.00    -0.023 A 
ENDROOT
BRANCH   1  13
HETATM   13  C2  UNL     1      64.456  47.203  28.707  1.00  0.00    -0.061 C 
HETATM   14  C1  UNL     1      64.781  46.776  27.337  1.00  0.00     0.048 C 
HETATM   15  C3  UNL     1      65.359  47.927  29.367  1.00  0.00     0.007 C 
BRANCH  15  16
HETATM   16  C4  UNL     1      65.180  48.419  30.719  1.00  0.00     0.001 C 
HETATM   17  C5  UNL     1      65.376  47.612  31.765  1.00  0.00     0.007 C 
BRANCH  17  18
HETATM   18  C6  UNL     1      65.237  47.959  33.156  1.00  0.00    -0.056 C 
HETATM   19  C7  UNL     1      63.933  47.949  33.828  1.00  0.00     0.048 C 
HETATM   20  C8  UNL     1      66.301  48.308  33.897  1.00  0.00     0.091 C 
BRANCH  20  21
HETATM   21  C9  UNL     1      66.245  48.666  35.286  1.00  0.00     0.199 C 
HETATM   22  O1  UNL     1      65.925  49.763  35.767  1.00  0.00    -0.644 OA
HETATM   23  O2  UNL     1      66.589  47.671  36.225  1.00  0.00    -0.644 OA
ENDBRANCH  20  21
ENDBRANCH  17  18
ENDBRANCH  15  16
ENDBRANCH   1  13
TORSDOF 4
ENDMDL
