MODEL 1
REMARK VINA RESULT: -5.958820587      0.000      0.000
REMARK  3 active torsions:
REMARK  status: ('A' for Active; 'I' for Inactive)
REMARK    1  A    between atoms: C2_2  and  C3_3 
REMARK    2  A    between atoms: C2_2  and  C4_5 
REMARK       I    between atoms: C4_5  and  N1_7 
REMARK    3  A    between atoms: C8_11  and  C9_12 
ROOT
HETATM    1  C4  UNL     1      15.762  22.089  -7.951  1.00  0.00     0.225 C 
HETATM    2  O1  UNL     1      15.734  23.120  -8.666  1.00  0.00    -0.273 OA
HETATM    3  N1  UNL     1      16.965  21.725  -7.296  1.00  0.00    -0.337 N 
HETATM    4  C5  UNL     1      17.158  20.565  -6.439  1.00  0.00     0.127 C 
HETATM    5  C6  UNL     1      18.020  21.210  -5.343  1.00  0.00     0.022 C 
HETATM    6  C7  UNL     1      19.077  21.843  -6.225  1.00  0.00     0.038 C 
HETATM    7  C8  UNL     1      18.235  22.421  -7.342  1.00  0.00     0.188 C 
ENDROOT
BRANCH   1   8
HETATM    8  C2  UNL     1      14.522  21.289  -7.823  1.00  0.00     0.084 C 
HETATM    9  C1  UNL     1      13.634  21.362  -9.024  1.00  0.00     0.020 C 
BRANCH   8  10
HETATM   10  C3  UNL     1      13.774  21.647  -6.567  1.00  0.00     0.099 C 
HETATM   11  S1  UNL     1      11.993  21.679  -6.847  1.00  0.00    -0.097 SA
ENDBRANCH   8  10
ENDBRANCH   1   8
BRANCH   7  12
HETATM   12  C9  UNL     1      18.883  22.165  -8.673  1.00  0.00     0.196 C 
HETATM   13  O2  UNL     1      19.319  23.143  -9.299  1.00  0.00    -0.646 OA
HETATM   14  O3  UNL     1      18.993  20.890  -9.194  1.00  0.00    -0.646 OA
ENDBRANCH   7  12
TORSDOF 3
ENDMDL
