MODEL 3
REMARK VINA RESULT: -5.661022048      3.028      3.982
REMARK  3 active torsions:
REMARK  status: ('A' for Active; 'I' for Inactive)
REMARK    1  A    between atoms: C2_2  and  C3_3 
REMARK    2  A    between atoms: C2_2  and  C4_5 
REMARK       I    between atoms: C4_5  and  N1_7 
REMARK    3  A    between atoms: C8_11  and  C9_12 
ROOT
HETATM    1  C4  UNL     1      17.429  19.986  -5.942  1.00  0.00     0.225 C 
HETATM    2  O1  UNL     1      16.963  18.831  -5.792  1.00  0.00    -0.273 OA
HETATM    3  N1  UNL     1      18.502  20.196  -6.845  1.00  0.00    -0.337 N 
HETATM    4  C5  UNL     1      19.150  21.468  -7.127  1.00  0.00     0.127 C 
HETATM    5  C6  UNL     1      19.313  21.328  -8.648  1.00  0.00     0.022 C 
HETATM    6  C7  UNL     1      19.982  19.969  -8.683  1.00  0.00     0.038 C 
HETATM    7  C8  UNL     1      19.168  19.202  -7.663  1.00  0.00     0.188 C 
ENDROOT
BRANCH   1   8
HETATM    8  C2  UNL     1      16.832  21.092  -5.159  1.00  0.00     0.084 C 
HETATM    9  C1  UNL     1      17.074  20.984  -3.687  1.00  0.00     0.020 C 
BRANCH   8  10
HETATM   10  C3  UNL     1      15.365  21.240  -5.462  1.00  0.00     0.099 C 
HETATM   11  S1  UNL     1      15.087  21.640  -7.198  1.00  0.00    -0.097 SA
ENDBRANCH   8  10
ENDBRANCH   1   8
BRANCH   7  12
HETATM   12  C9  UNL     1      20.066  18.374  -6.790  1.00  0.00     0.196 C 
HETATM   13  O2  UNL     1      20.944  18.965  -6.143  1.00  0.00    -0.646 OA
HETATM   14  O3  UNL     1      19.930  17.003  -6.702  1.00  0.00    -0.646 OA
ENDBRANCH   7  12
TORSDOF 3
ENDMDL
