MODEL 7
REMARK VINA RESULT: -5.461420991      2.960      4.646
REMARK  3 active torsions:
REMARK  status: ('A' for Active; 'I' for Inactive)
REMARK    1  A    between atoms: C2_2  and  C3_3 
REMARK    2  A    between atoms: C2_2  and  C4_5 
REMARK       I    between atoms: C4_5  and  N1_7 
REMARK    3  A    between atoms: C8_11  and  C9_12 
ROOT
HETATM    1  C4  UNL     1      18.834  20.367  -7.176  1.00  0.00     0.225 C 
HETATM    2  O1  UNL     1      18.775  20.310  -8.428  1.00  0.00    -0.273 OA
HETATM    3  N1  UNL     1      17.779  20.981  -6.454  1.00  0.00    -0.337 N 
HETATM    4  C5  UNL     1      17.700  21.127  -5.008  1.00  0.00     0.127 C 
HETATM    5  C6  UNL     1      16.210  20.808  -4.810  1.00  0.00     0.022 C 
HETATM    6  C7  UNL     1      15.633  21.771  -5.828  1.00  0.00     0.038 C 
HETATM    7  C8  UNL     1      16.576  21.581  -6.996  1.00  0.00     0.188 C 
ENDROOT
BRANCH   1   8
HETATM    8  C2  UNL     1      20.016  19.786  -6.500  1.00  0.00     0.084 C 
HETATM    9  C1  UNL     1      21.319  20.312  -7.013  1.00  0.00     0.020 C 
BRANCH   8  10
HETATM   10  C3  UNL     1      19.980  18.282  -6.542  1.00  0.00     0.099 C 
HETATM   11  S1  UNL     1      19.160  17.601  -5.089  1.00  0.00    -0.097 SA
ENDBRANCH   8  10
ENDBRANCH   1   8
BRANCH   7  12
HETATM   12  C9  UNL     1      16.928  22.907  -7.608  1.00  0.00     0.196 C 
HETATM   13  O2  UNL     1      16.300  23.259  -8.618  1.00  0.00    -0.646 OA
HETATM   14  O3  UNL     1      17.914  23.714  -7.075  1.00  0.00    -0.646 OA
ENDBRANCH   7  12
TORSDOF 3
ENDMDL
