MODEL 2
REMARK VINA RESULT: -5.730753213      2.842      4.463
REMARK  3 active torsions:
REMARK  status: ('A' for Active; 'I' for Inactive)
REMARK    1  A    between atoms: C2_2  and  C3_3 
REMARK    2  A    between atoms: C2_2  and  C4_5 
REMARK       I    between atoms: C4_5  and  N1_7 
REMARK    3  A    between atoms: C8_11  and  C9_12 
ROOT
HETATM    1  C4  UNL     1      19.016  20.336  -7.229  1.00  0.00     0.225 C 
HETATM    2  O1  UNL     1      19.654  20.344  -8.309  1.00  0.00    -0.273 OA
HETATM    3  N1  UNL     1      17.835  21.112  -7.109  1.00  0.00    -0.337 N 
HETATM    4  C5  UNL     1      16.988  21.209  -5.929  1.00  0.00     0.127 C 
HETATM    5  C6  UNL     1      15.612  21.180  -6.612  1.00  0.00     0.022 C 
HETATM    6  C7  UNL     1      15.839  22.279  -7.630  1.00  0.00     0.038 C 
HETATM    7  C8  UNL     1      17.234  21.958  -8.120  1.00  0.00     0.188 C 
ENDROOT
BRANCH   1   8
HETATM    8  C2  UNL     1      19.529  19.507  -6.115  1.00  0.00     0.084 C 
HETATM    9  C1  UNL     1      20.983  19.174  -6.234  1.00  0.00     0.020 C 
BRANCH   8  10
HETATM   10  C3  UNL     1      18.698  18.266  -5.934  1.00  0.00     0.099 C 
HETATM   11  S1  UNL     1      18.796  17.646  -4.244  1.00  0.00    -0.097 SA
ENDBRANCH   8  10
ENDBRANCH   1   8
BRANCH   7  12
HETATM   12  C9  UNL     1      18.046  23.214  -8.249  1.00  0.00     0.196 C 
HETATM   13  O2  UNL     1      17.754  24.169  -7.512  1.00  0.00    -0.646 OA
HETATM   14  O3  UNL     1      19.084  23.318  -9.154  1.00  0.00    -0.646 OA
ENDBRANCH   7  12
TORSDOF 3
ENDMDL
