MODEL 15
REMARK VINA RESULT: -5.168431535      5.519      6.789
REMARK  3 active torsions:
REMARK  status: ('A' for Active; 'I' for Inactive)
REMARK    1  A    between atoms: C2_2  and  C3_3 
REMARK    2  A    between atoms: C2_2  and  C4_5 
REMARK       I    between atoms: C4_5  and  N1_7 
REMARK    3  A    between atoms: C8_11  and  C9_12 
ROOT
HETATM    1  C4  UNL     1      17.572  20.028  -3.619  1.00  0.00     0.225 C 
HETATM    2  O1  UNL     1      16.393  20.455  -3.642  1.00  0.00    -0.273 OA
HETATM    3  N1  UNL     1      18.101  19.498  -2.415  1.00  0.00    -0.337 N 
HETATM    4  C5  UNL     1      19.442  18.966  -2.226  1.00  0.00     0.127 C 
HETATM    5  C6  UNL     1      19.104  17.749  -1.353  1.00  0.00     0.022 C 
HETATM    6  C7  UNL     1      18.274  18.449  -0.296  1.00  0.00     0.038 C 
HETATM    7  C8  UNL     1      17.425  19.374  -1.139  1.00  0.00     0.188 C 
ENDROOT
BRANCH   1   8
HETATM    8  C2  UNL     1      18.370  20.098  -4.864  1.00  0.00     0.084 C 
HETATM    9  C1  UNL     1      18.184  21.371  -5.626  1.00  0.00     0.020 C 
BRANCH   8  10
HETATM   10  C3  UNL     1      18.119  18.898  -5.738  1.00  0.00     0.099 C 
HETATM   11  S1  UNL     1      19.641  17.987  -6.061  1.00  0.00    -0.097 SA
ENDBRANCH   8  10
ENDBRANCH   1   8
BRANCH   7  12
HETATM   12  C9  UNL     1      17.337  20.732  -0.502  1.00  0.00     0.196 C 
HETATM   13  O2  UNL     1      16.435  20.921   0.329  1.00  0.00    -0.646 OA
HETATM   14  O3  UNL     1      18.221  21.743  -0.822  1.00  0.00    -0.646 OA
ENDBRANCH   7  12
TORSDOF 3
ENDMDL
