MODEL 2
REMARK VINA RESULT: -9.861552469      1.899      5.602
REMARK  3 active torsions:
REMARK  status: ('A' for Active; 'I' for Inactive)
REMARK    1  A    between atoms: C6_6  and  O1_7 
REMARK    2  A    between atoms: C13_15  and  O2_16 
REMARK    3  A    between atoms: C18_24  and  C19_25 
ROOT
HETATM    1  C1  UNL     1      13.375  -3.001  18.964  1.00  0.00     0.017 C 
HETATM    2  C2  UNL     1      12.665  -1.935  19.233  1.00  0.00    -0.054 C 
HETATM    3  C3  UNL     1      13.174  -0.589  19.590  1.00  0.00     0.047 C 
HETATM    4  C4  UNL     1      11.979   0.202  20.031  1.00  0.00    -0.013 C 
HETATM    5  C5  UNL     1      10.961  -0.867  20.400  1.00  0.00     0.053 C 
HETATM    6  C6  UNL     1      11.185  -1.845  19.239  1.00  0.00     0.081 C 
HETATM    7  C7  UNL     1      10.684  -1.244  17.970  1.00  0.00     0.043 C 
HETATM    8  C8  UNL     1      10.484   0.230  18.006  1.00  0.00     0.012 C 
HETATM    9  C9  UNL     1      11.445   0.988  18.861  1.00  0.00     0.035 C 
HETATM   10  C10 UNL     1      10.823   2.168  19.522  1.00  0.00     0.098 C 
HETATM   11  C11 UNL     1      10.697   3.373  18.702  1.00  0.00     0.011 C 
HETATM   12  C12 UNL     1      10.765   4.549  19.362  1.00  0.00     0.005 C 
HETATM   13  C13 UNL     1      10.723   4.638  20.839  1.00  0.00     0.159 C 
HETATM   14  C14 UNL     1      11.010   3.320  21.524  1.00  0.00     0.081 C 
HETATM   15  C15 UNL     1      11.571   3.508  22.885  1.00  0.00     0.029 C 
HETATM   16  C16 UNL     1       9.735   2.522  21.520  1.00  0.00     0.271 C 
HETATM   17  O3  UNL     1       8.870   2.395  22.398  1.00  0.00    -0.264 OA
HETATM   18  O4  UNL     1       9.679   1.897  20.270  1.00  0.00    -0.304 OA
HETATM   19  C17 UNL     1      11.866   2.504  20.599  1.00  0.00     0.061 C 
HETATM   20  C18 UNL     1      12.251   1.159  21.144  1.00  0.00     0.105 C 
ENDROOT
BRANCH  20  21
HETATM   21  C19 UNL     1      13.746   1.203  21.337  1.00  0.00     0.178 C 
HETATM   22  O5  UNL     1      14.344   0.521  22.176  1.00  0.00    -0.648 OA
HETATM   23  O6  UNL     1      14.417   2.094  20.478  1.00  0.00    -0.648 OA
ENDBRANCH  20  21
BRANCH   6  24
HETATM   24  O1  UNL     1      10.577  -3.068  19.490  1.00  0.00    -0.385 OA
ATOM     25  H1  UNL     1      10.896  -3.759  18.920  1.00  0.00     0.211 HD
ENDBRANCH   6  24
BRANCH  13  26
HETATM   26  O2  UNL     1      11.725   5.549  21.228  1.00  0.00    -0.390 OA
ATOM     27  H2  UNL     1      12.421   5.489  20.585  1.00  0.00     0.210 HD
ENDBRANCH  13  26
TORSDOF 3
ENDMDL
