MODEL 6
REMARK VINA RESULT: -9.249310450      0.855      1.074
REMARK  3 active torsions:
REMARK  status: ('A' for Active; 'I' for Inactive)
REMARK    1  A    between atoms: C6_6  and  O1_7 
REMARK    2  A    between atoms: C13_15  and  O2_16 
REMARK    3  A    between atoms: C18_24  and  C19_25 
ROOT
HETATM    1  C1  UNL     1       9.872   5.327  23.106  1.00  0.00     0.017 C 
HETATM    2  C2  UNL     1      10.497   4.335  22.526  1.00  0.00    -0.054 C 
HETATM    3  C3  UNL     1      10.299   3.841  21.142  1.00  0.00     0.047 C 
HETATM    4  C4  UNL     1      11.069   2.558  21.047  1.00  0.00    -0.013 C 
HETATM    5  C5  UNL     1      11.223   2.126  22.497  1.00  0.00     0.053 C 
HETATM    6  C6  UNL     1      11.547   3.484  23.135  1.00  0.00     0.081 C 
HETATM    7  C7  UNL     1      12.905   3.929  22.710  1.00  0.00     0.043 C 
HETATM    8  C8  UNL     1      13.449   3.237  21.509  1.00  0.00     0.012 C 
HETATM    9  C9  UNL     1      12.439   2.842  20.483  1.00  0.00     0.035 C 
HETATM   10  C10 UNL     1      12.778   1.562  19.802  1.00  0.00     0.098 C 
HETATM   11  C11 UNL     1      13.755   1.650  18.717  1.00  0.00     0.011 C 
HETATM   12  C12 UNL     1      13.615   0.752  17.718  1.00  0.00     0.005 C 
HETATM   13  C13 UNL     1      12.698  -0.406  17.811  1.00  0.00     0.159 C 
HETATM   14  C14 UNL     1      11.666  -0.263  18.907  1.00  0.00     0.081 C 
HETATM   15  C15 UNL     1      10.434  -1.041  18.620  1.00  0.00     0.029 C 
HETATM   16  C16 UNL     1      12.322  -0.660  20.201  1.00  0.00     0.271 C 
HETATM   17  O3  UNL     1      12.308  -1.741  20.804  1.00  0.00    -0.264 OA
HETATM   18  O4  UNL     1      13.002   0.478  20.649  1.00  0.00    -0.304 OA
HETATM   19  C17 UNL     1      11.443   1.204  19.132  1.00  0.00     0.061 C 
HETATM   20  C18 UNL     1      10.426   1.516  20.192  1.00  0.00     0.105 C 
ENDROOT
BRANCH  20  21
HETATM   21  C19 UNL     1       9.273   2.176  19.478  1.00  0.00     0.178 C 
HETATM   22  O5  UNL     1       8.139   2.273  19.961  1.00  0.00    -0.648 OA
HETATM   23  O6  UNL     1       9.591   2.680  18.203  1.00  0.00    -0.648 OA
ENDBRANCH  20  21
BRANCH   6  24
HETATM   24  O1  UNL     1      11.449   3.424  24.519  1.00  0.00    -0.385 OA
ATOM     25  H1  UNL     1      12.091   2.840  24.906  1.00  0.00     0.211 HD
ENDBRANCH   6  24
BRANCH  13  26
HETATM   26  O2  UNL     1      12.010  -0.489  16.584  1.00  0.00    -0.390 OA
ATOM     27  H2  UNL     1      11.083  -0.415  16.778  1.00  0.00     0.210 HD
ENDBRANCH  13  26
TORSDOF 3
ENDMDL
