MODEL 3
REMARK VINA RESULT: -9.449223131      1.636      5.517
REMARK  3 active torsions:
REMARK  status: ('A' for Active; 'I' for Inactive)
REMARK    1  A    between atoms: C6_6  and  O1_7 
REMARK    2  A    between atoms: C13_15  and  O2_16 
REMARK    3  A    between atoms: C18_24  and  C19_25 
ROOT
HETATM    1  C1  UNL     1      14.531  -3.222  17.391  1.00  0.00     0.017 C 
HETATM    2  C2  UNL     1      13.860  -2.147  17.718  1.00  0.00    -0.054 C 
HETATM    3  C3  UNL     1      13.054  -1.937  18.945  1.00  0.00     0.047 C 
HETATM    4  C4  UNL     1      12.305  -0.656  18.733  1.00  0.00    -0.013 C 
HETATM    5  C5  UNL     1      12.313  -0.484  17.221  1.00  0.00     0.053 C 
HETATM    6  C6  UNL     1      13.761  -0.900  16.925  1.00  0.00     0.081 C 
HETATM    7  C7  UNL     1      14.698   0.137  17.445  1.00  0.00     0.043 C 
HETATM    8  C8  UNL     1      14.115   1.070  18.447  1.00  0.00     0.012 C 
HETATM    9  C9  UNL     1      13.081   0.480  19.349  1.00  0.00     0.035 C 
HETATM   10  C10 UNL     1      12.007   1.448  19.707  1.00  0.00     0.098 C 
HETATM   11  C11 UNL     1      12.321   2.388  20.782  1.00  0.00     0.011 C 
HETATM   12  C12 UNL     1      11.278   2.793  21.538  1.00  0.00     0.005 C 
HETATM   13  C13 UNL     1       9.872   2.512  21.172  1.00  0.00     0.159 C 
HETATM   14  C14 UNL     1       9.732   1.415  20.141  1.00  0.00     0.081 C 
HETATM   15  C15 UNL     1       8.421   0.724  20.234  1.00  0.00     0.029 C 
HETATM   16  C16 UNL     1       9.977   2.030  18.791  1.00  0.00     0.271 C 
HETATM   17  O3  UNL     1       9.173   2.451  17.948  1.00  0.00    -0.264 OA
HETATM   18  O4  UNL     1      11.366   2.051  18.627  1.00  0.00    -0.304 OA
HETATM   19  C17 UNL     1      10.926   0.515  20.271  1.00  0.00     0.061 C 
HETATM   20  C18 UNL     1      10.930  -0.643  19.315  1.00  0.00     0.105 C 
ENDROOT
BRANCH  20  21
HETATM   21  C19 UNL     1      10.795  -1.882  20.164  1.00  0.00     0.178 C 
HETATM   22  O5  UNL     1      11.006  -1.899  21.382  1.00  0.00    -0.648 OA
HETATM   23  O6  UNL     1      10.407  -3.034  19.454  1.00  0.00    -0.648 OA
ENDBRANCH  20  21
BRANCH   6  24
HETATM   24  O1  UNL     1      13.952  -1.114  15.567  1.00  0.00    -0.385 OA
ATOM     25  H1  UNL     1      13.235  -0.782  15.039  1.00  0.00     0.211 HD
ENDBRANCH   6  24
BRANCH  13  26
HETATM   26  O2  UNL     1       9.217   2.084  22.344  1.00  0.00    -0.390 OA
ATOM     27  H2  UNL     1       8.349   2.471  22.336  1.00  0.00     0.210 HD
ENDBRANCH  13  26
TORSDOF 3
ENDMDL
