MODEL 1
REMARK VINA RESULT: -9.911716851      0.000      0.000
REMARK  3 active torsions:
REMARK  status: ('A' for Active; 'I' for Inactive)
REMARK    1  A    between atoms: C6_6  and  O1_7 
REMARK    2  A    between atoms: C13_15  and  O2_16 
REMARK    3  A    between atoms: C18_24  and  C19_25 
ROOT
HETATM    1  C1  UNL     1       9.640   4.516  22.715  1.00  0.00     0.017 C 
HETATM    2  C2  UNL     1      10.417   3.622  22.159  1.00  0.00    -0.054 C 
HETATM    3  C3  UNL     1      10.251   3.001  20.822  1.00  0.00     0.047 C 
HETATM    4  C4  UNL     1      11.250   1.885  20.758  1.00  0.00    -0.013 C 
HETATM    5  C5  UNL     1      11.556   1.596  22.220  1.00  0.00     0.053 C 
HETATM    6  C6  UNL     1      11.641   3.033  22.752  1.00  0.00     0.081 C 
HETATM    7  C7  UNL     1      12.864   3.697  22.217  1.00  0.00     0.043 C 
HETATM    8  C8  UNL     1      13.472   3.036  21.029  1.00  0.00     0.012 C 
HETATM    9  C9  UNL     1      12.509   2.384  20.094  1.00  0.00     0.035 C 
HETATM   10  C10 UNL     1      13.056   1.146  19.472  1.00  0.00     0.098 C 
HETATM   11  C11 UNL     1      13.943   1.342  18.326  1.00  0.00     0.011 C 
HETATM   12  C12 UNL     1      13.932   0.364  17.394  1.00  0.00     0.005 C 
HETATM   13  C13 UNL     1      13.263  -0.938  17.614  1.00  0.00     0.159 C 
HETATM   14  C14 UNL     1      12.278  -0.916  18.761  1.00  0.00     0.081 C 
HETATM   15  C15 UNL     1      11.208  -1.933  18.599  1.00  0.00     0.029 C 
HETATM   16  C16 UNL     1      13.061  -1.087  20.033  1.00  0.00     0.271 C 
HETATM   17  O3  UNL     1      13.288  -2.105  20.700  1.00  0.00    -0.264 OA
HETATM   18  O4  UNL     1      13.529   0.189  20.368  1.00  0.00    -0.304 OA
HETATM   19  C17 UNL     1      11.785   0.494  18.909  1.00  0.00     0.061 C 
HETATM   20  C18 UNL     1      10.781   0.681  20.010  1.00  0.00     0.105 C 
ENDROOT
BRANCH  20  21
HETATM   21  C19 UNL     1       9.488   1.057  19.330  1.00  0.00     0.178 C 
HETATM   22  O5  UNL     1       9.434   1.595  18.219  1.00  0.00    -0.648 OA
HETATM   23  O6  UNL     1       8.330   0.744  20.069  1.00  0.00    -0.648 OA
ENDBRANCH  20  21
BRANCH   6  24
HETATM   24  O1  UNL     1      11.625   3.054  24.140  1.00  0.00    -0.385 OA
ATOM     25  H1  UNL     1      12.496   3.105  24.516  1.00  0.00     0.211 HD
ENDBRANCH   6  24
BRANCH  13  26
HETATM   26  O2  UNL     1      12.545  -1.239  16.439  1.00  0.00    -0.390 OA
ATOM     27  H2  UNL     1      11.850  -1.838  16.682  1.00  0.00     0.210 HD
ENDBRANCH  13  26
TORSDOF 3
ENDMDL
