MODEL 4
REMARK VINA RESULT: -9.374305181      1.688      5.629
REMARK  3 active torsions:
REMARK  status: ('A' for Active; 'I' for Inactive)
REMARK    1  A    between atoms: C6_6  and  O1_7 
REMARK    2  A    between atoms: C13_15  and  O2_16 
REMARK    3  A    between atoms: C18_24  and  C19_25 
ROOT
HETATM    1  C1  UNL     1      14.541  -2.067  17.001  1.00  0.00     0.017 C 
HETATM    2  C2  UNL     1      13.663  -1.434  17.736  1.00  0.00    -0.054 C 
HETATM    3  C3  UNL     1      13.512   0.033  17.884  1.00  0.00     0.047 C 
HETATM    4  C4  UNL     1      12.537   0.238  19.004  1.00  0.00    -0.013 C 
HETATM    5  C5  UNL     1      12.590  -1.076  19.768  1.00  0.00     0.053 C 
HETATM    6  C6  UNL     1      12.621  -2.056  18.587  1.00  0.00     0.081 C 
HETATM    7  C7  UNL     1      11.299  -2.054  17.896  1.00  0.00     0.043 C 
HETATM    8  C8  UNL     1      10.433  -0.881  18.195  1.00  0.00     0.012 C 
HETATM    9  C9  UNL     1      11.152   0.405  18.431  1.00  0.00     0.035 C 
HETATM   10  C10 UNL     1      10.484   1.262  19.450  1.00  0.00     0.098 C 
HETATM   11  C11 UNL     1       9.349   2.054  18.978  1.00  0.00     0.011 C 
HETATM   12  C12 UNL     1       9.148   3.234  19.605  1.00  0.00     0.005 C 
HETATM   13  C13 UNL     1       9.862   3.608  20.846  1.00  0.00     0.159 C 
HETATM   14  C14 UNL     1      11.091   2.766  21.104  1.00  0.00     0.081 C 
HETATM   15  C15 UNL     1      12.101   3.486  21.920  1.00  0.00     0.029 C 
HETATM   16  C16 UNL     1      10.634   1.481  21.737  1.00  0.00     0.271 C 
HETATM   17  O3  UNL     1      10.581   1.153  22.930  1.00  0.00    -0.264 OA
HETATM   18  O4  UNL     1      10.247   0.650  20.679  1.00  0.00    -0.304 OA
HETATM   19  C17 UNL     1      11.592   2.275  19.777  1.00  0.00     0.061 C 
HETATM   20  C18 UNL     1      12.827   1.425  19.863  1.00  0.00     0.105 C 
ENDROOT
BRANCH  20  21
HETATM   21  C19 UNL     1      13.918   2.212  19.180  1.00  0.00     0.178 C 
HETATM   22  O5  UNL     1      13.830   2.633  18.022  1.00  0.00    -0.648 OA
HETATM   23  O6  UNL     1      15.060   2.431  19.974  1.00  0.00    -0.648 OA
ENDBRANCH  20  21
BRANCH   6  24
HETATM   24  O1  UNL     1      12.966  -3.334  19.006  1.00  0.00    -0.385 OA
ATOM     25  H1  UNL     1      12.612  -4.012  18.442  1.00  0.00     0.211 HD
ENDBRANCH   6  24
BRANCH  13  26
HETATM   26  O2  UNL     1      10.283   4.945  20.694  1.00  0.00    -0.390 OA
ATOM     27  H2  UNL     1      11.197   4.979  20.949  1.00  0.00     0.210 HD
ENDBRANCH  13  26
TORSDOF 3
ENDMDL
