MODEL 4
REMARK VINA RESULT: -7.445428022      2.781      5.699
REMARK  1 active torsions:
REMARK  status: ('A' for Active; 'I' for Inactive)
REMARK    1  A    between atoms: N1_2  and  C2_4 
ROOT
HETATM    1  C2  UNL     1     107.295  17.779  21.757  1.00  0.00     0.678 A 
HETATM    2  N2  UNL     1     106.166  17.478  21.089  1.00  0.00    -0.190 N 
ATOM      3  H2  UNL     1     105.323  17.079  21.501  1.00  0.00     0.184 HD
HETATM    4  C3  UNL     1     106.327  17.785  19.797  1.00  0.00     0.077 A 
HETATM    5  C4  UNL     1     105.488  17.679  18.683  1.00  0.00     0.052 A 
HETATM    6  C5  UNL     1     105.928  18.084  17.448  1.00  0.00     0.061 A 
HETATM    7  C6  UNL     1     105.115  17.984  16.345  1.00  0.00     0.260 A 
HETATM    8  O1  UNL     1     103.957  17.516  16.489  1.00  0.00    -0.267 OA
HETATM    9  N3  UNL     1     105.570  18.391  15.119  1.00  0.00    -0.297 N 
ATOM     10  H3  UNL     1     104.979  18.324  14.291  1.00  0.00     0.171 HD
HETATM   11  C7  UNL     1     106.806  18.876  15.042  1.00  0.00     0.195 A 
HETATM   12  N4  UNL     1     107.309  19.309  13.776  1.00  0.00    -0.063 NA
HETATM   13  N5  UNL     1     107.624  18.982  16.120  1.00  0.00    -0.329 N 
ATOM     14  H5  UNL     1     108.564  19.362  16.009  1.00  0.00     0.168 HD
HETATM   15  C8  UNL     1     107.199  18.588  17.333  1.00  0.00     0.052 A 
HETATM   16  C9  UNL     1     108.052  18.707  18.408  1.00  0.00     0.063 A 
HETATM   17  C10 UNL     1     107.602  18.296  19.668  1.00  0.00     0.078 A 
HETATM   18  N6  UNL     1     108.180  18.284  20.881  1.00  0.00    -0.190 N 
ATOM     19  H6  UNL     1     109.124  18.601  21.098  1.00  0.00     0.184 HD
ENDROOT
BRANCH   1  20
HETATM   20  N1  UNL     1     107.476  17.579  23.168  1.00  0.00    -0.230 N 
HETATM   21  C1  UNL     1     106.375  17.808  24.082  1.00  0.00     0.165 C 
ATOM     22  H1  UNL     1     108.381  17.274  23.527  1.00  0.00     0.177 HD
ENDBRANCH   1  20
TORSDOF 1
ENDMDL
