MODEL 5
REMARK VINA RESULT: -7.433803582      2.173      5.956
REMARK  1 active torsions:
REMARK  status: ('A' for Active; 'I' for Inactive)
REMARK    1  A    between atoms: N1_2  and  C2_4 
ROOT
HETATM    1  C2  UNL     1     107.135  17.785  21.344  1.00  0.00     0.678 A 
HETATM    2  N2  UNL     1     105.894  17.294  21.172  1.00  0.00    -0.190 N 
ATOM      3  H2  UNL     1     105.306  16.901  21.907  1.00  0.00     0.184 HD
HETATM    4  C3  UNL     1     105.554  17.403  19.884  1.00  0.00     0.077 A 
HETATM    5  C4  UNL     1     104.402  17.056  19.171  1.00  0.00     0.052 A 
HETATM    6  C5  UNL     1     104.328  17.291  17.822  1.00  0.00     0.061 A 
HETATM    7  C6  UNL     1     103.202  16.954  17.109  1.00  0.00     0.260 A 
HETATM    8  O1  UNL     1     102.238  16.427  17.720  1.00  0.00    -0.267 OA
HETATM    9  N3  UNL     1     103.146  17.195  15.763  1.00  0.00    -0.297 N 
ATOM     10  H3  UNL     1     102.317  16.951  15.220  1.00  0.00     0.171 HD
HETATM   11  C7  UNL     1     104.203  17.756  15.185  1.00  0.00     0.195 A 
HETATM   12  N4  UNL     1     104.174  18.021  13.780  1.00  0.00    -0.063 NA
HETATM   13  N5  UNL     1     105.324  18.096  15.871  1.00  0.00    -0.329 N 
ATOM     14  H5  UNL     1     106.109  18.526  15.381  1.00  0.00     0.168 HD
HETATM   15  C8  UNL     1     105.402  17.869  17.194  1.00  0.00     0.052 A 
HETATM   16  C9  UNL     1     106.553  18.224  17.863  1.00  0.00     0.063 A 
HETATM   17  C10 UNL     1     106.626  17.984  19.240  1.00  0.00     0.078 A 
HETATM   18  N6  UNL     1     107.587  18.211  20.153  1.00  0.00    -0.190 N 
ATOM     19  H6  UNL     1     108.498  18.632  19.972  1.00  0.00     0.184 HD
ENDROOT
BRANCH   1  20
HETATM   20  N1  UNL     1     107.820  17.826  22.606  1.00  0.00    -0.230 N 
HETATM   21  C1  UNL     1     107.065  17.851  23.843  1.00  0.00     0.165 C 
ATOM     22  H1  UNL     1     108.840  17.838  22.632  1.00  0.00     0.177 HD
ENDBRANCH   1  20
TORSDOF 1
ENDMDL
