MODEL 1
REMARK VINA RESULT: -7.802265178      0.000      0.000
REMARK  1 active torsions:
REMARK  status: ('A' for Active; 'I' for Inactive)
REMARK    1  A    between atoms: N1_2  and  C2_4 
ROOT
HETATM    1  C2  UNL     1     102.226  16.253  17.228  1.00  0.00     0.678 A 
HETATM    2  N2  UNL     1     103.237  16.876  16.594  1.00  0.00    -0.190 N 
ATOM      3  H2  UNL     1     103.257  17.111  15.602  1.00  0.00     0.184 HD
HETATM    4  C3  UNL     1     104.210  17.137  17.472  1.00  0.00     0.077 A 
HETATM    5  C4  UNL     1     105.459  17.756  17.352  1.00  0.00     0.052 A 
HETATM    6  C5  UNL     1     106.270  17.891  18.450  1.00  0.00     0.061 A 
HETATM    7  C6  UNL     1     107.500  18.496  18.346  1.00  0.00     0.260 A 
HETATM    8  O1  UNL     1     107.867  18.925  17.223  1.00  0.00    -0.267 OA
HETATM    9  N3  UNL     1     108.297  18.623  19.452  1.00  0.00    -0.297 N 
ATOM     10  H3  UNL     1     109.212  19.070  19.391  1.00  0.00     0.171 HD
HETATM   11  C7  UNL     1     107.842  18.146  20.606  1.00  0.00     0.195 A 
HETATM   12  N4  UNL     1     108.652  18.263  21.779  1.00  0.00    -0.063 NA
HETATM   13  N5  UNL     1     106.631  17.545  20.729  1.00  0.00    -0.329 N 
ATOM     14  H5  UNL     1     106.327  17.196  21.638  1.00  0.00     0.168 HD
HETATM   15  C8  UNL     1     105.832  17.409  19.657  1.00  0.00     0.052 A 
HETATM   16  C9  UNL     1     104.609  16.795  19.813  1.00  0.00     0.063 A 
HETATM   17  C10 UNL     1     103.782  16.658  18.692  1.00  0.00     0.078 A 
HETATM   18  N6  UNL     1     102.562  16.119  18.522  1.00  0.00    -0.190 N 
ATOM     19  H6  UNL     1     101.992  15.684  19.248  1.00  0.00     0.184 HD
ENDROOT
BRANCH   1  20
HETATM   20  N1  UNL     1     101.014  15.824  16.589  1.00  0.00    -0.230 N 
HETATM   21  C1  UNL     1     100.367  16.675  15.611  1.00  0.00     0.165 C 
ATOM     22  H1  UNL     1     100.607  14.918  16.824  1.00  0.00     0.177 HD
ENDBRANCH   1  20
TORSDOF 1
ENDMDL
