MODEL 3
REMARK VINA RESULT: -7.693852851      3.622      5.013
REMARK  1 active torsions:
REMARK  status: ('A' for Active; 'I' for Inactive)
REMARK    1  A    between atoms: N1_2  and  C2_4 
ROOT
HETATM    1  C2  UNL     1     107.613  18.293  17.741  1.00  0.00     0.678 A 
HETATM    2  N2  UNL     1     108.349  18.521  18.845  1.00  0.00    -0.190 N 
ATOM      3  H2  UNL     1     109.311  18.857  18.855  1.00  0.00     0.184 HD
HETATM    4  C3  UNL     1     107.616  18.235  19.926  1.00  0.00     0.077 A 
HETATM    5  C4  UNL     1     107.883  18.292  21.298  1.00  0.00     0.052 A 
HETATM    6  C5  UNL     1     106.917  17.932  22.204  1.00  0.00     0.061 A 
HETATM    7  C6  UNL     1     107.166  17.982  23.554  1.00  0.00     0.260 A 
HETATM    8  O1  UNL     1     108.297  18.366  23.945  1.00  0.00    -0.267 OA
HETATM    9  N3  UNL     1     106.192  17.618  24.444  1.00  0.00    -0.297 N 
ATOM     10  H3  UNL     1     106.361  17.650  25.450  1.00  0.00     0.171 HD
HETATM   11  C7  UNL     1     105.020  17.222  23.958  1.00  0.00     0.195 A 
HETATM   12  N4  UNL     1     103.982  16.836  24.863  1.00  0.00    -0.063 NA
HETATM   13  N5  UNL     1     104.755  17.165  22.629  1.00  0.00    -0.329 N 
ATOM     14  H5  UNL     1     103.838  16.855  22.306  1.00  0.00     0.168 HD
HETATM   15  C8  UNL     1     105.696  17.517  21.736  1.00  0.00     0.052 A 
HETATM   16  C9  UNL     1     105.397  17.449  20.393  1.00  0.00     0.063 A 
HETATM   17  C10 UNL     1     106.383  17.818  19.470  1.00  0.00     0.078 A 
HETATM   18  N6  UNL     1     106.401  17.860  18.126  1.00  0.00    -0.190 N 
ATOM     19  H6  UNL     1     105.630  17.608  17.508  1.00  0.00     0.184 HD
ENDROOT
BRANCH   1  20
HETATM   20  N1  UNL     1     108.086  18.494  16.400  1.00  0.00    -0.230 N 
HETATM   21  C1  UNL     1     107.157  18.860  15.349  1.00  0.00     0.165 C 
ATOM     22  H1  UNL     1     109.077  18.379  16.186  1.00  0.00     0.177 HD
ENDBRANCH   1  20
TORSDOF 1
ENDMDL
