MODEL 1
REMARK VINA RESULT: -8.892079427      0.000      0.000
REMARK  2 active torsions:
REMARK  status: ('A' for Active; 'I' for Inactive)
REMARK    1  A    between atoms: C4_4  and  O1_5 
REMARK    2  A    between atoms: C20_23  and  C22_25 
ROOT
HETATM    1  C1  UNL     1      15.196   0.215  25.535  1.00  0.00     0.018 C 
HETATM    2  C2  UNL     1      15.321   0.801  24.118  1.00  0.00    -0.017 C 
HETATM    3  C3  UNL     1      15.412  -0.353  23.183  1.00  0.00     0.018 C 
HETATM    4  C4  UNL     1      16.640   1.533  24.098  1.00  0.00     0.126 C 
HETATM    5  C5  UNL     1      16.357   3.011  24.262  1.00  0.00     0.033 C 
HETATM    6  C6  UNL     1      15.573   3.561  23.097  1.00  0.00     0.013 C 
HETATM    7  C7  UNL     1      14.309   2.728  22.816  1.00  0.00    -0.028 C 
HETATM    8  C8  UNL     1      14.451   2.166  21.455  1.00  0.00     0.016 C 
HETATM    9  C9  UNL     1      14.208   1.734  23.926  1.00  0.00     0.005 C 
HETATM   10  C10 UNL     1      12.865   1.052  23.798  1.00  0.00     0.007 C 
HETATM   11  C11 UNL     1      11.732   2.049  24.048  1.00  0.00     0.011 C 
HETATM   12  C12 UNL     1      11.792   3.183  23.004  1.00  0.00    -0.021 C 
HETATM   13  C13 UNL     1      11.312   2.524  21.750  1.00  0.00     0.017 C 
HETATM   14  C14 UNL     1      13.162   3.681  23.022  1.00  0.00     0.077 C 
HETATM   15  C15 UNL     1      13.300   4.842  22.141  1.00  0.00     0.155 C 
HETATM   16  O2  UNL     1      14.203   4.978  21.273  1.00  0.00    -0.293 OA
HETATM   17  C16 UNL     1      12.311   5.886  22.310  1.00  0.00     0.054 C 
HETATM   18  C17 UNL     1      11.153   5.624  22.866  1.00  0.00    -0.062 C 
HETATM   19  C18 UNL     1      10.238   6.780  22.978  1.00  0.00     0.025 C 
HETATM   20  C19 UNL     1      10.399   7.608  24.217  1.00  0.00     0.030 C 
HETATM   21  C20 UNL     1       9.840   8.992  23.926  1.00  0.00     0.045 C 
HETATM   22  C21 UNL     1       9.485   9.684  25.230  1.00  0.00     0.027 C 
HETATM   23  C23 UNL     1       8.518   8.807  23.190  1.00  0.00     0.021 C 
HETATM   24  C24 UNL     1       7.963   7.406  23.425  1.00  0.00     0.011 C 
HETATM   25  C25 UNL     1       8.835   6.406  22.660  1.00  0.00    -0.036 C 
HETATM   26  C26 UNL     1       8.522   6.683  21.179  1.00  0.00     0.016 C 
HETATM   27  C27 UNL     1       8.434   5.023  22.971  1.00  0.00     0.011 C 
HETATM   28  C28 UNL     1       9.465   3.965  22.712  1.00  0.00     0.015 C 
HETATM   29  C29 UNL     1      10.825   4.285  23.342  1.00  0.00    -0.012 C 
HETATM   30  C30 UNL     1      10.510   4.263  24.840  1.00  0.00     0.021 C 
ENDROOT
BRANCH  21  31
HETATM   31  C22 UNL     1      10.757   9.843  23.172  1.00  0.00     0.181 C 
HETATM   32  O3  UNL     1      10.562  10.053  21.955  1.00  0.00    -0.647 OA
HETATM   33  O4  UNL     1      11.843  10.411  23.817  1.00  0.00    -0.647 OA
ENDBRANCH  21  31
BRANCH   4  34
HETATM   34  O1  UNL     1      17.351   1.326  22.924  1.00  0.00    -0.395 OA
ATOM     35  H1  UNL     1      18.096   1.908  22.838  1.00  0.00     0.210 HD
ENDBRANCH   4  34
TORSDOF 2
ENDMDL
