MODEL 3
REMARK VINA RESULT: -8.031602457      4.877      7.419
REMARK  2 active torsions:
REMARK  status: ('A' for Active; 'I' for Inactive)
REMARK    1  A    between atoms: C4_4  and  O1_5 
REMARK    2  A    between atoms: C20_23  and  C22_25 
ROOT
HETATM    1  C1  UNL     1       2.789   3.872  27.491  1.00  0.00     0.018 C 
HETATM    2  C2  UNL     1       4.118   3.112  27.338  1.00  0.00    -0.017 C 
HETATM    3  C3  UNL     1       3.807   1.841  26.629  1.00  0.00     0.018 C 
HETATM    4  C4  UNL     1       4.556   2.776  28.742  1.00  0.00     0.126 C 
HETATM    5  C5  UNL     1       5.622   3.771  29.150  1.00  0.00     0.033 C 
HETATM    6  C6  UNL     1       6.861   3.641  28.300  1.00  0.00     0.013 C 
HETATM    7  C7  UNL     1       6.528   3.688  26.797  1.00  0.00    -0.028 C 
HETATM    8  C8  UNL     1       6.935   2.389  26.220  1.00  0.00     0.016 C 
HETATM    9  C9  UNL     1       5.075   4.019  26.701  1.00  0.00     0.005 C 
HETATM   10  C10 UNL     1       4.772   4.289  25.245  1.00  0.00     0.007 C 
HETATM   11  C11 UNL     1       5.503   5.546  24.769  1.00  0.00     0.011 C 
HETATM   12  C12 UNL     1       7.027   5.351  24.909  1.00  0.00    -0.021 C 
HETATM   13  C13 UNL     1       7.357   4.402  23.803  1.00  0.00     0.017 C 
HETATM   14  C14 UNL     1       7.254   4.900  26.277  1.00  0.00     0.077 C 
HETATM   15  C15 UNL     1       8.688   4.791  26.551  1.00  0.00     0.155 C 
HETATM   16  O2  UNL     1       9.243   3.786  27.070  1.00  0.00    -0.293 OA
HETATM   17  C16 UNL     1       9.491   5.940  26.188  1.00  0.00     0.054 C 
HETATM   18  C17 UNL     1       9.061   6.798  25.295  1.00  0.00    -0.062 C 
HETATM   19  C18 UNL     1       9.979   7.926  25.020  1.00  0.00     0.025 C 
HETATM   20  C19 UNL     1       9.821   9.115  25.918  1.00  0.00     0.030 C 
HETATM   21  C20 UNL     1      11.130   9.890  25.897  1.00  0.00     0.045 C 
HETATM   22  C21 UNL     1      10.881  11.325  26.326  1.00  0.00     0.027 C 
HETATM   23  C23 UNL     1      11.589   9.972  24.445  1.00  0.00     0.021 C 
HETATM   24  C24 UNL     1      10.420   9.728  23.497  1.00  0.00     0.011 C 
HETATM   25  C25 UNL     1      10.038   8.247  23.570  1.00  0.00    -0.036 C 
HETATM   26  C26 UNL     1      11.215   7.516  22.900  1.00  0.00     0.016 C 
HETATM   27  C27 UNL     1       8.819   7.985  22.786  1.00  0.00     0.011 C 
HETATM   28  C28 UNL     1       8.058   6.745  23.147  1.00  0.00     0.015 C 
HETATM   29  C29 UNL     1       7.765   6.636  24.647  1.00  0.00    -0.012 C 
HETATM   30  C30 UNL     1       6.841   7.830  24.893  1.00  0.00     0.021 C 
ENDROOT
BRANCH  21  31
HETATM   31  C22 UNL     1      12.162   9.311  26.752  1.00  0.00     0.181 C 
HETATM   32  O3  UNL     1      12.387   9.798  27.883  1.00  0.00    -0.647 OA
HETATM   33  O4  UNL     1      12.887   8.222  26.300  1.00  0.00    -0.647 OA
ENDBRANCH  21  31
BRANCH   4  34
HETATM   34  O1  UNL     1       5.059   1.488  28.854  1.00  0.00    -0.395 OA
ATOM     35  H1  UNL     1       4.927   1.116  29.718  1.00  0.00     0.210 HD
ENDBRANCH   4  34
TORSDOF 2
ENDMDL
