MODEL 6
REMARK VINA RESULT: -7.957391036      4.872      8.295
REMARK  2 active torsions:
REMARK  status: ('A' for Active; 'I' for Inactive)
REMARK    1  A    between atoms: C4_4  and  O1_5 
REMARK    2  A    between atoms: C20_23  and  C22_25 
ROOT
HETATM    1  C1  UNL     1      11.704   9.711  26.425  1.00  0.00     0.018 C 
HETATM    2  C2  UNL     1      10.787   9.404  25.229  1.00  0.00    -0.017 C 
HETATM    3  C3  UNL     1      11.643   9.435  24.012  1.00  0.00     0.018 C 
HETATM    4  C4  UNL     1       9.817  10.557  25.156  1.00  0.00     0.126 C 
HETATM    5  C5  UNL     1       8.509  10.109  25.773  1.00  0.00     0.033 C 
HETATM    6  C6  UNL     1       7.871   8.996  24.981  1.00  0.00     0.013 C 
HETATM    7  C7  UNL     1       8.855   7.838  24.731  1.00  0.00    -0.028 C 
HETATM    8  C8  UNL     1       9.037   7.729  23.268  1.00  0.00     0.016 C 
HETATM    9  C9  UNL     1      10.082   8.153  25.521  1.00  0.00     0.005 C 
HETATM   10  C10 UNL     1      10.974   6.934  25.472  1.00  0.00     0.007 C 
HETATM   11  C11 UNL     1      10.317   5.760  26.203  1.00  0.00     0.011 C 
HETATM   12  C12 UNL     1       8.981   5.400  25.521  1.00  0.00    -0.021 C 
HETATM   13  C13 UNL     1       9.408   4.735  24.252  1.00  0.00     0.017 C 
HETATM   14  C14 UNL     1       8.232   6.647  25.411  1.00  0.00     0.077 C 
HETATM   15  C15 UNL     1       6.893   6.397  24.874  1.00  0.00     0.155 C 
HETATM   16  O2  UNL     1       6.374   7.035  23.920  1.00  0.00    -0.293 OA
HETATM   17  C16 UNL     1       6.144   5.336  25.513  1.00  0.00     0.054 C 
HETATM   18  C17 UNL     1       6.761   4.397  26.189  1.00  0.00    -0.062 C 
HETATM   19  C18 UNL     1       5.876   3.376  26.791  1.00  0.00     0.025 C 
HETATM   20  C19 UNL     1       5.350   3.707  28.155  1.00  0.00     0.030 C 
HETATM   21  C20 UNL     1       4.080   2.898  28.372  1.00  0.00     0.045 C 
HETATM   22  C21 UNL     1       3.804   2.769  29.859  1.00  0.00     0.027 C 
HETATM   23  C23 UNL     1       4.352   1.480  27.883  1.00  0.00     0.021 C 
HETATM   24  C24 UNL     1       5.852   1.209  27.825  1.00  0.00     0.011 C 
HETATM   25  C25 UNL     1       6.442   2.008  26.660  1.00  0.00    -0.036 C 
HETATM   26  C26 UNL     1       5.894   1.311  25.403  1.00  0.00     0.016 C 
HETATM   27  C27 UNL     1       7.912   1.901  26.649  1.00  0.00     0.011 C 
HETATM   28  C28 UNL     1       8.645   2.983  25.913  1.00  0.00     0.015 C 
HETATM   29  C29 UNL     1       8.212   4.392  26.331  1.00  0.00    -0.012 C 
HETATM   30  C30 UNL     1       8.651   4.454  27.796  1.00  0.00     0.021 C 
ENDROOT
BRANCH  21  31
HETATM   31  C22 UNL     1       2.906   3.473  27.719  1.00  0.00     0.181 C 
HETATM   32  O3  UNL     1       2.010   4.014  28.403  1.00  0.00    -0.647 OA
HETATM   33  O4  UNL     1       2.797   3.410  26.341  1.00  0.00    -0.647 OA
ENDBRANCH  21  31
BRANCH   4  34
HETATM   34  O1  UNL     1       9.591  10.987  23.857  1.00  0.00    -0.395 OA
ATOM     35  H1  UNL     1       8.807  11.518  23.776  1.00  0.00     0.210 HD
ENDBRANCH   4  34
TORSDOF 2
ENDMDL
