MODEL 4
REMARK VINA RESULT: -8.007095406      4.182      6.760
REMARK  2 active torsions:
REMARK  status: ('A' for Active; 'I' for Inactive)
REMARK    1  A    between atoms: C4_4  and  O1_5 
REMARK    2  A    between atoms: C20_23  and  C22_25 
ROOT
HETATM    1  C1  UNL     1       4.087   4.086  25.835  1.00  0.00     0.018 C 
HETATM    2  C2  UNL     1       5.401   3.503  26.383  1.00  0.00    -0.017 C 
HETATM    3  C3  UNL     1       5.387   2.047  26.074  1.00  0.00     0.018 C 
HETATM    4  C4  UNL     1       5.324   3.669  27.881  1.00  0.00     0.126 C 
HETATM    5  C5  UNL     1       6.156   4.875  28.261  1.00  0.00     0.033 C 
HETATM    6  C6  UNL     1       7.617   4.663  27.954  1.00  0.00     0.013 C 
HETATM    7  C7  UNL     1       7.834   4.209  26.499  1.00  0.00    -0.028 C 
HETATM    8  C8  UNL     1       8.446   2.864  26.549  1.00  0.00     0.016 C 
HETATM    9  C9  UNL     1       6.501   4.295  25.830  1.00  0.00     0.005 C 
HETATM   10  C10 UNL     1       6.724   4.069  24.352  1.00  0.00     0.007 C 
HETATM   11  C11 UNL     1       7.548   5.211  23.753  1.00  0.00     0.011 C 
HETATM   12  C12 UNL     1       8.929   5.276  24.438  1.00  0.00    -0.021 C 
HETATM   13  C13 UNL     1       9.648   4.090  23.880  1.00  0.00     0.017 C 
HETATM   14  C14 UNL     1       8.670   5.294  25.873  1.00  0.00     0.077 C 
HETATM   15  C15 UNL     1       9.918   5.468  26.619  1.00  0.00     0.155 C 
HETATM   16  O2  UNL     1      10.276   4.751  27.591  1.00  0.00    -0.293 OA
HETATM   17  C16 UNL     1      10.772   6.551  26.179  1.00  0.00     0.054 C 
HETATM   18  C17 UNL     1      10.666   7.033  24.964  1.00  0.00    -0.062 C 
HETATM   19  C18 UNL     1      11.597   8.138  24.646  1.00  0.00     0.025 C 
HETATM   20  C19 UNL     1      11.107   9.510  24.998  1.00  0.00     0.030 C 
HETATM   21  C20 UNL     1      12.323  10.412  25.149  1.00  0.00     0.045 C 
HETATM   22  C21 UNL     1      11.908  11.862  24.974  1.00  0.00     0.027 C 
HETATM   23  C23 UNL     1      13.262  10.113  23.986  1.00  0.00     0.021 C 
HETATM   24  C24 UNL     1      12.506   9.438  22.845  1.00  0.00     0.011 C 
HETATM   25  C25 UNL     1      12.155   8.011  23.276  1.00  0.00    -0.036 C 
HETATM   26  C26 UNL     1      13.508   7.279  23.306  1.00  0.00     0.016 C 
HETATM   27  C27 UNL     1      11.296   7.362  22.270  1.00  0.00     0.011 C 
HETATM   28  C28 UNL     1      10.484   6.197  22.752  1.00  0.00     0.015 C 
HETATM   29  C29 UNL     1       9.684   6.509  24.022  1.00  0.00    -0.012 C 
HETATM   30  C30 UNL     1       8.707   7.584  23.544  1.00  0.00     0.021 C 
ENDROOT
BRANCH  21  31
HETATM   31  C22 UNL     1      13.000  10.264  26.434  1.00  0.00     0.181 C 
HETATM   32  O3  UNL     1      14.245  10.366  26.503  1.00  0.00    -0.647 OA
HETATM   33  O4  UNL     1      12.253  10.011  27.571  1.00  0.00    -0.647 OA
ENDBRANCH  21  31
BRANCH   4  34
HETATM   34  O1  UNL     1       5.783   2.556  28.569  1.00  0.00    -0.395 OA
ATOM     35  H1  UNL     1       5.692   1.752  28.071  1.00  0.00     0.210 HD
ENDBRANCH   4  34
TORSDOF 2
ENDMDL
