MODEL 2
REMARK VINA RESULT: -8.856686187      1.655      2.138
REMARK  2 active torsions:
REMARK  status: ('A' for Active; 'I' for Inactive)
REMARK    1  A    between atoms: C4_4  and  O1_5 
REMARK    2  A    between atoms: C20_23  and  C22_25 
ROOT
HETATM    1  C1  UNL     1      15.565   1.216  27.223  1.00  0.00     0.018 C 
HETATM    2  C2  UNL     1      15.066   1.166  25.769  1.00  0.00    -0.017 C 
HETATM    3  C3  UNL     1      14.956  -0.272  25.402  1.00  0.00     0.018 C 
HETATM    4  C4  UNL     1      16.165   1.784  24.941  1.00  0.00     0.126 C 
HETATM    5  C5  UNL     1      15.765   3.207  24.618  1.00  0.00     0.033 C 
HETATM    6  C6  UNL     1      14.532   3.256  23.751  1.00  0.00     0.013 C 
HETATM    7  C7  UNL     1      13.383   2.420  24.345  1.00  0.00    -0.028 C 
HETATM    8  C8  UNL     1      13.078   1.347  23.375  1.00  0.00     0.016 C 
HETATM    9  C9  UNL     1      13.845   1.972  25.692  1.00  0.00     0.005 C 
HETATM   10  C10 UNL     1      12.661   1.341  26.387  1.00  0.00     0.007 C 
HETATM   11  C11 UNL     1      11.579   2.387  26.661  1.00  0.00     0.011 C 
HETATM   12  C12 UNL     1      11.085   2.991  25.331  1.00  0.00    -0.021 C 
HETATM   13  C13 UNL     1      10.264   1.892  24.736  1.00  0.00     0.017 C 
HETATM   14  C14 UNL     1      12.278   3.410  24.606  1.00  0.00     0.077 C 
HETATM   15  C15 UNL     1      11.913   4.102  23.369  1.00  0.00     0.155 C 
HETATM   16  O2  UNL     1      12.395   3.842  22.234  1.00  0.00    -0.293 OA
HETATM   17  C16 UNL     1      10.927   5.154  23.500  1.00  0.00     0.054 C 
HETATM   18  C17 UNL     1      10.112   5.180  24.526  1.00  0.00    -0.062 C 
HETATM   19  C18 UNL     1       9.155   6.308  24.538  1.00  0.00     0.025 C 
HETATM   20  C19 UNL     1       9.655   7.566  25.183  1.00  0.00     0.030 C 
HETATM   21  C20 UNL     1       8.843   8.726  24.628  1.00  0.00     0.045 C 
HETATM   22  C21 UNL     1       8.913   9.902  25.585  1.00  0.00     0.027 C 
HETATM   23  C23 UNL     1       7.380   8.297  24.616  1.00  0.00     0.021 C 
HETATM   24  C24 UNL     1       7.154   7.133  25.576  1.00  0.00     0.011 C 
HETATM   25  C25 UNL     1       7.802   5.881  24.978  1.00  0.00    -0.036 C 
HETATM   26  C26 UNL     1       6.920   5.536  23.766  1.00  0.00     0.016 C 
HETATM   27  C27 UNL     1       7.743   4.760  25.933  1.00  0.00     0.011 C 
HETATM   28  C28 UNL     1       8.735   3.657  25.716  1.00  0.00     0.015 C 
HETATM   29  C29 UNL     1      10.174   4.165  25.572  1.00  0.00    -0.012 C 
HETATM   30  C30 UNL     1      10.453   4.768  26.950  1.00  0.00     0.021 C 
ENDROOT
BRANCH  21  31
HETATM   31  C22 UNL     1       9.283   9.164  23.306  1.00  0.00     0.181 C 
HETATM   32  O3  UNL     1       8.504   9.804  22.565  1.00  0.00    -0.647 OA
HETATM   33  O4  UNL     1      10.566   8.863  22.882  1.00  0.00    -0.647 OA
ENDBRANCH  21  31
BRANCH   4  34
HETATM   34  O1  UNL     1      16.403   1.092  23.762  1.00  0.00    -0.395 OA
ATOM     35  H1  UNL     1      15.630   0.649  23.433  1.00  0.00     0.210 HD
ENDBRANCH   4  34
TORSDOF 2
ENDMDL
