MODEL 3
REMARK VINA RESULT: -10.731065239      1.005      2.394
REMARK  6 active torsions:
REMARK  status: ('A' for Active; 'I' for Inactive)
REMARK    1  A    between atoms: P1_2  and  C1_5 
REMARK    2  A    between atoms: C1_5  and  N1_6 
REMARK    3  A    between atoms: C1_5  and  P2_25 
REMARK    4  A    between atoms: N1_6  and  C2_8 
REMARK    5  A    between atoms: C8_14  and  O4_15 
REMARK    6  A    between atoms: O4_15  and  C9_16 
ROOT
HETATM    1  C2  UNL     1      15.497  31.189  -8.788  1.00  0.00     0.102 A 
HETATM    2  C3  UNL     1      16.363  30.276  -8.236  1.00  0.00     0.060 A 
HETATM    3  C4  UNL     1      15.903  29.106  -7.630  1.00  0.00    -0.021 A 
HETATM    4  C5  UNL     1      16.823  28.156  -7.054  1.00  0.00    -0.026 A 
HETATM    5  C6  UNL     1      16.513  26.833  -7.049  1.00  0.00     0.015 A 
HETATM    6  C7  UNL     1      17.385  25.922  -6.501  1.00  0.00     0.037 A 
HETATM    7  C8  UNL     1      18.559  26.350  -5.966  1.00  0.00     0.070 A 
HETATM    8  C12 UNL     1      18.883  27.715  -5.969  1.00  0.00     0.037 A 
HETATM    9  C13 UNL     1      18.003  28.606  -6.518  1.00  0.00     0.015 A 
HETATM   10  C14 UNL     1      14.548  28.861  -7.582  1.00  0.00     0.029 A 
HETATM   11  C15 UNL     1      13.704  29.792  -8.143  1.00  0.00     0.090 A 
HETATM   12  N2  UNL     1      14.193  30.901  -8.715  1.00  0.00    -0.352 N 
ATOM     13  H2  UNL     1      13.532  31.565  -9.118  1.00  0.00     0.166 HD
ENDROOT
BRANCH   1  14
HETATM   14  N1  UNL     1      15.921  32.361  -9.415  1.00  0.00    -0.349 N 
ATOM     15  H1  UNL     1      15.830  32.409 -10.431  1.00  0.00     0.162 HD
BRANCH  14  16
HETATM   16  C1  UNL     1      16.487  33.531  -8.735  1.00  0.00     0.345 C 
BRANCH  16  17
HETATM   17  P1  UNL     1      17.099  34.680  -9.908  1.00  0.00     0.297 P 
HETATM   18  O1  UNL     1      18.326  35.716  -9.540  1.00  0.00    -0.638 OA
HETATM   19  O2  UNL     1      16.259  34.905 -11.364  1.00  0.00    -0.638 OA
HETATM   20  O3  UNL     1      17.997  33.756 -10.747  1.00  0.00    -0.638 OA
ENDBRANCH  16  17
BRANCH  16  21
HETATM   21  P2  UNL     1      15.450  34.116  -7.563  1.00  0.00     0.297 P 
HETATM   22  O5  UNL     1      14.233  34.105  -8.684  1.00  0.00    -0.638 OA
HETATM   23  O6  UNL     1      16.377  35.479  -7.432  1.00  0.00    -0.638 OA
HETATM   24  O7  UNL     1      14.490  34.691  -6.512  1.00  0.00    -0.638 OA
ENDBRANCH  16  21
ENDBRANCH  14  16
ENDBRANCH   1  14
BRANCH   7  25
HETATM   25  O4  UNL     1      19.478  25.504  -5.403  1.00  0.00    -0.338 OA
BRANCH  25  26
HETATM   26  C9  UNL     1      19.490  24.994  -4.104  1.00  0.00     0.174 A 
HETATM   27  C10 UNL     1      20.648  24.240  -3.660  1.00  0.00     0.008 A 
HETATM   28  C11 UNL     1      19.543  23.501  -4.021  1.00  0.00     0.008 A 
ENDBRANCH  25  26
ENDBRANCH   7  25
TORSDOF 6
ENDMDL
