MODEL 2
REMARK VINA RESULT: -11.181405913      1.266      1.812
REMARK  6 active torsions:
REMARK  status: ('A' for Active; 'I' for Inactive)
REMARK    1  A    between atoms: P1_2  and  C1_5 
REMARK    2  A    between atoms: C1_5  and  N1_6 
REMARK    3  A    between atoms: C1_5  and  P2_25 
REMARK    4  A    between atoms: N1_6  and  C2_8 
REMARK    5  A    between atoms: C8_14  and  O4_15 
REMARK    6  A    between atoms: O4_15  and  C9_16 
ROOT
HETATM    1  C2  UNL     1      15.172  32.211  -7.630  1.00  0.00     0.102 A 
HETATM    2  C3  UNL     1      15.942  31.120  -7.303  1.00  0.00     0.060 A 
HETATM    3  C4  UNL     1      15.536  29.821  -7.613  1.00  0.00    -0.021 A 
HETATM    4  C5  UNL     1      16.353  28.684  -7.263  1.00  0.00    -0.026 A 
HETATM    5  C6  UNL     1      16.335  27.573  -8.046  1.00  0.00     0.015 A 
HETATM    6  C7  UNL     1      17.111  26.486  -7.719  1.00  0.00     0.037 A 
HETATM    7  C8  UNL     1      17.896  26.528  -6.610  1.00  0.00     0.070 A 
HETATM    8  C12 UNL     1      17.918  27.673  -5.800  1.00  0.00     0.037 A 
HETATM    9  C13 UNL     1      17.140  28.744  -6.141  1.00  0.00     0.015 A 
HETATM   10  C14 UNL     1      14.336  29.626  -8.261  1.00  0.00     0.029 A 
HETATM   11  C15 UNL     1      13.587  30.737  -8.576  1.00  0.00     0.090 A 
HETATM   12  N2  UNL     1      14.017  31.966  -8.259  1.00  0.00    -0.352 N 
ATOM     13  H2  UNL     1      13.431  32.760  -8.511  1.00  0.00     0.166 HD
ENDROOT
BRANCH   1  14
HETATM   14  N1  UNL     1      15.552  33.524  -7.349  1.00  0.00    -0.349 N 
ATOM     15  H1  UNL     1      15.711  33.767  -6.371  1.00  0.00     0.162 HD
BRANCH  14  16
HETATM   16  C1  UNL     1      15.741  34.585  -8.345  1.00  0.00     0.345 C 
BRANCH  16  17
HETATM   17  P1  UNL     1      16.003  36.125  -7.550  1.00  0.00     0.297 P 
HETATM   18  O1  UNL     1      15.370  37.522  -8.150  1.00  0.00    -0.638 OA
HETATM   19  O2  UNL     1      17.126  36.224  -6.284  1.00  0.00    -0.638 OA
HETATM   20  O3  UNL     1      14.967  36.024  -6.419  1.00  0.00    -0.638 OA
ENDBRANCH  16  17
BRANCH  16  21
HETATM   21  P2  UNL     1      16.842  34.133  -9.516  1.00  0.00     0.297 P 
HETATM   22  O5  UNL     1      17.514  35.642  -9.418  1.00  0.00    -0.638 OA
HETATM   23  O6  UNL     1      15.601  33.901 -10.584  1.00  0.00    -0.638 OA
HETATM   24  O7  UNL     1      17.838  33.752 -10.621  1.00  0.00    -0.638 OA
ENDBRANCH  16  21
ENDBRANCH  14  16
ENDBRANCH   1  14
BRANCH   7  25
HETATM   25  O4  UNL     1      18.696  25.486  -6.219  1.00  0.00    -0.338 OA
BRANCH  25  26
HETATM   26  C9  UNL     1      18.404  24.481  -5.297  1.00  0.00     0.174 A 
HETATM   27  C10 UNL     1      18.721  24.703  -3.898  1.00  0.00     0.008 A 
HETATM   28  C11 UNL     1      19.597  23.906  -4.602  1.00  0.00     0.008 A 
ENDBRANCH  25  26
ENDBRANCH   7  25
TORSDOF 6
ENDMDL
