MODEL 10
REMARK VINA RESULT: -9.782053057      4.451      6.311
REMARK  6 active torsions:
REMARK  status: ('A' for Active; 'I' for Inactive)
REMARK    1  A    between atoms: P1_2  and  C1_5 
REMARK    2  A    between atoms: C1_5  and  N1_6 
REMARK    3  A    between atoms: C1_5  and  P2_25 
REMARK    4  A    between atoms: N1_6  and  C2_8 
REMARK    5  A    between atoms: C8_14  and  O4_15 
REMARK    6  A    between atoms: O4_15  and  C9_16 
ROOT
HETATM    1  C2  UNL     1      11.534  34.166  -5.785  1.00  0.00     0.102 A 
HETATM    2  C3  UNL     1      12.589  33.286  -5.819  1.00  0.00     0.060 A 
HETATM    3  C4  UNL     1      12.888  32.549  -6.966  1.00  0.00    -0.021 A 
HETATM    4  C5  UNL     1      13.999  31.628  -6.989  1.00  0.00    -0.026 A 
HETATM    5  C6  UNL     1      14.670  31.410  -8.151  1.00  0.00     0.015 A 
HETATM    6  C7  UNL     1      15.729  30.533  -8.180  1.00  0.00     0.037 A 
HETATM    7  C8  UNL     1      16.102  29.887  -7.043  1.00  0.00     0.070 A 
HETATM    8  C12 UNL     1      15.410  30.110  -5.843  1.00  0.00     0.037 A 
HETATM    9  C13 UNL     1      14.360  30.985  -5.833  1.00  0.00     0.015 A 
HETATM   10  C14 UNL     1      12.107  32.706  -8.090  1.00  0.00     0.029 A 
HETATM   11  C15 UNL     1      11.057  33.594  -8.026  1.00  0.00     0.090 A 
HETATM   12  N2  UNL     1      10.809  34.280  -6.902  1.00  0.00    -0.352 N 
ATOM     13  H2  UNL     1      10.021  34.928  -6.899  1.00  0.00     0.166 HD
ENDROOT
BRANCH   1  14
HETATM   14  N1  UNL     1      11.214  34.931  -4.661  1.00  0.00    -0.349 N 
ATOM     15  H1  UNL     1      11.914  34.990  -3.920  1.00  0.00     0.162 HD
BRANCH  14  16
HETATM   16  C1  UNL     1       9.955  35.655  -4.458  1.00  0.00     0.345 C 
BRANCH  16  17
HETATM   17  P1  UNL     1       9.179  35.122  -2.980  1.00  0.00     0.297 P 
HETATM   18  O1  UNL     1       7.960  34.014  -2.999  1.00  0.00    -0.638 OA
HETATM   19  O2  UNL     1       9.512  35.933  -1.529  1.00  0.00    -0.638 OA
HETATM   20  O3  UNL     1      10.223  34.112  -2.476  1.00  0.00    -0.638 OA
ENDBRANCH  16  17
BRANCH  16  21
HETATM   21  P2  UNL     1      10.159  37.301  -4.663  1.00  0.00     0.297 P 
HETATM   22  O5  UNL     1      10.001  37.081  -6.296  1.00  0.00    -0.638 OA
HETATM   23  O6  UNL     1      11.671  37.189  -4.006  1.00  0.00    -0.638 OA
HETATM   24  O7  UNL     1      10.384  38.804  -4.878  1.00  0.00    -0.638 OA
ENDBRANCH  16  21
ENDBRANCH  14  16
ENDBRANCH   1  14
BRANCH   7  25
HETATM   25  O4  UNL     1      17.145  29.000  -6.993  1.00  0.00    -0.338 OA
BRANCH  25  26
HETATM   26  C9  UNL     1      17.312  27.923  -6.123  1.00  0.00     0.174 A 
HETATM   27  C10 UNL     1      18.626  27.316  -6.007  1.00  0.00     0.008 A 
HETATM   28  C11 UNL     1      17.711  26.642  -6.785  1.00  0.00     0.008 A 
ENDBRANCH  25  26
ENDBRANCH   7  25
TORSDOF 6
ENDMDL
