MODEL 5
REMARK VINA RESULT: -10.315353856      0.895      2.407
REMARK  6 active torsions:
REMARK  status: ('A' for Active; 'I' for Inactive)
REMARK    1  A    between atoms: P1_2  and  C1_5 
REMARK    2  A    between atoms: C1_5  and  N1_6 
REMARK    3  A    between atoms: C1_5  and  P2_25 
REMARK    4  A    between atoms: N1_6  and  C2_8 
REMARK    5  A    between atoms: C8_14  and  O4_15 
REMARK    6  A    between atoms: O4_15  and  C9_16 
ROOT
HETATM    1  C2  UNL     1      15.350  31.267  -7.244  1.00  0.00     0.102 A 
HETATM    2  C3  UNL     1      16.209  30.240  -6.933  1.00  0.00     0.060 A 
HETATM    3  C4  UNL     1      15.860  28.906  -7.145  1.00  0.00    -0.021 A 
HETATM    4  C5  UNL     1      16.771  27.837  -6.814  1.00  0.00    -0.026 A 
HETATM    5  C6  UNL     1      16.755  26.688  -7.539  1.00  0.00     0.015 A 
HETATM    6  C7  UNL     1      17.621  25.665  -7.228  1.00  0.00     0.037 A 
HETATM    7  C8  UNL     1      18.491  25.809  -6.194  1.00  0.00     0.070 A 
HETATM    8  C12 UNL     1      18.510  26.994  -5.443  1.00  0.00     0.037 A 
HETATM    9  C13 UNL     1      17.642  28.000  -5.767  1.00  0.00     0.015 A 
HETATM   10  C14 UNL     1      14.624  28.610  -7.679  1.00  0.00     0.029 A 
HETATM   11  C15 UNL     1      13.785  29.658  -7.981  1.00  0.00     0.090 A 
HETATM   12  N2  UNL     1      14.164  30.924  -7.759  1.00  0.00    -0.352 N 
ATOM     13  H2  UNL     1      13.511  31.670  -7.998  1.00  0.00     0.166 HD
ENDROOT
BRANCH   1  14
HETATM   14  N1  UNL     1      15.670  32.613  -7.059  1.00  0.00    -0.349 N 
ATOM     15  H1  UNL     1      15.550  32.998  -6.122  1.00  0.00     0.162 HD
BRANCH  14  16
HETATM   16  C1  UNL     1      16.165  33.519  -8.101  1.00  0.00     0.345 C 
BRANCH  16  17
HETATM   17  P1  UNL     1      16.149  32.719  -9.660  1.00  0.00     0.297 P 
HETATM   18  O1  UNL     1      14.753  32.524 -10.513  1.00  0.00    -0.638 OA
HETATM   19  O2  UNL     1      17.542  31.912 -10.193  1.00  0.00    -0.638 OA
HETATM   20  O3  UNL     1      16.654  33.862 -10.555  1.00  0.00    -0.638 OA
ENDBRANCH  16  17
BRANCH  16  21
HETATM   21  P2  UNL     1      15.434  35.017  -8.004  1.00  0.00     0.297 P 
HETATM   22  O5  UNL     1      16.906  35.716  -8.295  1.00  0.00    -0.638 OA
HETATM   23  O6  UNL     1      15.018  34.705  -6.434  1.00  0.00    -0.638 OA
HETATM   24  O7  UNL     1      14.791  36.406  -7.879  1.00  0.00    -0.638 OA
ENDBRANCH  16  21
ENDBRANCH  14  16
ENDBRANCH   1  14
BRANCH   7  25
HETATM   25  O4  UNL     1      19.383  24.836  -5.825  1.00  0.00    -0.338 OA
BRANCH  25  26
HETATM   26  C9  UNL     1      19.310  23.981  -4.725  1.00  0.00     0.174 A 
HETATM   27  C10 UNL     1      19.418  24.545  -3.392  1.00  0.00     0.008 A 
HETATM   28  C11 UNL     1      20.549  23.934  -3.888  1.00  0.00     0.008 A 
ENDBRANCH  25  26
ENDBRANCH   7  25
TORSDOF 6
ENDMDL
