MODEL 16
REMARK VINA RESULT: -9.183633882      3.912      5.818
REMARK  6 active torsions:
REMARK  status: ('A' for Active; 'I' for Inactive)
REMARK    1  A    between atoms: P1_2  and  C1_5 
REMARK    2  A    between atoms: C1_5  and  N1_6 
REMARK    3  A    between atoms: C1_5  and  P2_25 
REMARK    4  A    between atoms: N1_6  and  C2_8 
REMARK    5  A    between atoms: C8_14  and  O4_15 
REMARK    6  A    between atoms: O4_15  and  C9_16 
ROOT
HETATM    1  C2  UNL     1      12.621  33.517  -5.986  1.00  0.00     0.102 A 
HETATM    2  C3  UNL     1      13.281  32.318  -6.115  1.00  0.00     0.060 A 
HETATM    3  C4  UNL     1      14.175  32.086  -7.161  1.00  0.00    -0.021 A 
HETATM    4  C5  UNL     1      14.862  30.823  -7.286  1.00  0.00    -0.026 A 
HETATM    5  C6  UNL     1      16.106  30.782  -7.832  1.00  0.00     0.015 A 
HETATM    6  C7  UNL     1      16.765  29.581  -7.954  1.00  0.00     0.037 A 
HETATM    7  C8  UNL     1      16.168  28.437  -7.526  1.00  0.00     0.070 A 
HETATM    8  C12 UNL     1      14.884  28.476  -6.962  1.00  0.00     0.037 A 
HETATM    9  C13 UNL     1      14.244  29.679  -6.849  1.00  0.00     0.015 A 
HETATM   10  C14 UNL     1      14.402  33.081  -8.087  1.00  0.00     0.029 A 
HETATM   11  C15 UNL     1      13.727  34.271  -7.932  1.00  0.00     0.090 A 
HETATM   12  N2  UNL     1      12.878  34.448  -6.911  1.00  0.00    -0.352 N 
ATOM     13  H2  UNL     1      12.399  35.345  -6.834  1.00  0.00     0.166 HD
ENDROOT
BRANCH   1  14
HETATM   14  N1  UNL     1      11.731  33.790  -4.946  1.00  0.00    -0.349 N 
ATOM     15  H1  UNL     1      11.614  33.073  -4.229  1.00  0.00     0.162 HD
BRANCH  14  16
HETATM   16  C1  UNL     1      10.950  35.023  -4.798  1.00  0.00     0.345 C 
BRANCH  16  17
HETATM   17  P1  UNL     1       9.691  35.094  -6.015  1.00  0.00     0.297 P 
HETATM   18  O1  UNL     1       8.147  34.625  -5.685  1.00  0.00    -0.638 OA
HETATM   19  O2  UNL     1      10.112  35.414  -7.626  1.00  0.00    -0.638 OA
HETATM   20  O3  UNL     1       9.353  36.592  -5.967  1.00  0.00    -0.638 OA
ENDBRANCH  16  17
BRANCH  16  21
HETATM   21  P2  UNL     1      10.492  35.268  -3.211  1.00  0.00     0.297 P 
HETATM   22  O5  UNL     1      11.410  36.646  -3.196  1.00  0.00    -0.638 OA
HETATM   23  O6  UNL     1      11.219  33.845  -2.788  1.00  0.00    -0.638 OA
HETATM   24  O7  UNL     1      10.117  35.492  -1.739  1.00  0.00    -0.638 OA
ENDBRANCH  16  21
ENDBRANCH  14  16
ENDBRANCH   1  14
BRANCH   7  25
HETATM   25  O4  UNL     1      16.761  27.205  -7.614  1.00  0.00    -0.338 OA
BRANCH  25  26
HETATM   26  C9  UNL     1      17.047  26.317  -6.577  1.00  0.00     0.174 A 
HETATM   27  C10 UNL     1      18.435  26.006  -6.287  1.00  0.00     0.008 A 
HETATM   28  C11 UNL     1      17.737  25.060  -7.005  1.00  0.00     0.008 A 
ENDBRANCH  25  26
ENDBRANCH   7  25
TORSDOF 6
ENDMDL
