MODEL 1
REMARK VINA RESULT: -11.343668032      0.000      0.000
REMARK  6 active torsions:
REMARK  status: ('A' for Active; 'I' for Inactive)
REMARK    1  A    between atoms: P1_2  and  C1_5 
REMARK    2  A    between atoms: C1_5  and  N1_6 
REMARK    3  A    between atoms: C1_5  and  P2_25 
REMARK    4  A    between atoms: N1_6  and  C2_8 
REMARK    5  A    between atoms: C8_14  and  O4_15 
REMARK    6  A    between atoms: O4_15  and  C9_16 
ROOT
HETATM    1  C2  UNL     1      15.787  30.992  -7.823  1.00  0.00     0.102 A 
HETATM    2  C3  UNL     1      16.620  29.972  -7.430  1.00  0.00     0.060 A 
HETATM    3  C4  UNL     1      16.147  28.672  -7.247  1.00  0.00    -0.021 A 
HETATM    4  C5  UNL     1      17.033  27.610  -6.834  1.00  0.00    -0.026 A 
HETATM    5  C6  UNL     1      16.797  26.336  -7.244  1.00  0.00     0.015 A 
HETATM    6  C7  UNL     1      17.638  25.320  -6.853  1.00  0.00     0.037 A 
HETATM    7  C8  UNL     1      18.703  25.595  -6.056  1.00  0.00     0.070 A 
HETATM    8  C12 UNL     1      18.949  26.909  -5.630  1.00  0.00     0.037 A 
HETATM    9  C13 UNL     1      18.103  27.906  -6.029  1.00  0.00     0.015 A 
HETATM   10  C14 UNL     1      14.814  28.403  -7.466  1.00  0.00     0.029 A 
HETATM   11  C15 UNL     1      14.003  29.443  -7.859  1.00  0.00     0.090 A 
HETATM   12  N2  UNL     1      14.502  30.676  -8.022  1.00  0.00    -0.352 N 
ATOM     13  H2  UNL     1      13.866  31.417  -8.314  1.00  0.00     0.166 HD
ENDROOT
BRANCH   1  14
HETATM   14  N1  UNL     1      16.226  32.301  -8.029  1.00  0.00    -0.349 N 
ATOM     15  H1  UNL     1      17.223  32.483  -7.913  1.00  0.00     0.162 HD
BRANCH  14  16
HETATM   16  C1  UNL     1      15.372  33.435  -8.398  1.00  0.00     0.345 C 
BRANCH  16  17
HETATM   17  P1  UNL     1      15.183  34.522  -7.037  1.00  0.00     0.297 P 
HETATM   18  O1  UNL     1      16.243  35.754  -6.765  1.00  0.00    -0.638 OA
HETATM   19  O2  UNL     1      14.040  34.159  -5.838  1.00  0.00    -0.638 OA
HETATM   20  O3  UNL     1      14.088  35.452  -7.583  1.00  0.00    -0.638 OA
ENDBRANCH  16  17
BRANCH  16  21
HETATM   21  P2  UNL     1      15.846  34.107  -9.852  1.00  0.00     0.297 P 
HETATM   22  O5  UNL     1      15.087  32.862 -10.635  1.00  0.00    -0.638 OA
HETATM   23  O6  UNL     1      17.429  33.905  -9.422  1.00  0.00    -0.638 OA
HETATM   24  O7  UNL     1      16.305  34.685 -11.199  1.00  0.00    -0.638 OA
ENDBRANCH  16  21
ENDBRANCH  14  16
ENDBRANCH   1  14
BRANCH   7  25
HETATM   25  O4  UNL     1      19.584  24.637  -5.626  1.00  0.00    -0.338 OA
BRANCH  25  26
HETATM   26  C9  UNL     1      19.524  23.885  -4.452  1.00  0.00     0.174 A 
HETATM   27  C10 UNL     1      19.273  24.568  -3.197  1.00  0.00     0.008 A 
HETATM   28  C11 UNL     1      20.580  24.216  -3.445  1.00  0.00     0.008 A 
ENDBRANCH  25  26
ENDBRANCH   7  25
TORSDOF 6
ENDMDL
