MODEL 14
REMARK VINA RESULT: -9.393010580      4.135      5.850
REMARK  6 active torsions:
REMARK  status: ('A' for Active; 'I' for Inactive)
REMARK    1  A    between atoms: P1_2  and  C1_5 
REMARK    2  A    between atoms: C1_5  and  N1_6 
REMARK    3  A    between atoms: C1_5  and  P2_25 
REMARK    4  A    between atoms: N1_6  and  C2_8 
REMARK    5  A    between atoms: C8_14  and  O4_15 
REMARK    6  A    between atoms: O4_15  and  C9_16 
ROOT
HETATM    1  C2  UNL     1      11.785  33.957  -6.535  1.00  0.00     0.102 A 
HETATM    2  C3  UNL     1      12.800  33.032  -6.480  1.00  0.00     0.060 A 
HETATM    3  C4  UNL     1      13.054  32.163  -7.543  1.00  0.00    -0.021 A 
HETATM    4  C5  UNL     1      14.123  31.197  -7.472  1.00  0.00    -0.026 A 
HETATM    5  C6  UNL     1      14.773  30.825  -8.607  1.00  0.00     0.015 A 
HETATM    6  C7  UNL     1      15.792  29.904  -8.547  1.00  0.00     0.037 A 
HETATM    7  C8  UNL     1      16.147  29.367  -7.349  1.00  0.00     0.070 A 
HETATM    8  C12 UNL     1      15.479  29.749  -6.176  1.00  0.00     0.037 A 
HETATM    9  C13 UNL     1      14.468  30.666  -6.256  1.00  0.00     0.015 A 
HETATM   10  C14 UNL     1      12.269  32.233  -8.672  1.00  0.00     0.029 A 
HETATM   11  C15 UNL     1      11.260  33.169  -8.699  1.00  0.00     0.090 A 
HETATM   12  N2  UNL     1      11.054  33.982  -7.655  1.00  0.00    -0.352 N 
ATOM     13  H2  UNL     1      10.295  34.661  -7.717  1.00  0.00     0.166 HD
ENDROOT
BRANCH   1  14
HETATM   14  N1  UNL     1      11.510  34.851  -5.499  1.00  0.00    -0.349 N 
ATOM     15  H1  UNL     1      12.189  35.594  -5.329  1.00  0.00     0.162 HD
BRANCH  14  16
HETATM   16  C1  UNL     1      10.325  34.810  -4.634  1.00  0.00     0.345 C 
BRANCH  16  17
HETATM   17  P1  UNL     1      10.801  34.864  -2.949  1.00  0.00     0.297 P 
HETATM   18  O1  UNL     1      12.208  34.182  -2.429  1.00  0.00    -0.638 OA
HETATM   19  O2  UNL     1       9.689  35.406  -1.789  1.00  0.00    -0.638 OA
HETATM   20  O3  UNL     1      11.351  36.297  -2.869  1.00  0.00    -0.638 OA
ENDBRANCH  16  17
BRANCH  16  21
HETATM   21  P2  UNL     1       9.167  35.904  -5.136  1.00  0.00     0.297 P 
HETATM   22  O5  UNL     1       8.369  34.662  -5.885  1.00  0.00    -0.638 OA
HETATM   23  O6  UNL     1      10.319  36.720  -5.997  1.00  0.00    -0.638 OA
HETATM   24  O7  UNL     1       8.112  36.898  -5.642  1.00  0.00    -0.638 OA
ENDBRANCH  16  21
ENDBRANCH  14  16
ENDBRANCH   1  14
BRANCH   7  25
HETATM   25  O4  UNL     1      17.152  28.445  -7.210  1.00  0.00    -0.338 OA
BRANCH  25  26
HETATM   26  C9  UNL     1      17.442  27.658  -6.095  1.00  0.00     0.174 A 
HETATM   27  C10 UNL     1      18.828  27.337  -5.808  1.00  0.00     0.008 A 
HETATM   28  C11 UNL     1      18.087  26.345  -6.411  1.00  0.00     0.008 A 
ENDBRANCH  25  26
ENDBRANCH   7  25
TORSDOF 6
ENDMDL
