MODEL 4
REMARK VINA RESULT: -10.360145244      1.109      2.651
REMARK  6 active torsions:
REMARK  status: ('A' for Active; 'I' for Inactive)
REMARK    1  A    between atoms: P1_2  and  C1_5 
REMARK    2  A    between atoms: C1_5  and  N1_6 
REMARK    3  A    between atoms: C1_5  and  P2_25 
REMARK    4  A    between atoms: N1_6  and  C2_8 
REMARK    5  A    between atoms: C8_14  and  O4_15 
REMARK    6  A    between atoms: O4_15  and  C9_16 
ROOT
HETATM    1  C2  UNL     1      15.037  32.053  -7.507  1.00  0.00     0.102 A 
HETATM    2  C3  UNL     1      15.854  30.994  -7.191  1.00  0.00     0.060 A 
HETATM    3  C4  UNL     1      15.493  29.679  -7.490  1.00  0.00    -0.021 A 
HETATM    4  C5  UNL     1      16.360  28.576  -7.152  1.00  0.00    -0.026 A 
HETATM    5  C6  UNL     1      16.369  27.462  -7.931  1.00  0.00     0.015 A 
HETATM    6  C7  UNL     1      17.193  26.407  -7.615  1.00  0.00     0.037 A 
HETATM    7  C8  UNL     1      17.997  26.483  -6.521  1.00  0.00     0.070 A 
HETATM    8  C12 UNL     1      17.989  27.631  -5.715  1.00  0.00     0.037 A 
HETATM    9  C13 UNL     1      17.164  28.670  -6.045  1.00  0.00     0.015 A 
HETATM   10  C14 UNL     1      14.290  29.436  -8.115  1.00  0.00     0.029 A 
HETATM   11  C15 UNL     1      13.492  30.516  -8.419  1.00  0.00     0.090 A 
HETATM   12  N2  UNL     1      13.881  31.761  -8.113  1.00  0.00    -0.352 N 
ATOM     13  H2  UNL     1      13.259  32.532  -8.357  1.00  0.00     0.166 HD
ENDROOT
BRANCH   1  14
HETATM   14  N1  UNL     1      15.370  33.381  -7.237  1.00  0.00    -0.349 N 
ATOM     15  H1  UNL     1      14.983  33.798  -6.390  1.00  0.00     0.162 HD
BRANCH  14  16
HETATM   16  C1  UNL     1      16.231  34.227  -8.071  1.00  0.00     0.345 C 
BRANCH  16  17
HETATM   17  P1  UNL     1      16.297  33.601  -9.707  1.00  0.00     0.297 P 
HETATM   18  O1  UNL     1      14.930  33.380 -10.599  1.00  0.00    -0.638 OA
HETATM   19  O2  UNL     1      17.759  32.980 -10.300  1.00  0.00    -0.638 OA
HETATM   20  O3  UNL     1      16.706  34.873 -10.466  1.00  0.00    -0.638 OA
ENDBRANCH  16  17
BRANCH  16  21
HETATM   21  P2  UNL     1      15.860  35.845  -7.886  1.00  0.00     0.297 P 
HETATM   22  O5  UNL     1      16.779  35.862  -6.510  1.00  0.00    -0.638 OA
HETATM   23  O6  UNL     1      14.260  35.455  -7.748  1.00  0.00    -0.638 OA
HETATM   24  O7  UNL     1      15.499  37.322  -7.675  1.00  0.00    -0.638 OA
ENDBRANCH  16  21
ENDBRANCH  14  16
ENDBRANCH   1  14
BRANCH   7  25
HETATM   25  O4  UNL     1      18.843  25.474  -6.143  1.00  0.00    -0.338 OA
BRANCH  25  26
HETATM   26  C9  UNL     1      18.574  24.407  -5.285  1.00  0.00     0.174 A 
HETATM   27  C10 UNL     1      18.721  24.607  -3.855  1.00  0.00     0.008 A 
HETATM   28  C11 UNL     1      19.748  23.940  -4.484  1.00  0.00     0.008 A 
ENDBRANCH  25  26
ENDBRANCH   7  25
TORSDOF 6
ENDMDL
