MODEL 15
REMARK VINA RESULT: -9.245423312      4.279      6.764
REMARK  7 active torsions:
REMARK  status: ('A' for Active; 'I' for Inactive)
REMARK    1  A    between atoms: C2_2  and  O1_4 
REMARK    2  A    between atoms: O1_4  and  C4_5 
REMARK    3  A    between atoms: C7_8  and  C8_9 
REMARK    4  A    between atoms: C11_14  and  N2_15 
REMARK    5  A    between atoms: N2_15  and  C12_17 
REMARK    6  A    between atoms: C12_17  and  P1_18 
REMARK    7  A    between atoms: C12_17  and  P2_22 
ROOT
HETATM    1  C8  UNL     1      12.307  32.990  -6.890  1.00  0.00    -0.008 A 
HETATM    2  C9  UNL     1      12.063  33.564  -8.120  1.00  0.00     0.100 A 
HETATM    3  N1  UNL     1      11.112  34.487  -8.185  1.00  0.00    -0.372 N 
ATOM      4  H1  UNL     1      10.924  34.915  -9.091  1.00  0.00     0.164 HD
HETATM    5  C10 UNL     1      10.370  34.897  -7.120  1.00  0.00     0.116 A 
HETATM    6  C11 UNL     1      10.602  34.337  -5.894  1.00  0.00     0.045 A 
HETATM    7  C13 UNL     1      11.594  33.366  -5.801  1.00  0.00     0.044 A 
ENDROOT
BRANCH   6   8
HETATM    8  N2  UNL     1       9.844  34.723  -4.774  1.00  0.00    -0.361 N 
ATOM      9  H2  UNL     1       8.926  34.292  -4.667  1.00  0.00     0.161 HD
BRANCH   8  10
HETATM   10  C12 UNL     1      10.247  35.683  -3.751  1.00  0.00     0.344 C 
BRANCH  10  11
HETATM   11  P1  UNL     1       9.555  37.302  -3.966  1.00  0.00     0.297 P 
HETATM   12  O2  UNL     1       9.545  38.002  -5.441  1.00  0.00    -0.638 OA
HETATM   13  O3  UNL     1      10.825  38.128  -3.606  1.00  0.00    -0.638 OA
HETATM   14  O4  UNL     1       8.084  36.937  -4.231  1.00  0.00    -0.638 OA
ENDBRANCH  10  11
BRANCH  10  15
HETATM   15  P2  UNL     1       9.934  35.093  -2.221  1.00  0.00     0.297 P 
HETATM   16  O5  UNL     1       8.771  34.048  -2.809  1.00  0.00    -0.638 OA
HETATM   17  O6  UNL     1      11.489  34.577  -2.088  1.00  0.00    -0.638 OA
HETATM   18  O7  UNL     1       9.511  36.538  -1.581  1.00  0.00    -0.638 OA
ENDBRANCH  10  15
ENDBRANCH   8  10
ENDBRANCH   6   8
BRANCH   1  19
HETATM   19  C7  UNL     1      13.364  31.966  -6.787  1.00  0.00    -0.024 A 
HETATM   20  C6  UNL     1      13.795  31.347  -7.933  1.00  0.00     0.015 A 
HETATM   21  C5  UNL     1      14.793  30.371  -7.879  1.00  0.00     0.037 A 
HETATM   22  C4  UNL     1      15.369  30.004  -6.694  1.00  0.00     0.069 A 
HETATM   23  C15 UNL     1      14.934  30.631  -5.533  1.00  0.00     0.037 A 
HETATM   24  C14 UNL     1      13.943  31.597  -5.598  1.00  0.00     0.015 A 
BRANCH  22  25
HETATM   25  O1  UNL     1      16.343  29.055  -6.624  1.00  0.00    -0.347 OA
BRANCH  25  26
HETATM   26  C2  UNL     1      16.240  27.696  -6.387  1.00  0.00     0.120 C 
HETATM   27  C1  UNL     1      17.451  27.130  -5.660  1.00  0.00     0.040 C 
HETATM   28  C3  UNL     1      16.091  26.905  -7.688  1.00  0.00     0.040 C 
ENDBRANCH  25  26
ENDBRANCH  22  25
ENDBRANCH   1  19
TORSDOF 7
ENDMDL
