MODEL 17
REMARK VINA RESULT: -8.807113131      4.372      6.747
REMARK  7 active torsions:
REMARK  status: ('A' for Active; 'I' for Inactive)
REMARK    1  A    between atoms: C2_2  and  O1_4 
REMARK    2  A    between atoms: O1_4  and  C4_5 
REMARK    3  A    between atoms: C7_8  and  C8_9 
REMARK    4  A    between atoms: C11_14  and  N2_15 
REMARK    5  A    between atoms: N2_15  and  C12_17 
REMARK    6  A    between atoms: C12_17  and  P1_18 
REMARK    7  A    between atoms: C12_17  and  P2_22 
ROOT
HETATM    1  C8  UNL     1      12.334  32.897  -6.879  1.00  0.00    -0.008 A 
HETATM    2  C9  UNL     1      11.908  33.573  -8.004  1.00  0.00     0.100 A 
HETATM    3  N1  UNL     1      11.036  34.558  -7.829  1.00  0.00    -0.372 N 
ATOM      4  H1  UNL     1      10.714  35.062  -8.655  1.00  0.00     0.164 HD
HETATM    5  C10 UNL     1      10.543  34.939  -6.619  1.00  0.00     0.116 A 
HETATM    6  C11 UNL     1      10.958  34.277  -5.496  1.00  0.00     0.045 A 
HETATM    7  C13 UNL     1      11.871  33.240  -5.653  1.00  0.00     0.044 A 
ENDROOT
BRANCH   6   8
HETATM    8  N2  UNL     1      10.458  34.631  -4.230  1.00  0.00    -0.361 N 
ATOM      9  H2  UNL     1      10.631  33.977  -3.467  1.00  0.00     0.161 HD
BRANCH   8  10
HETATM   10  C12 UNL     1       9.714  35.844  -3.905  1.00  0.00     0.344 C 
BRANCH  10  11
HETATM   11  P1  UNL     1       7.953  35.666  -4.019  1.00  0.00     0.297 P 
HETATM   12  O2  UNL     1       7.300  34.660  -5.127  1.00  0.00    -0.638 OA
HETATM   13  O3  UNL     1       7.676  36.864  -4.974  1.00  0.00    -0.638 OA
HETATM   14  O4  UNL     1       7.728  34.537  -2.997  1.00  0.00    -0.638 OA
ENDBRANCH  10  11
BRANCH  10  15
HETATM   15  P2  UNL     1      10.164  36.439  -2.412  1.00  0.00     0.297 P 
HETATM   16  O5  UNL     1      10.437  34.900  -1.826  1.00  0.00    -0.638 OA
HETATM   17  O6  UNL     1      11.402  37.271  -3.102  1.00  0.00    -0.638 OA
HETATM   18  O7  UNL     1       8.749  37.206  -2.117  1.00  0.00    -0.638 OA
ENDBRANCH  10  15
ENDBRANCH   8  10
ENDBRANCH   6   8
BRANCH   1  19
HETATM   19  C7  UNL     1      13.309  31.802  -7.043  1.00  0.00    -0.024 A 
HETATM   20  C6  UNL     1      14.150  31.508  -6.001  1.00  0.00     0.015 A 
HETATM   21  C5  UNL     1      15.089  30.479  -6.116  1.00  0.00     0.037 A 
HETATM   22  C4  UNL     1      15.200  29.739  -7.260  1.00  0.00     0.069 A 
HETATM   23  C15 UNL     1      14.347  30.036  -8.318  1.00  0.00     0.037 A 
HETATM   24  C14 UNL     1      13.421  31.058  -8.192  1.00  0.00     0.015 A 
BRANCH  22  25
HETATM   25  O1  UNL     1      16.109  28.733  -7.390  1.00  0.00    -0.347 OA
BRANCH  25  26
HETATM   26  C2  UNL     1      16.180  27.515  -6.739  1.00  0.00     0.120 C 
HETATM   27  C1  UNL     1      17.318  27.449  -5.732  1.00  0.00     0.040 C 
HETATM   28  C3  UNL     1      16.386  26.361  -7.722  1.00  0.00     0.040 C 
ENDBRANCH  25  26
ENDBRANCH  22  25
ENDBRANCH   1  19
TORSDOF 7
ENDMDL
