MODEL 13
REMARK VINA RESULT: -9.386743972      2.326      3.206
REMARK  7 active torsions:
REMARK  status: ('A' for Active; 'I' for Inactive)
REMARK    1  A    between atoms: C2_2  and  O1_4 
REMARK    2  A    between atoms: O1_4  and  C4_5 
REMARK    3  A    between atoms: C7_8  and  C8_9 
REMARK    4  A    between atoms: C11_14  and  N2_15 
REMARK    5  A    between atoms: N2_15  and  C12_17 
REMARK    6  A    between atoms: C12_17  and  P1_18 
REMARK    7  A    between atoms: C12_17  and  P2_22 
ROOT
HETATM    1  C8  UNL     1      14.849  29.578  -7.505  1.00  0.00    -0.008 A 
HETATM    2  C9  UNL     1      13.684  29.266  -8.176  1.00  0.00     0.100 A 
HETATM    3  N1  UNL     1      12.906  30.275  -8.547  1.00  0.00    -0.372 N 
ATOM      4  H1  UNL     1      12.042  30.053  -9.043  1.00  0.00     0.164 HD
HETATM    5  C10 UNL     1      13.186  31.586  -8.310  1.00  0.00     0.116 A 
HETATM    6  C11 UNL     1      14.337  31.908  -7.646  1.00  0.00     0.045 A 
HETATM    7  C13 UNL     1      15.169  30.869  -7.246  1.00  0.00     0.044 A 
ENDROOT
BRANCH   6   8
HETATM    8  N2  UNL     1      14.651  33.250  -7.368  1.00  0.00    -0.361 N 
ATOM      9  H2  UNL     1      13.995  33.766  -6.781  1.00  0.00     0.161 HD
BRANCH   8  10
HETATM   10  C12 UNL     1      15.827  33.976  -7.839  1.00  0.00     0.344 C 
BRANCH  10  11
HETATM   11  P1  UNL     1      16.186  33.733  -9.559  1.00  0.00     0.297 P 
HETATM   12  O2  UNL     1      16.305  32.223 -10.168  1.00  0.00    -0.638 OA
HETATM   13  O3  UNL     1      17.738  33.795  -9.466  1.00  0.00    -0.638 OA
HETATM   14  O4  UNL     1      14.761  33.756 -10.140  1.00  0.00    -0.638 OA
ENDBRANCH  10  11
BRANCH  10  15
HETATM   15  P2  UNL     1      15.714  35.601  -7.471  1.00  0.00     0.297 P 
HETATM   16  O5  UNL     1      16.613  36.018  -8.815  1.00  0.00    -0.638 OA
HETATM   17  O6  UNL     1      14.076  35.526  -7.588  1.00  0.00    -0.638 OA
HETATM   18  O7  UNL     1      16.420  35.476  -6.001  1.00  0.00    -0.638 OA
ENDBRANCH  10  15
ENDBRANCH   8  10
ENDBRANCH   6   8
BRANCH   1  19
HETATM   19  C7  UNL     1      15.737  28.477  -7.087  1.00  0.00    -0.024 A 
HETATM   20  C6  UNL     1      15.719  27.308  -7.803  1.00  0.00     0.015 A 
HETATM   21  C5  UNL     1      16.543  26.240  -7.439  1.00  0.00     0.037 A 
HETATM   22  C4  UNL     1      17.387  26.324  -6.366  1.00  0.00     0.069 A 
HETATM   23  C15 UNL     1      17.407  27.509  -5.639  1.00  0.00     0.037 A 
HETATM   24  C14 UNL     1      16.585  28.561  -6.010  1.00  0.00     0.015 A 
BRANCH  22  25
HETATM   25  O1  UNL     1      18.197  25.293  -5.997  1.00  0.00    -0.347 OA
BRANCH  25  26
HETATM   26  C2  UNL     1      18.841  25.059  -4.795  1.00  0.00     0.120 C 
HETATM   27  C1  UNL     1      20.343  25.289  -4.877  1.00  0.00     0.040 C 
HETATM   28  C3  UNL     1      18.634  23.623  -4.314  1.00  0.00     0.040 C 
ENDBRANCH  25  26
ENDBRANCH  22  25
ENDBRANCH   1  19
TORSDOF 7
ENDMDL
