MODEL 14
REMARK VINA RESULT: -9.335834428      1.941      3.471
REMARK  7 active torsions:
REMARK  status: ('A' for Active; 'I' for Inactive)
REMARK    1  A    between atoms: C2_2  and  O1_4 
REMARK    2  A    between atoms: O1_4  and  C4_5 
REMARK    3  A    between atoms: C7_8  and  C8_9 
REMARK    4  A    between atoms: C11_14  and  N2_15 
REMARK    5  A    between atoms: N2_15  and  C12_17 
REMARK    6  A    between atoms: C12_17  and  P1_18 
REMARK    7  A    between atoms: C12_17  and  P2_22 
ROOT
HETATM    1  C8  UNL     1      15.384  28.938  -7.792  1.00  0.00    -0.008 A 
HETATM    2  C9  UNL     1      14.011  28.835  -7.699  1.00  0.00     0.100 A 
HETATM    3  N1  UNL     1      13.288  29.787  -8.275  1.00  0.00    -0.372 N 
ATOM      4  H1  UNL     1      12.273  29.719  -8.210  1.00  0.00     0.164 HD
HETATM    5  C10 UNL     1      13.815  30.848  -8.946  1.00  0.00     0.116 A 
HETATM    6  C11 UNL     1      15.174  30.962  -9.045  1.00  0.00     0.045 A 
HETATM    7  C13 UNL     1      15.954  29.977  -8.449  1.00  0.00     0.044 A 
ENDROOT
BRANCH   6   8
HETATM    8  N2  UNL     1      15.754  32.053  -9.716  1.00  0.00    -0.361 N 
ATOM      9  H2  UNL     1      15.819  31.989 -10.732  1.00  0.00     0.161 HD
BRANCH   8  10
HETATM   10  C12 UNL     1      16.272  33.270  -9.097  1.00  0.00     0.344 C 
BRANCH  10  11
HETATM   11  P1  UNL     1      17.084  34.368 -10.228  1.00  0.00     0.297 P 
HETATM   12  O2  UNL     1      18.008  33.769 -11.434  1.00  0.00    -0.638 OA
HETATM   13  O3  UNL     1      18.374  34.621  -9.394  1.00  0.00    -0.638 OA
HETATM   14  O4  UNL     1      15.978  34.538 -11.284  1.00  0.00    -0.638 OA
ENDBRANCH  10  11
BRANCH  10  15
HETATM   15  P2  UNL     1      15.076  34.062  -8.242  1.00  0.00     0.297 P 
HETATM   16  O5  UNL     1      15.224  33.004  -6.959  1.00  0.00    -0.638 OA
HETATM   17  O6  UNL     1      15.965  35.444  -8.255  1.00  0.00    -0.638 OA
HETATM   18  O7  UNL     1      13.911  33.847  -9.370  1.00  0.00    -0.638 OA
ENDBRANCH  10  15
ENDBRANCH   8  10
ENDBRANCH   6   8
BRANCH   1  19
HETATM   19  C7  UNL     1      16.213  27.890  -7.167  1.00  0.00    -0.024 A 
HETATM   20  C6  UNL     1      16.216  26.636  -7.721  1.00  0.00     0.015 A 
HETATM   21  C5  UNL     1      16.986  25.614  -7.160  1.00  0.00     0.037 A 
HETATM   22  C4  UNL     1      17.754  25.828  -6.049  1.00  0.00     0.069 A 
HETATM   23  C15 UNL     1      17.753  27.099  -5.486  1.00  0.00     0.037 A 
HETATM   24  C14 UNL     1      16.985  28.104  -6.052  1.00  0.00     0.015 A 
BRANCH  22  25
HETATM   25  O1  UNL     1      18.511  24.844  -5.488  1.00  0.00    -0.347 OA
BRANCH  25  26
HETATM   26  C2  UNL     1      19.338  24.885  -4.380  1.00  0.00     0.120 C 
HETATM   27  C1  UNL     1      20.783  25.198  -4.734  1.00  0.00     0.040 C 
HETATM   28  C3  UNL     1      19.340  23.553  -3.628  1.00  0.00     0.040 C 
ENDBRANCH  25  26
ENDBRANCH  22  25
ENDBRANCH   1  19
TORSDOF 7
ENDMDL
