MODEL 12
REMARK VINA RESULT: -9.472366363      4.053      6.135
REMARK  7 active torsions:
REMARK  status: ('A' for Active; 'I' for Inactive)
REMARK    1  A    between atoms: C2_2  and  O1_4 
REMARK    2  A    between atoms: O1_4  and  C4_5 
REMARK    3  A    between atoms: C7_8  and  C8_9 
REMARK    4  A    between atoms: C11_14  and  N2_15 
REMARK    5  A    between atoms: N2_15  and  C12_17 
REMARK    6  A    between atoms: C12_17  and  P1_18 
REMARK    7  A    between atoms: C12_17  and  P2_22 
ROOT
HETATM    1  C8  UNL     1      12.556  32.602  -7.038  1.00  0.00    -0.008 A 
HETATM    2  C9  UNL     1      11.890  32.748  -8.237  1.00  0.00     0.100 A 
HETATM    3  N1  UNL     1      10.941  33.673  -8.299  1.00  0.00    -0.372 N 
ATOM      4  H1  UNL     1      10.442  33.787  -9.181  1.00  0.00     0.164 HD
HETATM    5  C10 UNL     1      10.589  34.480  -7.260  1.00  0.00     0.116 A 
HETATM    6  C11 UNL     1      11.242  34.346  -6.066  1.00  0.00     0.045 A 
HETATM    7  C13 UNL     1      12.241  33.383  -5.976  1.00  0.00     0.044 A 
ENDROOT
BRANCH   6   8
HETATM    8  N2  UNL     1      10.895  35.150  -4.966  1.00  0.00    -0.361 N 
ATOM      9  H2  UNL     1      11.521  35.925  -4.744  1.00  0.00     0.161 HD
BRANCH   8  10
HETATM   10  C12 UNL     1       9.724  34.982  -4.110  1.00  0.00     0.344 C 
BRANCH  10  11
HETATM   11  P1  UNL     1      10.061  35.167  -2.378  1.00  0.00     0.297 P 
HETATM   12  O2  UNL     1      11.338  34.404  -1.704  1.00  0.00    -0.638 OA
HETATM   13  O3  UNL     1       9.134  34.031  -1.856  1.00  0.00    -0.638 OA
HETATM   14  O4  UNL     1      10.945  36.426  -2.406  1.00  0.00    -0.638 OA
ENDBRANCH  10  11
BRANCH  10  15
HETATM   15  P2  UNL     1       8.481  35.987  -4.592  1.00  0.00     0.297 P 
HETATM   16  O5  UNL     1       9.542  36.990  -5.403  1.00  0.00    -0.638 OA
HETATM   17  O6  UNL     1       7.771  34.743  -5.398  1.00  0.00    -0.638 OA
HETATM   18  O7  UNL     1       7.980  36.352  -3.078  1.00  0.00    -0.638 OA
ENDBRANCH  10  15
ENDBRANCH   8  10
ENDBRANCH   6   8
BRANCH   1  19
HETATM   19  C7  UNL     1      13.621  31.586  -6.943  1.00  0.00    -0.024 A 
HETATM   20  C6  UNL     1      14.071  31.218  -5.701  1.00  0.00     0.015 A 
HETATM   21  C5  UNL     1      15.080  30.260  -5.567  1.00  0.00     0.037 A 
HETATM   22  C4  UNL     1      15.646  29.663  -6.659  1.00  0.00     0.069 A 
HETATM   23  C15 UNL     1      15.189  30.035  -7.919  1.00  0.00     0.037 A 
HETATM   24  C14 UNL     1      14.189  30.986  -8.039  1.00  0.00     0.015 A 
BRANCH  22  25
HETATM   25  O1  UNL     1      16.629  28.728  -6.547  1.00  0.00    -0.347 OA
BRANCH  25  26
HETATM   26  C2  UNL     1      16.548  27.396  -6.185  1.00  0.00     0.120 C 
HETATM   27  C1  UNL     1      17.769  26.919  -5.413  1.00  0.00     0.040 C 
HETATM   28  C3  UNL     1      16.408  26.485  -7.406  1.00  0.00     0.040 C 
ENDBRANCH  25  26
ENDBRANCH  22  25
ENDBRANCH   1  19
TORSDOF 7
ENDMDL
