MODEL 11
REMARK VINA RESULT: -9.490580124      2.196      2.941
REMARK  7 active torsions:
REMARK  status: ('A' for Active; 'I' for Inactive)
REMARK    1  A    between atoms: C2_2  and  O1_4 
REMARK    2  A    between atoms: O1_4  and  C4_5 
REMARK    3  A    between atoms: C7_8  and  C8_9 
REMARK    4  A    between atoms: C11_14  and  N2_15 
REMARK    5  A    between atoms: N2_15  and  C12_17 
REMARK    6  A    between atoms: C12_17  and  P1_18 
REMARK    7  A    between atoms: C12_17  and  P2_22 
ROOT
HETATM    1  C8  UNL     1      15.358  29.218  -7.540  1.00  0.00    -0.008 A 
HETATM    2  C9  UNL     1      14.168  29.040  -8.215  1.00  0.00     0.100 A 
HETATM    3  N1  UNL     1      13.528  30.130  -8.617  1.00  0.00    -0.372 N 
ATOM      4  H1  UNL     1      12.646  30.009  -9.116  1.00  0.00     0.164 HD
HETATM    5  C10 UNL     1      13.971  31.400  -8.408  1.00  0.00     0.116 A 
HETATM    6  C11 UNL     1      15.149  31.590  -7.740  1.00  0.00     0.045 A 
HETATM    7  C13 UNL     1      15.839  30.463  -7.307  1.00  0.00     0.044 A 
ENDROOT
BRANCH   6   8
HETATM    8  N2  UNL     1      15.630  32.887  -7.490  1.00  0.00    -0.361 N 
ATOM      9  H2  UNL     1      16.239  33.006  -6.680  1.00  0.00     0.161 HD
BRANCH   8  10
HETATM   10  C12 UNL     1      15.342  34.081  -8.279  1.00  0.00     0.344 C 
BRANCH  10  11
HETATM   11  P1  UNL     1      15.296  35.581  -7.333  1.00  0.00     0.297 P 
HETATM   12  O2  UNL     1      14.338  35.692  -6.016  1.00  0.00    -0.638 OA
HETATM   13  O3  UNL     1      14.208  36.325  -8.161  1.00  0.00    -0.638 OA
HETATM   14  O4  UNL     1      16.455  35.320  -6.354  1.00  0.00    -0.638 OA
ENDBRANCH  10  11
BRANCH  10  15
HETATM   15  P2  UNL     1      16.394  34.214  -9.569  1.00  0.00     0.297 P 
HETATM   16  O5  UNL     1      16.888  35.730  -9.072  1.00  0.00    -0.638 OA
HETATM   17  O6  UNL     1      17.215  32.888  -9.051  1.00  0.00    -0.638 OA
HETATM   18  O7  UNL     1      15.247  34.047 -10.723  1.00  0.00    -0.638 OA
ENDBRANCH  10  15
ENDBRANCH   8  10
ENDBRANCH   6   8
BRANCH   1  19
HETATM   19  C7  UNL     1      16.095  28.023  -7.086  1.00  0.00    -0.024 A 
HETATM   20  C6  UNL     1      16.920  28.132  -5.997  1.00  0.00     0.015 A 
HETATM   21  C5  UNL     1      17.638  27.025  -5.536  1.00  0.00     0.037 A 
HETATM   22  C4  UNL     1      17.542  25.807  -6.150  1.00  0.00     0.069 A 
HETATM   23  C15 UNL     1      16.704  25.694  -7.254  1.00  0.00     0.037 A 
HETATM   24  C14 UNL     1      15.999  26.799  -7.702  1.00  0.00     0.015 A 
BRANCH  22  25
HETATM   25  O1  UNL     1      18.233  24.718  -5.715  1.00  0.00    -0.347 OA
BRANCH  25  26
HETATM   26  C2  UNL     1      19.096  24.587  -4.642  1.00  0.00     0.120 C 
HETATM   27  C1  UNL     1      19.743  23.212  -4.569  1.00  0.00     0.040 C 
HETATM   28  C3  UNL     1      18.380  24.814  -3.310  1.00  0.00     0.040 C 
ENDBRANCH  25  26
ENDBRANCH  22  25
ENDBRANCH   1  19
TORSDOF 7
ENDMDL
