MODEL 3
REMARK VINA RESULT: -9.862206257      2.650      4.398
REMARK  11 active torsions:
REMARK  status: ('A' for Active; 'I' for Inactive)
REMARK    1  A    between atoms: C8_18  and  C9_19 
REMARK       I    between atoms: C9_19  and  N6_21 
REMARK    2  A    between atoms: N6_21  and  C10_23 
REMARK    3  A    between atoms: C10_23  and  C11_24 
REMARK       I    between atoms: C11_24  and  N7_26 
REMARK    4  A    between atoms: N7_26  and  C12_28 
REMARK    5  A    between atoms: C12_28  and  C13_29 
REMARK    6  A    between atoms: C13_29  and  S1_30 
REMARK    7  A    between atoms: S1_30  and  C14_33 
REMARK    8  A    between atoms: C14_33  and  C15_34 
REMARK    9  A    between atoms: C16_36  and  N8_37 
REMARK   10  A    between atoms: C22_50  and  O7_51 
REMARK   11  A    between atoms: C23_53  and  O8_54 
ROOT
HETATM    1  C12 UNL     1       1.832  35.242 -11.159  1.00  0.00     0.137 C 
ENDROOT
BRANCH   1   2
HETATM    2  N7  UNL     1       0.795  34.505 -10.492  1.00  0.00    -0.359 N 
HETATM    3  C11 UNL     1       0.711  34.388  -9.067  1.00  0.00     0.235 C 
HETATM    4  O3  UNL     1       1.565  34.944  -8.366  1.00  0.00    -0.272 OA
ATOM      5  H7  UNL     1       0.085  34.043 -11.060  1.00  0.00     0.162 HD
BRANCH   3   6
HETATM    6  C10 UNL     1      -0.379  33.616  -8.416  1.00  0.00     0.225 C 
BRANCH   6   7
HETATM    7  N6  UNL     1      -1.068  32.805  -9.415  1.00  0.00    -0.347 N 
HETATM    8  C9  UNL     1      -0.828  31.412  -9.514  1.00  0.00     0.267 C 
HETATM    9  O2  UNL     1      -0.037  30.795  -8.781  1.00  0.00    -0.266 OA
ATOM     10  H6  UNL     1      -1.733  33.247 -10.050  1.00  0.00     0.163 HD
BRANCH   8  11
HETATM   11  C8  UNL     1      -1.565  30.637 -10.556  1.00  0.00     0.106 A 
HETATM   12  C2  UNL     1      -3.022  30.767 -10.602  1.00  0.00     0.072 A 
HETATM   13  C1  UNL     1      -3.651  30.496  -9.238  1.00  0.00     0.045 C 
HETATM   14  C3  UNL     1      -3.334  32.238 -10.924  1.00  0.00     0.045 C 
HETATM   15  N1  UNL     1      -3.630  29.997 -11.623  1.00  0.00    -0.360 N 
HETATM   16  C4  UNL     1      -2.897  29.178 -12.510  1.00  0.00     0.137 A 
ATOM     17  H1  UNL     1      -4.644  30.035 -11.722  1.00  0.00     0.162 HD
HETATM   18  N2  UNL     1      -3.478  28.433 -13.492  1.00  0.00    -0.315 N 
HETATM   19  C7  UNL     1      -1.520  29.127 -12.374  1.00  0.00     0.145 A 
HETATM   20  C5  UNL     1      -2.755  27.668 -14.316  1.00  0.00     0.196 A 
ATOM     21  H2  UNL     1      -4.491  28.461 -13.602  1.00  0.00     0.170 HD
HETATM   22  N3  UNL     1      -3.354  26.895 -15.334  1.00  0.00    -0.063 NA
HETATM   23  N4  UNL     1      -1.426  27.633 -14.169  1.00  0.00    -0.295 N 
HETATM   24  C6  UNL     1      -0.784  28.342 -13.221  1.00  0.00     0.278 A 
ATOM     25  H4  UNL     1      -0.877  27.048 -14.799  1.00  0.00     0.171 HD
HETATM   26  O1  UNL     1       0.466  28.320 -13.070  1.00  0.00    -0.265 OA
HETATM   27  N5  UNL     1      -0.922  29.897 -11.358  1.00  0.00    -0.346 N 
ATOM     28  H5  UNL     1       0.093  29.857 -11.262  1.00  0.00     0.166 HD
ENDBRANCH   8  11
ENDBRANCH   6   7
ENDBRANCH   3   6
ENDBRANCH   1   2
BRANCH   1  29
HETATM   29  C13 UNL     1       3.165  34.598 -11.214  1.00  0.00     0.160 C 
BRANCH  29  30
HETATM   30  S1  UNL     1       3.257  32.991 -11.835  1.00  0.00     0.148 S 
HETATM   31  O4  UNL     1       3.769  33.067 -13.272  1.00  0.00    -0.228 OA
HETATM   32  O5  UNL     1       1.833  32.431 -12.007  1.00  0.00    -0.228 OA
BRANCH  30  33
HETATM   33  C14 UNL     1       4.161  31.799 -10.976  1.00  0.00     0.175 C 
BRANCH  33  34
HETATM   34  C15 UNL     1       4.136  30.392 -11.409  1.00  0.00     0.169 C 
HETATM   35  O6  UNL     1       5.423  29.856 -11.058  1.00  0.00    -0.355 OA
HETATM   36  C16 UNL     1       5.195  28.510 -11.403  1.00  0.00     0.262 C 
HETATM   37  C22 UNL     1       3.827  28.153 -10.841  1.00  0.00     0.198 C 
HETATM   38  C23 UNL     1       3.294  29.511 -10.488  1.00  0.00     0.181 C 
BRANCH  36  39
HETATM   39  N8  UNL     1       6.250  27.719 -10.784  1.00  0.00    -0.297 N 
HETATM   40  C17 UNL     1       6.174  26.418 -10.434  1.00  0.00     0.188 A 
HETATM   41  N9  UNL     1       7.344  26.015  -9.885  1.00  0.00    -0.346 N 
HETATM   42  C18 UNL     1       8.190  27.059  -9.878  1.00  0.00     0.119 A 
ATOM     43  H9  UNL     1       7.548  25.079  -9.537  1.00  0.00     0.167 HD
HETATM   44  C19 UNL     1       9.490  27.191  -9.438  1.00  0.00     0.148 A 
HETATM   45  C21 UNL     1       7.490  28.113 -10.442  1.00  0.00     0.142 A 
HETATM   46  N10 UNL     1      10.239  26.138  -8.856  1.00  0.00    -0.080 NA
HETATM   47  N11 UNL     1      10.076  28.393  -9.572  1.00  0.00    -0.339 N 
HETATM   48  C20 UNL     1       9.387  29.434 -10.128  1.00  0.00     0.183 A 
ATOM     49  H11 UNL     1      11.036  28.528  -9.258  1.00  0.00     0.167 HD
HETATM   50  N12 UNL     1       8.123  29.295 -10.553  1.00  0.00    -0.336 N 
ATOM     51  H12 UNL     1       7.637  30.092 -10.964  1.00  0.00     0.168 HD
ENDBRANCH  36  39
BRANCH  37  52
HETATM   52  O7  UNL     1       3.047  27.465 -11.750  1.00  0.00    -0.388 OA
ATOM     53  H7  UNL     1       3.349  26.575 -11.886  1.00  0.00     0.210 HD
ENDBRANCH  37  52
BRANCH  38  54
HETATM   54  O8  UNL     1       1.974  29.655 -10.795  1.00  0.00    -0.390 OA
ATOM     55  H8  UNL     1       1.669  30.506 -10.501  1.00  0.00     0.210 HD
ENDBRANCH  38  54
ENDBRANCH  33  34
ENDBRANCH  30  33
ENDBRANCH  29  30
ENDBRANCH   1  29
TORSDOF 11
ENDMDL
