MODEL 2
REMARK VINA RESULT: -9.942010246      2.157      3.540
REMARK  11 active torsions:
REMARK  status: ('A' for Active; 'I' for Inactive)
REMARK    1  A    between atoms: C8_18  and  C9_19 
REMARK       I    between atoms: C9_19  and  N6_21 
REMARK    2  A    between atoms: N6_21  and  C10_23 
REMARK    3  A    between atoms: C10_23  and  C11_24 
REMARK       I    between atoms: C11_24  and  N7_26 
REMARK    4  A    between atoms: N7_26  and  C12_28 
REMARK    5  A    between atoms: C12_28  and  C13_29 
REMARK    6  A    between atoms: C13_29  and  S1_30 
REMARK    7  A    between atoms: S1_30  and  C14_33 
REMARK    8  A    between atoms: C14_33  and  C15_34 
REMARK    9  A    between atoms: C16_36  and  N8_37 
REMARK   10  A    between atoms: C22_50  and  O7_51 
REMARK   11  A    between atoms: C23_53  and  O8_54 
ROOT
HETATM    1  C12 UNL     1       2.134  34.121 -11.403  1.00  0.00     0.137 C 
ENDROOT
BRANCH   1   2
HETATM    2  N7  UNL     1       1.293  33.030 -10.996  1.00  0.00    -0.359 N 
HETATM    3  C11 UNL     1       0.596  33.006  -9.745  1.00  0.00     0.235 C 
HETATM    4  O3  UNL     1       0.714  33.964  -8.971  1.00  0.00    -0.272 OA
ATOM      5  H7  UNL     1       1.188  32.236 -11.626  1.00  0.00     0.162 HD
BRANCH   3   6
HETATM    6  C10 UNL     1      -0.266  31.857  -9.360  1.00  0.00     0.225 C 
BRANCH   6   7
HETATM    7  N6  UNL     1      -0.963  31.353 -10.539  1.00  0.00    -0.347 N 
HETATM    8  C9  UNL     1      -0.895  29.983 -10.895  1.00  0.00     0.267 C 
HETATM    9  O2  UNL     1      -0.256  29.135 -10.251  1.00  0.00    -0.266 OA
ATOM     10  H6  UNL     1      -1.507  31.996 -11.115  1.00  0.00     0.163 HD
BRANCH   8  11
HETATM   11  C8  UNL     1      -1.631  29.528 -12.112  1.00  0.00     0.106 A 
HETATM   12  C2  UNL     1      -3.030  29.126 -11.954  1.00  0.00     0.072 A 
HETATM   13  C1  UNL     1      -3.190  28.081 -10.853  1.00  0.00     0.045 C 
HETATM   14  C3  UNL     1      -3.805  30.365 -11.475  1.00  0.00     0.045 C 
HETATM   15  N1  UNL     1      -3.642  28.713 -13.162  1.00  0.00    -0.360 N 
HETATM   16  C4  UNL     1      -2.964  28.689 -14.401  1.00  0.00     0.137 A 
ATOM     17  H1  UNL     1      -4.618  28.419 -13.137  1.00  0.00     0.162 HD
HETATM   18  N2  UNL     1      -3.549  28.291 -15.565  1.00  0.00    -0.315 N 
HETATM   19  C7  UNL     1      -1.639  29.090 -14.435  1.00  0.00     0.145 A 
HETATM   20  C5  UNL     1      -2.879  28.281 -16.722  1.00  0.00     0.196 A 
ATOM     21  H2  UNL     1      -4.524  27.993 -15.554  1.00  0.00     0.170 HD
HETATM   22  N3  UNL     1      -3.482  27.868 -17.930  1.00  0.00    -0.063 NA
HETATM   23  N4  UNL     1      -1.600  28.672 -16.733  1.00  0.00    -0.295 N 
HETATM   24  C6  UNL     1      -0.958  29.078 -15.622  1.00  0.00     0.278 A 
ATOM     25  H4  UNL     1      -1.091  28.663 -17.618  1.00  0.00     0.171 HD
HETATM   26  O1  UNL     1       0.245  29.450 -15.617  1.00  0.00    -0.265 OA
HETATM   27  N5  UNL     1      -1.037  29.502 -13.230  1.00  0.00    -0.346 N 
ATOM     28  H5  UNL     1      -0.060  29.796 -13.260  1.00  0.00     0.166 HD
ENDBRANCH   8  11
ENDBRANCH   6   7
ENDBRANCH   3   6
ENDBRANCH   1   2
BRANCH   1  29
HETATM   29  C13 UNL     1       3.563  34.026 -11.026  1.00  0.00     0.160 C 
BRANCH  29  30
HETATM   30  S1  UNL     1       4.345  32.499 -11.212  1.00  0.00     0.148 S 
HETATM   31  O4  UNL     1       3.700  31.516 -10.238  1.00  0.00    -0.228 OA
HETATM   32  O5  UNL     1       5.789  32.601 -10.690  1.00  0.00    -0.228 OA
BRANCH  30  33
HETATM   33  C14 UNL     1       4.430  31.773 -12.775  1.00  0.00     0.175 C 
BRANCH  33  34
HETATM   34  C15 UNL     1       3.932  30.404 -12.986  1.00  0.00     0.169 C 
HETATM   35  O6  UNL     1       4.619  29.590 -12.019  1.00  0.00    -0.355 OA
HETATM   36  C16 UNL     1       3.951  28.373 -12.253  1.00  0.00     0.262 C 
HETATM   37  C22 UNL     1       2.469  28.709 -12.337  1.00  0.00     0.198 C 
HETATM   38  C23 UNL     1       2.517  30.205 -12.446  1.00  0.00     0.181 C 
BRANCH  36  39
HETATM   39  N8  UNL     1       4.236  27.497 -11.123  1.00  0.00    -0.297 N 
HETATM   40  C17 UNL     1       3.383  26.618 -10.558  1.00  0.00     0.188 A 
HETATM   41  N9  UNL     1       3.990  25.977  -9.531  1.00  0.00    -0.346 N 
HETATM   42  C18 UNL     1       5.247  26.441  -9.426  1.00  0.00     0.119 A 
ATOM     43  H9  UNL     1       3.565  25.264  -8.938  1.00  0.00     0.167 HD
HETATM   44  C19 UNL     1       6.277  26.131  -8.563  1.00  0.00     0.148 A 
HETATM   45  C21 UNL     1       5.382  27.388 -10.427  1.00  0.00     0.142 A 
HETATM   46  N10 UNL     1       6.179  25.169  -7.527  1.00  0.00    -0.080 NA
HETATM   47  N11 UNL     1       7.440  26.784  -8.719  1.00  0.00    -0.339 N 
HETATM   48  C20 UNL     1       7.576  27.720  -9.706  1.00  0.00     0.183 A 
ATOM     49  H11 UNL     1       8.224  26.581  -8.100  1.00  0.00     0.167 HD
HETATM   50  N12 UNL     1       6.568  28.014 -10.541  1.00  0.00    -0.336 N 
ATOM     51  H12 UNL     1       6.702  28.717 -11.267  1.00  0.00     0.168 HD
ENDBRANCH  36  39
BRANCH  37  52
HETATM   52  O7  UNL     1       1.848  28.091 -13.405  1.00  0.00    -0.388 OA
ATOM     53  H7  UNL     1       1.089  27.586 -13.139  1.00  0.00     0.210 HD
ENDBRANCH  37  52
BRANCH  38  54
HETATM   54  O8  UNL     1       1.613  30.698 -13.338  1.00  0.00    -0.390 OA
ATOM     55  H8  UNL     1       1.040  31.320 -12.903  1.00  0.00     0.210 HD
ENDBRANCH  38  54
ENDBRANCH  33  34
ENDBRANCH  30  33
ENDBRANCH  29  30
ENDBRANCH   1  29
TORSDOF 11
ENDMDL
