MODEL 1
REMARK VINA RESULT: -9.998343609      0.000      0.000
REMARK  11 active torsions:
REMARK  status: ('A' for Active; 'I' for Inactive)
REMARK    1  A    between atoms: C8_18  and  C9_19 
REMARK       I    between atoms: C9_19  and  N6_21 
REMARK    2  A    between atoms: N6_21  and  C10_23 
REMARK    3  A    between atoms: C10_23  and  C11_24 
REMARK       I    between atoms: C11_24  and  N7_26 
REMARK    4  A    between atoms: N7_26  and  C12_28 
REMARK    5  A    between atoms: C12_28  and  C13_29 
REMARK    6  A    between atoms: C13_29  and  S1_30 
REMARK    7  A    between atoms: S1_30  and  C14_33 
REMARK    8  A    between atoms: C14_33  and  C15_34 
REMARK    9  A    between atoms: C16_36  and  N8_37 
REMARK   10  A    between atoms: C22_50  and  O7_51 
REMARK   11  A    between atoms: C23_53  and  O8_54 
ROOT
HETATM    1  C12 UNL     1       3.708  30.283 -10.480  1.00  0.00     0.137 C 
ENDROOT
BRANCH   1   2
HETATM    2  N7  UNL     1       2.382  29.845 -10.142  1.00  0.00    -0.359 N 
HETATM    3  C11 UNL     1       1.323  30.747  -9.804  1.00  0.00     0.235 C 
HETATM    4  O3  UNL     1       1.546  31.964  -9.802  1.00  0.00    -0.272 OA
ATOM      5  H7  UNL     1       2.187  28.844 -10.142  1.00  0.00     0.162 HD
BRANCH   3   6
HETATM    6  C10 UNL     1      -0.036  30.252  -9.460  1.00  0.00     0.225 C 
BRANCH   6   7
HETATM    7  N6  UNL     1      -0.796  30.020 -10.684  1.00  0.00    -0.347 N 
HETATM    8  C9  UNL     1      -0.723  28.777 -11.362  1.00  0.00     0.267 C 
HETATM    9  O2  UNL     1      -0.027  27.823 -10.978  1.00  0.00    -0.266 OA
ATOM     10  H6  UNL     1      -1.390  30.761 -11.056  1.00  0.00     0.163 HD
BRANCH   8  11
HETATM   11  C8  UNL     1      -1.526  28.601 -12.608  1.00  0.00     0.106 A 
HETATM   12  C2  UNL     1      -2.972  28.425 -12.471  1.00  0.00     0.072 A 
HETATM   13  C1  UNL     1      -3.308  27.300 -11.496  1.00  0.00     0.045 C 
HETATM   14  C3  UNL     1      -3.525  29.711 -11.835  1.00  0.00     0.045 C 
HETATM   15  N1  UNL     1      -3.646  28.267 -13.706  1.00  0.00    -0.360 N 
HETATM   16  C4  UNL     1      -2.982  28.275 -14.953  1.00  0.00     0.137 A 
ATOM     17  H1  UNL     1      -4.658  28.141 -13.695  1.00  0.00     0.162 HD
HETATM   18  N2  UNL     1      -3.625  28.121 -16.143  1.00  0.00    -0.315 N 
HETATM   19  C7  UNL     1      -1.608  28.447 -14.966  1.00  0.00     0.145 A 
HETATM   20  C5  UNL     1      -2.967  28.135 -17.307  1.00  0.00     0.196 A 
ATOM     21  H2  UNL     1      -4.637  27.993 -16.147  1.00  0.00     0.170 HD
HETATM   22  N3  UNL     1      -3.631  27.976 -18.542  1.00  0.00    -0.063 NA
HETATM   23  N4  UNL     1      -1.640  28.303 -17.298  1.00  0.00    -0.295 N 
HETATM   24  C6  UNL     1      -0.938  28.460 -16.160  1.00  0.00     0.278 A 
ATOM     25  H4  UNL     1      -1.140  28.312 -18.188  1.00  0.00     0.171 HD
HETATM   26  O1  UNL     1       0.311  28.620 -16.135  1.00  0.00    -0.265 OA
HETATM   27  N5  UNL     1      -0.944  28.606 -13.733  1.00  0.00    -0.346 N 
ATOM     28  H5  UNL     1       0.068  28.732 -13.748  1.00  0.00     0.166 HD
ENDBRANCH   8  11
ENDBRANCH   6   7
ENDBRANCH   3   6
ENDBRANCH   1   2
BRANCH   1  29
HETATM   29  C13 UNL     1       4.115  30.114 -11.894  1.00  0.00     0.160 C 
BRANCH  29  30
HETATM   30  S1  UNL     1       5.795  30.236 -12.268  1.00  0.00     0.148 S 
HETATM   31  O4  UNL     1       6.436  31.188 -11.262  1.00  0.00    -0.228 OA
HETATM   32  O5  UNL     1       5.965  30.983 -13.603  1.00  0.00    -0.228 OA
BRANCH  30  33
HETATM   33  C14 UNL     1       6.747  28.801 -12.375  1.00  0.00     0.175 C 
BRANCH  33  34
HETATM   34  C15 UNL     1       7.461  28.294 -11.192  1.00  0.00     0.169 C 
HETATM   35  O6  UNL     1       6.450  27.714 -10.349  1.00  0.00    -0.355 OA
HETATM   36  C16 UNL     1       7.288  27.170  -9.356  1.00  0.00     0.262 C 
HETATM   37  C22 UNL     1       8.428  26.480 -10.092  1.00  0.00     0.198 C 
HETATM   38  C23 UNL     1       8.239  27.011 -11.483  1.00  0.00     0.181 C 
BRANCH  36  39
HETATM   39  N8  UNL     1       6.492  26.218  -8.592  1.00  0.00    -0.297 N 
HETATM   40  C17 UNL     1       6.508  26.056  -7.253  1.00  0.00     0.188 A 
HETATM   41  N9  UNL     1       5.640  25.081  -6.892  1.00  0.00    -0.346 N 
HETATM   42  C18 UNL     1       5.054  24.604  -8.004  1.00  0.00     0.119 A 
ATOM     43  H9  UNL     1       5.462  24.763  -5.940  1.00  0.00     0.167 HD
HETATM   44  C19 UNL     1       4.108  23.621  -8.199  1.00  0.00     0.148 A 
HETATM   45  C21 UNL     1       5.598  25.325  -9.054  1.00  0.00     0.142 A 
HETATM   46  N10 UNL     1       3.527  22.861  -7.153  1.00  0.00    -0.080 NA
HETATM   47  N11 UNL     1       3.717  23.372  -9.460  1.00  0.00    -0.339 N 
HETATM   48  C20 UNL     1       4.252  24.082 -10.498  1.00  0.00     0.183 A 
ATOM     49  H11 UNL     1       3.019  22.652  -9.643  1.00  0.00     0.167 HD
HETATM   50  N12 UNL     1       5.172  25.037 -10.297  1.00  0.00    -0.336 N 
ATOM     51  H12 UNL     1       5.552  25.549 -11.094  1.00  0.00     0.168 HD
ENDBRANCH  36  39
BRANCH  37  52
HETATM   52  O7  UNL     1       9.661  26.773  -9.544  1.00  0.00    -0.388 OA
ATOM     53  H7  UNL     1      10.304  26.095  -9.716  1.00  0.00     0.210 HD
ENDBRANCH  37  52
BRANCH  38  54
HETATM   54  O8  UNL     1       9.418  27.319 -12.094  1.00  0.00    -0.390 OA
ATOM     55  H8  UNL     1      10.040  27.632 -11.448  1.00  0.00     0.210 HD
ENDBRANCH  38  54
ENDBRANCH  33  34
ENDBRANCH  30  33
ENDBRANCH  29  30
ENDBRANCH   1  29
TORSDOF 11
ENDMDL
