MODEL 16
REMARK VINA RESULT: -7.285716667      3.523      6.792
REMARK  8 active torsions:
REMARK  status: ('A' for Active; 'I' for Inactive)
REMARK    1  A    between atoms: N1_1  and  S1_4 
REMARK    2  A    between atoms: S1_4  and  C1_7 
REMARK    3  A    between atoms: C4_12  and  S2_13 
REMARK    4  A    between atoms: S2_13  and  C5_14 
REMARK    5  A    between atoms: C5_14  and  C6_15 
REMARK    6  A    between atoms: C6_15  and  O3_16 
REMARK    7  A    between atoms: C8_20  and  N2_21 
REMARK    8  A    between atoms: N2_21  and  C9_23 
ROOT
HETATM    1  C1  UNL     1      -4.939   2.372  15.429  1.00  0.00     0.150 A 
HETATM    2  C2  UNL     1      -5.482   3.598  15.845  1.00  0.00     0.181 A 
HETATM    3  F1  UNL     1      -6.315   3.664  16.917  1.00  0.00    -0.201 F 
HETATM    4  C3  UNL     1      -5.188   4.766  15.181  1.00  0.00     0.176 A 
HETATM    5  F2  UNL     1      -5.718   5.968  15.588  1.00  0.00    -0.201 F 
HETATM    6  C4  UNL     1      -4.346   4.702  14.096  1.00  0.00     0.083 A 
HETATM    7  C7  UNL     1      -3.806   3.475  13.684  1.00  0.00     0.164 A 
HETATM    8  F3  UNL     1      -2.990   3.484  12.601  1.00  0.00    -0.202 F 
HETATM    9  C8  UNL     1      -4.094   2.301  14.343  1.00  0.00     0.095 A 
ENDROOT
BRANCH   9  10
HETATM   10  N2  UNL     1      -3.553   1.057  13.953  1.00  0.00    -0.381 N 
ATOM     11  H2  UNL     1      -3.260   0.435  14.706  1.00  0.00     0.160 HD
BRANCH  10  12
HETATM   12  C9  UNL     1      -3.367   0.567  12.609  1.00  0.00     0.082 C 
HETATM   13  C10 UNL     1      -4.172   1.332  11.610  1.00  0.00     0.025 C 
HETATM   14  C11 UNL     1      -4.730   0.540  10.472  1.00  0.00     0.002 C 
HETATM   15  C12 UNL     1      -3.801   0.113   9.409  1.00  0.00     0.000 C 
HETATM   16  C13 UNL     1      -2.344   0.178   9.700  1.00  0.00     0.000 C 
HETATM   17  C14 UNL     1      -1.830  -0.833  10.650  1.00  0.00     0.000 C 
HETATM   18  C15 UNL     1      -2.832  -1.600  11.417  1.00  0.00     0.002 C 
HETATM   19  C16 UNL     1      -3.516  -0.907  12.555  1.00  0.00     0.025 C 
ENDBRANCH  10  12
ENDBRANCH   9  10
BRANCH   1  20
HETATM   20  S1  UNL     1      -5.457   0.965  16.327  1.00  0.00     0.262 S 
HETATM   21  O1  UNL     1      -4.728  -0.261  15.860  1.00  0.00    -0.201 OA
HETATM   22  O2  UNL     1      -6.937   0.792  16.111  1.00  0.00    -0.201 OA
BRANCH  20  23
HETATM   23  N1  UNL     1      -5.161   1.159  17.990  1.00  0.00    -0.324 N 
ATOM     24  H12 UNL     1      -4.603   0.527  18.564  1.00  0.00     0.169 HD
ATOM     25  H11 UNL     1      -5.636   2.007  18.302  1.00  0.00     0.169 HD
ENDBRANCH  20  23
ENDBRANCH   1  20
BRANCH   6  26
HETATM   26  S2  UNL     1      -3.952   6.199  13.224  1.00  0.00    -0.121 SA
BRANCH  26  27
HETATM   27  C5  UNL     1      -2.361   6.866  13.740  1.00  0.00     0.105 C 
BRANCH  27  28
HETATM   28  C6  UNL     1      -1.211   6.201  12.999  1.00  0.00     0.174 C 
BRANCH  28  29
HETATM   29  O3  UNL     1      -0.690   5.198  13.807  1.00  0.00    -0.400 OA
ATOM     30  H3  UNL     1      -0.962   4.357  13.456  1.00  0.00     0.209 HD
ENDBRANCH  28  29
ENDBRANCH  27  28
ENDBRANCH  26  27
ENDBRANCH   6  26
TORSDOF 8
ENDMDL
