MODEL 2
REMARK VINA RESULT: -8.060107837      1.679      1.824
REMARK  8 active torsions:
REMARK  status: ('A' for Active; 'I' for Inactive)
REMARK    1  A    between atoms: N1_1  and  S1_4 
REMARK    2  A    between atoms: S1_4  and  C1_7 
REMARK    3  A    between atoms: C4_12  and  S2_13 
REMARK    4  A    between atoms: S2_13  and  C5_14 
REMARK    5  A    between atoms: C5_14  and  C6_15 
REMARK    6  A    between atoms: C6_15  and  O3_16 
REMARK    7  A    between atoms: C8_20  and  N2_21 
REMARK    8  A    between atoms: N2_21  and  C9_23 
ROOT
HETATM    1  C1  UNL     1      -1.939   3.291  12.076  1.00  0.00     0.150 A 
HETATM    2  C2  UNL     1      -1.025   2.640  11.232  1.00  0.00     0.181 A 
HETATM    3  F1  UNL     1       0.220   3.146  11.029  1.00  0.00    -0.201 F 
HETATM    4  C3  UNL     1      -1.362   1.475  10.586  1.00  0.00     0.176 A 
HETATM    5  F2  UNL     1      -0.469   0.835   9.759  1.00  0.00    -0.201 F 
HETATM    6  C4  UNL     1      -2.622   0.960  10.789  1.00  0.00     0.083 A 
HETATM    7  C7  UNL     1      -3.531   1.614  11.633  1.00  0.00     0.164 A 
HETATM    8  F3  UNL     1      -4.758   1.055  11.780  1.00  0.00    -0.202 F 
HETATM    9  C8  UNL     1      -3.201   2.781  12.284  1.00  0.00     0.095 A 
ENDROOT
BRANCH   9  10
HETATM   10  N2  UNL     1      -4.096   3.449  13.148  1.00  0.00    -0.381 N 
ATOM     11  H2  UNL     1      -4.397   4.378  12.857  1.00  0.00     0.160 HD
BRANCH  10  12
HETATM   12  C9  UNL     1      -4.633   2.963  14.396  1.00  0.00     0.082 C 
HETATM   13  C10 UNL     1      -5.757   3.808  14.898  1.00  0.00     0.025 C 
HETATM   14  C11 UNL     1      -5.840   3.976  16.381  1.00  0.00     0.002 C 
HETATM   15  C12 UNL     1      -6.331   2.835  17.177  1.00  0.00     0.000 C 
HETATM   16  C13 UNL     1      -6.371   1.502  16.518  1.00  0.00     0.000 C 
HETATM   17  C14 UNL     1      -5.059   0.860  16.282  1.00  0.00     0.000 C 
HETATM   18  C15 UNL     1      -3.860   1.706  16.453  1.00  0.00     0.002 C 
HETATM   19  C16 UNL     1      -3.549   2.696  15.373  1.00  0.00     0.025 C 
ENDBRANCH  10  12
ENDBRANCH   9  10
BRANCH   1  20
HETATM   20  S1  UNL     1      -1.393   4.798  12.773  1.00  0.00     0.262 S 
HETATM   21  O1  UNL     1      -2.540   5.752  12.940  1.00  0.00    -0.201 OA
HETATM   22  O2  UNL     1      -0.364   5.394  11.849  1.00  0.00    -0.201 OA
BRANCH  20  23
HETATM   23  N1  UNL     1      -0.684   4.544  14.298  1.00  0.00    -0.324 N 
ATOM     24  H12 UNL     1      -0.437   5.281  14.959  1.00  0.00     0.169 HD
ATOM     25  H11 UNL     1      -0.554   3.541  14.426  1.00  0.00     0.169 HD
ENDBRANCH  20  23
ENDBRANCH   1  20
BRANCH   6  26
HETATM   26  S2  UNL     1      -3.079  -0.546   9.965  1.00  0.00    -0.121 SA
BRANCH  26  27
HETATM   27  C5  UNL     1      -4.546  -0.324   8.945  1.00  0.00     0.105 C 
BRANCH  27  28
HETATM   28  C6  UNL     1      -4.403   0.873   8.017  1.00  0.00     0.174 C 
BRANCH  28  29
HETATM   29  O3  UNL     1      -4.544   0.433   6.707  1.00  0.00    -0.400 OA
ATOM     30  H3  UNL     1      -3.815   0.768   6.197  1.00  0.00     0.209 HD
ENDBRANCH  28  29
ENDBRANCH  27  28
ENDBRANCH  26  27
ENDBRANCH   6  26
TORSDOF 8
ENDMDL
