MODEL 5
REMARK VINA RESULT: -7.515333668      1.991      2.200
REMARK  8 active torsions:
REMARK  status: ('A' for Active; 'I' for Inactive)
REMARK    1  A    between atoms: N1_1  and  S1_4 
REMARK    2  A    between atoms: S1_4  and  C1_7 
REMARK    3  A    between atoms: C4_12  and  S2_13 
REMARK    4  A    between atoms: S2_13  and  C5_14 
REMARK    5  A    between atoms: C5_14  and  C6_15 
REMARK    6  A    between atoms: C6_15  and  O3_16 
REMARK    7  A    between atoms: C8_20  and  N2_21 
REMARK    8  A    between atoms: N2_21  and  C9_23 
ROOT
HETATM    1  C1  UNL     1      -3.735   2.835  10.963  1.00  0.00     0.150 A 
HETATM    2  C2  UNL     1      -3.756   2.138   9.744  1.00  0.00     0.181 A 
HETATM    3  F1  UNL     1      -3.682   2.802   8.560  1.00  0.00    -0.201 F 
HETATM    4  C3  UNL     1      -3.853   0.768   9.712  1.00  0.00     0.176 A 
HETATM    5  F2  UNL     1      -3.872   0.083   8.519  1.00  0.00    -0.201 F 
HETATM    6  C4  UNL     1      -3.928   0.093  10.908  1.00  0.00     0.083 A 
HETATM    7  C7  UNL     1      -3.907   0.793  12.123  1.00  0.00     0.164 A 
HETATM    8  F3  UNL     1      -3.994   0.065  13.264  1.00  0.00    -0.202 F 
HETATM    9  C8  UNL     1      -3.810   2.166  12.165  1.00  0.00     0.095 A 
ENDROOT
BRANCH   9  10
HETATM   10  N2  UNL     1      -3.775   2.889  13.377  1.00  0.00    -0.381 N 
ATOM     11  H2  UNL     1      -3.170   3.709  13.397  1.00  0.00     0.160 HD
BRANCH  10  12
HETATM   12  C9  UNL     1      -4.499   2.597  14.590  1.00  0.00     0.082 C 
HETATM   13  C10 UNL     1      -5.573   3.598  14.865  1.00  0.00     0.025 C 
HETATM   14  C11 UNL     1      -5.804   3.935  16.303  1.00  0.00     0.002 C 
HETATM   15  C12 UNL     1      -6.505   2.941  17.138  1.00  0.00     0.000 C 
HETATM   16  C13 UNL     1      -6.616   1.555  16.613  1.00  0.00     0.000 C 
HETATM   17  C14 UNL     1      -5.363   0.766  16.604  1.00  0.00     0.000 C 
HETATM   18  C15 UNL     1      -4.106   1.505  16.839  1.00  0.00     0.002 C 
HETATM   19  C16 UNL     1      -3.568   2.335  15.715  1.00  0.00     0.025 C 
ENDBRANCH  10  12
ENDBRANCH   9  10
BRANCH   1  20
HETATM   20  S1  UNL     1      -3.679   4.577  10.845  1.00  0.00     0.262 S 
HETATM   21  O1  UNL     1      -3.684   5.202  12.210  1.00  0.00    -0.201 OA
HETATM   22  O2  UNL     1      -4.888   5.032  10.071  1.00  0.00    -0.201 OA
BRANCH  20  23
HETATM   23  N1  UNL     1      -2.278   5.089  10.029  1.00  0.00    -0.324 N 
ATOM     24  H12 UNL     1      -1.420   5.406  10.481  1.00  0.00     0.169 HD
ATOM     25  H11 UNL     1      -2.450   5.023   9.026  1.00  0.00     0.169 HD
ENDBRANCH  20  23
ENDBRANCH   1  20
BRANCH   6  26
HETATM   26  S2  UNL     1      -4.052  -1.680  10.890  1.00  0.00    -0.121 SA
BRANCH  26  27
HETATM   27  C5  UNL     1      -2.469  -2.457  11.250  1.00  0.00     0.105 C 
BRANCH  27  28
HETATM   28  C6  UNL     1      -2.467  -3.926  10.854  1.00  0.00     0.174 C 
BRANCH  28  29
HETATM   29  O3  UNL     1      -3.706  -4.469  11.171  1.00  0.00    -0.400 OA
ATOM     30  H3  UNL     1      -4.368  -4.037  10.644  1.00  0.00     0.209 HD
ENDBRANCH  28  29
ENDBRANCH  27  28
ENDBRANCH  26  27
ENDBRANCH   6  26
TORSDOF 8
ENDMDL
