MODEL 1
REMARK VINA RESULT: -8.174934855      0.000      0.000
REMARK  8 active torsions:
REMARK  status: ('A' for Active; 'I' for Inactive)
REMARK    1  A    between atoms: N1_1  and  S1_4 
REMARK    2  A    between atoms: S1_4  and  C1_7 
REMARK    3  A    between atoms: C4_12  and  S2_13 
REMARK    4  A    between atoms: S2_13  and  C5_14 
REMARK    5  A    between atoms: C5_14  and  C6_15 
REMARK    6  A    between atoms: C6_15  and  O3_16 
REMARK    7  A    between atoms: C8_20  and  N2_21 
REMARK    8  A    between atoms: N2_21  and  C9_23 
ROOT
HETATM    1  C1  UNL     1      -2.030   3.284  12.145  1.00  0.00     0.150 A 
HETATM    2  C2  UNL     1      -1.039   2.685  11.350  1.00  0.00     0.181 A 
HETATM    3  F1  UNL     1       0.179   3.270  11.196  1.00  0.00    -0.201 F 
HETATM    4  C3  UNL     1      -1.270   1.493  10.705  1.00  0.00     0.176 A 
HETATM    5  F2  UNL     1      -0.300   0.905   9.928  1.00  0.00    -0.201 F 
HETATM    6  C4  UNL     1      -2.501   0.899  10.860  1.00  0.00     0.083 A 
HETATM    7  C7  UNL     1      -3.487   1.501  11.654  1.00  0.00     0.164 A 
HETATM    8  F3  UNL     1      -4.681   0.864  11.755  1.00  0.00    -0.202 F 
HETATM    9  C8  UNL     1      -3.264   2.694  12.304  1.00  0.00     0.095 A 
ENDROOT
BRANCH   9  10
HETATM   10  N2  UNL     1      -4.239   3.310  13.118  1.00  0.00    -0.381 N 
ATOM     11  H2  UNL     1      -4.644   4.176  12.763  1.00  0.00     0.160 HD
BRANCH  10  12
HETATM   12  C9  UNL     1      -4.726   2.853  14.396  1.00  0.00     0.082 C 
HETATM   13  C10 UNL     1      -5.826   3.713  14.927  1.00  0.00     0.025 C 
HETATM   14  C11 UNL     1      -5.848   3.911  16.408  1.00  0.00     0.002 C 
HETATM   15  C12 UNL     1      -6.311   2.790  17.246  1.00  0.00     0.000 C 
HETATM   16  C13 UNL     1      -6.382   1.444  16.617  1.00  0.00     0.000 C 
HETATM   17  C14 UNL     1      -5.084   0.791  16.341  1.00  0.00     0.000 C 
HETATM   18  C15 UNL     1      -3.875   1.634  16.445  1.00  0.00     0.002 C 
HETATM   19  C16 UNL     1      -3.605   2.600  15.334  1.00  0.00     0.025 C 
ENDBRANCH  10  12
ENDBRANCH   9  10
BRANCH   1  20
HETATM   20  S1  UNL     1      -1.615   4.830  12.844  1.00  0.00     0.262 S 
HETATM   21  O1  UNL     1      -2.853   5.617  13.163  1.00  0.00    -0.201 OA
HETATM   22  O2  UNL     1      -0.774   5.583  11.848  1.00  0.00    -0.201 OA
BRANCH  20  23
HETATM   23  N1  UNL     1      -0.725   4.632  14.279  1.00  0.00    -0.324 N 
ATOM     24  H12 UNL     1       0.288   4.528  14.331  1.00  0.00     0.169 HD
ATOM     25  H11 UNL     1      -1.378   4.636  15.063  1.00  0.00     0.169 HD
ENDBRANCH  20  23
ENDBRANCH   1  20
BRANCH   6  26
HETATM   26  S2  UNL     1      -2.821  -0.643  10.037  1.00  0.00    -0.121 SA
BRANCH  26  27
HETATM   27  C5  UNL     1      -3.031  -1.989  11.213  1.00  0.00     0.105 C 
BRANCH  27  28
HETATM   28  C6  UNL     1      -2.171  -3.189  10.846  1.00  0.00     0.174 C 
BRANCH  28  29
HETATM   29  O3  UNL     1      -2.851  -4.345  11.207  1.00  0.00    -0.400 OA
ATOM     30  H3  UNL     1      -3.054  -4.833  10.418  1.00  0.00     0.209 HD
ENDBRANCH  28  29
ENDBRANCH  27  28
ENDBRANCH  26  27
ENDBRANCH   6  26
TORSDOF 8
ENDMDL
