MODEL 6
REMARK VINA RESULT: -7.608449115      2.183      5.195
REMARK  8 active torsions:
REMARK  status: ('A' for Active; 'I' for Inactive)
REMARK    1  A    between atoms: N1_1  and  S1_4 
REMARK    2  A    between atoms: S1_4  and  C1_7 
REMARK    3  A    between atoms: C4_12  and  S2_13 
REMARK    4  A    between atoms: S2_13  and  C5_16 
REMARK    5  A    between atoms: C5_16  and  C6_17 
REMARK    6  A    between atoms: C6_17  and  O5_18 
REMARK    7  A    between atoms: C7_20  and  N2_21 
REMARK    8  A    between atoms: N2_21  and  C8_23 
ROOT
HETATM    1  C1  UNL     1      -5.172   2.548  15.512  1.00  0.00     0.161 A 
HETATM    2  C2  UNL     1      -5.655   3.805  15.802  1.00  0.00     0.182 A 
HETATM    3  F1  UNL     1      -6.258   4.077  17.005  1.00  0.00    -0.201 F 
HETATM    4  C3  UNL     1      -5.531   4.807  14.878  1.00  0.00     0.180 A 
HETATM    5  F2  UNL     1      -6.020   6.039  15.198  1.00  0.00    -0.201 F 
HETATM    6  C4  UNL     1      -4.925   4.553  13.656  1.00  0.00     0.130 A 
HETATM    7  C7  UNL     1      -4.428   3.315  13.327  1.00  0.00     0.094 A 
HETATM    8  C16 UNL     1      -4.561   2.309  14.274  1.00  0.00     0.170 A 
HETATM    9  F3  UNL     1      -4.126   1.036  14.059  1.00  0.00    -0.202 F 
ENDROOT
BRANCH   7  10
HETATM   10  N2  UNL     1      -3.765   2.993  12.135  1.00  0.00    -0.382 N 
ATOM     11  H2  UNL     1      -4.357   2.911  11.309  1.00  0.00     0.160 HD
BRANCH  10  12
HETATM   12  C8  UNL     1      -2.375   2.766  11.920  1.00  0.00     0.082 C 
HETATM   13  C9  UNL     1      -2.173   1.602  10.932  1.00  0.00     0.025 C 
HETATM   14  C10 UNL     1      -0.656   1.380  10.797  1.00  0.00     0.002 C 
HETATM   15  C11 UNL     1      -0.113   1.988   9.559  1.00  0.00     0.000 C 
HETATM   16  C12 UNL     1       0.500   3.329   9.696  1.00  0.00     0.000 C 
HETATM   17  C13 UNL     1       0.785   3.778  11.084  1.00  0.00     0.000 C 
HETATM   18  C14 UNL     1      -0.365   4.267  11.870  1.00  0.00     0.002 C 
HETATM   19  C15 UNL     1      -1.720   3.987  11.308  1.00  0.00     0.025 C 
ENDBRANCH  10  12
ENDBRANCH   7  10
BRANCH   6  20
HETATM   20  S2  UNL     1      -4.832   5.850  12.539  1.00  0.00     0.182 S 
HETATM   21  O3  UNL     1      -4.381   5.464  11.181  1.00  0.00    -0.222 OA
HETATM   22  O4  UNL     1      -3.774   6.826  13.054  1.00  0.00    -0.222 OA
BRANCH  20  23
HETATM   23  C5  UNL     1      -6.315   6.799  12.406  1.00  0.00     0.172 C 
BRANCH  23  24
HETATM   24  C6  UNL     1      -6.320   7.608  11.137  1.00  0.00     0.179 C 
BRANCH  24  25
HETATM   25  O5  UNL     1      -6.422   6.785  10.001  1.00  0.00    -0.400 OA
ATOM     26  H5  UNL     1      -6.139   7.238   9.216  1.00  0.00     0.209 HD
ENDBRANCH  24  25
ENDBRANCH  23  24
ENDBRANCH  20  23
ENDBRANCH   6  20
BRANCH   1  27
HETATM   27  S1  UNL     1      -5.323   1.265  16.676  1.00  0.00     0.263 S 
HETATM   28  O1  UNL     1      -6.532   0.397  16.376  1.00  0.00    -0.201 OA
HETATM   29  O2  UNL     1      -4.085   0.393  16.698  1.00  0.00    -0.201 OA
BRANCH  27  30
HETATM   30  N1  UNL     1      -5.515   1.873  18.282  1.00  0.00    -0.324 N 
ATOM     31  H12 UNL     1      -4.873   1.715  19.058  1.00  0.00     0.169 HD
ATOM     32  H11 UNL     1      -6.382   2.411  18.299  1.00  0.00     0.169 HD
ENDBRANCH  27  30
ENDBRANCH   1  27
TORSDOF 8
ENDMDL
