MODEL 4
REMARK VINA RESULT: -8.005497366      1.027      1.452
REMARK  8 active torsions:
REMARK  status: ('A' for Active; 'I' for Inactive)
REMARK    1  A    between atoms: N1_1  and  S1_4 
REMARK    2  A    between atoms: S1_4  and  C1_7 
REMARK    3  A    between atoms: C4_12  and  S2_13 
REMARK    4  A    between atoms: S2_13  and  C5_16 
REMARK    5  A    between atoms: C5_16  and  C6_17 
REMARK    6  A    between atoms: C6_17  and  O5_18 
REMARK    7  A    between atoms: C7_20  and  N2_21 
REMARK    8  A    between atoms: N2_21  and  C8_23 
ROOT
HETATM    1  C1  UNL     1      -4.809   1.496  15.152  1.00  0.00     0.161 A 
HETATM    2  C2  UNL     1      -3.990   0.734  14.348  1.00  0.00     0.182 A 
HETATM    3  F1  UNL     1      -3.602  -0.529  14.721  1.00  0.00    -0.201 F 
HETATM    4  C3  UNL     1      -3.553   1.240  13.154  1.00  0.00     0.180 A 
HETATM    5  F2  UNL     1      -2.744   0.459  12.384  1.00  0.00    -0.201 F 
HETATM    6  C4  UNL     1      -3.934   2.514  12.759  1.00  0.00     0.130 A 
HETATM    7  C7  UNL     1      -4.752   3.307  13.529  1.00  0.00     0.094 A 
HETATM    8  C16 UNL     1      -5.185   2.780  14.738  1.00  0.00     0.170 A 
HETATM    9  F3  UNL     1      -5.983   3.475  15.597  1.00  0.00    -0.202 F 
ENDROOT
BRANCH   7  10
HETATM   10  N2  UNL     1      -5.214   4.583  13.180  1.00  0.00    -0.382 N 
ATOM     11  H2  UNL     1      -6.097   4.607  12.668  1.00  0.00     0.160 HD
BRANCH  10  12
HETATM   12  C8  UNL     1      -4.620   5.851  13.440  1.00  0.00     0.082 C 
HETATM   13  C9  UNL     1      -5.061   6.873  12.378  1.00  0.00     0.025 C 
HETATM   14  C10 UNL     1      -4.335   8.195  12.691  1.00  0.00     0.002 C 
HETATM   15  C11 UNL     1      -5.214   9.158  13.396  1.00  0.00     0.000 C 
HETATM   16  C12 UNL     1      -5.092   9.206  14.871  1.00  0.00     0.000 C 
HETATM   17  C13 UNL     1      -3.905   8.525  15.450  1.00  0.00     0.000 C 
HETATM   18  C14 UNL     1      -3.966   7.053  15.543  1.00  0.00     0.002 C 
HETATM   19  C15 UNL     1      -5.066   6.386  14.785  1.00  0.00     0.025 C 
ENDBRANCH  10  12
ENDBRANCH   7  10
BRANCH   6  20
HETATM   20  S2  UNL     1      -3.325   3.090  11.264  1.00  0.00     0.182 S 
HETATM   21  O3  UNL     1      -4.087   4.220  10.682  1.00  0.00    -0.222 OA
HETATM   22  O4  UNL     1      -3.445   1.954  10.250  1.00  0.00    -0.222 OA
BRANCH  20  23
HETATM   23  C5  UNL     1      -1.609   3.508  11.294  1.00  0.00     0.172 C 
BRANCH  23  24
HETATM   24  C6  UNL     1      -0.768   2.347  10.837  1.00  0.00     0.179 C 
BRANCH  24  25
HETATM   25  O5  UNL     1      -0.688   2.289   9.434  1.00  0.00    -0.400 OA
ATOM     26  H5  UNL     1      -0.597   1.395   9.126  1.00  0.00     0.209 HD
ENDBRANCH  24  25
ENDBRANCH  23  24
ENDBRANCH  20  23
ENDBRANCH   6  20
BRANCH   1  27
HETATM   27  S1  UNL     1      -5.371   0.866  16.672  1.00  0.00     0.263 S 
HETATM   28  O1  UNL     1      -5.082  -0.620  16.785  1.00  0.00    -0.201 OA
HETATM   29  O2  UNL     1      -4.724   1.584  17.839  1.00  0.00    -0.201 OA
BRANCH  27  30
HETATM   30  N1  UNL     1      -7.076   1.071  16.863  1.00  0.00    -0.324 N 
ATOM     31  H12 UNL     1      -7.788   0.379  16.627  1.00  0.00     0.169 HD
ATOM     32  H11 UNL     1      -7.227   2.003  17.250  1.00  0.00     0.169 HD
ENDBRANCH  27  30
ENDBRANCH   1  27
TORSDOF 8
ENDMDL
