MODEL 10
REMARK VINA RESULT: -7.323947768      3.931      6.133
REMARK  8 active torsions:
REMARK  status: ('A' for Active; 'I' for Inactive)
REMARK    1  A    between atoms: N1_1  and  S1_4 
REMARK    2  A    between atoms: S1_4  and  C1_7 
REMARK    3  A    between atoms: C4_12  and  S2_13 
REMARK    4  A    between atoms: S2_13  and  C5_16 
REMARK    5  A    between atoms: C5_16  and  C6_17 
REMARK    6  A    between atoms: C6_17  and  O5_18 
REMARK    7  A    between atoms: C7_20  and  N2_21 
REMARK    8  A    between atoms: N2_21  and  C8_23 
ROOT
HETATM    1  C1  UNL     1      -0.859   3.981  11.638  1.00  0.00     0.161 A 
HETATM    2  C2  UNL     1      -0.316   2.945  10.910  1.00  0.00     0.182 A 
HETATM    3  F1  UNL     1       0.900   3.073  10.285  1.00  0.00    -0.201 F 
HETATM    4  C3  UNL     1      -0.997   1.762  10.805  1.00  0.00     0.180 A 
HETATM    5  F2  UNL     1      -0.431   0.758  10.077  1.00  0.00    -0.201 F 
HETATM    6  C4  UNL     1      -2.227   1.612  11.429  1.00  0.00     0.130 A 
HETATM    7  C7  UNL     1      -2.803   2.618  12.167  1.00  0.00     0.094 A 
HETATM    8  C16 UNL     1      -2.101   3.811  12.263  1.00  0.00     0.170 A 
HETATM    9  F3  UNL     1      -2.575   4.888  12.950  1.00  0.00    -0.202 F 
ENDROOT
BRANCH   7  10
HETATM   10  N2  UNL     1      -4.017   2.527  12.861  1.00  0.00    -0.382 N 
ATOM     11  H2  UNL     1      -4.843   2.365  12.285  1.00  0.00     0.160 HD
BRANCH  10  12
HETATM   12  C8  UNL     1      -4.255   2.630  14.262  1.00  0.00     0.082 C 
HETATM   13  C9  UNL     1      -5.547   3.424  14.525  1.00  0.00     0.025 C 
HETATM   14  C10 UNL     1      -5.704   3.543  16.052  1.00  0.00     0.002 C 
HETATM   15  C11 UNL     1      -6.679   2.564  16.588  1.00  0.00     0.000 C 
HETATM   16  C12 UNL     1      -6.118   1.311  17.145  1.00  0.00     0.000 C 
HETATM   17  C13 UNL     1      -4.652   1.305  17.391  1.00  0.00     0.000 C 
HETATM   18  C14 UNL     1      -3.785   1.121  16.211  1.00  0.00     0.002 C 
HETATM   19  C15 UNL     1      -4.442   1.259  14.877  1.00  0.00     0.025 C 
ENDBRANCH  10  12
ENDBRANCH   7  10
BRANCH   6  20
HETATM   20  S2  UNL     1      -3.032   0.112  11.230  1.00  0.00     0.182 S 
HETATM   21  O3  UNL     1      -3.844  -0.312  12.395  1.00  0.00    -0.222 OA
HETATM   22  O4  UNL     1      -1.963  -0.967  11.068  1.00  0.00    -0.222 OA
BRANCH  20  23
HETATM   23  C5  UNL     1      -4.022   0.009   9.771  1.00  0.00     0.172 C 
BRANCH  23  24
HETATM   24  C6  UNL     1      -4.825   1.267   9.580  1.00  0.00     0.179 C 
BRANCH  24  25
HETATM   25  O5  UNL     1      -5.586   1.571  10.723  1.00  0.00    -0.400 OA
ATOM     26  H5  UNL     1      -6.412   1.981  10.493  1.00  0.00     0.209 HD
ENDBRANCH  24  25
ENDBRANCH  23  24
ENDBRANCH  20  23
ENDBRANCH   6  20
BRANCH   1  27
HETATM   27  S1  UNL     1      -0.005   5.489  11.779  1.00  0.00     0.263 S 
HETATM   28  O1  UNL     1      -0.237   6.361  10.558  1.00  0.00    -0.201 OA
HETATM   29  O2  UNL     1      -0.434   6.251  13.016  1.00  0.00    -0.201 OA
BRANCH  27  30
HETATM   30  N1  UNL     1       1.701   5.252  11.922  1.00  0.00    -0.324 N 
ATOM     31  H12 UNL     1       2.160   4.637  12.593  1.00  0.00     0.169 HD
ATOM     32  H11 UNL     1       2.147   5.839  11.216  1.00  0.00     0.169 HD
ENDBRANCH  27  30
ENDBRANCH   1  27
TORSDOF 8
ENDMDL
