MODEL 1
REMARK VINA RESULT: -9.024897846      0.000      0.000
REMARK  8 active torsions:
REMARK  status: ('A' for Active; 'I' for Inactive)
REMARK    1  A    between atoms: N1_1  and  S1_4 
REMARK    2  A    between atoms: S1_4  and  C1_7 
REMARK    3  A    between atoms: C4_12  and  S2_13 
REMARK    4  A    between atoms: S2_13  and  C5_16 
REMARK    5  A    between atoms: C5_16  and  C6_17 
REMARK    6  A    between atoms: C6_17  and  O5_18 
REMARK    7  A    between atoms: C7_20  and  N2_21 
REMARK    8  A    between atoms: N2_21  and  C8_23 
ROOT
HETATM    1  C1  UNL     1      -4.968   1.698  15.367  1.00  0.00     0.161 A 
HETATM    2  C2  UNL     1      -4.190   0.951  14.511  1.00  0.00     0.182 A 
HETATM    3  F1  UNL     1      -3.838  -0.342  14.813  1.00  0.00    -0.201 F 
HETATM    4  C3  UNL     1      -3.757   1.502  13.335  1.00  0.00     0.180 A 
HETATM    5  F2  UNL     1      -2.988   0.734  12.511  1.00  0.00    -0.201 F 
HETATM    6  C4  UNL     1      -4.102   2.806  13.011  1.00  0.00     0.130 A 
HETATM    7  C7  UNL     1      -4.878   3.585  13.835  1.00  0.00     0.094 A 
HETATM    8  C16 UNL     1      -5.308   3.013  15.024  1.00  0.00     0.170 A 
HETATM    9  F3  UNL     1      -6.066   3.690  15.932  1.00  0.00    -0.202 F 
ENDROOT
BRANCH   7  10
HETATM   10  N2  UNL     1      -5.303   4.891  13.558  1.00  0.00    -0.382 N 
ATOM     11  H2  UNL     1      -5.802   5.015  12.676  1.00  0.00     0.160 HD
BRANCH  10  12
HETATM   12  C8  UNL     1      -5.135   6.071  14.339  1.00  0.00     0.082 C 
HETATM   13  C9  UNL     1      -3.638   6.379  14.521  1.00  0.00     0.025 C 
HETATM   14  C10 UNL     1      -3.537   7.625  15.419  1.00  0.00     0.002 C 
HETATM   15  C11 UNL     1      -3.278   8.856  14.635  1.00  0.00     0.000 C 
HETATM   16  C12 UNL     1      -4.458   9.685  14.301  1.00  0.00     0.000 C 
HETATM   17  C13 UNL     1      -5.709   9.370  15.040  1.00  0.00     0.000 C 
HETATM   18  C14 UNL     1      -6.464   8.185  14.587  1.00  0.00     0.002 C 
HETATM   19  C15 UNL     1      -5.754   7.267  13.646  1.00  0.00     0.025 C 
ENDBRANCH  10  12
ENDBRANCH   7  10
BRANCH   6  20
HETATM   20  S2  UNL     1      -3.500   3.436  11.535  1.00  0.00     0.182 S 
HETATM   21  O3  UNL     1      -4.123   4.711  11.109  1.00  0.00    -0.222 OA
HETATM   22  O4  UNL     1      -3.838   2.432  10.434  1.00  0.00    -0.222 OA
BRANCH  20  23
HETATM   23  C5  UNL     1      -1.743   3.608  11.484  1.00  0.00     0.172 C 
BRANCH  23  24
HETATM   24  C6  UNL     1      -1.223   3.375  10.091  1.00  0.00     0.179 C 
BRANCH  24  25
HETATM   25  O5  UNL     1      -1.965   4.094   9.137  1.00  0.00    -0.400 OA
ATOM     26  H5  UNL     1      -2.106   3.584   8.348  1.00  0.00     0.209 HD
ENDBRANCH  24  25
ENDBRANCH  23  24
ENDBRANCH  20  23
ENDBRANCH   6  20
BRANCH   1  27
HETATM   27  S1  UNL     1      -5.524   1.012  16.865  1.00  0.00     0.263 S 
HETATM   28  O1  UNL     1      -6.877   0.345  16.688  1.00  0.00    -0.201 OA
HETATM   29  O2  UNL     1      -4.540  -0.006  17.403  1.00  0.00    -0.201 OA
BRANCH  27  30
HETATM   30  N1  UNL     1      -5.702   2.211  18.096  1.00  0.00    -0.324 N 
ATOM     31  H12 UNL     1      -6.523   2.800  18.237  1.00  0.00     0.169 HD
ATOM     32  H11 UNL     1      -4.840   2.214  18.641  1.00  0.00     0.169 HD
ENDBRANCH  27  30
ENDBRANCH   1  27
TORSDOF 8
ENDMDL
