MODEL 8
REMARK VINA RESULT: -7.395096271      1.842      2.170
REMARK  8 active torsions:
REMARK  status: ('A' for Active; 'I' for Inactive)
REMARK    1  A    between atoms: N1_1  and  S1_4 
REMARK    2  A    between atoms: S1_4  and  C1_7 
REMARK    3  A    between atoms: C4_12  and  S2_13 
REMARK    4  A    between atoms: S2_13  and  C5_16 
REMARK    5  A    between atoms: C5_16  and  C6_17 
REMARK    6  A    between atoms: C6_17  and  O5_18 
REMARK    7  A    between atoms: C7_20  and  N2_21 
REMARK    8  A    between atoms: N2_21  and  C8_23 
ROOT
HETATM    1  C1  UNL     1      -3.543   1.864  13.960  1.00  0.00     0.161 A 
HETATM    2  C2  UNL     1      -3.429   1.295  12.710  1.00  0.00     0.182 A 
HETATM    3  F1  UNL     1      -3.744  -0.024  12.497  1.00  0.00    -0.201 F 
HETATM    4  C3  UNL     1      -2.995   2.055  11.658  1.00  0.00     0.180 A 
HETATM    5  F2  UNL     1      -2.894   1.459  10.435  1.00  0.00    -0.201 F 
HETATM    6  C4  UNL     1      -2.672   3.389  11.852  1.00  0.00     0.130 A 
HETATM    7  C7  UNL     1      -2.773   3.997  13.081  1.00  0.00     0.094 A 
HETATM    8  C16 UNL     1      -3.213   3.214  14.138  1.00  0.00     0.170 A 
HETATM    9  F3  UNL     1      -3.337   3.696  15.407  1.00  0.00    -0.202 F 
ENDROOT
BRANCH   7  10
HETATM   10  N2  UNL     1      -2.508   5.348  13.346  1.00  0.00    -0.382 N 
ATOM     11  H2  UNL     1      -1.653   5.719  12.931  1.00  0.00     0.160 HD
BRANCH  10  12
HETATM   12  C8  UNL     1      -3.269   6.273  14.117  1.00  0.00     0.082 C 
HETATM   13  C9  UNL     1      -2.462   7.562  14.350  1.00  0.00     0.025 C 
HETATM   14  C10 UNL     1      -3.322   8.483  15.234  1.00  0.00     0.002 C 
HETATM   15  C11 UNL     1      -4.003   9.536  14.443  1.00  0.00     0.000 C 
HETATM   16  C12 UNL     1      -5.406   9.265  14.054  1.00  0.00     0.000 C 
HETATM   17  C13 UNL     1      -6.070   8.132  14.751  1.00  0.00     0.000 C 
HETATM   18  C14 UNL     1      -5.722   6.774  14.287  1.00  0.00     0.002 C 
HETATM   19  C15 UNL     1      -4.535   6.666  13.386  1.00  0.00     0.025 C 
ENDBRANCH  10  12
ENDBRANCH   7  10
BRANCH   6  20
HETATM   20  S2  UNL     1      -2.109   4.269  10.493  1.00  0.00     0.182 S 
HETATM   21  O3  UNL     1      -2.638   5.650  10.390  1.00  0.00    -0.222 OA
HETATM   22  O4  UNL     1      -2.608   3.550   9.240  1.00  0.00    -0.222 OA
BRANCH  20  23
HETATM   23  C5  UNL     1      -0.350   4.312  10.335  1.00  0.00     0.172 C 
BRANCH  23  24
HETATM   24  C6  UNL     1       0.223   5.497  11.063  1.00  0.00     0.179 C 
BRANCH  24  25
HETATM   25  O5  UNL     1       0.433   5.214  12.425  1.00  0.00    -0.400 OA
ATOM     26  H5  UNL     1       1.097   5.780  12.800  1.00  0.00     0.209 HD
ENDBRANCH  24  25
ENDBRANCH  23  24
ENDBRANCH  20  23
ENDBRANCH   6  20
BRANCH   1  27
HETATM   27  S1  UNL     1      -4.092   0.911  15.306  1.00  0.00     0.263 S 
HETATM   28  O1  UNL     1      -4.372  -0.520  14.881  1.00  0.00    -0.201 OA
HETATM   29  O2  UNL     1      -3.072   0.901  16.426  1.00  0.00    -0.201 OA
BRANCH  27  30
HETATM   30  N1  UNL     1      -5.552   1.537  15.985  1.00  0.00    -0.324 N 
ATOM     31  H12 UNL     1      -6.099   1.097  16.726  1.00  0.00     0.169 HD
ATOM     32  H11 UNL     1      -5.754   2.416  15.508  1.00  0.00     0.169 HD
ENDBRANCH  27  30
ENDBRANCH   1  27
TORSDOF 8
ENDMDL
