MODEL 2
REMARK VINA RESULT: -8.370757943      0.723      1.510
REMARK  8 active torsions:
REMARK  status: ('A' for Active; 'I' for Inactive)
REMARK    1  A    between atoms: N1_1  and  S1_4 
REMARK    2  A    between atoms: S1_4  and  C1_7 
REMARK    3  A    between atoms: C4_12  and  S2_13 
REMARK    4  A    between atoms: S2_13  and  C5_16 
REMARK    5  A    between atoms: C5_16  and  C6_17 
REMARK    6  A    between atoms: C6_17  and  O5_18 
REMARK    7  A    between atoms: C7_20  and  N2_21 
REMARK    8  A    between atoms: N2_21  and  C8_23 
ROOT
HETATM    1  C1  UNL     1      -4.901   1.636  15.185  1.00  0.00     0.161 A 
HETATM    2  C2  UNL     1      -4.112   0.810  14.415  1.00  0.00     0.182 A 
HETATM    3  F1  UNL     1      -3.758  -0.444  14.849  1.00  0.00    -0.201 F 
HETATM    4  C3  UNL     1      -3.671   1.241  13.194  1.00  0.00     0.180 A 
HETATM    5  F2  UNL     1      -2.892   0.397  12.458  1.00  0.00    -0.201 F 
HETATM    6  C4  UNL     1      -4.017   2.504  12.738  1.00  0.00     0.130 A 
HETATM    7  C7  UNL     1      -4.804   3.359  13.472  1.00  0.00     0.094 A 
HETATM    8  C16 UNL     1      -5.242   2.908  14.709  1.00  0.00     0.170 A 
HETATM    9  F3  UNL     1      -6.012   3.669  15.537  1.00  0.00    -0.202 F 
ENDROOT
BRANCH   7  10
HETATM   10  N2  UNL     1      -5.232   4.629  13.061  1.00  0.00    -0.382 N 
ATOM     11  H2  UNL     1      -6.081   4.647  12.495  1.00  0.00     0.160 HD
BRANCH  10  12
HETATM   12  C8  UNL     1      -4.642   5.899  13.325  1.00  0.00     0.082 C 
HETATM   13  C9  UNL     1      -5.708   6.882  13.841  1.00  0.00     0.025 C 
HETATM   14  C10 UNL     1      -5.011   8.240  14.046  1.00  0.00     0.002 C 
HETATM   15  C11 UNL     1      -4.680   8.485  15.470  1.00  0.00     0.000 C 
HETATM   16  C12 UNL     1      -3.297   8.163  15.891  1.00  0.00     0.000 C 
HETATM   17  C13 UNL     1      -2.318   7.932  14.797  1.00  0.00     0.000 C 
HETATM   18  C14 UNL     1      -2.376   6.619  14.124  1.00  0.00     0.002 C 
HETATM   19  C15 UNL     1      -3.583   5.785  14.401  1.00  0.00     0.025 C 
ENDBRANCH  10  12
ENDBRANCH   7  10
BRANCH   6  20
HETATM   20  S2  UNL     1      -3.405   2.985  11.210  1.00  0.00     0.182 S 
HETATM   21  O3  UNL     1      -3.949   4.267  10.703  1.00  0.00    -0.222 OA
HETATM   22  O4  UNL     1      -3.832   1.931  10.190  1.00  0.00    -0.222 OA
BRANCH  20  23
HETATM   23  C5  UNL     1      -1.641   3.032  11.120  1.00  0.00     0.172 C 
BRANCH  23  24
HETATM   24  C6  UNL     1      -1.185   4.068  10.129  1.00  0.00     0.179 C 
BRANCH  24  25
HETATM   25  O5  UNL     1      -1.845   3.928   8.895  1.00  0.00    -0.400 OA
ATOM     26  H5  UNL     1      -1.306   3.469   8.262  1.00  0.00     0.209 HD
ENDBRANCH  24  25
ENDBRANCH  23  24
ENDBRANCH  20  23
ENDBRANCH   6  20
BRANCH   1  27
HETATM   27  S1  UNL     1      -5.468   1.101  16.740  1.00  0.00     0.263 S 
HETATM   28  O1  UNL     1      -6.768   0.328  16.608  1.00  0.00    -0.201 OA
HETATM   29  O2  UNL     1      -4.442   0.225  17.428  1.00  0.00    -0.201 OA
BRANCH  27  30
HETATM   30  N1  UNL     1      -5.767   2.427  17.807  1.00  0.00    -0.324 N 
ATOM     31  H12 UNL     1      -6.455   3.166  17.658  1.00  0.00     0.169 HD
ATOM     32  H11 UNL     1      -5.131   2.327  18.599  1.00  0.00     0.169 HD
ENDBRANCH  27  30
ENDBRANCH   1  27
TORSDOF 8
ENDMDL
