MODEL 5
REMARK VINA RESULT: -7.875719866      0.982      1.014
REMARK  8 active torsions:
REMARK  status: ('A' for Active; 'I' for Inactive)
REMARK    1  A    between atoms: N1_1  and  S1_4 
REMARK    2  A    between atoms: S1_4  and  C1_7 
REMARK    3  A    between atoms: C4_12  and  S2_13 
REMARK    4  A    between atoms: S2_13  and  C5_16 
REMARK    5  A    between atoms: C5_16  and  C6_17 
REMARK    6  A    between atoms: C6_17  and  O5_18 
REMARK    7  A    between atoms: C7_20  and  N2_21 
REMARK    8  A    between atoms: N2_21  and  C8_23 
ROOT
HETATM    1  C1  UNL     1      -4.443   1.601  14.778  1.00  0.00     0.161 A 
HETATM    2  C2  UNL     1      -3.839   0.738  13.890  1.00  0.00     0.182 A 
HETATM    3  F1  UNL     1      -3.716  -0.601  14.169  1.00  0.00    -0.201 F 
HETATM    4  C3  UNL     1      -3.352   1.219  12.705  1.00  0.00     0.180 A 
HETATM    5  F2  UNL     1      -2.760   0.338  11.849  1.00  0.00    -0.201 F 
HETATM    6  C4  UNL     1      -3.466   2.568  12.404  1.00  0.00     0.130 A 
HETATM    7  C7  UNL     1      -4.063   3.463  13.260  1.00  0.00     0.094 A 
HETATM    8  C16 UNL     1      -4.551   2.960  14.458  1.00  0.00     0.170 A 
HETATM    9  F3  UNL     1      -5.146   3.749  15.396  1.00  0.00    -0.202 F 
ENDROOT
BRANCH   7  10
HETATM   10  N2  UNL     1      -4.255   4.828  13.009  1.00  0.00    -0.382 N 
ATOM     11  H2  UNL     1      -4.094   5.126  12.046  1.00  0.00     0.160 HD
BRANCH  10  12
HETATM   12  C8  UNL     1      -4.645   5.857  13.914  1.00  0.00     0.082 C 
HETATM   13  C9  UNL     1      -3.401   6.510  14.543  1.00  0.00     0.025 C 
HETATM   14  C10 UNL     1      -3.902   7.564  15.547  1.00  0.00     0.002 C 
HETATM   15  C11 UNL     1      -3.838   8.937  14.990  1.00  0.00     0.000 C 
HETATM   16  C12 UNL     1      -5.092   9.473  14.412  1.00  0.00     0.000 C 
HETATM   17  C13 UNL     1      -6.332   8.719  14.729  1.00  0.00     0.000 C 
HETATM   18  C14 UNL     1      -6.562   7.474  13.970  1.00  0.00     0.002 C 
HETATM   19  C15 UNL     1      -5.402   6.950  13.189  1.00  0.00     0.025 C 
ENDBRANCH  10  12
ENDBRANCH   7  10
BRANCH   6  20
HETATM   20  S2  UNL     1      -2.807   3.101  10.914  1.00  0.00     0.182 S 
HETATM   21  O3  UNL     1      -3.129   4.505  10.564  1.00  0.00    -0.222 OA
HETATM   22  O4  UNL     1      -3.432   2.255   9.806  1.00  0.00    -0.222 OA
BRANCH  20  23
HETATM   23  C5  UNL     1      -1.065   2.854  10.762  1.00  0.00     0.172 C 
BRANCH  23  24
HETATM   24  C6  UNL     1      -0.465   3.850   9.807  1.00  0.00     0.179 C 
BRANCH  24  25
HETATM   25  O5  UNL     1      -1.204   3.929   8.613  1.00  0.00    -0.400 OA
ATOM     26  H5  UNL     1      -1.348   4.830   8.350  1.00  0.00     0.209 HD
ENDBRANCH  24  25
ENDBRANCH  23  24
ENDBRANCH  20  23
ENDBRANCH   6  20
BRANCH   1  27
HETATM   27  S1  UNL     1      -5.065   1.004  16.288  1.00  0.00     0.263 S 
HETATM   28  O1  UNL     1      -5.112  -0.514  16.295  1.00  0.00    -0.201 OA
HETATM   29  O2  UNL     1      -4.224   1.476  17.456  1.00  0.00    -0.201 OA
BRANCH  27  30
HETATM   30  N1  UNL     1      -6.671   1.566  16.589  1.00  0.00    -0.324 N 
ATOM     31  H12 UNL     1      -6.939   2.245  17.301  1.00  0.00     0.169 HD
ATOM     32  H11 UNL     1      -7.286   1.092  15.926  1.00  0.00     0.169 HD
ENDBRANCH  27  30
ENDBRANCH   1  27
TORSDOF 8
ENDMDL
