MODEL 7
REMARK VINA RESULT: -7.461965115      2.285      5.292
REMARK  8 active torsions:
REMARK  status: ('A' for Active; 'I' for Inactive)
REMARK    1  A    between atoms: N1_1  and  S1_4 
REMARK    2  A    between atoms: S1_4  and  C1_7 
REMARK    3  A    between atoms: C4_12  and  S2_13 
REMARK    4  A    between atoms: S2_13  and  C5_16 
REMARK    5  A    between atoms: C5_16  and  C6_17 
REMARK    6  A    between atoms: C6_17  and  O5_18 
REMARK    7  A    between atoms: C7_20  and  N2_21 
REMARK    8  A    between atoms: N2_21  and  C8_23 
ROOT
HETATM    1  C1  UNL     1      -4.398   2.316  14.587  1.00  0.00     0.161 A 
HETATM    2  C2  UNL     1      -5.118   3.351  15.143  1.00  0.00     0.182 A 
HETATM    3  F1  UNL     1      -5.699   3.231  16.381  1.00  0.00    -0.201 F 
HETATM    4  C3  UNL     1      -5.258   4.524  14.453  1.00  0.00     0.180 A 
HETATM    5  F2  UNL     1      -5.978   5.528  15.032  1.00  0.00    -0.201 F 
HETATM    6  C4  UNL     1      -4.679   4.667  13.200  1.00  0.00     0.130 A 
HETATM    7  C7  UNL     1      -3.951   3.661  12.610  1.00  0.00     0.094 A 
HETATM    8  C16 UNL     1      -3.818   2.477  13.322  1.00  0.00     0.170 A 
HETATM    9  F3  UNL     1      -3.137   1.402  12.836  1.00  0.00    -0.202 F 
ENDROOT
BRANCH   7  10
HETATM   10  N2  UNL     1      -3.301   3.745  11.372  1.00  0.00    -0.382 N 
ATOM     11  H2  UNL     1      -3.903   3.671  10.552  1.00  0.00     0.160 HD
BRANCH  10  12
HETATM   12  C8  UNL     1      -1.913   3.918  11.102  1.00  0.00     0.082 C 
HETATM   13  C9  UNL     1      -1.352   2.679  10.381  1.00  0.00     0.025 C 
HETATM   14  C10 UNL     1       0.156   2.916  10.178  1.00  0.00     0.002 C 
HETATM   15  C11 UNL     1       0.468   3.357   8.797  1.00  0.00     0.000 C 
HETATM   16  C12 UNL     1       0.617   4.815   8.588  1.00  0.00     0.000 C 
HETATM   17  C13 UNL     1       0.749   5.641   9.816  1.00  0.00     0.000 C 
HETATM   18  C14 UNL     1      -0.494   5.917  10.564  1.00  0.00     0.002 C 
HETATM   19  C15 UNL     1      -1.689   5.104  10.187  1.00  0.00     0.025 C 
ENDBRANCH  10  12
ENDBRANCH   7  10
BRANCH   6  20
HETATM   20  S2  UNL     1      -4.922   6.155  12.385  1.00  0.00     0.182 S 
HETATM   21  O3  UNL     1      -4.774   6.083  10.912  1.00  0.00    -0.222 OA
HETATM   22  O4  UNL     1      -3.835   7.120  12.855  1.00  0.00    -0.222 OA
BRANCH  20  23
HETATM   23  C5  UNL     1      -6.450   6.952  12.771  1.00  0.00     0.172 C 
BRANCH  23  24
HETATM   24  C6  UNL     1      -6.293   8.448  12.750  1.00  0.00     0.179 C 
BRANCH  24  25
HETATM   25  O5  UNL     1      -5.767   8.894  11.525  1.00  0.00    -0.400 OA
ATOM     26  H5  UNL     1      -5.448   9.787  11.587  1.00  0.00     0.209 HD
ENDBRANCH  24  25
ENDBRANCH  23  24
ENDBRANCH  20  23
ENDBRANCH   6  20
BRANCH   1  27
HETATM   27  S1  UNL     1      -4.211   0.820  15.452  1.00  0.00     0.263 S 
HETATM   28  O1  UNL     1      -4.233  -0.364  14.502  1.00  0.00    -0.201 OA
HETATM   29  O2  UNL     1      -2.917   0.796  16.239  1.00  0.00    -0.201 OA
BRANCH  27  30
HETATM   30  N1  UNL     1      -5.481   0.577  16.600  1.00  0.00    -0.324 N 
ATOM     31  H12 UNL     1      -6.388   1.044  16.589  1.00  0.00     0.169 HD
ATOM     32  H11 UNL     1      -5.149  -0.111  17.277  1.00  0.00     0.169 HD
ENDBRANCH  27  30
ENDBRANCH   1  27
TORSDOF 8
ENDMDL
