MODEL 6
REMARK VINA RESULT: -8.943081567      1.451      1.840
REMARK  3 active torsions:
REMARK  status: ('A' for Active; 'I' for Inactive)
REMARK    1  A    between atoms: C6_6  and  O1_7 
REMARK    2  A    between atoms: C13_15  and  O2_16 
REMARK    3  A    between atoms: C18_24  and  C19_25 
ROOT
HETATM    1  C1  UNL     1      -1.598  24.326  33.474  1.00  0.00     0.017 C 
HETATM    2  C2  UNL     1      -0.331  24.058  33.661  1.00  0.00    -0.054 C 
HETATM    3  C3  UNL     1       0.353  22.763  33.426  1.00  0.00     0.047 C 
HETATM    4  C4  UNL     1       1.725  22.908  34.012  1.00  0.00    -0.013 C 
HETATM    5  C5  UNL     1       1.574  24.058  34.995  1.00  0.00     0.053 C 
HETATM    6  C6  UNL     1       0.702  25.000  34.153  1.00  0.00     0.081 C 
HETATM    7  C7  UNL     1       1.502  25.551  33.022  1.00  0.00     0.043 C 
HETATM    8  C8  UNL     1       2.750  24.802  32.709  1.00  0.00     0.012 C 
HETATM    9  C9  UNL     1       2.685  23.327  32.927  1.00  0.00     0.035 C 
HETATM   10  C10 UNL     1       3.976  22.757  33.403  1.00  0.00     0.098 C 
HETATM   11  C11 UNL     1       4.983  22.499  32.374  1.00  0.00     0.011 C 
HETATM   12  C12 UNL     1       5.821  21.467  32.610  1.00  0.00     0.005 C 
HETATM   13  C13 UNL     1       5.895  20.784  33.922  1.00  0.00     0.159 C 
HETATM   14  C14 UNL     1       4.700  21.061  34.806  1.00  0.00     0.081 C 
HETATM   15  C15 UNL     1       4.457  19.965  35.777  1.00  0.00     0.029 C 
HETATM   16  C16 UNL     1       4.926  22.392  35.468  1.00  0.00     0.271 C 
HETATM   17  O3  UNL     1       5.382  22.659  36.589  1.00  0.00    -0.264 OA
HETATM   18  O4  UNL     1       4.506  23.355  34.544  1.00  0.00    -0.304 OA
HETATM   19  C17 UNL     1       3.537  21.376  33.911  1.00  0.00     0.061 C 
HETATM   20  C18 UNL     1       2.258  21.664  34.644  1.00  0.00     0.105 C 
ENDROOT
BRANCH  20  21
HETATM   21  C19 UNL     1       1.314  20.544  34.287  1.00  0.00     0.178 C 
HETATM   22  O5  UNL     1       0.367  20.198  35.002  1.00  0.00    -0.648 OA
HETATM   23  O6  UNL     1       1.598  19.913  33.061  1.00  0.00    -0.648 OA
ENDBRANCH  20  21
BRANCH   6  24
HETATM   24  O1  UNL     1       0.167  26.018  34.933  1.00  0.00    -0.385 OA
ATOM     25  H1  UNL     1      -0.760  25.899  35.104  1.00  0.00     0.211 HD
ENDBRANCH   6  24
BRANCH  13  26
HETATM   26  O2  UNL     1       5.927  19.399  33.666  1.00  0.00    -0.390 OA
ATOM     27  H2  UNL     1       5.339  18.987  34.288  1.00  0.00     0.210 HD
ENDBRANCH  13  26
TORSDOF 3
ENDMDL
