MODEL 1
REMARK VINA RESULT: -10.202183297      0.000      0.000
REMARK  3 active torsions:
REMARK  status: ('A' for Active; 'I' for Inactive)
REMARK    1  A    between atoms: C6_6  and  O1_7 
REMARK    2  A    between atoms: C13_15  and  O2_16 
REMARK    3  A    between atoms: C18_24  and  C19_25 
ROOT
HETATM    1  C1  UNL     1      -1.784  24.495  33.980  1.00  0.00     0.017 C 
HETATM    2  C2  UNL     1      -0.493  24.366  34.150  1.00  0.00    -0.054 C 
HETATM    3  C3  UNL     1       0.463  23.681  33.246  1.00  0.00     0.047 C 
HETATM    4  C4  UNL     1       1.758  23.602  33.997  1.00  0.00    -0.013 C 
HETATM    5  C5  UNL     1       1.337  23.761  35.451  1.00  0.00     0.053 C 
HETATM    6  C6  UNL     1       0.297  24.879  35.294  1.00  0.00     0.081 C 
HETATM    7  C7  UNL     1       0.979  26.156  34.939  1.00  0.00     0.043 C 
HETATM    8  C8  UNL     1       2.367  26.007  34.421  1.00  0.00     0.012 C 
HETATM    9  C9  UNL     1       2.624  24.776  33.617  1.00  0.00     0.035 C 
HETATM   10  C10 UNL     1       3.999  24.237  33.810  1.00  0.00     0.098 C 
HETATM   11  C11 UNL     1       5.058  24.888  33.040  1.00  0.00     0.011 C 
HETATM   12  C12 UNL     1       6.098  24.104  32.682  1.00  0.00     0.005 C 
HETATM   13  C13 UNL     1       6.293  22.741  33.227  1.00  0.00     0.159 C 
HETATM   14  C14 UNL     1       5.049  22.173  33.872  1.00  0.00     0.081 C 
HETATM   15  C15 UNL     1       5.033  20.689  33.844  1.00  0.00     0.029 C 
HETATM   16  C16 UNL     1       4.964  22.735  35.264  1.00  0.00     0.271 C 
HETATM   17  O3  UNL     1       5.327  22.250  36.344  1.00  0.00    -0.264 OA
HETATM   18  O4  UNL     1       4.361  23.991  35.133  1.00  0.00    -0.304 OA
HETATM   19  C17 UNL     1       3.863  22.825  33.222  1.00  0.00     0.061 C 
HETATM   20  C18 UNL     1       2.538  22.353  33.748  1.00  0.00     0.105 C 
ENDROOT
BRANCH  20  21
HETATM   21  C19 UNL     1       1.871  21.633  32.603  1.00  0.00     0.178 C 
HETATM   22  O5  UNL     1       2.244  21.728  31.429  1.00  0.00    -0.648 OA
HETATM   23  O6  UNL     1       0.774  20.834  32.980  1.00  0.00    -0.648 OA
ENDBRANCH  20  21
BRANCH   6  24
HETATM   24  O1  UNL     1      -0.464  25.020  36.447  1.00  0.00    -0.385 OA
ATOM     25  H1  UNL     1      -1.309  25.422  36.281  1.00  0.00     0.211 HD
ENDBRANCH   6  24
BRANCH  13  26
HETATM   26  O2  UNL     1       6.634  21.907  32.144  1.00  0.00    -0.390 OA
ATOM     27  H2  UNL     1       7.555  22.049  31.961  1.00  0.00     0.210 HD
ENDBRANCH  13  26
TORSDOF 3
ENDMDL
