MODEL 5
REMARK VINA RESULT: -8.979725799      1.857      5.393
REMARK  3 active torsions:
REMARK  status: ('A' for Active; 'I' for Inactive)
REMARK    1  A    between atoms: C6_6  and  O1_7 
REMARK    2  A    between atoms: C13_15  and  O2_16 
REMARK    3  A    between atoms: C18_24  and  C19_25 
ROOT
HETATM    1  C1  UNL     1       7.361  22.322  33.582  1.00  0.00     0.017 C 
HETATM    2  C2  UNL     1       6.083  22.596  33.648  1.00  0.00    -0.054 C 
HETATM    3  C3  UNL     1       5.111  22.088  34.646  1.00  0.00     0.047 C 
HETATM    4  C4  UNL     1       3.756  22.498  34.149  1.00  0.00    -0.013 C 
HETATM    5  C5  UNL     1       3.981  22.744  32.665  1.00  0.00     0.053 C 
HETATM    6  C6  UNL     1       5.327  23.479  32.729  1.00  0.00     0.081 C 
HETATM    7  C7  UNL     1       5.135  24.830  33.329  1.00  0.00     0.043 C 
HETATM    8  C8  UNL     1       3.864  25.012  34.083  1.00  0.00     0.012 C 
HETATM    9  C9  UNL     1       3.363  23.801  34.798  1.00  0.00     0.035 C 
HETATM   10  C10 UNL     1       1.877  23.715  34.818  1.00  0.00     0.098 C 
HETATM   11  C11 UNL     1       1.200  24.521  35.834  1.00  0.00     0.011 C 
HETATM   12  C12 UNL     1       0.036  24.025  36.305  1.00  0.00     0.005 C 
HETATM   13  C13 UNL     1      -0.651  22.873  35.677  1.00  0.00     0.159 C 
HETATM   14  C14 UNL     1       0.243  22.074  34.757  1.00  0.00     0.081 C 
HETATM   15  C15 UNL     1      -0.197  20.661  34.638  1.00  0.00     0.029 C 
HETATM   16  C16 UNL     1       0.287  22.788  33.435  1.00  0.00     0.271 C 
HETATM   17  O3  UNL     1      -0.368  22.595  32.401  1.00  0.00    -0.264 OA
HETATM   18  O4  UNL     1       1.261  23.784  33.570  1.00  0.00    -0.304 OA
HETATM   19  C17 UNL     1       1.657  22.252  35.231  1.00  0.00     0.061 C 
HETATM   20  C18 UNL     1       2.675  21.504  34.420  1.00  0.00     0.105 C 
ENDROOT
BRANCH  20  21
HETATM   21  C19 UNL     1       3.252  20.460  35.343  1.00  0.00     0.178 C 
HETATM   22  O5  UNL     1       3.062  20.451  36.564  1.00  0.00    -0.648 OA
HETATM   23  O6  UNL     1       4.036  19.484  34.698  1.00  0.00    -0.648 OA
ENDBRANCH  20  21
BRANCH   6  24
HETATM   24  O1  UNL     1       5.910  23.566  31.472  1.00  0.00    -0.385 OA
ATOM     25  H1  UNL     1       5.270  23.549  30.770  1.00  0.00     0.211 HD
ENDBRANCH   6  24
BRANCH  13  26
HETATM   26  O2  UNL     1      -1.066  22.020  36.720  1.00  0.00    -0.390 OA
ATOM     27  H2  UNL     1      -0.507  21.253  36.691  1.00  0.00     0.210 HD
ENDBRANCH  13  26
TORSDOF 3
ENDMDL
