MODEL 2
REMARK VINA RESULT: -9.316997043      1.842      5.882
REMARK  3 active torsions:
REMARK  status: ('A' for Active; 'I' for Inactive)
REMARK    1  A    between atoms: C6_6  and  O1_7 
REMARK    2  A    between atoms: C13_15  and  O2_16 
REMARK    3  A    between atoms: C18_24  and  C19_25 
ROOT
HETATM    1  C1  UNL     1       5.761  21.936  33.526  1.00  0.00     0.017 C 
HETATM    2  C2  UNL     1       4.469  22.124  33.611  1.00  0.00    -0.054 C 
HETATM    3  C3  UNL     1       3.768  23.397  33.905  1.00  0.00     0.047 C 
HETATM    4  C4  UNL     1       2.329  23.035  34.126  1.00  0.00    -0.013 C 
HETATM    5  C5  UNL     1       2.382  21.553  34.464  1.00  0.00     0.053 C 
HETATM    6  C6  UNL     1       3.419  21.093  33.431  1.00  0.00     0.081 C 
HETATM    7  C7  UNL     1       2.833  21.164  32.062  1.00  0.00     0.043 C 
HETATM    8  C8  UNL     1       1.614  22.010  31.941  1.00  0.00     0.012 C 
HETATM    9  C9  UNL     1       1.571  23.206  32.834  1.00  0.00     0.035 C 
HETATM   10  C10 UNL     1       0.196  23.524  33.307  1.00  0.00     0.098 C 
HETATM   11  C11 UNL     1      -0.650  24.267  32.373  1.00  0.00     0.011 C 
HETATM   12  C12 UNL     1      -1.564  25.092  32.928  1.00  0.00     0.005 C 
HETATM   13  C13 UNL     1      -1.874  25.078  34.375  1.00  0.00     0.159 C 
HETATM   14  C14 UNL     1      -0.820  24.381  35.205  1.00  0.00     0.081 C 
HETATM   15  C15 UNL     1      -0.785  24.882  36.602  1.00  0.00     0.029 C 
HETATM   16  C16 UNL     1      -1.081  22.902  35.119  1.00  0.00     0.271 C 
HETATM   17  O3  UNL     1      -1.692  22.153  35.894  1.00  0.00    -0.264 OA
HETATM   18  O4  UNL     1      -0.475  22.475  33.932  1.00  0.00    -0.304 OA
HETATM   19  C17 UNL     1       0.483  24.489  34.467  1.00  0.00     0.061 C 
HETATM   20  C18 UNL     1       1.644  23.850  35.173  1.00  0.00     0.105 C 
ENDROOT
BRANCH  20  21
HETATM   21  C19 UNL     1       2.576  24.977  35.540  1.00  0.00     0.178 C 
HETATM   22  O5  UNL     1       3.381  24.917  36.477  1.00  0.00    -0.648 OA
HETATM   23  O6  UNL     1       2.459  26.118  34.724  1.00  0.00    -0.648 OA
ENDBRANCH  20  21
BRANCH   6  24
HETATM   24  O1  UNL     1       3.875  19.812  33.715  1.00  0.00    -0.385 OA
ATOM     25  H1  UNL     1       3.427  19.420  34.456  1.00  0.00     0.211 HD
ENDBRANCH   6  24
BRANCH  13  26
HETATM   26  O2  UNL     1      -1.934  26.421  34.799  1.00  0.00    -0.390 OA
ATOM     27  H2  UNL     1      -2.547  26.457  35.524  1.00  0.00     0.210 HD
ENDBRANCH  13  26
TORSDOF 3
ENDMDL
