MODEL 4
REMARK VINA RESULT: -9.004576821      2.922      5.008
REMARK  3 active torsions:
REMARK  status: ('A' for Active; 'I' for Inactive)
REMARK    1  A    between atoms: C6_6  and  O1_7 
REMARK    2  A    between atoms: C13_15  and  O2_16 
REMARK    3  A    between atoms: C18_24  and  C19_25 
ROOT
HETATM    1  C1  UNL     1      -2.174  26.458  38.203  1.00  0.00     0.017 C 
HETATM    2  C2  UNL     1      -1.823  25.327  37.646  1.00  0.00    -0.054 C 
HETATM    3  C3  UNL     1      -0.495  24.983  37.082  1.00  0.00     0.047 C 
HETATM    4  C4  UNL     1      -0.677  23.682  36.360  1.00  0.00    -0.013 C 
HETATM    5  C5  UNL     1      -2.176  23.623  36.104  1.00  0.00     0.053 C 
HETATM    6  C6  UNL     1      -2.686  24.137  37.457  1.00  0.00     0.081 C 
HETATM    7  C7  UNL     1      -2.426  23.118  38.514  1.00  0.00     0.043 C 
HETATM    8  C8  UNL     1      -1.417  22.083  38.158  1.00  0.00     0.012 C 
HETATM    9  C9  UNL     1      -0.302  22.547  37.280  1.00  0.00     0.035 C 
HETATM   10  C10 UNL     1       0.158  21.499  36.328  1.00  0.00     0.098 C 
HETATM   11  C11 UNL     1       1.080  20.501  36.867  1.00  0.00     0.011 C 
HETATM   12  C12 UNL     1       1.972  19.985  35.994  1.00  0.00     0.005 C 
HETATM   13  C13 UNL     1       1.883  20.215  34.535  1.00  0.00     0.159 C 
HETATM   14  C14 UNL     1       0.986  21.376  34.167  1.00  0.00     0.081 C 
HETATM   15  C15 UNL     1       1.364  21.985  32.868  1.00  0.00     0.029 C 
HETATM   16  C16 UNL     1      -0.432  20.876  34.191  1.00  0.00     0.271 C 
HETATM   17  O3  UNL     1      -1.153  20.475  33.267  1.00  0.00    -0.264 OA
HETATM   18  O4  UNL     1      -0.839  20.943  35.528  1.00  0.00    -0.304 OA
HETATM   19  C17 UNL     1       0.978  22.328  35.328  1.00  0.00     0.061 C 
HETATM   20  C18 UNL     1       0.134  23.551  35.113  1.00  0.00     0.105 C 
ENDROOT
BRANCH  20  21
HETATM   21  C19 UNL     1       1.093  24.715  35.083  1.00  0.00     0.178 C 
HETATM   22  O5  UNL     1       0.842  25.790  34.526  1.00  0.00    -0.648 OA
HETATM   23  O6  UNL     1       2.313  24.481  35.746  1.00  0.00    -0.648 OA
ENDBRANCH  20  21
BRANCH   6  24
HETATM   24  O1  UNL     1      -4.035  24.461  37.393  1.00  0.00    -0.385 OA
ATOM     25  H1  UNL     1      -4.548  23.801  36.941  1.00  0.00     0.211 HD
ENDBRANCH   6  24
BRANCH  13  26
HETATM   26  O2  UNL     1       3.183  20.519  34.083  1.00  0.00    -0.390 OA
ATOM     27  H2  UNL     1       3.175  20.440  33.137  1.00  0.00     0.210 HD
ENDBRANCH  13  26
TORSDOF 3
ENDMDL
