MODEL 7
REMARK VINA RESULT: -8.875876113      1.214      1.326
REMARK  3 active torsions:
REMARK  status: ('A' for Active; 'I' for Inactive)
REMARK    1  A    between atoms: C6_6  and  O1_7 
REMARK    2  A    between atoms: C13_15  and  O2_16 
REMARK    3  A    between atoms: C18_24  and  C19_25 
ROOT
HETATM    1  C1  UNL     1      -1.674  22.130  35.070  1.00  0.00     0.017 C 
HETATM    2  C2  UNL     1      -0.413  22.472  35.006  1.00  0.00    -0.054 C 
HETATM    3  C3  UNL     1       0.506  22.286  33.857  1.00  0.00     0.047 C 
HETATM    4  C4  UNL     1       1.877  22.619  34.366  1.00  0.00    -0.013 C 
HETATM    5  C5  UNL     1       1.745  22.464  35.873  1.00  0.00     0.053 C 
HETATM    6  C6  UNL     1       0.375  23.125  36.078  1.00  0.00     0.081 C 
HETATM    7  C7  UNL     1       0.483  24.593  35.840  1.00  0.00     0.043 C 
HETATM    8  C8  UNL     1       1.694  25.023  35.089  1.00  0.00     0.012 C 
HETATM    9  C9  UNL     1       2.184  24.062  34.056  1.00  0.00     0.035 C 
HETATM   10  C10 UNL     1       3.667  24.056  33.931  1.00  0.00     0.098 C 
HETATM   11  C11 UNL     1       4.249  25.127  33.123  1.00  0.00     0.011 C 
HETATM   12  C12 UNL     1       5.394  24.825  32.474  1.00  0.00     0.005 C 
HETATM   13  C13 UNL     1       6.158  23.586  32.741  1.00  0.00     0.159 C 
HETATM   14  C14 UNL     1       5.353  22.534  33.471  1.00  0.00     0.081 C 
HETATM   15  C15 UNL     1       5.845  21.161  33.194  1.00  0.00     0.029 C 
HETATM   16  C16 UNL     1       5.376  22.882  34.934  1.00  0.00     0.271 C 
HETATM   17  O3  UNL     1       6.104  22.461  35.843  1.00  0.00    -0.264 OA
HETATM   18  O4  UNL     1       4.364  23.831  35.117  1.00  0.00    -0.304 OA
HETATM   19  C17 UNL     1       3.906  22.761  33.141  1.00  0.00     0.061 C 
HETATM   20  C18 UNL     1       2.968  21.781  33.785  1.00  0.00     0.105 C 
ENDROOT
BRANCH  20  21
HETATM   21  C19 UNL     1       2.364  20.983  32.657  1.00  0.00     0.178 C 
HETATM   22  O5  UNL     1       2.166  21.443  31.527  1.00  0.00    -0.648 OA
HETATM   23  O6  UNL     1       2.038  19.655  32.994  1.00  0.00    -0.648 OA
ENDBRANCH  20  21
BRANCH   6  24
HETATM   24  O1  UNL     1      -0.126  22.857  37.346  1.00  0.00    -0.385 OA
ATOM     25  H1  UNL     1      -0.205  23.639  37.880  1.00  0.00     0.211 HD
ENDBRANCH   6  24
BRANCH  13  26
HETATM   26  O2  UNL     1       6.529  23.050  31.491  1.00  0.00    -0.390 OA
ATOM     27  H2  UNL     1       7.468  23.160  31.408  1.00  0.00     0.210 HD
ENDBRANCH  13  26
TORSDOF 3
ENDMDL
