MODEL 2
REMARK VINA RESULT: -9.069825488      0.735      1.360
REMARK  8 active torsions:
REMARK  status: ('A' for Active; 'I' for Inactive)
REMARK    1  A    between atoms: C2_2  and  C3_3 
REMARK    2  A    between atoms: C3_3  and  C4_4 
REMARK    3  A    between atoms: C5_6  and  C6_7 
REMARK    4  A    between atoms: C9_10  and  O1_11 
REMARK    5  A    between atoms: C11_13  and  O2_14 
REMARK    6  A    between atoms: C13_19  and  C14_20 
REMARK    7  A    between atoms: C14_20  and  S2_21 
REMARK    8  A    between atoms: S2_21  and  C15_22 
ROOT
HETATM    1  C4  UNL     1     -29.392  13.214  -4.773  1.00  0.00     0.008 A 
HETATM    2  S1  UNL     1     -30.670  12.328  -4.015  1.00  0.00    -0.074 SA
HETATM    3  C5  UNL     1     -31.977  13.336  -4.458  1.00  0.00     0.085 A 
HETATM    4  N1  UNL     1     -31.373  14.283  -5.153  1.00  0.00    -0.352 N 
ATOM      5  H1  UNL     1     -31.920  15.045  -5.555  1.00  0.00     0.166 HD
HETATM    6  C13 UNL     1     -30.092  14.251  -5.328  1.00  0.00     0.033 A 
ENDROOT
BRANCH   6   7
HETATM    7  C14 UNL     1     -29.350  15.305  -6.136  1.00  0.00     0.140 C 
BRANCH   7   8
HETATM    8  S2  UNL     1     -29.574  16.957  -5.423  1.00  0.00    -0.088 SA
BRANCH   8   9
HETATM    9  C15 UNL     1     -28.260  17.347  -4.289  1.00  0.00     0.147 A 
HETATM   10  N2  UNL     1     -27.851  16.374  -3.447  1.00  0.00    -0.325 N 
HETATM   11  C16 UNL     1     -26.865  16.625  -2.585  1.00  0.00     0.121 A 
ATOM     12  H2  UNL     1     -28.292  15.455  -3.470  1.00  0.00     0.169 HD
HETATM   13  N3  UNL     1     -26.448  15.577  -1.698  1.00  0.00    -0.083 NA
HETATM   14  C17 UNL     1     -26.269  17.857  -2.549  1.00  0.00     0.090 A 
HETATM   15  C18 UNL     1     -26.699  18.834  -3.415  1.00  0.00     0.121 A 
HETATM   16  N4  UNL     1     -26.106  20.120  -3.410  1.00  0.00    -0.083 NA
HETATM   17  N5  UNL     1     -27.701  18.545  -4.276  1.00  0.00    -0.325 N 
ATOM     18  H5  UNL     1     -28.030  19.262  -4.924  1.00  0.00     0.169 HD
ENDBRANCH   8   9
ENDBRANCH   7   8
ENDBRANCH   6   7
BRANCH   1  19
HETATM   19  C3  UNL     1     -27.936  12.905  -4.778  1.00  0.00     0.048 C 
BRANCH  19  20
HETATM   20  C2  UNL     1     -27.588  11.902  -3.738  1.00  0.00     0.001 C 
HETATM   21  C1  UNL     1     -26.161  11.409  -4.019  1.00  0.00     0.005 C 
ENDBRANCH  19  20
ENDBRANCH   1  19
BRANCH   3  22
HETATM   22  C6  UNL     1     -33.415  13.191  -4.146  1.00  0.00     0.001 A 
HETATM   23  C7  UNL     1     -33.983  14.041  -3.214  1.00  0.00     0.017 A 
HETATM   24  C8  UNL     1     -35.332  13.943  -2.889  1.00  0.00     0.040 A 
HETATM   25  C9  UNL     1     -36.114  12.991  -3.497  1.00  0.00     0.101 A 
HETATM   26  C11 UNL     1     -35.531  12.132  -4.441  1.00  0.00     0.099 A 
HETATM   27  C12 UNL     1     -34.192  12.255  -4.742  1.00  0.00     0.053 A 
BRANCH  25  28
HETATM   28  O1  UNL     1     -37.468  12.868  -3.192  1.00  0.00    -0.353 OA
HETATM   29  C10 UNL     1     -38.347  13.857  -3.672  1.00  0.00     0.210 C 
ENDBRANCH  25  28
BRANCH  26  30
HETATM   30  O2  UNL     1     -36.338  11.178  -5.044  1.00  0.00    -0.358 OA
ATOM     31  H2  UNL     1     -36.142  10.262  -4.886  1.00  0.00     0.217 HD
ENDBRANCH  26  30
ENDBRANCH   3  22
TORSDOF 8
ENDMDL
