MODEL 6
REMARK VINA RESULT: -8.846157583      2.664      4.238
REMARK  8 active torsions:
REMARK  status: ('A' for Active; 'I' for Inactive)
REMARK    1  A    between atoms: C2_2  and  C3_3 
REMARK    2  A    between atoms: C3_3  and  C4_4 
REMARK    3  A    between atoms: C5_6  and  C6_7 
REMARK    4  A    between atoms: C9_10  and  O1_11 
REMARK    5  A    between atoms: C11_13  and  O2_14 
REMARK    6  A    between atoms: C13_19  and  C14_20 
REMARK    7  A    between atoms: C14_20  and  S2_21 
REMARK    8  A    between atoms: S2_21  and  C15_22 
ROOT
HETATM    1  C4  UNL     1     -30.668  13.251  -4.924  1.00  0.00     0.008 A 
HETATM    2  S1  UNL     1     -32.115  14.041  -4.399  1.00  0.00    -0.074 SA
HETATM    3  C5  UNL     1     -32.939  12.677  -3.780  1.00  0.00     0.085 A 
HETATM    4  N1  UNL     1     -32.075  11.704  -4.005  1.00  0.00    -0.352 N 
ATOM      5  H1  UNL     1     -32.304  10.749  -3.732  1.00  0.00     0.166 HD
HETATM    6  C13 UNL     1     -30.939  11.957  -4.571  1.00  0.00     0.033 A 
ENDROOT
BRANCH   6   7
HETATM    7  C14 UNL     1     -29.899  10.877  -4.835  1.00  0.00     0.140 C 
BRANCH   7   8
HETATM    8  S2  UNL     1     -28.858  10.599  -3.375  1.00  0.00    -0.088 SA
BRANCH   8   9
HETATM    9  C15 UNL     1     -27.366  11.565  -3.462  1.00  0.00     0.147 A 
HETATM   10  N2  UNL     1     -26.271  10.978  -3.990  1.00  0.00    -0.325 N 
HETATM   11  C16 UNL     1     -25.135  11.669  -4.077  1.00  0.00     0.121 A 
ATOM     12  H2  UNL     1     -26.313  10.014  -4.321  1.00  0.00     0.169 HD
HETATM   13  N3  UNL     1     -23.983  11.025  -4.640  1.00  0.00    -0.083 NA
HETATM   14  C17 UNL     1     -25.072  12.964  -3.635  1.00  0.00     0.090 A 
HETATM   15  C18 UNL     1     -26.198  13.544  -3.101  1.00  0.00     0.121 A 
HETATM   16  N4  UNL     1     -26.175  14.881  -2.636  1.00  0.00    -0.083 NA
HETATM   17  N5  UNL     1     -27.334  12.813  -3.028  1.00  0.00    -0.325 N 
ATOM     18  H5  UNL     1     -28.177  13.231  -2.634  1.00  0.00     0.169 HD
ENDBRANCH   8   9
ENDBRANCH   7   8
ENDBRANCH   6   7
BRANCH   1  19
HETATM   19  C3  UNL     1     -29.483  13.852  -5.592  1.00  0.00     0.048 C 
BRANCH  19  20
HETATM   20  C2  UNL     1     -29.129  15.167  -4.995  1.00  0.00     0.001 C 
HETATM   21  C1  UNL     1     -29.313  16.241  -6.078  1.00  0.00     0.005 C 
ENDBRANCH  19  20
ENDBRANCH   1  19
BRANCH   3  22
HETATM   22  C6  UNL     1     -34.277  12.600  -3.154  1.00  0.00     0.001 A 
HETATM   23  C7  UNL     1     -34.940  13.777  -2.854  1.00  0.00     0.017 A 
HETATM   24  C8  UNL     1     -36.200  13.755  -2.266  1.00  0.00     0.040 A 
HETATM   25  C9  UNL     1     -36.798  12.553  -1.975  1.00  0.00     0.101 A 
HETATM   26  C11 UNL     1     -36.120  11.364  -2.283  1.00  0.00     0.099 A 
HETATM   27  C12 UNL     1     -34.872  11.418  -2.866  1.00  0.00     0.053 A 
BRANCH  25  28
HETATM   28  O1  UNL     1     -38.059  12.499  -1.387  1.00  0.00    -0.353 OA
HETATM   29  C10 UNL     1     -39.147  13.037  -2.100  1.00  0.00     0.210 C 
ENDBRANCH  25  28
BRANCH  26  30
HETATM   30  O2  UNL     1     -36.741  10.160  -1.982  1.00  0.00    -0.358 OA
ATOM     31  H2  UNL     1     -36.193   9.404  -1.809  1.00  0.00     0.217 HD
ENDBRANCH  26  30
ENDBRANCH   3  22
TORSDOF 8
ENDMDL
