MODEL 1
REMARK VINA RESULT: -9.071695878      0.000      0.000
REMARK  8 active torsions:
REMARK  status: ('A' for Active; 'I' for Inactive)
REMARK    1  A    between atoms: C2_2  and  C3_3 
REMARK    2  A    between atoms: C3_3  and  C4_4 
REMARK    3  A    between atoms: C5_6  and  C6_7 
REMARK    4  A    between atoms: C9_10  and  O1_11 
REMARK    5  A    between atoms: C11_13  and  O2_14 
REMARK    6  A    between atoms: C13_19  and  C14_20 
REMARK    7  A    between atoms: C14_20  and  S2_21 
REMARK    8  A    between atoms: S2_21  and  C15_22 
ROOT
HETATM    1  C4  UNL     1     -29.199  13.429  -4.823  1.00  0.00     0.008 A 
HETATM    2  S1  UNL     1     -30.458  12.493  -4.096  1.00  0.00    -0.074 SA
HETATM    3  C5  UNL     1     -31.796  13.431  -4.599  1.00  0.00     0.085 A 
HETATM    4  N1  UNL     1     -31.215  14.396  -5.288  1.00  0.00    -0.352 N 
ATOM      5  H1  UNL     1     -31.783  15.124  -5.720  1.00  0.00     0.166 HD
HETATM    6  C13 UNL     1     -29.928  14.423  -5.418  1.00  0.00     0.033 A 
ENDROOT
BRANCH   6   7
HETATM    7  C14 UNL     1     -29.210  15.501  -6.216  1.00  0.00     0.140 C 
BRANCH   7   8
HETATM    8  S2  UNL     1     -29.449  17.138  -5.473  1.00  0.00    -0.088 SA
BRANCH   8   9
HETATM    9  C15 UNL     1     -28.157  17.504  -4.305  1.00  0.00     0.147 A 
HETATM   10  N2  UNL     1     -27.782  16.522  -3.459  1.00  0.00    -0.325 N 
HETATM   11  C16 UNL     1     -26.815  16.755  -2.572  1.00  0.00     0.121 A 
ATOM     12  H2  UNL     1     -28.235  15.609  -3.498  1.00  0.00     0.169 HD
HETATM   13  N3  UNL     1     -26.433  15.697  -1.681  1.00  0.00    -0.083 NA
HETATM   14  C17 UNL     1     -26.202  17.979  -2.515  1.00  0.00     0.090 A 
HETATM   15  C18 UNL     1     -26.598  18.966  -3.386  1.00  0.00     0.121 A 
HETATM   16  N4  UNL     1     -25.988  20.243  -3.360  1.00  0.00    -0.083 NA
HETATM   17  N5  UNL     1     -27.583  18.695  -4.273  1.00  0.00    -0.325 N 
ATOM     18  H5  UNL     1     -27.887  19.419  -4.925  1.00  0.00     0.169 HD
ENDBRANCH   8   9
ENDBRANCH   7   8
ENDBRANCH   6   7
BRANCH   1  19
HETATM   19  C3  UNL     1     -27.731  13.192  -4.773  1.00  0.00     0.048 C 
BRANCH  19  20
HETATM   20  C2  UNL     1     -27.344  12.423  -3.562  1.00  0.00     0.001 C 
HETATM   21  C1  UNL     1     -26.312  11.367  -3.985  1.00  0.00     0.005 C 
ENDBRANCH  19  20
ENDBRANCH   1  19
BRANCH   3  22
HETATM   22  C6  UNL     1     -33.236  13.219  -4.335  1.00  0.00     0.001 A 
HETATM   23  C7  UNL     1     -33.947  12.368  -5.161  1.00  0.00     0.017 A 
HETATM   24  C8  UNL     1     -35.302  12.137  -4.950  1.00  0.00     0.040 A 
HETATM   25  C9  UNL     1     -35.948  12.761  -3.911  1.00  0.00     0.101 A 
HETATM   26  C11 UNL     1     -35.221  13.623  -3.077  1.00  0.00     0.099 A 
HETATM   27  C12 UNL     1     -33.878  13.831  -3.311  1.00  0.00     0.053 A 
BRANCH  25  28
HETATM   28  O1  UNL     1     -37.304  12.549  -3.675  1.00  0.00    -0.353 OA
HETATM   29  C10 UNL     1     -37.911  11.421  -4.259  1.00  0.00     0.210 C 
ENDBRANCH  25  28
BRANCH  26  30
HETATM   30  O2  UNL     1     -35.892  14.243  -2.032  1.00  0.00    -0.358 OA
ATOM     31  H2  UNL     1     -35.576  15.089  -1.737  1.00  0.00     0.217 HD
ENDBRANCH  26  30
ENDBRANCH   3  22
TORSDOF 8
ENDMDL
