MODEL 3
REMARK VINA RESULT: -9.051100634      0.735      2.101
REMARK  8 active torsions:
REMARK  status: ('A' for Active; 'I' for Inactive)
REMARK    1  A    between atoms: C2_2  and  C3_3 
REMARK    2  A    between atoms: C3_3  and  C4_4 
REMARK    3  A    between atoms: C5_6  and  C6_7 
REMARK    4  A    between atoms: C9_10  and  O1_11 
REMARK    5  A    between atoms: C11_13  and  O2_14 
REMARK    6  A    between atoms: C13_19  and  C14_20 
REMARK    7  A    between atoms: C14_20  and  S2_21 
REMARK    8  A    between atoms: S2_21  and  C15_22 
ROOT
HETATM    1  C4  UNL     1     -29.394  13.265  -4.778  1.00  0.00     0.008 A 
HETATM    2  S1  UNL     1     -30.664  12.382  -4.004  1.00  0.00    -0.074 SA
HETATM    3  C5  UNL     1     -31.980  13.371  -4.467  1.00  0.00     0.085 A 
HETATM    4  N1  UNL     1     -31.384  14.309  -5.180  1.00  0.00    -0.352 N 
ATOM      5  H1  UNL     1     -31.938  15.058  -5.597  1.00  0.00     0.166 HD
HETATM    6  C13 UNL     1     -30.102  14.285  -5.353  1.00  0.00     0.033 A 
ENDROOT
BRANCH   6   7
HETATM    7  C14 UNL     1     -29.369  15.329  -6.181  1.00  0.00     0.140 C 
BRANCH   7   8
HETATM    8  S2  UNL     1     -29.542  16.982  -5.454  1.00  0.00    -0.088 SA
BRANCH   8   9
HETATM    9  C15 UNL     1     -28.242  17.304  -4.283  1.00  0.00     0.147 A 
HETATM   10  N2  UNL     1     -27.698  18.539  -4.276  1.00  0.00    -0.325 N 
HETATM   11  C16 UNL     1     -26.724  18.821  -3.410  1.00  0.00     0.121 A 
ATOM     12  H2  UNL     1     -28.028  19.250  -4.928  1.00  0.00     0.169 HD
HETATM   13  N3  UNL     1     -26.158  20.139  -3.422  1.00  0.00    -0.083 NA
HETATM   14  C17 UNL     1     -26.275  17.870  -2.532  1.00  0.00     0.090 A 
HETATM   15  C18 UNL     1     -26.843  16.619  -2.554  1.00  0.00     0.121 A 
HETATM   16  N4  UNL     1     -26.410  15.610  -1.661  1.00  0.00    -0.083 NA
HETATM   17  N5  UNL     1     -27.829  16.367  -3.446  1.00  0.00    -0.325 N 
ATOM     18  H5  UNL     1     -28.260  15.442  -3.473  1.00  0.00     0.169 HD
ENDBRANCH   8   9
ENDBRANCH   7   8
ENDBRANCH   6   7
BRANCH   1  19
HETATM   19  C3  UNL     1     -27.936  12.970  -4.776  1.00  0.00     0.048 C 
BRANCH  19  20
HETATM   20  C2  UNL     1     -27.597  11.900  -3.801  1.00  0.00     0.001 C 
HETATM   21  C1  UNL     1     -26.131  11.503  -4.027  1.00  0.00     0.005 C 
ENDBRANCH  19  20
ENDBRANCH   1  19
BRANCH   3  22
HETATM   22  C6  UNL     1     -33.418  13.218  -4.153  1.00  0.00     0.001 A 
HETATM   23  C7  UNL     1     -33.989  14.067  -3.222  1.00  0.00     0.017 A 
HETATM   24  C8  UNL     1     -35.337  13.963  -2.896  1.00  0.00     0.040 A 
HETATM   25  C9  UNL     1     -36.115  13.005  -3.502  1.00  0.00     0.101 A 
HETATM   26  C11 UNL     1     -35.528  12.148  -4.445  1.00  0.00     0.099 A 
HETATM   27  C12 UNL     1     -34.190  12.277  -4.748  1.00  0.00     0.053 A 
BRANCH  25  28
HETATM   28  O1  UNL     1     -37.468  12.876  -3.196  1.00  0.00    -0.353 OA
HETATM   29  C10 UNL     1     -38.354  13.856  -3.682  1.00  0.00     0.210 C 
ENDBRANCH  25  28
BRANCH  26  30
HETATM   30  O2  UNL     1     -36.331  11.189  -5.046  1.00  0.00    -0.358 OA
ATOM     31  H2  UNL     1     -35.954  10.334  -5.217  1.00  0.00     0.217 HD
ENDBRANCH  26  30
ENDBRANCH   3  22
TORSDOF 8
ENDMDL
