MODEL 12
REMARK VINA RESULT: -8.567299588      2.614      4.602
REMARK  8 active torsions:
REMARK  status: ('A' for Active; 'I' for Inactive)
REMARK    1  A    between atoms: C2_2  and  C3_3 
REMARK    2  A    between atoms: C3_3  and  C4_4 
REMARK    3  A    between atoms: C5_6  and  C6_7 
REMARK    4  A    between atoms: C9_10  and  O1_11 
REMARK    5  A    between atoms: C11_13  and  O2_14 
REMARK    6  A    between atoms: C13_19  and  C14_20 
REMARK    7  A    between atoms: C14_20  and  S2_21 
REMARK    8  A    between atoms: S2_21  and  C15_22 
ROOT
HETATM    1  C4  UNL     1     -30.807  13.887  -4.199  1.00  0.00     0.008 A 
HETATM    2  S1  UNL     1     -32.344  14.476  -3.667  1.00  0.00    -0.074 SA
HETATM    3  C5  UNL     1     -33.261  13.053  -3.910  1.00  0.00     0.085 A 
HETATM    4  N1  UNL     1     -32.353  12.216  -4.379  1.00  0.00    -0.352 N 
ATOM      5  H1  UNL     1     -32.620  11.262  -4.621  1.00  0.00     0.166 HD
HETATM    6  C13 UNL     1     -31.127  12.599  -4.534  1.00  0.00     0.033 A 
ENDROOT
BRANCH   6   7
HETATM    7  C14 UNL     1     -30.039  11.669  -5.050  1.00  0.00     0.140 C 
BRANCH   7   8
HETATM    8  S2  UNL     1     -29.104  10.930  -3.683  1.00  0.00    -0.088 SA
BRANCH   8   9
HETATM    9  C15 UNL     1     -27.397  11.429  -3.734  1.00  0.00     0.147 A 
HETATM   10  N2  UNL     1     -27.104  12.696  -3.374  1.00  0.00    -0.325 N 
HETATM   11  C16 UNL     1     -25.837  13.107  -3.395  1.00  0.00     0.121 A 
ATOM     12  H2  UNL     1     -27.847  13.335  -3.089  1.00  0.00     0.169 HD
HETATM   13  N3  UNL     1     -25.549  14.460  -3.011  1.00  0.00    -0.083 NA
HETATM   14  C17 UNL     1     -24.834  12.256  -3.777  1.00  0.00     0.090 A 
HETATM   15  C18 UNL     1     -25.153  10.968  -4.138  1.00  0.00     0.121 A 
HETATM   16  N4  UNL     1     -24.145  10.057  -4.536  1.00  0.00    -0.083 NA
HETATM   17  N5  UNL     1     -26.449  10.585  -4.106  1.00  0.00    -0.325 N 
ATOM     18  H5  UNL     1     -26.700   9.632  -4.372  1.00  0.00     0.169 HD
ENDBRANCH   8   9
ENDBRANCH   7   8
ENDBRANCH   6   7
BRANCH   1  19
HETATM   19  C3  UNL     1     -29.517  14.623  -4.275  1.00  0.00     0.048 C 
BRANCH  19  20
HETATM   20  C2  UNL     1     -29.363  15.321  -5.577  1.00  0.00     0.001 C 
HETATM   21  C1  UNL     1     -29.234  16.825  -5.293  1.00  0.00     0.005 C 
ENDBRANCH  19  20
ENDBRANCH   1  19
BRANCH   3  22
HETATM   22  C6  UNL     1     -34.700  12.816  -3.662  1.00  0.00     0.001 A 
HETATM   23  C7  UNL     1     -35.290  13.406  -2.559  1.00  0.00     0.017 A 
HETATM   24  C8  UNL     1     -36.640  13.214  -2.286  1.00  0.00     0.040 A 
HETATM   25  C9  UNL     1     -37.401  12.428  -3.117  1.00  0.00     0.101 A 
HETATM   26  C11 UNL     1     -36.795  11.833  -4.235  1.00  0.00     0.099 A 
HETATM   27  C12 UNL     1     -35.454  12.043  -4.479  1.00  0.00     0.053 A 
BRANCH  25  28
HETATM   28  O1  UNL     1     -38.755  12.216  -2.870  1.00  0.00    -0.353 OA
HETATM   29  C10 UNL     1     -39.306  12.757  -1.693  1.00  0.00     0.210 C 
ENDBRANCH  25  28
BRANCH  26  30
HETATM   30  O2  UNL     1     -37.580  11.044  -5.062  1.00  0.00    -0.358 OA
ATOM     31  H2  UNL     1     -37.164  10.620  -5.803  1.00  0.00     0.217 HD
ENDBRANCH  26  30
ENDBRANCH   3  22
TORSDOF 8
ENDMDL
