MODEL 5
REMARK VINA RESULT: -8.860357909      2.654      4.376
REMARK  8 active torsions:
REMARK  status: ('A' for Active; 'I' for Inactive)
REMARK    1  A    between atoms: C2_2  and  C3_3 
REMARK    2  A    between atoms: C3_3  and  C4_4 
REMARK    3  A    between atoms: C5_6  and  C6_7 
REMARK    4  A    between atoms: C9_10  and  O1_11 
REMARK    5  A    between atoms: C11_13  and  O2_14 
REMARK    6  A    between atoms: C13_19  and  C14_20 
REMARK    7  A    between atoms: C14_20  and  S2_21 
REMARK    8  A    between atoms: S2_21  and  C15_22 
ROOT
HETATM    1  C4  UNL     1     -30.605  13.291  -4.913  1.00  0.00     0.008 A 
HETATM    2  S1  UNL     1     -32.048  14.086  -4.382  1.00  0.00    -0.074 SA
HETATM    3  C5  UNL     1     -32.887  12.720  -3.789  1.00  0.00     0.085 A 
HETATM    4  N1  UNL     1     -32.030  11.743  -4.025  1.00  0.00    -0.352 N 
ATOM      5  H1  UNL     1     -32.269  10.786  -3.767  1.00  0.00     0.166 HD
HETATM    6  C13 UNL     1     -30.889  11.994  -4.581  1.00  0.00     0.033 A 
ENDROOT
BRANCH   6   7
HETATM    7  C14 UNL     1     -29.858  10.910  -4.857  1.00  0.00     0.140 C 
BRANCH   7   8
HETATM    8  S2  UNL     1     -28.818  10.609  -3.401  1.00  0.00    -0.088 SA
BRANCH   8   9
HETATM    9  C15 UNL     1     -27.304  11.539  -3.496  1.00  0.00     0.147 A 
HETATM   10  N2  UNL     1     -27.316  12.805  -3.028  1.00  0.00    -0.325 N 
HETATM   11  C16 UNL     1     -26.201  13.533  -3.078  1.00  0.00     0.121 A 
ATOM     12  H2  UNL     1     -28.172  13.201  -2.640  1.00  0.00     0.169 HD
HETATM   13  N3  UNL     1     -26.239  14.877  -2.577  1.00  0.00    -0.083 NA
HETATM   14  C17 UNL     1     -25.048  13.008  -3.597  1.00  0.00     0.090 A 
HETATM   15  C18 UNL     1     -25.055  11.716  -4.068  1.00  0.00     0.121 A 
HETATM   16  N4  UNL     1     -23.884  11.135  -4.610  1.00  0.00    -0.083 NA
HETATM   17  N5  UNL     1     -26.205  11.005  -4.003  1.00  0.00    -0.325 N 
ATOM     18  H5  UNL     1     -26.224  10.046  -4.349  1.00  0.00     0.169 HD
ENDBRANCH   8   9
ENDBRANCH   7   8
ENDBRANCH   6   7
BRANCH   1  19
HETATM   19  C3  UNL     1     -29.412  13.892  -5.566  1.00  0.00     0.048 C 
BRANCH  19  20
HETATM   20  C2  UNL     1     -29.094  15.228  -4.999  1.00  0.00     0.001 C 
HETATM   21  C1  UNL     1     -29.334  16.276  -6.096  1.00  0.00     0.005 C 
ENDBRANCH  19  20
ENDBRANCH   1  19
BRANCH   3  22
HETATM   22  C6  UNL     1     -34.229  12.646  -3.169  1.00  0.00     0.001 A 
HETATM   23  C7  UNL     1     -34.893  13.824  -2.880  1.00  0.00     0.017 A 
HETATM   24  C8  UNL     1     -36.157  13.805  -2.300  1.00  0.00     0.040 A 
HETATM   25  C9  UNL     1     -36.756  12.603  -2.005  1.00  0.00     0.101 A 
HETATM   26  C11 UNL     1     -36.075  11.413  -2.302  1.00  0.00     0.099 A 
HETATM   27  C12 UNL     1     -34.824  11.465  -2.878  1.00  0.00     0.053 A 
BRANCH  25  28
HETATM   28  O1  UNL     1     -38.020  12.552  -1.424  1.00  0.00    -0.353 OA
HETATM   29  C10 UNL     1     -39.130  12.903  -2.216  1.00  0.00     0.210 C 
ENDBRANCH  25  28
BRANCH  26  30
HETATM   30  O2  UNL     1     -36.697  10.210  -1.997  1.00  0.00    -0.358 OA
ATOM     31  H2  UNL     1     -36.251   9.612  -1.410  1.00  0.00     0.217 HD
ENDBRANCH  26  30
ENDBRANCH   3  22
TORSDOF 8
ENDMDL
