MODEL 2
REMARK VINA RESULT: -8.317377496      7.161     11.247
REMARK  8 active torsions:
REMARK  status: ('A' for Active; 'I' for Inactive)
REMARK    1  A    between atoms: N1_5  and  C4_6 
REMARK    2  A    between atoms: C5_8  and  C6_9 
REMARK    3  A    between atoms: C6_9  and  O3_10 
REMARK    4  A    between atoms: O3_10  and  P1_11 
REMARK    5  A    between atoms: P1_11  and  O6_14 
REMARK    6  A    between atoms: O6_14  and  P2_15 
REMARK    7  A    between atoms: C7_19  and  O10_20 
REMARK    8  A    between atoms: C8_22  and  O11_23 
ROOT
HETATM    1  C4  UNL     1     -25.480  28.303   2.082  1.00  0.00     0.263 C 
HETATM    2  O2  UNL     1     -25.250  26.979   1.703  1.00  0.00    -0.353 OA
HETATM    3  C5  UNL     1     -26.247  26.725   0.801  1.00  0.00     0.180 C 
HETATM    4  C7  UNL     1     -26.661  27.966   0.095  1.00  0.00     0.182 C 
HETATM    5  C8  UNL     1     -25.581  28.931   0.706  1.00  0.00     0.198 C 
ENDROOT
BRANCH   3   6
HETATM    6  C6  UNL     1     -26.111  25.597  -0.145  1.00  0.00     0.216 C 
BRANCH   6   7
HETATM    7  O3  UNL     1     -25.073  24.738   0.356  1.00  0.00    -0.287 OA
BRANCH   7   8
HETATM    8  P1  UNL     1     -23.896  24.734  -0.867  1.00  0.00     0.418 P 
HETATM    9  O4  UNL     1     -24.397  25.966  -1.763  1.00  0.00    -0.624 OA
HETATM   10  O5  UNL     1     -22.389  25.224  -0.360  1.00  0.00    -0.624 OA
BRANCH   8  11
HETATM   11  O6  UNL     1     -23.895  23.422  -1.836  1.00  0.00    -0.173 OA
BRANCH  11  12
HETATM   12  P2  UNL     1     -23.629  22.042  -0.848  1.00  0.00     0.431 P 
HETATM   13  O7  UNL     1     -22.342  21.420  -1.252  1.00  0.00    -0.616 OA
HETATM   14  O8  UNL     1     -24.876  20.910  -1.130  1.00  0.00    -0.616 OA
HETATM   15  O9  UNL     1     -23.668  22.452   0.770  1.00  0.00    -0.616 OA
ENDBRANCH  11  12
ENDBRANCH   8  11
ENDBRANCH   7   8
ENDBRANCH   6   7
ENDBRANCH   3   6
BRANCH   4  16
HETATM   16  O10 UNL     1     -27.897  28.412   0.564  1.00  0.00    -0.390 OA
ATOM     17  H10 UNL     1     -28.577  27.776   0.376  1.00  0.00     0.210 HD
ENDBRANCH   4  16
BRANCH   1  18
HETATM   18  N1  UNL     1     -24.628  28.896   3.041  1.00  0.00    -0.280 N 
HETATM   19  C3  UNL     1     -23.349  28.552   3.098  1.00  0.00     0.104 A 
HETATM   20  C2  UNL     1     -22.440  29.332   3.873  1.00  0.00     0.092 A 
HETATM   21  C1  UNL     1     -22.962  30.437   4.553  1.00  0.00     0.250 A 
HETATM   22  O1  UNL     1     -22.161  31.137   5.255  1.00  0.00    -0.268 OA
HETATM   23  N2  UNL     1     -24.236  30.719   4.473  1.00  0.00    -0.275 N 
HETATM   24  C9  UNL     1     -25.095  29.976   3.728  1.00  0.00     0.331 A 
ATOM     25  H2  UNL     1     -24.597  31.522   4.986  1.00  0.00     0.173 HD
HETATM   26  O12 UNL     1     -26.306  30.257   3.655  1.00  0.00    -0.246 OA
ENDBRANCH   1  18
BRANCH   5  27
HETATM   27  O11 UNL     1     -26.182  30.184   0.707  1.00  0.00    -0.388 OA
ATOM     28  H11 UNL     1     -25.717  30.830   1.227  1.00  0.00     0.210 HD
ENDBRANCH   5  27
TORSDOF 8
ENDMDL
