MODEL 1
REMARK VINA RESULT: -9.307369385      0.000      0.000
REMARK  8 active torsions:
REMARK  status: ('A' for Active; 'I' for Inactive)
REMARK    1  A    between atoms: N1_5  and  C4_6 
REMARK    2  A    between atoms: C5_8  and  C6_9 
REMARK    3  A    between atoms: C6_9  and  O3_10 
REMARK    4  A    between atoms: O3_10  and  P1_11 
REMARK    5  A    between atoms: P1_11  and  O6_14 
REMARK    6  A    between atoms: O6_14  and  P2_15 
REMARK    7  A    between atoms: C7_19  and  O10_20 
REMARK    8  A    between atoms: C8_22  and  O11_23 
ROOT
HETATM    1  C4  UNL     1     -26.277  18.264  -3.274  1.00  0.00     0.263 C 
HETATM    2  O2  UNL     1     -26.208  19.459  -2.557  1.00  0.00    -0.353 OA
HETATM    3  C5  UNL     1     -24.867  19.725  -2.500  1.00  0.00     0.180 C 
HETATM    4  C7  UNL     1     -24.159  19.162  -3.680  1.00  0.00     0.182 C 
HETATM    5  C8  UNL     1     -25.421  18.651  -4.465  1.00  0.00     0.198 C 
ENDROOT
BRANCH   3   6
HETATM    6  C6  UNL     1     -24.401  21.096  -2.206  1.00  0.00     0.216 C 
BRANCH   6   7
HETATM    7  O3  UNL     1     -25.031  21.512  -0.983  1.00  0.00    -0.287 OA
BRANCH   7   8
HETATM    8  P1  UNL     1     -23.839  22.403  -0.169  1.00  0.00     0.418 P 
HETATM    9  O4  UNL     1     -23.621  21.488   1.129  1.00  0.00    -0.624 OA
HETATM   10  O5  UNL     1     -22.348  22.374  -0.907  1.00  0.00    -0.624 OA
BRANCH   8  11
HETATM   11  O6  UNL     1     -24.303  23.872   0.368  1.00  0.00    -0.173 OA
BRANCH  11  12
HETATM   12  P2  UNL     1     -23.801  25.036  -0.791  1.00  0.00     0.431 P 
HETATM   13  O7  UNL     1     -22.390  25.402  -0.503  1.00  0.00    -0.616 OA
HETATM   14  O8  UNL     1     -24.758  26.439  -0.618  1.00  0.00    -0.616 OA
HETATM   15  O9  UNL     1     -24.014  24.461  -2.344  1.00  0.00    -0.616 OA
ENDBRANCH  11  12
ENDBRANCH   8  11
ENDBRANCH   7   8
ENDBRANCH   6   7
ENDBRANCH   3   6
BRANCH   4  16
HETATM   16  O10 UNL     1     -23.431  18.026  -3.324  1.00  0.00    -0.390 OA
ATOM     17  H10 UNL     1     -24.006  17.278  -3.215  1.00  0.00     0.210 HD
ENDBRANCH   4  16
BRANCH   1  18
HETATM   18  N1  UNL     1     -27.542  17.679  -3.506  1.00  0.00    -0.280 N 
HETATM   19  C3  UNL     1     -28.586  18.444  -3.792  1.00  0.00     0.104 A 
HETATM   20  C2  UNL     1     -29.786  17.848  -4.283  1.00  0.00     0.092 A 
HETATM   21  C1  UNL     1     -29.798  16.458  -4.431  1.00  0.00     0.250 A 
HETATM   22  O1  UNL     1     -30.867  15.914  -4.862  1.00  0.00    -0.268 OA
HETATM   23  N2  UNL     1     -28.742  15.753  -4.117  1.00  0.00    -0.275 N 
HETATM   24  C9  UNL     1     -27.601  16.326  -3.656  1.00  0.00     0.331 A 
ATOM     25  H2  UNL     1     -28.778  14.739  -4.222  1.00  0.00     0.173 HD
HETATM   26  O12 UNL     1     -26.600  15.644  -3.365  1.00  0.00    -0.246 OA
ENDBRANCH   1  18
BRANCH   5  27
HETATM   27  O11 UNL     1     -24.967  17.564  -5.202  1.00  0.00    -0.388 OA
ATOM     28  H11 UNL     1     -24.083  17.670  -5.533  1.00  0.00     0.210 HD
ENDBRANCH   5  27
TORSDOF 8
ENDMDL
