MODEL 4
REMARK VINA RESULT: -7.768702428      0.879      1.540
REMARK  8 active torsions:
REMARK  status: ('A' for Active; 'I' for Inactive)
REMARK    1  A    between atoms: N1_5  and  C4_6 
REMARK    2  A    between atoms: C5_8  and  C6_9 
REMARK    3  A    between atoms: C6_9  and  O3_10 
REMARK    4  A    between atoms: O3_10  and  P1_11 
REMARK    5  A    between atoms: P1_11  and  O6_14 
REMARK    6  A    between atoms: O6_14  and  P2_15 
REMARK    7  A    between atoms: C7_19  and  O10_20 
REMARK    8  A    between atoms: C8_22  and  O11_23 
ROOT
HETATM    1  C4  UNL     1     -26.021  18.479  -2.939  1.00  0.00     0.263 C 
HETATM    2  O2  UNL     1     -25.820  19.622  -2.163  1.00  0.00    -0.353 OA
HETATM    3  C5  UNL     1     -24.460  19.765  -2.144  1.00  0.00     0.180 C 
HETATM    4  C7  UNL     1     -23.846  19.209  -3.379  1.00  0.00     0.182 C 
HETATM    5  C8  UNL     1     -25.175  18.856  -4.140  1.00  0.00     0.198 C 
ENDROOT
BRANCH   3   6
HETATM    6  C6  UNL     1     -23.863  21.072  -1.797  1.00  0.00     0.216 C 
BRANCH   6   7
HETATM    7  O3  UNL     1     -24.841  21.804  -1.040  1.00  0.00    -0.287 OA
BRANCH   7   8
HETATM    8  P1  UNL     1     -24.089  23.284  -0.690  1.00  0.00     0.418 P 
HETATM    9  O4  UNL     1     -22.582  22.799  -0.437  1.00  0.00    -0.624 OA
HETATM   10  O5  UNL     1     -23.945  24.299  -2.001  1.00  0.00    -0.624 OA
BRANCH   8  11
HETATM   11  O6  UNL     1     -24.581  24.014   0.684  1.00  0.00    -0.173 OA
BRANCH  11  12
HETATM   12  P2  UNL     1     -24.945  25.650   0.307  1.00  0.00     0.431 P 
HETATM   13  O7  UNL     1     -26.074  25.667  -0.657  1.00  0.00    -0.616 OA
HETATM   14  O8  UNL     1     -23.589  26.358  -0.451  1.00  0.00    -0.616 OA
HETATM   15  O9  UNL     1     -25.267  26.523   1.694  1.00  0.00    -0.616 OA
ENDBRANCH  11  12
ENDBRANCH   8  11
ENDBRANCH   7   8
ENDBRANCH   6   7
ENDBRANCH   3   6
BRANCH   4  16
HETATM   16  O10 UNL     1     -23.211  17.996  -3.112  1.00  0.00    -0.390 OA
ATOM     17  H10 UNL     1     -22.318  18.005  -3.435  1.00  0.00     0.210 HD
ENDBRANCH   4  16
BRANCH   1  18
HETATM   18  N1  UNL     1     -27.340  18.022  -3.152  1.00  0.00    -0.280 N 
HETATM   19  C3  UNL     1     -28.310  18.886  -3.413  1.00  0.00     0.104 A 
HETATM   20  C2  UNL     1     -29.571  18.413  -3.886  1.00  0.00     0.092 A 
HETATM   21  C1  UNL     1     -29.720  17.033  -4.044  1.00  0.00     0.250 A 
HETATM   22  O1  UNL     1     -30.844  16.598  -4.459  1.00  0.00    -0.268 OA
HETATM   23  N2  UNL     1     -28.732  16.226  -3.754  1.00  0.00    -0.275 N 
HETATM   24  C9  UNL     1     -27.533  16.682  -3.310  1.00  0.00     0.331 A 
ATOM     25  H2  UNL     1     -28.867  15.221  -3.865  1.00  0.00     0.173 HD
HETATM   26  O12 UNL     1     -26.598  15.904  -3.042  1.00  0.00    -0.246 OA
ENDBRANCH   1  18
BRANCH   5  27
HETATM   27  O11 UNL     1     -24.846  17.776  -4.951  1.00  0.00    -0.388 OA
ATOM     28  H11 UNL     1     -24.142  17.959  -5.562  1.00  0.00     0.210 HD
ENDBRANCH   5  27
TORSDOF 8
ENDMDL
