MODEL 3
REMARK VINA RESULT: -7.775511630      6.177      9.395
REMARK  8 active torsions:
REMARK  status: ('A' for Active; 'I' for Inactive)
REMARK    1  A    between atoms: N1_5  and  C4_6 
REMARK    2  A    between atoms: C5_8  and  C6_9 
REMARK    3  A    between atoms: C6_9  and  O3_10 
REMARK    4  A    between atoms: O3_10  and  P1_11 
REMARK    5  A    between atoms: P1_11  and  O6_14 
REMARK    6  A    between atoms: O6_14  and  P2_15 
REMARK    7  A    between atoms: C7_19  and  O10_20 
REMARK    8  A    between atoms: C8_22  and  O11_23 
ROOT
HETATM    1  C4  UNL     1     -25.351  27.429  -0.764  1.00  0.00     0.263 C 
HETATM    2  O2  UNL     1     -24.396  26.640  -1.407  1.00  0.00    -0.353 OA
HETATM    3  C5  UNL     1     -24.173  25.619  -0.523  1.00  0.00     0.180 C 
HETATM    4  C7  UNL     1     -25.382  25.350   0.300  1.00  0.00     0.182 C 
HETATM    5  C8  UNL     1     -26.359  26.350  -0.418  1.00  0.00     0.198 C 
ENDROOT
BRANCH   3   6
HETATM    6  C6  UNL     1     -23.561  24.359  -0.994  1.00  0.00     0.216 C 
BRANCH   6   7
HETATM    7  O3  UNL     1     -23.506  23.461   0.127  1.00  0.00    -0.287 OA
BRANCH   7   8
HETATM    8  P1  UNL     1     -23.648  21.915  -0.556  1.00  0.00     0.418 P 
HETATM    9  O4  UNL     1     -22.113  21.453  -0.564  1.00  0.00    -0.624 OA
HETATM   10  O5  UNL     1     -24.375  20.797   0.439  1.00  0.00    -0.624 OA
BRANCH   8  11
HETATM   11  O6  UNL     1     -24.155  21.876  -2.107  1.00  0.00    -0.173 OA
BRANCH  11  12
HETATM   12  P2  UNL     1     -24.929  20.365  -2.367  1.00  0.00     0.431 P 
HETATM   13  O7  UNL     1     -25.126  20.187  -3.828  1.00  0.00    -0.616 OA
HETATM   14  O8  UNL     1     -26.466  20.395  -1.625  1.00  0.00    -0.616 OA
HETATM   15  O9  UNL     1     -24.054  19.121  -1.677  1.00  0.00    -0.616 OA
ENDBRANCH  11  12
ENDBRANCH   8  11
ENDBRANCH   7   8
ENDBRANCH   6   7
ENDBRANCH   3   6
BRANCH   4  16
HETATM   16  O10 UNL     1     -25.212  25.830   1.599  1.00  0.00    -0.390 OA
ATOM     17  H10 UNL     1     -25.973  25.635   2.133  1.00  0.00     0.210 HD
ENDBRANCH   4  16
BRANCH   1  18
HETATM   18  N1  UNL     1     -25.805  28.605  -1.401  1.00  0.00    -0.280 N 
HETATM   19  C3  UNL     1     -25.882  28.659  -2.723  1.00  0.00     0.104 A 
HETATM   20  C2  UNL     1     -26.583  29.733  -3.348  1.00  0.00     0.092 A 
HETATM   21  C1  UNL     1     -27.156  30.697  -2.514  1.00  0.00     0.250 A 
HETATM   22  O1  UNL     1     -27.778  31.666  -3.061  1.00  0.00    -0.268 OA
HETATM   23  N2  UNL     1     -27.033  30.601  -1.215  1.00  0.00    -0.275 N 
HETATM   24  C9  UNL     1     -26.370  29.574  -0.626  1.00  0.00     0.331 A 
ATOM     25  H2  UNL     1     -27.449  31.323  -0.626  1.00  0.00     0.173 HD
HETATM   26  O12 UNL     1     -26.264  29.490   0.612  1.00  0.00    -0.246 OA
ENDBRANCH   1  18
BRANCH   5  27
HETATM   27  O11 UNL     1     -27.267  26.729   0.564  1.00  0.00    -0.388 OA
ATOM     28  H11 UNL     1     -27.167  26.252   1.379  1.00  0.00     0.210 HD
ENDBRANCH   5  27
TORSDOF 8
ENDMDL
