MODEL 1
REMARK VINA RESULT: -9.733851836      0.000      0.000
REMARK  13 active torsions:
REMARK  status: ('A' for Active; 'I' for Inactive)
REMARK    1  A    between atoms: C2_2  and  C4_4 
REMARK    2  A    between atoms: C4_4  and  N1_5 
REMARK    3  A    between atoms: N1_5  and  C5_6 
REMARK    4  A    between atoms: N1_5  and  S1_31 
REMARK    5  A    between atoms: C5_6  and  C6_7 
REMARK    6  A    between atoms: C6_7  and  O1_8 
REMARK    7  A    between atoms: C6_7  and  C7_10 
REMARK    8  A    between atoms: C7_10  and  C8_11 
REMARK    9  A    between atoms: C7_10  and  N2_18 
REMARK   10  A    between atoms: C8_11  and  C9_12 
REMARK       I    between atoms: N2_18  and  C15_20 
REMARK   11  A    between atoms: C15_20  and  O3_22 
REMARK   12  A    between atoms: O3_22  and  C16_23 
REMARK   13  A    between atoms: S1_31  and  C22_34 
ROOT
HETATM    1  C7  UNL     1      19.524  29.919  14.362  1.00  0.00     0.029 C 
ENDROOT
BRANCH   1   2
HETATM    2  C6  UNL     1      19.811  30.361  15.774  1.00  0.00     0.203 C 
BRANCH   2   3
HETATM    3  C5  UNL     1      18.752  31.164  16.413  1.00  0.00     0.119 C 
BRANCH   3   4
HETATM    4  N1  UNL     1      18.713  32.536  16.132  1.00  0.00    -0.262 N 
BRANCH   4   5
HETATM    5  C4  UNL     1      19.864  33.262  15.823  1.00  0.00     0.085 C 
BRANCH   5   6
HETATM    6  C2  UNL     1      20.672  33.755  17.016  1.00  0.00     0.017 C 
HETATM    7  C1  UNL     1      22.030  33.120  17.122  1.00  0.00     0.015 C 
HETATM    8  C3  UNL     1      20.805  35.260  17.017  1.00  0.00     0.015 C 
ENDBRANCH   5   6
ENDBRANCH   4   5
BRANCH   4   9
HETATM    9  S1  UNL     1      17.217  33.117  15.602  1.00  0.00     0.267 S 
HETATM   10  O6  UNL     1      17.459  33.974  14.368  1.00  0.00    -0.200 OA
HETATM   11  O7  UNL     1      16.260  31.993  15.227  1.00  0.00    -0.200 OA
BRANCH   9  12
HETATM   12  C22 UNL     1      16.392  34.128  16.782  1.00  0.00     0.080 A 
HETATM   13  C23 UNL     1      17.055  34.936  17.680  1.00  0.00     0.027 A 
HETATM   14  C24 UNL     1      16.385  35.718  18.602  1.00  0.00     0.028 A 
HETATM   15  C25 UNL     1      15.007  35.718  18.657  1.00  0.00     0.046 A 
HETATM   16  N3  UNL     1      14.306  36.531  19.616  1.00  0.00    -0.102 NA
HETATM   17  C26 UNL     1      14.329  34.916  17.768  1.00  0.00     0.028 A 
HETATM   18  C27 UNL     1      15.002  34.140  16.852  1.00  0.00     0.027 A 
ENDBRANCH   9  12
ENDBRANCH   4   9
ENDBRANCH   3   4
ENDBRANCH   2   3
BRANCH   2  19
HETATM   19  O1  UNL     1      19.965  29.168  16.522  1.00  0.00    -0.385 OA
ATOM     20  H1  UNL     1      20.719  29.274  17.090  1.00  0.00     0.211 HD
ENDBRANCH   2  19
ENDBRANCH   1   2
BRANCH   1  21
HETATM   21  C8  UNL     1      18.144  29.347  14.192  1.00  0.00     0.094 C 
BRANCH  21  22
HETATM   22  C9  UNL     1      17.917  28.598  12.957  1.00  0.00    -0.053 A 
HETATM   23  C10 UNL     1      18.172  27.226  12.951  1.00  0.00     0.007 A 
HETATM   24  C11 UNL     1      18.027  26.428  11.848  1.00  0.00     0.001 A 
HETATM   25  C12 UNL     1      17.602  27.005  10.665  1.00  0.00     0.000 A 
HETATM   26  C13 UNL     1      17.338  28.352  10.623  1.00  0.00     0.001 A 
HETATM   27  C14 UNL     1      17.501  29.134  11.778  1.00  0.00     0.007 A 
ENDBRANCH  21  22
ENDBRANCH   1  21
BRANCH   1  28
HETATM   28  N2  UNL     1      20.595  29.298  13.689  1.00  0.00    -0.307 N 
HETATM   29  C15 UNL     1      21.153  29.740  12.464  1.00  0.00     0.365 C 
HETATM   30  O2  UNL     1      20.693  30.740  11.902  1.00  0.00    -0.238 OA
ATOM     31  H2  UNL     1      21.001  28.466  14.117  1.00  0.00     0.170 HD
BRANCH  29  32
HETATM   32  O3  UNL     1      22.224  29.061  11.874  1.00  0.00    -0.296 OA
BRANCH  32  33
HETATM   33  C16 UNL     1      22.698  27.832  12.401  1.00  0.00     0.166 C 
HETATM   34  C17 UNL     1      21.815  26.685  12.036  1.00  0.00     0.204 C 
HETATM   35  O4  UNL     1      22.589  25.624  11.650  1.00  0.00    -0.358 OA
HETATM   36  C18 UNL     1      23.927  25.977  11.732  1.00  0.00     0.266 C 
HETATM   37  O5  UNL     1      24.663  25.571  10.625  1.00  0.00    -0.361 OA
HETATM   38  C21 UNL     1      23.974  27.489  11.659  1.00  0.00     0.075 C 
HETATM   39  C19 UNL     1      24.393  26.421   9.580  1.00  0.00     0.171 C 
HETATM   40  C20 UNL     1      23.897  27.737  10.188  1.00  0.00     0.038 C 
ENDBRANCH  32  33
ENDBRANCH  29  32
ENDBRANCH   1  28
TORSDOF 13
ENDMDL
