MODEL 6
REMARK VINA RESULT: -9.483345814      2.886      6.400
REMARK  13 active torsions:
REMARK  status: ('A' for Active; 'I' for Inactive)
REMARK    1  A    between atoms: C2_2  and  C4_4 
REMARK    2  A    between atoms: C4_4  and  N1_5 
REMARK    3  A    between atoms: N1_5  and  C5_6 
REMARK    4  A    between atoms: N1_5  and  S1_31 
REMARK    5  A    between atoms: C5_6  and  C6_7 
REMARK    6  A    between atoms: C6_7  and  O1_8 
REMARK    7  A    between atoms: C6_7  and  C7_10 
REMARK    8  A    between atoms: C7_10  and  C8_11 
REMARK    9  A    between atoms: C7_10  and  N2_18 
REMARK   10  A    between atoms: C8_11  and  C9_12 
REMARK       I    between atoms: N2_18  and  C15_20 
REMARK   11  A    between atoms: C15_20  and  O3_22 
REMARK   12  A    between atoms: O3_22  and  C16_23 
REMARK   13  A    between atoms: S1_31  and  C22_34 
ROOT
HETATM    1  C7  UNL     1      18.532  30.224  15.083  1.00  0.00     0.029 C 
ENDROOT
BRANCH   1   2
HETATM    2  C6  UNL     1      19.873  30.102  15.760  1.00  0.00     0.203 C 
BRANCH   2   3
HETATM    3  C5  UNL     1      20.385  31.339  16.379  1.00  0.00     0.119 C 
BRANCH   3   4
HETATM    4  N1  UNL     1      20.846  32.352  15.527  1.00  0.00    -0.262 N 
BRANCH   4   5
HETATM    5  C4  UNL     1      20.464  33.685  15.688  1.00  0.00     0.085 C 
BRANCH   5   6
HETATM    6  C2  UNL     1      20.554  34.229  17.109  1.00  0.00     0.017 C 
HETATM    7  C1  UNL     1      21.826  34.980  17.382  1.00  0.00     0.015 C 
HETATM    8  C3  UNL     1      19.362  35.092  17.453  1.00  0.00     0.015 C 
ENDBRANCH   5   6
ENDBRANCH   4   5
BRANCH   4   9
HETATM    9  S1  UNL     1      22.293  32.011  14.724  1.00  0.00     0.267 S 
HETATM   10  O6  UNL     1      22.658  33.225  13.883  1.00  0.00    -0.200 OA
HETATM   11  O7  UNL     1      23.437  31.731  15.689  1.00  0.00    -0.200 OA
BRANCH   9  12
HETATM   12  C22 UNL     1      22.189  30.635  13.633  1.00  0.00     0.080 A 
HETATM   13  C23 UNL     1      21.512  30.672  12.432  1.00  0.00     0.027 A 
HETATM   14  C24 UNL     1      21.439  29.577  11.593  1.00  0.00     0.028 A 
HETATM   15  C25 UNL     1      22.051  28.389  11.930  1.00  0.00     0.046 A 
HETATM   16  N3  UNL     1      21.978  27.245  11.059  1.00  0.00    -0.102 NA
HETATM   17  C26 UNL     1      22.732  28.333  13.126  1.00  0.00     0.028 A 
HETATM   18  C27 UNL     1      22.800  29.428  13.957  1.00  0.00     0.027 A 
ENDBRANCH   9  12
ENDBRANCH   4   9
ENDBRANCH   3   4
ENDBRANCH   2   3
BRANCH   2  19
HETATM   19  O1  UNL     1      19.693  29.143  16.787  1.00  0.00    -0.385 OA
ATOM     20  H1  UNL     1      18.880  29.343  17.235  1.00  0.00     0.211 HD
ENDBRANCH   2  19
ENDBRANCH   1   2
BRANCH   1  21
HETATM   21  C8  UNL     1      17.468  30.791  15.982  1.00  0.00     0.094 C 
BRANCH  21  22
HETATM   22  C9  UNL     1      17.090  32.179  15.717  1.00  0.00    -0.053 A 
HETATM   23  C10 UNL     1      16.315  32.853  16.662  1.00  0.00     0.007 A 
HETATM   24  C11 UNL     1      15.876  34.141  16.510  1.00  0.00     0.001 A 
HETATM   25  C12 UNL     1      16.216  34.823  15.356  1.00  0.00     0.000 A 
HETATM   26  C13 UNL     1      16.977  34.201  14.398  1.00  0.00     0.001 A 
HETATM   27  C14 UNL     1      17.405  32.879  14.594  1.00  0.00     0.007 A 
ENDBRANCH  21  22
ENDBRANCH   1  21
BRANCH   1  28
HETATM   28  N2  UNL     1      18.188  29.166  14.218  1.00  0.00    -0.307 N 
HETATM   29  C15 UNL     1      17.979  29.290  12.822  1.00  0.00     0.365 C 
HETATM   30  O2  UNL     1      18.091  30.395  12.278  1.00  0.00    -0.238 OA
ATOM     31  H2  UNL     1      18.080  28.239  14.629  1.00  0.00     0.170 HD
BRANCH  29  32
HETATM   32  O3  UNL     1      17.647  28.178  12.043  1.00  0.00    -0.296 OA
BRANCH  32  33
HETATM   33  C16 UNL     1      18.514  27.060  11.946  1.00  0.00     0.166 C 
HETATM   34  C17 UNL     1      17.864  25.800  12.414  1.00  0.00     0.204 C 
HETATM   35  O4  UNL     1      18.154  24.789  11.537  1.00  0.00    -0.358 OA
HETATM   36  C18 UNL     1      18.954  25.280  10.517  1.00  0.00     0.266 C 
HETATM   37  O5  UNL     1      18.557  24.845   9.259  1.00  0.00    -0.361 OA
HETATM   38  C21 UNL     1      18.716  26.776  10.471  1.00  0.00     0.075 C 
HETATM   39  C19 UNL     1      17.446  25.557   8.875  1.00  0.00     0.171 C 
HETATM   40  C20 UNL     1      17.461  26.870   9.666  1.00  0.00     0.038 C 
ENDBRANCH  32  33
ENDBRANCH  29  32
ENDBRANCH   1  28
TORSDOF 13
ENDMDL
