MODEL 5
REMARK VINA RESULT: -9.539399678      1.186      1.726
REMARK  13 active torsions:
REMARK  status: ('A' for Active; 'I' for Inactive)
REMARK    1  A    between atoms: C2_2  and  C4_4 
REMARK    2  A    between atoms: C4_4  and  N1_5 
REMARK    3  A    between atoms: N1_5  and  C5_6 
REMARK    4  A    between atoms: N1_5  and  S1_31 
REMARK    5  A    between atoms: C5_6  and  C6_7 
REMARK    6  A    between atoms: C6_7  and  O1_8 
REMARK    7  A    between atoms: C6_7  and  C7_10 
REMARK    8  A    between atoms: C7_10  and  C8_11 
REMARK    9  A    between atoms: C7_10  and  N2_18 
REMARK   10  A    between atoms: C8_11  and  C9_12 
REMARK       I    between atoms: N2_18  and  C15_20 
REMARK   11  A    between atoms: C15_20  and  O3_22 
REMARK   12  A    between atoms: O3_22  and  C16_23 
REMARK   13  A    between atoms: S1_31  and  C22_34 
ROOT
HETATM    1  C7  UNL     1      19.852  28.886  14.015  1.00  0.00     0.029 C 
ENDROOT
BRANCH   1   2
HETATM    2  C6  UNL     1      19.959  29.437  15.414  1.00  0.00     0.203 C 
BRANCH   2   3
HETATM    3  C5  UNL     1      18.872  30.346  15.821  1.00  0.00     0.119 C 
BRANCH   3   4
HETATM    4  N1  UNL     1      19.050  31.718  15.599  1.00  0.00    -0.262 N 
BRANCH   4   5
HETATM    5  C4  UNL     1      20.312  32.279  15.403  1.00  0.00     0.085 C 
BRANCH   5   6
HETATM    6  C2  UNL     1      20.903  33.005  16.605  1.00  0.00     0.017 C 
HETATM    7  C1  UNL     1      22.203  32.419  17.078  1.00  0.00     0.015 C 
HETATM    8  C3  UNL     1      21.070  34.483  16.339  1.00  0.00     0.015 C 
ENDBRANCH   5   6
ENDBRANCH   4   5
BRANCH   4   9
HETATM    9  S1  UNL     1      17.696  32.526  14.990  1.00  0.00     0.267 S 
HETATM   10  O6  UNL     1      18.183  33.576  14.002  1.00  0.00    -0.200 OA
HETATM   11  O7  UNL     1      16.741  31.588  14.265  1.00  0.00    -0.200 OA
BRANCH   9  12
HETATM   12  C22 UNL     1      16.761  33.367  16.221  1.00  0.00     0.080 A 
HETATM   13  C23 UNL     1      15.386  33.456  16.195  1.00  0.00     0.027 A 
HETATM   14  C24 UNL     1      14.673  34.127  17.171  1.00  0.00     0.028 A 
HETATM   15  C25 UNL     1      15.321  34.739  18.222  1.00  0.00     0.046 A 
HETATM   16  N3  UNL     1      14.582  35.439  19.240  1.00  0.00    -0.102 NA
HETATM   17  C26 UNL     1      16.695  34.661  18.263  1.00  0.00     0.028 A 
HETATM   18  C27 UNL     1      17.399  33.991  17.288  1.00  0.00     0.027 A 
ENDBRANCH   9  12
ENDBRANCH   4   9
ENDBRANCH   3   4
ENDBRANCH   2   3
BRANCH   2  19
HETATM   19  O1  UNL     1      19.929  28.309  16.269  1.00  0.00    -0.385 OA
ATOM     20  H1  UNL     1      19.562  27.581  15.781  1.00  0.00     0.211 HD
ENDBRANCH   2  19
ENDBRANCH   1   2
BRANCH   1  21
HETATM   21  C8  UNL     1      18.444  28.520  13.633  1.00  0.00     0.094 C 
BRANCH  21  22
HETATM   22  C9  UNL     1      18.298  27.810  12.362  1.00  0.00    -0.053 A 
HETATM   23  C10 UNL     1      18.132  26.425  12.385  1.00  0.00     0.007 A 
HETATM   24  C11 UNL     1      18.017  25.652  11.261  1.00  0.00     0.001 A 
HETATM   25  C12 UNL     1      18.066  26.270  10.025  1.00  0.00     0.000 A 
HETATM   26  C13 UNL     1      18.228  27.632   9.952  1.00  0.00     0.001 A 
HETATM   27  C14 UNL     1      18.343  28.387  11.131  1.00  0.00     0.007 A 
ENDBRANCH  21  22
ENDBRANCH   1  21
BRANCH   1  28
HETATM   28  N2  UNL     1      20.900  28.034  13.613  1.00  0.00    -0.307 N 
HETATM   29  C15 UNL     1      22.207  28.458  13.267  1.00  0.00     0.365 C 
HETATM   30  O2  UNL     1      22.494  29.660  13.299  1.00  0.00    -0.238 OA
ATOM     31  H2  UNL     1      20.702  27.035  13.568  1.00  0.00     0.170 HD
BRANCH  29  32
HETATM   32  O3  UNL     1      23.186  27.535  12.887  1.00  0.00    -0.296 OA
BRANCH  32  33
HETATM   33  C16 UNL     1      23.817  27.609  11.619  1.00  0.00     0.166 C 
HETATM   34  C17 UNL     1      25.063  26.790  11.561  1.00  0.00     0.204 C 
HETATM   35  O4  UNL     1      25.095  26.099  10.379  1.00  0.00    -0.358 OA
HETATM   36  C18 UNL     1      23.961  26.398   9.641  1.00  0.00     0.266 C 
HETATM   37  O5  UNL     1      23.372  25.275   9.073  1.00  0.00    -0.361 OA
HETATM   38  C21 UNL     1      22.924  26.886  10.631  1.00  0.00     0.075 C 
HETATM   39  C19 UNL     1      22.686  24.595  10.050  1.00  0.00     0.171 C 
HETATM   40  C20 UNL     1      22.363  25.605  11.156  1.00  0.00     0.038 C 
ENDBRANCH  32  33
ENDBRANCH  29  32
ENDBRANCH   1  28
TORSDOF 13
ENDMDL
