MODEL 4
REMARK VINA RESULT: -9.564657670      0.878      1.250
REMARK  13 active torsions:
REMARK  status: ('A' for Active; 'I' for Inactive)
REMARK    1  A    between atoms: C2_2  and  C4_4 
REMARK    2  A    between atoms: C4_4  and  N1_5 
REMARK    3  A    between atoms: N1_5  and  C5_6 
REMARK    4  A    between atoms: N1_5  and  S1_31 
REMARK    5  A    between atoms: C5_6  and  C6_7 
REMARK    6  A    between atoms: C6_7  and  O1_8 
REMARK    7  A    between atoms: C6_7  and  C7_10 
REMARK    8  A    between atoms: C7_10  and  C8_11 
REMARK    9  A    between atoms: C7_10  and  N2_18 
REMARK   10  A    between atoms: C8_11  and  C9_12 
REMARK       I    between atoms: N2_18  and  C15_20 
REMARK   11  A    between atoms: C15_20  and  O3_22 
REMARK   12  A    between atoms: O3_22  and  C16_23 
REMARK   13  A    between atoms: S1_31  and  C22_34 
ROOT
HETATM    1  C7  UNL     1      19.731  29.954  14.760  1.00  0.00     0.029 C 
ENDROOT
BRANCH   1   2
HETATM    2  C6  UNL     1      19.768  30.549  16.145  1.00  0.00     0.203 C 
BRANCH   2   3
HETATM    3  C5  UNL     1      18.580  31.334  16.528  1.00  0.00     0.119 C 
BRANCH   3   4
HETATM    4  N1  UNL     1      18.565  32.697  16.203  1.00  0.00    -0.262 N 
BRANCH   4   5
HETATM    5  C4  UNL     1      19.737  33.408  15.940  1.00  0.00     0.085 C 
BRANCH   5   6
HETATM    6  C2  UNL     1      20.470  33.947  17.162  1.00  0.00     0.017 C 
HETATM    7  C1  UNL     1      21.857  33.393  17.321  1.00  0.00     0.015 C 
HETATM    8  C3  UNL     1      20.514  35.458  17.166  1.00  0.00     0.015 C 
ENDBRANCH   5   6
ENDBRANCH   4   5
BRANCH   4   9
HETATM    9  S1  UNL     1      17.107  33.268  15.569  1.00  0.00     0.267 S 
HETATM   10  O6  UNL     1      17.414  33.991  14.267  1.00  0.00    -0.200 OA
HETATM   11  O7  UNL     1      16.125  32.141  15.274  1.00  0.00    -0.200 OA
BRANCH   9  12
HETATM   12  C22 UNL     1      16.280  34.414  16.617  1.00  0.00     0.080 A 
HETATM   13  C23 UNL     1      16.805  35.642  16.957  1.00  0.00     0.027 A 
HETATM   14  C24 UNL     1      16.139  36.524  17.787  1.00  0.00     0.028 A 
HETATM   15  C25 UNL     1      14.905  36.204  18.311  1.00  0.00     0.046 A 
HETATM   16  N3  UNL     1      14.208  37.120  19.175  1.00  0.00    -0.102 NA
HETATM   17  C26 UNL     1      14.365  34.981  17.982  1.00  0.00     0.028 A 
HETATM   18  C27 UNL     1      15.034  34.106  17.155  1.00  0.00     0.027 A 
ENDBRANCH   9  12
ENDBRANCH   4   9
ENDBRANCH   3   4
ENDBRANCH   2   3
BRANCH   2  19
HETATM   19  O1  UNL     1      19.867  29.447  17.029  1.00  0.00    -0.385 OA
ATOM     20  H1  UNL     1      20.773  29.165  17.044  1.00  0.00     0.211 HD
ENDBRANCH   2  19
ENDBRANCH   1   2
BRANCH   1  21
HETATM   21  C8  UNL     1      18.334  29.680  14.274  1.00  0.00     0.094 C 
BRANCH  21  22
HETATM   22  C9  UNL     1      18.226  28.743  13.157  1.00  0.00    -0.053 A 
HETATM   23  C10 UNL     1      17.935  27.406  13.431  1.00  0.00     0.007 A 
HETATM   24  C11 UNL     1      17.840  26.433  12.473  1.00  0.00     0.001 A 
HETATM   25  C12 UNL     1      18.041  26.786  11.151  1.00  0.00     0.000 A 
HETATM   26  C13 UNL     1      18.330  28.090  10.831  1.00  0.00     0.001 A 
HETATM   27  C14 UNL     1      18.418  29.056  11.847  1.00  0.00     0.007 A 
ENDBRANCH  21  22
ENDBRANCH   1  21
BRANCH   1  28
HETATM   28  N2  UNL     1      20.737  29.010  14.476  1.00  0.00    -0.307 N 
HETATM   29  C15 UNL     1      21.767  29.181  13.517  1.00  0.00     0.365 C 
HETATM   30  O2  UNL     1      21.822  30.220  12.850  1.00  0.00    -0.238 OA
ATOM     31  H2  UNL     1      20.724  28.136  15.001  1.00  0.00     0.170 HD
BRANCH  29  32
HETATM   32  O3  UNL     1      22.729  28.188  13.310  1.00  0.00    -0.296 OA
BRANCH  32  33
HETATM   33  C16 UNL     1      23.352  28.017  12.047  1.00  0.00     0.166 C 
HETATM   34  C17 UNL     1      24.518  27.087  12.116  1.00  0.00     0.204 C 
HETATM   35  O4  UNL     1      24.475  26.230  11.048  1.00  0.00    -0.358 OA
HETATM   36  C18 UNL     1      23.367  26.521  10.269  1.00  0.00     0.266 C 
HETATM   37  O5  UNL     1      22.672  25.386   9.870  1.00  0.00    -0.361 OA
HETATM   38  C21 UNL     1      22.388  27.242  11.173  1.00  0.00     0.075 C 
HETATM   39  C19 UNL     1      21.935  24.923  10.933  1.00  0.00     0.171 C 
HETATM   40  C20 UNL     1      21.717  26.109  11.878  1.00  0.00     0.038 C 
ENDBRANCH  32  33
ENDBRANCH  29  32
ENDBRANCH   1  28
TORSDOF 13
ENDMDL
