MODEL 2
REMARK VINA RESULT: -9.691411920      2.916      8.518
REMARK  13 active torsions:
REMARK  status: ('A' for Active; 'I' for Inactive)
REMARK    1  A    between atoms: C2_2  and  C4_4 
REMARK    2  A    between atoms: C4_4  and  N1_5 
REMARK    3  A    between atoms: N1_5  and  C5_6 
REMARK    4  A    between atoms: N1_5  and  S1_31 
REMARK    5  A    between atoms: C5_6  and  C6_7 
REMARK    6  A    between atoms: C6_7  and  O1_8 
REMARK    7  A    between atoms: C6_7  and  C7_10 
REMARK    8  A    between atoms: C7_10  and  C8_11 
REMARK    9  A    between atoms: C7_10  and  N2_18 
REMARK   10  A    between atoms: C8_11  and  C9_12 
REMARK       I    between atoms: N2_18  and  C15_20 
REMARK   11  A    between atoms: C15_20  and  O3_22 
REMARK   12  A    between atoms: O3_22  and  C16_23 
REMARK   13  A    between atoms: S1_31  and  C22_34 
ROOT
HETATM    1  C7  UNL     1      18.183  31.098  15.629  1.00  0.00     0.029 C 
ENDROOT
BRANCH   1   2
HETATM    2  C6  UNL     1      19.486  30.602  16.202  1.00  0.00     0.203 C 
BRANCH   2   3
HETATM    3  C5  UNL     1      20.426  31.651  16.636  1.00  0.00     0.119 C 
BRANCH   3   4
HETATM    4  N1  UNL     1      20.893  32.551  15.668  1.00  0.00    -0.262 N 
BRANCH   4   5
HETATM    5  C4  UNL     1      20.655  33.924  15.758  1.00  0.00     0.085 C 
BRANCH   5   6
HETATM    6  C2  UNL     1      20.875  34.542  17.132  1.00  0.00     0.017 C 
HETATM    7  C1  UNL     1      22.324  34.718  17.485  1.00  0.00     0.015 C 
HETATM    8  C3  UNL     1      20.146  35.858  17.276  1.00  0.00     0.015 C 
ENDBRANCH   5   6
ENDBRANCH   4   5
BRANCH   4   9
HETATM    9  S1  UNL     1      22.215  32.011  14.765  1.00  0.00     0.267 S 
HETATM   10  O6  UNL     1      22.617  33.126  13.811  1.00  0.00    -0.200 OA
HETATM   11  O7  UNL     1      23.413  31.671  15.641  1.00  0.00    -0.200 OA
BRANCH   9  12
HETATM   12  C22 UNL     1      21.870  30.590  13.786  1.00  0.00     0.080 A 
HETATM   13  C23 UNL     1      22.021  29.299  14.247  1.00  0.00     0.027 A 
HETATM   14  C24 UNL     1      21.748  28.198  13.458  1.00  0.00     0.028 A 
HETATM   15  C25 UNL     1      21.308  28.352  12.161  1.00  0.00     0.046 A 
HETATM   16  N3  UNL     1      21.023  27.208  11.336  1.00  0.00    -0.102 NA
HETATM   17  C26 UNL     1      21.152  29.634  11.684  1.00  0.00     0.028 A 
HETATM   18  C27 UNL     1      21.425  30.727  12.475  1.00  0.00     0.027 A 
ENDBRANCH   9  12
ENDBRANCH   4   9
ENDBRANCH   3   4
ENDBRANCH   2   3
BRANCH   2  19
HETATM   19  O1  UNL     1      19.133  29.835  17.339  1.00  0.00    -0.385 OA
ATOM     20  H1  UNL     1      19.249  30.381  18.108  1.00  0.00     0.211 HD
ENDBRANCH   2  19
ENDBRANCH   1   2
BRANCH   1  21
HETATM   21  C8  UNL     1      18.149  31.059  14.126  1.00  0.00     0.094 C 
BRANCH  21  22
HETATM   22  C9  UNL     1      17.986  29.733  13.531  1.00  0.00    -0.053 A 
HETATM   23  C10 UNL     1      17.600  29.643  12.193  1.00  0.00     0.007 A 
HETATM   24  C11 UNL     1      17.387  28.460  11.538  1.00  0.00     0.001 A 
HETATM   25  C12 UNL     1      17.561  27.278  12.235  1.00  0.00     0.000 A 
HETATM   26  C13 UNL     1      17.939  27.316  13.554  1.00  0.00     0.001 A 
HETATM   27  C14 UNL     1      18.147  28.553  14.187  1.00  0.00     0.007 A 
ENDBRANCH  21  22
ENDBRANCH   1  21
BRANCH   1  28
HETATM   28  N2  UNL     1      17.610  32.205  16.285  1.00  0.00    -0.307 N 
HETATM   29  C15 UNL     1      16.222  32.478  16.362  1.00  0.00     0.365 C 
HETATM   30  O2  UNL     1      15.413  31.717  15.820  1.00  0.00    -0.238 OA
ATOM     31  H2  UNL     1      18.244  32.861  16.741  1.00  0.00     0.170 HD
BRANCH  29  32
HETATM   32  O3  UNL     1      15.746  33.601  17.045  1.00  0.00    -0.296 OA
BRANCH  32  33
HETATM   33  C16 UNL     1      16.613  34.661  17.415  1.00  0.00     0.166 C 
HETATM   34  C17 UNL     1      16.566  35.793  16.443  1.00  0.00     0.204 C 
HETATM   35  O4  UNL     1      16.518  36.977  17.130  1.00  0.00    -0.358 OA
HETATM   36  C18 UNL     1      16.532  36.719  18.492  1.00  0.00     0.266 C 
HETATM   37  O5  UNL     1      15.607  37.479  19.196  1.00  0.00    -0.361 OA
HETATM   38  C21 UNL     1      16.034  35.299  18.662  1.00  0.00     0.075 C 
HETATM   39  C19 UNL     1      14.356  36.946  19.000  1.00  0.00     0.171 C 
HETATM   40  C20 UNL     1      14.552  35.477  18.611  1.00  0.00     0.038 C 
ENDBRANCH  32  33
ENDBRANCH  29  32
ENDBRANCH   1  28
TORSDOF 13
ENDMDL
