MODEL 7
REMARK VINA RESULT: -9.415686047      2.778      9.539
REMARK  13 active torsions:
REMARK  status: ('A' for Active; 'I' for Inactive)
REMARK    1  A    between atoms: C2_2  and  C4_4 
REMARK    2  A    between atoms: C4_4  and  N1_5 
REMARK    3  A    between atoms: N1_5  and  C5_6 
REMARK    4  A    between atoms: N1_5  and  S1_31 
REMARK    5  A    between atoms: C5_6  and  C6_7 
REMARK    6  A    between atoms: C6_7  and  O1_8 
REMARK    7  A    between atoms: C6_7  and  C7_10 
REMARK    8  A    between atoms: C7_10  and  C8_11 
REMARK    9  A    between atoms: C7_10  and  N2_18 
REMARK   10  A    between atoms: C8_11  and  C9_12 
REMARK       I    between atoms: N2_18  and  C15_20 
REMARK   11  A    between atoms: C15_20  and  O3_22 
REMARK   12  A    between atoms: O3_22  and  C16_23 
REMARK   13  A    between atoms: S1_31  and  C22_34 
ROOT
HETATM    1  C7  UNL     1      17.451  33.626  15.718  1.00  0.00     0.029 C 
ENDROOT
BRANCH   1   2
HETATM    2  C6  UNL     1      17.214  32.298  15.045  1.00  0.00     0.203 C 
BRANCH   2   3
HETATM    3  C5  UNL     1      18.385  31.404  14.979  1.00  0.00     0.119 C 
BRANCH   3   4
HETATM    4  N1  UNL     1      18.729  30.869  13.730  1.00  0.00    -0.262 N 
BRANCH   4   5
HETATM    5  C4  UNL     1      17.765  30.412  12.829  1.00  0.00     0.085 C 
BRANCH   5   6
HETATM    6  C2  UNL     1      17.991  29.010  12.279  1.00  0.00     0.017 C 
HETATM    7  C1  UNL     1      17.981  27.944  13.337  1.00  0.00     0.015 C 
HETATM    8  C3  UNL     1      16.996  28.669  11.194  1.00  0.00     0.015 C 
ENDBRANCH   5   6
ENDBRANCH   4   5
BRANCH   4   9
HETATM    9  S1  UNL     1      20.237  31.347  13.137  1.00  0.00     0.267 S 
HETATM   10  O6  UNL     1      20.014  32.057  11.810  1.00  0.00    -0.200 OA
HETATM   11  O7  UNL     1      20.953  32.303  14.081  1.00  0.00    -0.200 OA
BRANCH   9  12
HETATM   12  C22 UNL     1      21.334  30.005  12.829  1.00  0.00     0.080 A 
HETATM   13  C23 UNL     1      22.053  29.374  13.821  1.00  0.00     0.027 A 
HETATM   14  C24 UNL     1      22.913  28.325  13.554  1.00  0.00     0.028 A 
HETATM   15  C25 UNL     1      23.084  27.864  12.266  1.00  0.00     0.046 A 
HETATM   16  N3  UNL     1      23.979  26.773  11.984  1.00  0.00    -0.102 NA
HETATM   17  C26 UNL     1      22.374  28.484  11.263  1.00  0.00     0.028 A 
HETATM   18  C27 UNL     1      21.519  29.528  11.535  1.00  0.00     0.027 A 
ENDBRANCH   9  12
ENDBRANCH   4   9
ENDBRANCH   3   4
ENDBRANCH   2   3
BRANCH   2  19
HETATM   19  O1  UNL     1      16.216  31.654  15.816  1.00  0.00    -0.385 OA
ATOM     20  H1  UNL     1      15.399  32.121  15.685  1.00  0.00     0.211 HD
ENDBRANCH   2  19
ENDBRANCH   1   2
BRANCH   1  21
HETATM   21  C8  UNL     1      16.369  34.631  15.436  1.00  0.00     0.094 C 
BRANCH  21  22
HETATM   22  C9  UNL     1      15.836  35.332  16.604  1.00  0.00    -0.053 A 
HETATM   23  C10 UNL     1      14.706  34.813  17.237  1.00  0.00     0.007 A 
HETATM   24  C11 UNL     1      14.101  35.398  18.317  1.00  0.00     0.001 A 
HETATM   25  C12 UNL     1      14.634  36.571  18.818  1.00  0.00     0.000 A 
HETATM   26  C13 UNL     1      15.746  37.120  18.228  1.00  0.00     0.001 A 
HETATM   27  C14 UNL     1      16.334  36.487  17.121  1.00  0.00     0.007 A 
ENDBRANCH  21  22
ENDBRANCH   1  21
BRANCH   1  28
HETATM   28  N2  UNL     1      18.789  34.067  15.740  1.00  0.00    -0.307 N 
HETATM   29  C15 UNL     1      19.513  34.415  16.908  1.00  0.00     0.365 C 
HETATM   30  O2  UNL     1      18.966  34.349  18.015  1.00  0.00    -0.238 OA
ATOM     31  H2  UNL     1      19.275  34.141  14.847  1.00  0.00     0.170 HD
BRANCH  29  32
HETATM   32  O3  UNL     1      20.844  34.837  16.830  1.00  0.00    -0.296 OA
BRANCH  32  33
HETATM   33  C16 UNL     1      21.209  36.180  17.106  1.00  0.00     0.166 C 
HETATM   34  C17 UNL     1      20.191  36.880  17.944  1.00  0.00     0.204 C 
HETATM   35  O4  UNL     1      20.828  37.600  18.920  1.00  0.00    -0.358 OA
HETATM   36  C18 UNL     1      22.198  37.434  18.794  1.00  0.00     0.266 C 
HETATM   37  O5  UNL     1      22.830  37.209  20.011  1.00  0.00    -0.361 OA
HETATM   38  C21 UNL     1      22.402  36.137  18.038  1.00  0.00     0.075 C 
HETATM   39  C19 UNL     1      22.601  35.910  20.394  1.00  0.00     0.171 C 
HETATM   40  C20 UNL     1      22.280  35.117  19.123  1.00  0.00     0.038 C 
ENDBRANCH  32  33
ENDBRANCH  29  32
ENDBRANCH   1  28
TORSDOF 13
ENDMDL
