MODEL 2
REMARK VINA RESULT: -8.799078307      2.969      8.550
REMARK  13 active torsions:
REMARK  status: ('A' for Active; 'I' for Inactive)
REMARK    1  A    between atoms: C2_2  and  C4_4 
REMARK    2  A    between atoms: C4_4  and  N1_5 
REMARK    3  A    between atoms: N1_5  and  C5_6 
REMARK    4  A    between atoms: N1_5  and  S1_31 
REMARK    5  A    between atoms: C5_6  and  C6_7 
REMARK    6  A    between atoms: C6_7  and  O1_8 
REMARK    7  A    between atoms: C6_7  and  C7_10 
REMARK    8  A    between atoms: C7_10  and  C8_11 
REMARK    9  A    between atoms: C7_10  and  N2_18 
REMARK   10  A    between atoms: C8_11  and  C9_12 
REMARK       I    between atoms: N2_18  and  C15_20 
REMARK   11  A    between atoms: C15_20  and  O3_22 
REMARK   12  A    between atoms: O3_22  and  C16_23 
REMARK   13  A    between atoms: S1_31  and  C22_34 
ROOT
HETATM    1  C7  UNL     1      19.565  30.461  14.753  1.00  0.00     0.029 C 
ENDROOT
BRANCH   1   2
HETATM    2  C6  UNL     1      19.650  31.145  16.094  1.00  0.00     0.203 C 
BRANCH   2   3
HETATM    3  C5  UNL     1      18.434  31.862  16.517  1.00  0.00     0.119 C 
BRANCH   3   4
HETATM    4  N1  UNL     1      18.373  33.242  16.279  1.00  0.00    -0.262 N 
BRANCH   4   5
HETATM    5  C4  UNL     1      19.521  34.011  16.084  1.00  0.00     0.085 C 
BRANCH   5   6
HETATM    6  C2  UNL     1      20.229  34.471  17.353  1.00  0.00     0.017 C 
HETATM    7  C1  UNL     1      21.665  34.037  17.427  1.00  0.00     0.015 C 
HETATM    8  C3  UNL     1      20.132  35.968  17.535  1.00  0.00     0.015 C 
ENDBRANCH   5   6
ENDBRANCH   4   5
BRANCH   4   9
HETATM    9  S1  UNL     1      16.905  33.797  15.653  1.00  0.00     0.267 S 
HETATM   10  O6  UNL     1      17.190  34.470  14.318  1.00  0.00    -0.200 OA
HETATM   11  O7  UNL     1      15.911  32.667  15.420  1.00  0.00    -0.200 OA
BRANCH   9  12
HETATM   12  C22 UNL     1      16.105  34.987  16.673  1.00  0.00     0.080 A 
HETATM   13  C23 UNL     1      16.581  36.269  16.855  1.00  0.00     0.027 A 
HETATM   14  C24 UNL     1      15.938  37.185  17.666  1.00  0.00     0.028 A 
HETATM   15  C25 UNL     1      14.780  36.846  18.332  1.00  0.00     0.046 A 
HETATM   16  N3  UNL     1      14.108  37.797  19.178  1.00  0.00    -0.102 NA
HETATM   17  C26 UNL     1      14.291  35.570  18.163  1.00  0.00     0.028 A 
HETATM   18  C27 UNL     1      14.936  34.662  17.353  1.00  0.00     0.027 A 
ENDBRANCH   9  12
ENDBRANCH   4   9
ENDBRANCH   3   4
ENDBRANCH   2   3
BRANCH   2  19
HETATM   19  O1  UNL     1      19.897  30.112  17.031  1.00  0.00    -0.385 OA
ATOM     20  H1  UNL     1      20.752  29.744  16.843  1.00  0.00     0.211 HD
ENDBRANCH   2  19
ENDBRANCH   1   2
BRANCH   1  21
HETATM   21  C8  UNL     1      18.153  30.146  14.342  1.00  0.00     0.094 C 
BRANCH  21  22
HETATM   22  C9  UNL     1      18.014  29.261  13.185  1.00  0.00    -0.053 A 
HETATM   23  C10 UNL     1      17.907  27.887  13.402  1.00  0.00     0.007 A 
HETATM   24  C11 UNL     1      17.804  26.962  12.398  1.00  0.00     0.001 A 
HETATM   25  C12 UNL     1      17.805  27.405  11.088  1.00  0.00     0.000 A 
HETATM   26  C13 UNL     1      17.908  28.748  10.825  1.00  0.00     0.001 A 
HETATM   27  C14 UNL     1      18.013  29.663  11.885  1.00  0.00     0.007 A 
ENDBRANCH  21  22
ENDBRANCH   1  21
BRANCH   1  28
HETATM   28  N2  UNL     1      20.570  29.508  14.490  1.00  0.00    -0.307 N 
HETATM   29  C15 UNL     1      21.470  29.555  13.398  1.00  0.00     0.365 C 
HETATM   30  O2  UNL     1      21.403  30.482  12.582  1.00  0.00    -0.238 OA
ATOM     31  H2  UNL     1      20.655  28.724  15.137  1.00  0.00     0.170 HD
BRANCH  29  32
HETATM   32  O3  UNL     1      22.442  28.565  13.223  1.00  0.00    -0.296 OA
BRANCH  32  33
HETATM   33  C16 UNL     1      23.093  28.382  11.976  1.00  0.00     0.166 C 
HETATM   34  C17 UNL     1      24.270  27.471  12.083  1.00  0.00     0.204 C 
HETATM   35  O4  UNL     1      24.261  26.595  11.030  1.00  0.00    -0.358 OA
HETATM   36  C18 UNL     1      23.164  26.857  10.224  1.00  0.00     0.266 C 
HETATM   37  O5  UNL     1      22.494  25.705   9.831  1.00  0.00    -0.361 OA
HETATM   38  C21 UNL     1      22.157  27.578  11.096  1.00  0.00     0.075 C 
HETATM   39  C19 UNL     1      21.743  25.249  10.888  1.00  0.00     0.171 C 
HETATM   40  C20 UNL     1      21.489  26.448  11.807  1.00  0.00     0.038 C 
ENDBRANCH  32  33
ENDBRANCH  29  32
ENDBRANCH   1  28
TORSDOF 13
ENDMDL
