MODEL 6
REMARK VINA RESULT: -8.347377532      2.451      5.793
REMARK  13 active torsions:
REMARK  status: ('A' for Active; 'I' for Inactive)
REMARK    1  A    between atoms: C2_2  and  C4_4 
REMARK    2  A    between atoms: C4_4  and  N1_5 
REMARK    3  A    between atoms: N1_5  and  C5_6 
REMARK    4  A    between atoms: N1_5  and  S1_31 
REMARK    5  A    between atoms: C5_6  and  C6_7 
REMARK    6  A    between atoms: C6_7  and  O1_8 
REMARK    7  A    between atoms: C6_7  and  C7_10 
REMARK    8  A    between atoms: C7_10  and  C8_11 
REMARK    9  A    between atoms: C7_10  and  N2_18 
REMARK   10  A    between atoms: C8_11  and  C9_12 
REMARK       I    between atoms: N2_18  and  C15_20 
REMARK   11  A    between atoms: C15_20  and  O3_22 
REMARK   12  A    between atoms: O3_22  and  C16_23 
REMARK   13  A    between atoms: S1_31  and  C22_34 
ROOT
HETATM    1  C7  UNL     1      20.426  31.226  14.768  1.00  0.00     0.029 C 
ENDROOT
BRANCH   1   2
HETATM    2  C6  UNL     1      21.121  29.907  14.993  1.00  0.00     0.203 C 
BRANCH   2   3
HETATM    3  C5  UNL     1      20.624  28.783  14.179  1.00  0.00     0.119 C 
BRANCH   3   4
HETATM    4  N1  UNL     1      20.448  28.999  12.806  1.00  0.00    -0.262 N 
BRANCH   4   5
HETATM    5  C4  UNL     1      21.453  28.725  11.877  1.00  0.00     0.085 C 
BRANCH   5   6
HETATM    6  C2  UNL     1      22.317  27.508  12.181  1.00  0.00     0.017 C 
HETATM    7  C1  UNL     1      21.858  26.260  11.481  1.00  0.00     0.015 C 
HETATM    8  C3  UNL     1      23.774  27.765  11.876  1.00  0.00     0.015 C 
ENDBRANCH   5   6
ENDBRANCH   4   5
BRANCH   4   9
HETATM    9  S1  UNL     1      18.840  29.017  12.284  1.00  0.00     0.267 S 
HETATM   10  O6  UNL     1      17.954  28.750  13.491  1.00  0.00    -0.200 OA
HETATM   11  O7  UNL     1      18.443  30.357  11.681  1.00  0.00    -0.200 OA
BRANCH   9  12
HETATM   12  C22 UNL     1      18.472  27.781  11.087  1.00  0.00     0.080 A 
HETATM   13  C23 UNL     1      18.449  28.026   9.730  1.00  0.00     0.027 A 
HETATM   14  C24 UNL     1      18.152  27.040   8.809  1.00  0.00     0.028 A 
HETATM   15  C25 UNL     1      17.863  25.756   9.218  1.00  0.00     0.046 A 
HETATM   16  N3  UNL     1      17.552  24.726   8.261  1.00  0.00    -0.102 NA
HETATM   17  C26 UNL     1      17.880  25.494  10.570  1.00  0.00     0.028 A 
HETATM   18  C27 UNL     1      18.177  26.480  11.483  1.00  0.00     0.027 A 
ENDBRANCH   9  12
ENDBRANCH   4   9
ENDBRANCH   3   4
ENDBRANCH   2   3
BRANCH   2  19
HETATM   19  O1  UNL     1      22.477  30.129  14.651  1.00  0.00    -0.385 OA
ATOM     20  H1  UNL     1      22.712  29.510  13.970  1.00  0.00     0.211 HD
ENDBRANCH   2  19
ENDBRANCH   1   2
BRANCH   1  21
HETATM   21  C8  UNL     1      21.383  32.370  14.575  1.00  0.00     0.094 C 
BRANCH  21  22
HETATM   22  C9  UNL     1      21.524  33.275  15.717  1.00  0.00    -0.053 A 
HETATM   23  C10 UNL     1      20.981  34.556  15.626  1.00  0.00     0.007 A 
HETATM   24  C11 UNL     1      21.077  35.498  16.615  1.00  0.00     0.001 A 
HETATM   25  C12 UNL     1      21.751  35.169  17.777  1.00  0.00     0.000 A 
HETATM   26  C13 UNL     1      22.303  33.919  17.912  1.00  0.00     0.001 A 
HETATM   27  C14 UNL     1      22.181  32.984  16.872  1.00  0.00     0.007 A 
ENDBRANCH  21  22
ENDBRANCH   1  21
BRANCH   1  28
HETATM   28  N2  UNL     1      19.266  31.443  15.537  1.00  0.00    -0.307 N 
HETATM   29  C15 UNL     1      18.093  32.092  15.077  1.00  0.00     0.365 C 
HETATM   30  O2  UNL     1      18.041  32.525  13.920  1.00  0.00    -0.238 OA
ATOM     31  H2  UNL     1      19.270  31.106  16.499  1.00  0.00     0.170 HD
BRANCH  29  32
HETATM   32  O3  UNL     1      16.985  32.254  15.914  1.00  0.00    -0.296 OA
BRANCH  32  33
HETATM   33  C16 UNL     1      16.149  33.397  15.818  1.00  0.00     0.166 C 
HETATM   34  C17 UNL     1      14.997  33.333  16.764  1.00  0.00     0.204 C 
HETATM   35  O4  UNL     1      14.839  34.553  17.367  1.00  0.00    -0.358 OA
HETATM   36  C18 UNL     1      15.801  35.429  16.890  1.00  0.00     0.266 C 
HETATM   37  O5  UNL     1      16.396  36.180  17.896  1.00  0.00    -0.361 OA
HETATM   38  C21 UNL     1      16.934  34.572  16.363  1.00  0.00     0.075 C 
HETATM   39  C19 UNL     1      17.297  35.387  18.565  1.00  0.00     0.171 C 
HETATM   40  C20 UNL     1      17.697  34.259  17.608  1.00  0.00     0.038 C 
ENDBRANCH  32  33
ENDBRANCH  29  32
ENDBRANCH   1  28
TORSDOF 13
ENDMDL
