MODEL 1
REMARK VINA RESULT: -9.059264042      0.000      0.000
REMARK  13 active torsions:
REMARK  status: ('A' for Active; 'I' for Inactive)
REMARK    1  A    between atoms: C2_2  and  C4_4 
REMARK    2  A    between atoms: C4_4  and  N1_5 
REMARK    3  A    between atoms: N1_5  and  C5_6 
REMARK    4  A    between atoms: N1_5  and  S1_31 
REMARK    5  A    between atoms: C5_6  and  C6_7 
REMARK    6  A    between atoms: C6_7  and  O1_8 
REMARK    7  A    between atoms: C6_7  and  C7_10 
REMARK    8  A    between atoms: C7_10  and  C8_11 
REMARK    9  A    between atoms: C7_10  and  N2_18 
REMARK   10  A    between atoms: C8_11  and  C9_12 
REMARK       I    between atoms: N2_18  and  C15_20 
REMARK   11  A    between atoms: C15_20  and  O3_22 
REMARK   12  A    between atoms: O3_22  and  C16_23 
REMARK   13  A    between atoms: S1_31  and  C22_34 
ROOT
HETATM    1  C7  UNL     1      18.098  31.494  15.646  1.00  0.00     0.029 C 
ENDROOT
BRANCH   1   2
HETATM    2  C6  UNL     1      19.431  31.029  16.175  1.00  0.00     0.203 C 
BRANCH   2   3
HETATM    3  C5  UNL     1      20.325  32.096  16.662  1.00  0.00     0.119 C 
BRANCH   3   4
HETATM    4  N1  UNL     1      20.805  33.023  15.727  1.00  0.00    -0.262 N 
BRANCH   4   5
HETATM    5  C4  UNL     1      20.570  34.393  15.855  1.00  0.00     0.085 C 
BRANCH   5   6
HETATM    6  C2  UNL     1      20.825  34.979  17.239  1.00  0.00     0.017 C 
HETATM    7  C1  UNL     1      22.278  35.239  17.519  1.00  0.00     0.015 C 
HETATM    8  C3  UNL     1      20.021  36.237  17.469  1.00  0.00     0.015 C 
ENDBRANCH   5   6
ENDBRANCH   4   5
BRANCH   4   9
HETATM    9  S1  UNL     1      22.136  32.506  14.823  1.00  0.00     0.267 S 
HETATM   10  O6  UNL     1      22.576  33.661  13.936  1.00  0.00    -0.200 OA
HETATM   11  O7  UNL     1      23.310  32.100  15.703  1.00  0.00    -0.200 OA
BRANCH   9  12
HETATM   12  C22 UNL     1      21.787  31.144  13.765  1.00  0.00     0.080 A 
HETATM   13  C23 UNL     1      22.083  29.838  14.092  1.00  0.00     0.027 A 
HETATM   14  C24 UNL     1      21.803  28.785  13.242  1.00  0.00     0.028 A 
HETATM   15  C25 UNL     1      21.208  29.005  12.018  1.00  0.00     0.046 A 
HETATM   16  N3  UNL     1      20.916  27.910  11.130  1.00  0.00    -0.102 NA
HETATM   17  C26 UNL     1      20.906  30.303  11.675  1.00  0.00     0.028 A 
HETATM   18  C27 UNL     1      21.187  31.348  12.526  1.00  0.00     0.027 A 
ENDBRANCH   9  12
ENDBRANCH   4   9
ENDBRANCH   3   4
ENDBRANCH   2   3
BRANCH   2  19
HETATM   19  O1  UNL     1      19.131  30.179  17.267  1.00  0.00    -0.385 OA
ATOM     20  H1  UNL     1      18.552  29.494  16.953  1.00  0.00     0.211 HD
ENDBRANCH   2  19
ENDBRANCH   1   2
BRANCH   1  21
HETATM   21  C8  UNL     1      18.025  31.485  14.144  1.00  0.00     0.094 C 
BRANCH  21  22
HETATM   22  C9  UNL     1      17.887  30.166  13.525  1.00  0.00    -0.053 A 
HETATM   23  C10 UNL     1      17.417  30.089  12.214  1.00  0.00     0.007 A 
HETATM   24  C11 UNL     1      17.217  28.912  11.543  1.00  0.00     0.001 A 
HETATM   25  C12 UNL     1      17.497  27.725  12.194  1.00  0.00     0.000 A 
HETATM   26  C13 UNL     1      17.962  27.751  13.486  1.00  0.00     0.001 A 
HETATM   27  C14 UNL     1      18.151  28.981  14.136  1.00  0.00     0.007 A 
ENDBRANCH  21  22
ENDBRANCH   1  21
BRANCH   1  28
HETATM   28  N2  UNL     1      17.507  32.568  16.340  1.00  0.00    -0.307 N 
HETATM   29  C15 UNL     1      16.116  32.820  16.419  1.00  0.00     0.365 C 
HETATM   30  O2  UNL     1      15.319  32.070  15.843  1.00  0.00    -0.238 OA
ATOM     31  H2  UNL     1      18.130  33.214  16.825  1.00  0.00     0.170 HD
BRANCH  29  32
HETATM   32  O3  UNL     1      15.621  33.911  17.141  1.00  0.00    -0.296 OA
BRANCH  32  33
HETATM   33  C16 UNL     1      16.465  34.985  17.524  1.00  0.00     0.166 C 
HETATM   34  C17 UNL     1      16.506  36.064  16.494  1.00  0.00     0.204 C 
HETATM   35  O4  UNL     1      16.414  37.283  17.112  1.00  0.00    -0.358 OA
HETATM   36  C18 UNL     1      16.316  37.097  18.482  1.00  0.00     0.266 C 
HETATM   37  O5  UNL     1      15.344  37.897  19.069  1.00  0.00    -0.361 OA
HETATM   38  C21 UNL     1      15.793  35.689  18.685  1.00  0.00     0.075 C 
HETATM   39  C19 UNL     1      14.108  37.360  18.801  1.00  0.00     0.171 C 
HETATM   40  C20 UNL     1      14.322  35.871  18.506  1.00  0.00     0.038 C 
ENDBRANCH  32  33
ENDBRANCH  29  32
ENDBRANCH   1  28
TORSDOF 13
ENDMDL
