MODEL 5
REMARK VINA RESULT: -8.459596505      3.609      6.423
REMARK  13 active torsions:
REMARK  status: ('A' for Active; 'I' for Inactive)
REMARK    1  A    between atoms: C2_2  and  C4_4 
REMARK    2  A    between atoms: C4_4  and  N1_5 
REMARK    3  A    between atoms: N1_5  and  C5_6 
REMARK    4  A    between atoms: N1_5  and  S1_31 
REMARK    5  A    between atoms: C5_6  and  C6_7 
REMARK    6  A    between atoms: C6_7  and  O1_8 
REMARK    7  A    between atoms: C6_7  and  C7_10 
REMARK    8  A    between atoms: C7_10  and  C8_11 
REMARK    9  A    between atoms: C7_10  and  N2_18 
REMARK   10  A    between atoms: C8_11  and  C9_12 
REMARK       I    between atoms: N2_18  and  C15_20 
REMARK   11  A    between atoms: C15_20  and  O3_22 
REMARK   12  A    between atoms: O3_22  and  C16_23 
REMARK   13  A    between atoms: S1_31  and  C22_34 
ROOT
HETATM    1  C7  UNL     1      20.678  30.794  12.768  1.00  0.00     0.029 C 
ENDROOT
BRANCH   1   2
HETATM    2  C6  UNL     1      20.323  29.645  11.859  1.00  0.00     0.203 C 
BRANCH   2   3
HETATM    3  C5  UNL     1      20.497  28.302  12.440  1.00  0.00     0.119 C 
BRANCH   3   4
HETATM    4  N1  UNL     1      20.810  27.249  11.570  1.00  0.00    -0.262 N 
BRANCH   4   5
HETATM    5  C4  UNL     1      22.048  26.606  11.600  1.00  0.00     0.085 C 
BRANCH   5   6
HETATM    6  C2  UNL     1      23.266  27.520  11.566  1.00  0.00     0.017 C 
HETATM    7  C1  UNL     1      24.554  26.812  11.879  1.00  0.00     0.015 C 
HETATM    8  C3  UNL     1      23.383  28.246  10.246  1.00  0.00     0.015 C 
ENDBRANCH   5   6
ENDBRANCH   4   5
BRANCH   4   9
HETATM    9  S1  UNL     1      19.479  26.423  10.936  1.00  0.00     0.267 S 
HETATM   10  O6  UNL     1      19.672  24.940  11.216  1.00  0.00    -0.200 OA
HETATM   11  O7  UNL     1      18.168  26.866  11.572  1.00  0.00    -0.200 OA
BRANCH   9  12
HETATM   12  C22 UNL     1      19.297  26.603   9.195  1.00  0.00     0.080 A 
HETATM   13  C23 UNL     1      18.567  27.617   8.613  1.00  0.00     0.027 A 
HETATM   14  C24 UNL     1      18.435  27.735   7.242  1.00  0.00     0.028 A 
HETATM   15  C25 UNL     1      19.036  26.830   6.395  1.00  0.00     0.046 A 
HETATM   16  N3  UNL     1      18.900  26.950   4.967  1.00  0.00    -0.102 NA
HETATM   17  C26 UNL     1      19.768  25.810   6.960  1.00  0.00     0.028 A 
HETATM   18  C27 UNL     1      19.897  25.698   8.325  1.00  0.00     0.027 A 
ENDBRANCH   9  12
ENDBRANCH   4   9
ENDBRANCH   3   4
ENDBRANCH   2   3
BRANCH   2  19
HETATM   19  O1  UNL     1      18.951  29.814  11.552  1.00  0.00    -0.385 OA
ATOM     20  H1  UNL     1      18.888  30.129  10.657  1.00  0.00     0.211 HD
ENDBRANCH   2  19
ENDBRANCH   1   2
BRANCH   1  21
HETATM   21  C8  UNL     1      21.571  30.389  13.908  1.00  0.00     0.094 C 
BRANCH  21  22
HETATM   22  C9  UNL     1      21.950  31.462  14.827  1.00  0.00    -0.053 A 
HETATM   23  C10 UNL     1      23.009  32.301  14.476  1.00  0.00     0.007 A 
HETATM   24  C11 UNL     1      23.472  33.317  15.267  1.00  0.00     0.001 A 
HETATM   25  C12 UNL     1      22.861  33.535  16.489  1.00  0.00     0.000 A 
HETATM   26  C13 UNL     1      21.815  32.735  16.878  1.00  0.00     0.001 A 
HETATM   27  C14 UNL     1      21.372  31.703  16.034  1.00  0.00     0.007 A 
ENDBRANCH  21  22
ENDBRANCH   1  21
BRANCH   1  28
HETATM   28  N2  UNL     1      19.640  31.713  13.022  1.00  0.00    -0.307 N 
HETATM   29  C15 UNL     1      18.536  31.478  13.879  1.00  0.00     0.365 C 
HETATM   30  O2  UNL     1      18.429  30.394  14.465  1.00  0.00    -0.238 OA
ATOM     31  H2  UNL     1      19.687  32.617  12.554  1.00  0.00     0.170 HD
BRANCH  29  32
HETATM   32  O3  UNL     1      17.556  32.456  14.075  1.00  0.00    -0.296 OA
BRANCH  32  33
HETATM   33  C16 UNL     1      17.742  33.510  15.006  1.00  0.00     0.166 C 
HETATM   34  C17 UNL     1      17.039  34.759  14.590  1.00  0.00     0.204 C 
HETATM   35  O4  UNL     1      16.407  35.304  15.676  1.00  0.00    -0.358 OA
HETATM   36  C18 UNL     1      16.639  34.512  16.789  1.00  0.00     0.266 C 
HETATM   37  O5  UNL     1      15.496  34.295  17.547  1.00  0.00    -0.361 OA
HETATM   38  C21 UNL     1      16.989  33.134  16.265  1.00  0.00     0.075 C 
HETATM   39  C19 UNL     1      14.715  33.360  16.912  1.00  0.00     0.171 C 
HETATM   40  C20 UNL     1      15.642  32.544  16.005  1.00  0.00     0.038 C 
ENDBRANCH  32  33
ENDBRANCH  29  32
ENDBRANCH   1  28
TORSDOF 13
ENDMDL
