MODEL 3
REMARK VINA RESULT: -8.741837030      2.978      8.490
REMARK  13 active torsions:
REMARK  status: ('A' for Active; 'I' for Inactive)
REMARK    1  A    between atoms: C2_2  and  C4_4 
REMARK    2  A    between atoms: C4_4  and  N1_5 
REMARK    3  A    between atoms: N1_5  and  C5_6 
REMARK    4  A    between atoms: N1_5  and  S1_31 
REMARK    5  A    between atoms: C5_6  and  C6_7 
REMARK    6  A    between atoms: C6_7  and  O1_8 
REMARK    7  A    between atoms: C6_7  and  C7_10 
REMARK    8  A    between atoms: C7_10  and  C8_11 
REMARK    9  A    between atoms: C7_10  and  N2_18 
REMARK   10  A    between atoms: C8_11  and  C9_12 
REMARK       I    between atoms: N2_18  and  C15_20 
REMARK   11  A    between atoms: C15_20  and  O3_22 
REMARK   12  A    between atoms: O3_22  and  C16_23 
REMARK   13  A    between atoms: S1_31  and  C22_34 
ROOT
HETATM    1  C7  UNL     1      19.610  30.243  14.773  1.00  0.00     0.029 C 
ENDROOT
BRANCH   1   2
HETATM    2  C6  UNL     1      19.680  30.905  16.126  1.00  0.00     0.203 C 
BRANCH   2   3
HETATM    3  C5  UNL     1      18.488  31.681  16.513  1.00  0.00     0.119 C 
BRANCH   3   4
HETATM    4  N1  UNL     1      18.486  33.055  16.237  1.00  0.00    -0.262 N 
BRANCH   4   5
HETATM    5  C4  UNL     1      19.664  33.765  16.002  1.00  0.00     0.085 C 
BRANCH   5   6
HETATM    6  C2  UNL     1      20.373  34.294  17.242  1.00  0.00     0.017 C 
HETATM    7  C1  UNL     1      21.827  33.920  17.304  1.00  0.00     0.015 C 
HETATM    8  C3  UNL     1      20.220  35.791  17.378  1.00  0.00     0.015 C 
ENDBRANCH   5   6
ENDBRANCH   4   5
BRANCH   4   9
HETATM    9  S1  UNL     1      17.033  33.660  15.620  1.00  0.00     0.267 S 
HETATM   10  O6  UNL     1      17.343  34.383  14.318  1.00  0.00    -0.200 OA
HETATM   11  O7  UNL     1      16.025  32.557  15.330  1.00  0.00    -0.200 OA
BRANCH   9  12
HETATM   12  C22 UNL     1      16.242  34.819  16.682  1.00  0.00     0.080 A 
HETATM   13  C23 UNL     1      15.179  34.493  17.497  1.00  0.00     0.027 A 
HETATM   14  C24 UNL     1      14.570  35.423  18.319  1.00  0.00     0.028 A 
HETATM   15  C25 UNL     1      15.010  36.728  18.355  1.00  0.00     0.046 A 
HETATM   16  N3  UNL     1      14.377  37.699  19.209  1.00  0.00    -0.102 NA
HETATM   17  C26 UNL     1      16.070  37.071  17.546  1.00  0.00     0.028 A 
HETATM   18  C27 UNL     1      16.673  36.141  16.730  1.00  0.00     0.027 A 
ENDBRANCH   9  12
ENDBRANCH   4   9
ENDBRANCH   3   4
ENDBRANCH   2   3
BRANCH   2  19
HETATM   19  O1  UNL     1      19.835  29.849  17.057  1.00  0.00    -0.385 OA
ATOM     20  H1  UNL     1      19.699  29.030  16.596  1.00  0.00     0.211 HD
ENDBRANCH   2  19
ENDBRANCH   1   2
BRANCH   1  21
HETATM   21  C8  UNL     1      18.205  29.906  14.355  1.00  0.00     0.094 C 
BRANCH  21  22
HETATM   22  C9  UNL     1      18.086  28.983  13.227  1.00  0.00    -0.053 A 
HETATM   23  C10 UNL     1      18.166  29.495  11.931  1.00  0.00     0.007 A 
HETATM   24  C11 UNL     1      18.038  28.734  10.800  1.00  0.00     0.001 A 
HETATM   25  C12 UNL     1      17.816  27.376  10.939  1.00  0.00     0.000 A 
HETATM   26  C13 UNL     1      17.729  26.826  12.194  1.00  0.00     0.001 A 
HETATM   27  C14 UNL     1      17.866  27.644  13.327  1.00  0.00     0.007 A 
ENDBRANCH  21  22
ENDBRANCH   1  21
BRANCH   1  28
HETATM   28  N2  UNL     1      20.634  29.316  14.495  1.00  0.00    -0.307 N 
HETATM   29  C15 UNL     1      21.574  29.433  13.442  1.00  0.00     0.365 C 
HETATM   30  O2  UNL     1      21.528  30.404  12.678  1.00  0.00    -0.238 OA
ATOM     31  H2  UNL     1      20.704  28.497  15.099  1.00  0.00     0.170 HD
BRANCH  29  32
HETATM   32  O3  UNL     1      22.563  28.463  13.248  1.00  0.00    -0.296 OA
BRANCH  32  33
HETATM   33  C16 UNL     1      23.175  28.276  11.982  1.00  0.00     0.166 C 
HETATM   34  C17 UNL     1      24.307  27.305  12.042  1.00  0.00     0.204 C 
HETATM   35  O4  UNL     1      24.230  26.456  10.970  1.00  0.00    -0.358 OA
HETATM   36  C18 UNL     1      23.130  26.790  10.197  1.00  0.00     0.266 C 
HETATM   37  O5  UNL     1      22.394  25.682   9.795  1.00  0.00    -0.361 OA
HETATM   38  C21 UNL     1      22.181  27.540  11.108  1.00  0.00     0.075 C 
HETATM   39  C19 UNL     1      21.645  25.240  10.859  1.00  0.00     0.171 C 
HETATM   40  C20 UNL     1      21.472  26.428  11.810  1.00  0.00     0.038 C 
ENDBRANCH  32  33
ENDBRANCH  29  32
ENDBRANCH   1  28
TORSDOF 13
ENDMDL
