MODEL 1
REMARK VINA RESULT: -9.035400203      0.000      0.000
REMARK  13 active torsions:
REMARK  status: ('A' for Active; 'I' for Inactive)
REMARK    1  A    between atoms: C2_2  and  C4_4 
REMARK    2  A    between atoms: C4_4  and  N1_5 
REMARK    3  A    between atoms: N1_5  and  C5_6 
REMARK    4  A    between atoms: N1_5  and  S1_31 
REMARK    5  A    between atoms: C5_6  and  C6_7 
REMARK    6  A    between atoms: C6_7  and  O1_8 
REMARK    7  A    between atoms: C6_7  and  C7_10 
REMARK    8  A    between atoms: C7_10  and  C8_11 
REMARK    9  A    between atoms: C7_10  and  N2_18 
REMARK   10  A    between atoms: C8_11  and  C9_12 
REMARK       I    between atoms: N2_18  and  C15_20 
REMARK   11  A    between atoms: C15_20  and  O3_22 
REMARK   12  A    between atoms: O3_22  and  C16_23 
REMARK   13  A    between atoms: S1_31  and  C22_34 
ROOT
HETATM    1  C7  UNL     1      18.194  31.444  15.498  1.00  0.00     0.029 C 
ENDROOT
BRANCH   1   2
HETATM    2  C6  UNL     1      19.495  30.985  16.106  1.00  0.00     0.203 C 
BRANCH   2   3
HETATM    3  C5  UNL     1      20.386  32.059  16.581  1.00  0.00     0.119 C 
BRANCH   3   4
HETATM    4  N1  UNL     1      20.902  32.948  15.629  1.00  0.00    -0.262 N 
BRANCH   4   5
HETATM    5  C4  UNL     1      20.687  34.325  15.709  1.00  0.00     0.085 C 
BRANCH   5   6
HETATM    6  C2  UNL     1      20.955  34.956  17.070  1.00  0.00     0.017 C 
HETATM    7  C1  UNL     1      22.408  35.244  17.319  1.00  0.00     0.015 C 
HETATM    8  C3  UNL     1      20.138  36.210  17.275  1.00  0.00     0.015 C 
ENDBRANCH   5   6
ENDBRANCH   4   5
BRANCH   4   9
HETATM    9  S1  UNL     1      22.243  32.382  14.772  1.00  0.00     0.267 S 
HETATM   10  O6  UNL     1      22.721  33.501  13.858  1.00  0.00    -0.200 OA
HETATM   11  O7  UNL     1      23.392  31.987  15.690  1.00  0.00    -0.200 OA
BRANCH   9  12
HETATM   12  C22 UNL     1      21.895  30.992  13.751  1.00  0.00     0.080 A 
HETATM   13  C23 UNL     1      22.141  29.691  14.136  1.00  0.00     0.027 A 
HETATM   14  C24 UNL     1      21.864  28.615  13.314  1.00  0.00     0.028 A 
HETATM   15  C25 UNL     1      21.323  28.806  12.061  1.00  0.00     0.046 A 
HETATM   16  N3  UNL     1      21.033  27.687  11.202  1.00  0.00    -0.102 NA
HETATM   17  C26 UNL     1      21.071  30.098  11.660  1.00  0.00     0.028 A 
HETATM   18  C27 UNL     1      21.349  31.166  12.483  1.00  0.00     0.027 A 
ENDBRANCH   9  12
ENDBRANCH   4   9
ENDBRANCH   3   4
ENDBRANCH   2   3
BRANCH   2  19
HETATM   19  O1  UNL     1      19.133  30.192  17.223  1.00  0.00    -0.385 OA
ATOM     20  H1  UNL     1      19.568  29.352  17.139  1.00  0.00     0.211 HD
ENDBRANCH   2  19
ENDBRANCH   1   2
BRANCH   1  21
HETATM   21  C8  UNL     1      18.188  31.370  13.996  1.00  0.00     0.094 C 
BRANCH  21  22
HETATM   22  C9  UNL     1      17.951  30.043  13.429  1.00  0.00    -0.053 A 
HETATM   23  C10 UNL     1      17.355  29.949  12.171  1.00  0.00     0.007 A 
HETATM   24  C11 UNL     1      17.057  28.764  11.554  1.00  0.00     0.001 A 
HETATM   25  C12 UNL     1      17.361  27.584  12.208  1.00  0.00     0.000 A 
HETATM   26  C13 UNL     1      17.948  27.625  13.449  1.00  0.00     0.001 A 
HETATM   27  C14 UNL     1      18.236  28.864  14.045  1.00  0.00     0.007 A 
ENDBRANCH  21  22
ENDBRANCH   1  21
BRANCH   1  28
HETATM   28  N2  UNL     1      17.591  32.556  16.119  1.00  0.00    -0.307 N 
HETATM   29  C15 UNL     1      16.201  32.829  16.127  1.00  0.00     0.365 C 
HETATM   30  O2  UNL     1      15.418  32.064  15.552  1.00  0.00    -0.238 OA
ATOM     31  H2  UNL     1      18.202  33.215  16.600  1.00  0.00     0.170 HD
BRANCH  29  32
HETATM   32  O3  UNL     1      15.693  33.958  16.778  1.00  0.00    -0.296 OA
BRANCH  32  33
HETATM   33  C16 UNL     1      16.551  34.977  17.266  1.00  0.00     0.166 C 
HETATM   34  C17 UNL     1      16.626  36.142  16.336  1.00  0.00     0.204 C 
HETATM   35  O4  UNL     1      16.548  37.302  17.059  1.00  0.00    -0.358 OA
HETATM   36  C18 UNL     1      16.429  36.998  18.405  1.00  0.00     0.266 C 
HETATM   37  O5  UNL     1      15.464  37.762  19.050  1.00  0.00    -0.361 OA
HETATM   38  C21 UNL     1      15.877  35.589  18.476  1.00  0.00     0.075 C 
HETATM   39  C19 UNL     1      14.222  37.275  18.720  1.00  0.00     0.171 C 
HETATM   40  C20 UNL     1      14.412  35.815  18.297  1.00  0.00     0.038 C 
ENDBRANCH  32  33
ENDBRANCH  29  32
ENDBRANCH   1  28
TORSDOF 13
ENDMDL
