MODEL 6
REMARK VINA RESULT: -8.615361178      1.237      4.227
REMARK  13 active torsions:
REMARK  status: ('A' for Active; 'I' for Inactive)
REMARK    1  A    between atoms: C2_2  and  C4_4 
REMARK    2  A    between atoms: C4_4  and  N1_5 
REMARK    3  A    between atoms: N1_5  and  C5_6 
REMARK    4  A    between atoms: N1_5  and  S1_31 
REMARK    5  A    between atoms: C5_6  and  C6_7 
REMARK    6  A    between atoms: C6_7  and  O1_8 
REMARK    7  A    between atoms: C6_7  and  C7_10 
REMARK    8  A    between atoms: C7_10  and  C8_11 
REMARK    9  A    between atoms: C7_10  and  N2_18 
REMARK   10  A    between atoms: C8_11  and  C9_12 
REMARK       I    between atoms: N2_18  and  C15_20 
REMARK   11  A    between atoms: C15_20  and  O3_22 
REMARK   12  A    between atoms: O3_22  and  C16_23 
REMARK   13  A    between atoms: S1_31  and  C22_34 
ROOT
HETATM    1  C7  UNL     1      17.702  31.384  14.494  1.00  0.00     0.029 C 
ENDROOT
BRANCH   1   2
HETATM    2  C6  UNL     1      18.847  30.853  15.319  1.00  0.00     0.203 C 
BRANCH   2   3
HETATM    3  C5  UNL     1      19.963  31.792  15.533  1.00  0.00     0.119 C 
BRANCH   3   4
HETATM    4  N1  UNL     1      21.104  31.644  14.733  1.00  0.00    -0.262 N 
BRANCH   4   5
HETATM    5  C4  UNL     1      21.056  31.027  13.482  1.00  0.00     0.085 C 
BRANCH   5   6
HETATM    6  C2  UNL     1      21.943  29.799  13.319  1.00  0.00     0.017 C 
HETATM    7  C1  UNL     1      21.617  28.694  14.284  1.00  0.00     0.015 C 
HETATM    8  C3  UNL     1      21.914  29.273  11.903  1.00  0.00     0.015 C 
ENDBRANCH   5   6
ENDBRANCH   4   5
BRANCH   4   9
HETATM    9  S1  UNL     1      22.352  32.737  15.054  1.00  0.00     0.267 S 
HETATM   10  O6  UNL     1      23.537  31.949  15.593  1.00  0.00    -0.200 OA
HETATM   11  O7  UNL     1      22.799  33.487  13.807  1.00  0.00    -0.200 OA
BRANCH   9  12
HETATM   12  C22 UNL     1      21.940  33.945  16.265  1.00  0.00     0.080 A 
HETATM   13  C23 UNL     1      21.257  35.107  15.972  1.00  0.00     0.027 A 
HETATM   14  C24 UNL     1      20.949  36.044  16.940  1.00  0.00     0.028 A 
HETATM   15  C25 UNL     1      21.318  35.849  18.253  1.00  0.00     0.046 A 
HETATM   16  N3  UNL     1      21.000  36.824  19.264  1.00  0.00    -0.102 NA
HETATM   17  C26 UNL     1      22.002  34.695  18.564  1.00  0.00     0.028 A 
HETATM   18  C27 UNL     1      22.306  33.765  17.596  1.00  0.00     0.027 A 
ENDBRANCH   9  12
ENDBRANCH   4   9
ENDBRANCH   3   4
ENDBRANCH   2   3
BRANCH   2  19
HETATM   19  O1  UNL     1      18.290  30.541  16.584  1.00  0.00    -0.385 OA
ATOM     20  H1  UNL     1      17.462  30.099  16.438  1.00  0.00     0.211 HD
ENDBRANCH   2  19
ENDBRANCH   1   2
BRANCH   1  21
HETATM   21  C8  UNL     1      17.830  31.059  13.032  1.00  0.00     0.094 C 
BRANCH  21  22
HETATM   22  C9  UNL     1      17.554  29.670  12.666  1.00  0.00    -0.053 A 
HETATM   23  C10 UNL     1      16.674  29.418  11.613  1.00  0.00     0.007 A 
HETATM   24  C11 UNL     1      16.315  28.162  11.202  1.00  0.00     0.001 A 
HETATM   25  C12 UNL     1      16.853  27.072  11.863  1.00  0.00     0.000 A 
HETATM   26  C13 UNL     1      17.724  27.270  12.905  1.00  0.00     0.001 A 
HETATM   27  C14 UNL     1      18.063  28.576  13.294  1.00  0.00     0.007 A 
ENDBRANCH  21  22
ENDBRANCH   1  21
BRANCH   1  28
HETATM   28  N2  UNL     1      17.229  32.660  14.860  1.00  0.00    -0.307 N 
HETATM   29  C15 UNL     1      16.080  32.906  15.651  1.00  0.00     0.365 C 
HETATM   30  O2  UNL     1      15.405  31.958  16.071  1.00  0.00    -0.238 OA
ATOM     31  H2  UNL     1      17.754  33.469  14.529  1.00  0.00     0.170 HD
BRANCH  29  32
HETATM   32  O3  UNL     1      15.691  34.211  15.970  1.00  0.00    -0.296 OA
BRANCH  32  33
HETATM   33  C16 UNL     1      16.465  35.019  16.841  1.00  0.00     0.166 C 
HETATM   34  C17 UNL     1      16.652  36.401  16.309  1.00  0.00     0.204 C 
HETATM   35  O4  UNL     1      16.465  37.304  17.321  1.00  0.00    -0.358 OA
HETATM   36  C18 UNL     1      16.169  36.626  18.493  1.00  0.00     0.266 C 
HETATM   37  O5  UNL     1      15.118  37.199  19.199  1.00  0.00    -0.361 OA
HETATM   38  C21 UNL     1      15.627  35.274  18.077  1.00  0.00     0.075 C 
HETATM   39  C19 UNL     1      13.937  36.865  18.581  1.00  0.00     0.171 C 
HETATM   40  C20 UNL     1      14.197  35.585  17.780  1.00  0.00     0.038 C 
ENDBRANCH  32  33
ENDBRANCH  29  32
ENDBRANCH   1  28
TORSDOF 13
ENDMDL
