MODEL 4
REMARK VINA RESULT: -8.838602449      3.036      8.535
REMARK  13 active torsions:
REMARK  status: ('A' for Active; 'I' for Inactive)
REMARK    1  A    between atoms: C2_2  and  C4_4 
REMARK    2  A    between atoms: C4_4  and  N1_5 
REMARK    3  A    between atoms: N1_5  and  C5_6 
REMARK    4  A    between atoms: N1_5  and  S1_31 
REMARK    5  A    between atoms: C5_6  and  C6_7 
REMARK    6  A    between atoms: C6_7  and  O1_8 
REMARK    7  A    between atoms: C6_7  and  C7_10 
REMARK    8  A    between atoms: C7_10  and  C8_11 
REMARK    9  A    between atoms: C7_10  and  N2_18 
REMARK   10  A    between atoms: C8_11  and  C9_12 
REMARK       I    between atoms: N2_18  and  C15_20 
REMARK   11  A    between atoms: C15_20  and  O3_22 
REMARK   12  A    between atoms: O3_22  and  C16_23 
REMARK   13  A    between atoms: S1_31  and  C22_34 
ROOT
HETATM    1  C7  UNL     1      19.574  30.312  14.435  1.00  0.00     0.029 C 
ENDROOT
BRANCH   1   2
HETATM    2  C6  UNL     1      19.842  30.866  15.811  1.00  0.00     0.203 C 
BRANCH   2   3
HETATM    3  C5  UNL     1      18.745  31.657  16.399  1.00  0.00     0.119 C 
BRANCH   3   4
HETATM    4  N1  UNL     1      18.692  33.024  16.099  1.00  0.00    -0.262 N 
BRANCH   4   5
HETATM    5  C4  UNL     1      19.843  33.773  15.848  1.00  0.00     0.085 C 
BRANCH   5   6
HETATM    6  C2  UNL     1      20.587  34.270  17.081  1.00  0.00     0.017 C 
HETATM    7  C1  UNL     1      21.969  33.695  17.217  1.00  0.00     0.015 C 
HETATM    8  C3  UNL     1      20.648  35.779  17.127  1.00  0.00     0.015 C 
ENDBRANCH   5   6
ENDBRANCH   4   5
BRANCH   4   9
HETATM    9  S1  UNL     1      17.217  33.564  15.474  1.00  0.00     0.267 S 
HETATM   10  O6  UNL     1      17.495  34.245  14.142  1.00  0.00    -0.200 OA
HETATM   11  O7  UNL     1      16.237  32.423  15.238  1.00  0.00    -0.200 OA
BRANCH   9  12
HETATM   12  C22 UNL     1      16.403  34.741  16.498  1.00  0.00     0.080 A 
HETATM   13  C23 UNL     1      16.924  35.986  16.780  1.00  0.00     0.027 A 
HETATM   14  C24 UNL     1      16.269  36.892  17.592  1.00  0.00     0.028 A 
HETATM   15  C25 UNL     1      15.051  36.580  18.158  1.00  0.00     0.046 A 
HETATM   16  N3  UNL     1      14.366  37.521  19.004  1.00  0.00    -0.102 NA
HETATM   17  C26 UNL     1      14.516  35.341  17.887  1.00  0.00     0.028 A 
HETATM   18  C27 UNL     1      15.174  34.442  17.078  1.00  0.00     0.027 A 
ENDBRANCH   9  12
ENDBRANCH   4   9
ENDBRANCH   3   4
ENDBRANCH   2   3
BRANCH   2  19
HETATM   19  O1  UNL     1      20.059  29.738  16.639  1.00  0.00    -0.385 OA
ATOM     20  H1  UNL     1      20.666  29.159  16.192  1.00  0.00     0.211 HD
ENDBRANCH   2  19
ENDBRANCH   1   2
BRANCH   1  21
HETATM   21  C8  UNL     1      18.138  29.914  14.229  1.00  0.00     0.094 C 
BRANCH  21  22
HETATM   22  C9  UNL     1      17.892  28.980  13.131  1.00  0.00    -0.053 A 
HETATM   23  C10 UNL     1      17.689  29.492  11.849  1.00  0.00     0.007 A 
HETATM   24  C11 UNL     1      17.420  28.719  10.752  1.00  0.00     0.001 A 
HETATM   25  C12 UNL     1      17.343  27.348  10.913  1.00  0.00     0.000 A 
HETATM   26  C13 UNL     1      17.536  26.797  12.156  1.00  0.00     0.001 A 
HETATM   27  C14 UNL     1      17.809  27.628  13.254  1.00  0.00     0.007 A 
ENDBRANCH  21  22
ENDBRANCH   1  21
BRANCH   1  28
HETATM   28  N2  UNL     1      20.583  29.483  13.905  1.00  0.00    -0.307 N 
HETATM   29  C15 UNL     1      21.368  29.783  12.764  1.00  0.00     0.365 C 
HETATM   30  O2  UNL     1      21.184  30.840  12.149  1.00  0.00    -0.238 OA
ATOM     31  H2  UNL     1      20.762  28.598  14.380  1.00  0.00     0.170 HD
BRANCH  29  32
HETATM   32  O3  UNL     1      22.354  28.899  12.317  1.00  0.00    -0.296 OA
BRANCH  32  33
HETATM   33  C16 UNL     1      22.117  27.502  12.249  1.00  0.00     0.166 C 
HETATM   34  C17 UNL     1      21.175  27.143  11.148  1.00  0.00     0.204 C 
HETATM   35  O4  UNL     1      21.653  26.043  10.486  1.00  0.00    -0.358 OA
HETATM   36  C18 UNL     1      22.844  25.639  11.066  1.00  0.00     0.266 C 
HETATM   37  O5  UNL     1      23.824  25.328  10.131  1.00  0.00    -0.361 OA
HETATM   38  C21 UNL     1      23.403  26.851  11.782  1.00  0.00     0.075 C 
HETATM   39  C19 UNL     1      24.342  26.497   9.629  1.00  0.00     0.171 C 
HETATM   40  C20 UNL     1      24.079  27.588  10.673  1.00  0.00     0.038 C 
ENDBRANCH  32  33
ENDBRANCH  29  32
ENDBRANCH   1  28
TORSDOF 13
ENDMDL
