MODEL 3
REMARK VINA RESULT: -8.930051523      3.091      8.648
REMARK  13 active torsions:
REMARK  status: ('A' for Active; 'I' for Inactive)
REMARK    1  A    between atoms: C2_2  and  C4_4 
REMARK    2  A    between atoms: C4_4  and  N1_5 
REMARK    3  A    between atoms: N1_5  and  C5_6 
REMARK    4  A    between atoms: N1_5  and  S1_31 
REMARK    5  A    between atoms: C5_6  and  C6_7 
REMARK    6  A    between atoms: C6_7  and  O1_8 
REMARK    7  A    between atoms: C6_7  and  C7_10 
REMARK    8  A    between atoms: C7_10  and  C8_11 
REMARK    9  A    between atoms: C7_10  and  N2_18 
REMARK   10  A    between atoms: C8_11  and  C9_12 
REMARK       I    between atoms: N2_18  and  C15_20 
REMARK   11  A    between atoms: C15_20  and  O3_22 
REMARK   12  A    between atoms: O3_22  and  C16_23 
REMARK   13  A    between atoms: S1_31  and  C22_34 
ROOT
HETATM    1  C7  UNL     1      19.678  29.623  14.535  1.00  0.00     0.029 C 
ENDROOT
BRANCH   1   2
HETATM    2  C6  UNL     1      19.920  30.319  15.850  1.00  0.00     0.203 C 
BRANCH   2   3
HETATM    3  C5  UNL     1      18.839  31.217  16.299  1.00  0.00     0.119 C 
BRANCH   3   4
HETATM    4  N1  UNL     1      18.913  32.565  15.925  1.00  0.00    -0.262 N 
BRANCH   4   5
HETATM    5  C4  UNL     1      20.123  33.177  15.595  1.00  0.00     0.085 C 
BRANCH   5   6
HETATM    6  C2  UNL     1      20.876  33.816  16.755  1.00  0.00     0.017 C 
HETATM    7  C1  UNL     1      22.161  33.114  17.091  1.00  0.00     0.015 C 
HETATM    8  C3  UNL     1      21.139  35.284  16.510  1.00  0.00     0.015 C 
ENDBRANCH   5   6
ENDBRANCH   4   5
BRANCH   4   9
HETATM    9  S1  UNL     1      17.477  33.221  15.322  1.00  0.00     0.267 S 
HETATM   10  O6  UNL     1      17.830  34.116  14.144  1.00  0.00    -0.200 OA
HETATM   11  O7  UNL     1      16.510  32.149  14.840  1.00  0.00    -0.200 OA
BRANCH   9  12
HETATM   12  C22 UNL     1      16.609  34.215  16.486  1.00  0.00     0.080 A 
HETATM   13  C23 UNL     1      15.235  34.219  16.602  1.00  0.00     0.027 A 
HETATM   14  C24 UNL     1      14.575  35.012  17.521  1.00  0.00     0.028 A 
HETATM   15  C25 UNL     1      15.277  35.841  18.369  1.00  0.00     0.046 A 
HETATM   16  N3  UNL     1      14.593  36.670  19.327  1.00  0.00    -0.102 NA
HETATM   17  C26 UNL     1      16.650  35.851  18.267  1.00  0.00     0.028 A 
HETATM   18  C27 UNL     1      17.302  35.058  17.350  1.00  0.00     0.027 A 
ENDBRANCH   9  12
ENDBRANCH   4   9
ENDBRANCH   3   4
ENDBRANCH   2   3
BRANCH   2  19
HETATM   19  O1  UNL     1      20.054  29.285  16.808  1.00  0.00    -0.385 OA
ATOM     20  H1  UNL     1      20.879  29.412  17.262  1.00  0.00     0.211 HD
ENDBRANCH   2  19
ENDBRANCH   1   2
BRANCH   1  21
HETATM   21  C8  UNL     1      18.226  29.316  14.290  1.00  0.00     0.094 C 
BRANCH  21  22
HETATM   22  C9  UNL     1      17.934  28.585  13.057  1.00  0.00    -0.053 A 
HETATM   23  C10 UNL     1      17.911  29.289  11.852  1.00  0.00     0.007 A 
HETATM   24  C11 UNL     1      17.620  28.720  10.641  1.00  0.00     0.001 A 
HETATM   25  C12 UNL     1      17.331  27.368  10.599  1.00  0.00     0.000 A 
HETATM   26  C13 UNL     1      17.341  26.634  11.759  1.00  0.00     0.001 A 
HETATM   27  C14 UNL     1      17.645  27.259  12.980  1.00  0.00     0.007 A 
ENDBRANCH  21  22
ENDBRANCH   1  21
BRANCH   1  28
HETATM   28  N2  UNL     1      20.639  28.660  14.170  1.00  0.00    -0.307 N 
HETATM   29  C15 UNL     1      21.674  28.861  13.224  1.00  0.00     0.365 C 
HETATM   30  O2  UNL     1      21.778  29.947  12.644  1.00  0.00    -0.238 OA
ATOM     31  H2  UNL     1      20.585  27.747  14.622  1.00  0.00     0.170 HD
BRANCH  29  32
HETATM   32  O3  UNL     1      22.589  27.844  12.932  1.00  0.00    -0.296 OA
BRANCH  32  33
HETATM   33  C16 UNL     1      23.526  27.976  11.875  1.00  0.00     0.166 C 
HETATM   34  C17 UNL     1      24.797  27.245  12.154  1.00  0.00     0.204 C 
HETATM   35  O4  UNL     1      25.188  26.572  11.027  1.00  0.00    -0.358 OA
HETATM   36  C18 UNL     1      24.271  26.802  10.014  1.00  0.00     0.266 C 
HETATM   37  O5  UNL     1      23.932  25.649   9.318  1.00  0.00    -0.361 OA
HETATM   38  C21 UNL     1      22.978  27.206  10.692  1.00  0.00     0.075 C 
HETATM   39  C19 UNL     1      23.061  24.912  10.083  1.00  0.00     0.171 C 
HETATM   40  C20 UNL     1      22.388  25.884  11.058  1.00  0.00     0.038 C 
ENDBRANCH  32  33
ENDBRANCH  29  32
ENDBRANCH   1  28
TORSDOF 13
ENDMDL
