MODEL 5
REMARK VINA RESULT: -8.643151415      2.726      6.703
REMARK  13 active torsions:
REMARK  status: ('A' for Active; 'I' for Inactive)
REMARK    1  A    between atoms: C2_2  and  C4_4 
REMARK    2  A    between atoms: C4_4  and  N1_5 
REMARK    3  A    between atoms: N1_5  and  C5_6 
REMARK    4  A    between atoms: N1_5  and  S1_31 
REMARK    5  A    between atoms: C5_6  and  C6_7 
REMARK    6  A    between atoms: C6_7  and  O1_8 
REMARK    7  A    between atoms: C6_7  and  C7_10 
REMARK    8  A    between atoms: C7_10  and  C8_11 
REMARK    9  A    between atoms: C7_10  and  N2_18 
REMARK   10  A    between atoms: C8_11  and  C9_12 
REMARK       I    between atoms: N2_18  and  C15_20 
REMARK   11  A    between atoms: C15_20  and  O3_22 
REMARK   12  A    between atoms: O3_22  and  C16_23 
REMARK   13  A    between atoms: S1_31  and  C22_34 
ROOT
HETATM    1  C7  UNL     1      18.541  30.637  15.178  1.00  0.00     0.029 C 
ENDROOT
BRANCH   1   2
HETATM    2  C6  UNL     1      19.914  30.463  15.776  1.00  0.00     0.203 C 
BRANCH   2   3
HETATM    3  C5  UNL     1      20.500  31.675  16.378  1.00  0.00     0.119 C 
BRANCH   3   4
HETATM    4  N1  UNL     1      20.972  32.672  15.513  1.00  0.00    -0.262 N 
BRANCH   4   5
HETATM    5  C4  UNL     1      20.626  34.015  15.671  1.00  0.00     0.085 C 
BRANCH   5   6
HETATM    6  C2  UNL     1      20.740  34.561  17.089  1.00  0.00     0.017 C 
HETATM    7  C1  UNL     1      22.045  35.256  17.359  1.00  0.00     0.015 C 
HETATM    8  C3  UNL     1      19.587  35.477  17.429  1.00  0.00     0.015 C 
ENDBRANCH   5   6
ENDBRANCH   4   5
BRANCH   4   9
HETATM    9  S1  UNL     1      22.396  32.289  14.688  1.00  0.00     0.267 S 
HETATM   10  O6  UNL     1      22.743  33.464  13.785  1.00  0.00    -0.200 OA
HETATM   11  O7  UNL     1      23.565  32.048  15.634  1.00  0.00    -0.200 OA
BRANCH   9  12
HETATM   12  C22 UNL     1      22.260  30.867  13.661  1.00  0.00     0.080 A 
HETATM   13  C23 UNL     1      22.815  29.647  13.982  1.00  0.00     0.027 A 
HETATM   14  C24 UNL     1      22.699  28.544  13.157  1.00  0.00     0.028 A 
HETATM   15  C25 UNL     1      22.012  28.626  11.964  1.00  0.00     0.046 A 
HETATM   16  N3  UNL     1      21.890  27.480  11.102  1.00  0.00    -0.102 NA
HETATM   17  C26 UNL     1      21.452  29.838  11.627  1.00  0.00     0.028 A 
HETATM   18  C27 UNL     1      21.571  30.932  12.454  1.00  0.00     0.027 A 
ENDBRANCH   9  12
ENDBRANCH   4   9
ENDBRANCH   3   4
ENDBRANCH   2   3
BRANCH   2  19
HETATM   19  O1  UNL     1      19.763  29.497  16.799  1.00  0.00    -0.385 OA
ATOM     20  H1  UNL     1      18.969  29.700  17.279  1.00  0.00     0.211 HD
ENDBRANCH   2  19
ENDBRANCH   1   2
BRANCH   1  21
HETATM   21  C8  UNL     1      17.546  31.216  16.146  1.00  0.00     0.094 C 
BRANCH  21  22
HETATM   22  C9  UNL     1      17.136  32.595  15.882  1.00  0.00    -0.053 A 
HETATM   23  C10 UNL     1      17.488  33.175  14.663  1.00  0.00     0.007 A 
HETATM   24  C11 UNL     1      17.187  34.465  14.317  1.00  0.00     0.001 A 
HETATM   25  C12 UNL     1      16.493  35.248  15.222  1.00  0.00     0.000 A 
HETATM   26  C13 UNL     1      16.125  34.720  16.436  1.00  0.00     0.001 A 
HETATM   27  C14 UNL     1      16.455  33.391  16.749  1.00  0.00     0.007 A 
ENDBRANCH  21  22
ENDBRANCH   1  21
BRANCH   1  28
HETATM   28  N2  UNL     1      18.117  29.606  14.316  1.00  0.00    -0.307 N 
HETATM   29  C15 UNL     1      17.972  29.727  12.912  1.00  0.00     0.365 C 
HETATM   30  O2  UNL     1      18.219  30.803  12.356  1.00  0.00    -0.238 OA
ATOM     31  H2  UNL     1      17.897  28.703  14.736  1.00  0.00     0.170 HD
BRANCH  29  32
HETATM   32  O3  UNL     1      17.551  28.642  12.136  1.00  0.00    -0.296 OA
BRANCH  32  33
HETATM   33  C16 UNL     1      18.143  27.361  12.277  1.00  0.00     0.166 C 
HETATM   34  C17 UNL     1      17.123  26.283  12.439  1.00  0.00     0.204 C 
HETATM   35  O4  UNL     1      17.469  25.212  11.659  1.00  0.00    -0.358 OA
HETATM   36  C18 UNL     1      18.648  25.494  10.989  1.00  0.00     0.266 C 
HETATM   37  O5  UNL     1      18.612  25.123   9.650  1.00  0.00    -0.361 OA
HETATM   38  C21 UNL     1      18.761  27.004  10.941  1.00  0.00     0.075 C 
HETATM   39  C19 UNL     1      17.872  26.049   8.956  1.00  0.00     0.171 C 
HETATM   40  C20 UNL     1      17.900  27.347   9.770  1.00  0.00     0.038 C 
ENDBRANCH  32  33
ENDBRANCH  29  32
ENDBRANCH   1  28
TORSDOF 13
ENDMDL
