MODEL 7
REMARK VINA RESULT: -8.586256285      3.048      8.265
REMARK  13 active torsions:
REMARK  status: ('A' for Active; 'I' for Inactive)
REMARK    1  A    between atoms: C2_2  and  C4_4 
REMARK    2  A    between atoms: C4_4  and  N1_5 
REMARK    3  A    between atoms: N1_5  and  C5_6 
REMARK    4  A    between atoms: N1_5  and  S1_31 
REMARK    5  A    between atoms: C5_6  and  C6_7 
REMARK    6  A    between atoms: C6_7  and  O1_8 
REMARK    7  A    between atoms: C6_7  and  C7_10 
REMARK    8  A    between atoms: C7_10  and  C8_11 
REMARK    9  A    between atoms: C7_10  and  N2_18 
REMARK   10  A    between atoms: C8_11  and  C9_12 
REMARK       I    between atoms: N2_18  and  C15_20 
REMARK   11  A    between atoms: C15_20  and  O3_22 
REMARK   12  A    between atoms: O3_22  and  C16_23 
REMARK   13  A    between atoms: S1_31  and  C22_34 
ROOT
HETATM    1  C7  UNL     1      19.808  30.020  14.216  1.00  0.00     0.029 C 
ENDROOT
BRANCH   1   2
HETATM    2  C6  UNL     1      20.351  30.084  15.621  1.00  0.00     0.203 C 
BRANCH   2   3
HETATM    3  C5  UNL     1      19.800  31.161  16.464  1.00  0.00     0.119 C 
BRANCH   3   4
HETATM    4  N1  UNL     1      20.516  32.362  16.540  1.00  0.00    -0.262 N 
BRANCH   4   5
HETATM    5  C4  UNL     1      21.905  32.389  16.683  1.00  0.00     0.085 C 
BRANCH   5   6
HETATM    6  C2  UNL     1      22.685  32.829  15.451  1.00  0.00     0.017 C 
HETATM    7  C1  UNL     1      23.929  33.606  15.778  1.00  0.00     0.015 C 
HETATM    8  C3  UNL     1      23.027  31.659  14.558  1.00  0.00     0.015 C 
ENDBRANCH   5   6
ENDBRANCH   4   5
BRANCH   4   9
HETATM    9  S1  UNL     1      19.742  33.704  15.865  1.00  0.00     0.267 S 
HETATM   10  O6  UNL     1      20.693  34.888  15.956  1.00  0.00    -0.200 OA
HETATM   11  O7  UNL     1      19.382  33.486  14.402  1.00  0.00    -0.200 OA
BRANCH   9  12
HETATM   12  C22 UNL     1      18.262  34.161  16.700  1.00  0.00     0.080 A 
HETATM   13  C23 UNL     1      17.035  33.595  16.428  1.00  0.00     0.027 A 
HETATM   14  C24 UNL     1      15.885  33.974  17.094  1.00  0.00     0.028 A 
HETATM   15  C25 UNL     1      15.923  34.947  18.070  1.00  0.00     0.046 A 
HETATM   16  N3  UNL     1      14.727  35.345  18.765  1.00  0.00    -0.102 NA
HETATM   17  C26 UNL     1      17.141  35.523  18.354  1.00  0.00     0.028 A 
HETATM   18  C27 UNL     1      18.283  35.141  17.687  1.00  0.00     0.027 A 
ENDBRANCH   9  12
ENDBRANCH   4   9
ENDBRANCH   3   4
ENDBRANCH   2   3
BRANCH   2  19
HETATM   19  O1  UNL     1      20.009  28.845  16.217  1.00  0.00    -0.385 OA
ATOM     20  H1  UNL     1      20.234  28.154  15.604  1.00  0.00     0.211 HD
ENDBRANCH   2  19
ENDBRANCH   1   2
BRANCH   1  21
HETATM   21  C8  UNL     1      18.306  29.959  14.167  1.00  0.00     0.094 C 
BRANCH  21  22
HETATM   22  C9  UNL     1      17.742  29.089  13.136  1.00  0.00    -0.053 A 
HETATM   23  C10 UNL     1      17.237  29.671  11.973  1.00  0.00     0.007 A 
HETATM   24  C11 UNL     1      16.658  28.963  10.954  1.00  0.00     0.001 A 
HETATM   25  C12 UNL     1      16.564  27.588  11.075  1.00  0.00     0.000 A 
HETATM   26  C13 UNL     1      17.048  26.970  12.201  1.00  0.00     0.001 A 
HETATM   27  C14 UNL     1      17.634  27.735  13.222  1.00  0.00     0.007 A 
ENDBRANCH  21  22
ENDBRANCH   1  21
BRANCH   1  28
HETATM   28  N2  UNL     1      20.542  29.223  13.315  1.00  0.00    -0.307 N 
HETATM   29  C15 UNL     1      21.051  29.663  12.068  1.00  0.00     0.365 C 
HETATM   30  O2  UNL     1      20.855  30.825  11.697  1.00  0.00    -0.238 OA
ATOM     31  H2  UNL     1      20.722  28.255  13.582  1.00  0.00     0.170 HD
BRANCH  29  32
HETATM   32  O3  UNL     1      21.778  28.799  11.243  1.00  0.00    -0.296 OA
BRANCH  32  33
HETATM   33  C16 UNL     1      21.769  27.396  11.453  1.00  0.00     0.166 C 
HETATM   34  C17 UNL     1      21.677  26.635  10.173  1.00  0.00     0.204 C 
HETATM   35  O4  UNL     1      22.559  25.588  10.205  1.00  0.00    -0.358 OA
HETATM   36  C18 UNL     1      23.233  25.592  11.416  1.00  0.00     0.266 C 
HETATM   37  O5  UNL     1      24.598  25.374  11.277  1.00  0.00    -0.361 OA
HETATM   38  C21 UNL     1      23.148  27.009  11.946  1.00  0.00     0.075 C 
HETATM   39  C19 UNL     1      25.186  26.530  10.824  1.00  0.00     0.171 C 
HETATM   40  C20 UNL     1      24.259  27.686  11.214  1.00  0.00     0.038 C 
ENDBRANCH  32  33
ENDBRANCH  29  32
ENDBRANCH   1  28
TORSDOF 13
ENDMDL
