MODEL 2
REMARK VINA RESULT: -9.012576389      3.398      8.753
REMARK  13 active torsions:
REMARK  status: ('A' for Active; 'I' for Inactive)
REMARK    1  A    between atoms: C2_2  and  C4_4 
REMARK    2  A    between atoms: C4_4  and  N1_5 
REMARK    3  A    between atoms: N1_5  and  C5_6 
REMARK    4  A    between atoms: N1_5  and  S1_31 
REMARK    5  A    between atoms: C5_6  and  C6_7 
REMARK    6  A    between atoms: C6_7  and  O1_8 
REMARK    7  A    between atoms: C6_7  and  C7_10 
REMARK    8  A    between atoms: C7_10  and  C8_11 
REMARK    9  A    between atoms: C7_10  and  N2_18 
REMARK   10  A    between atoms: C8_11  and  C9_12 
REMARK       I    between atoms: N2_18  and  C15_20 
REMARK   11  A    between atoms: C15_20  and  O3_22 
REMARK   12  A    between atoms: O3_22  and  C16_23 
REMARK   13  A    between atoms: S1_31  and  C22_34 
ROOT
HETATM    1  C7  UNL     1      19.842  29.183  14.135  1.00  0.00     0.029 C 
ENDROOT
BRANCH   1   2
HETATM    2  C6  UNL     1      20.110  29.763  15.501  1.00  0.00     0.203 C 
BRANCH   2   3
HETATM    3  C5  UNL     1      19.117  30.742  15.978  1.00  0.00     0.119 C 
BRANCH   3   4
HETATM    4  N1  UNL     1      19.315  32.089  15.644  1.00  0.00    -0.262 N 
BRANCH   4   5
HETATM    5  C4  UNL     1      20.588  32.622  15.440  1.00  0.00     0.085 C 
BRANCH   5   6
HETATM    6  C2  UNL     1      21.159  33.428  16.601  1.00  0.00     0.017 C 
HETATM    7  C1  UNL     1      22.493  32.928  17.077  1.00  0.00     0.015 C 
HETATM    8  C3  UNL     1      21.246  34.899  16.269  1.00  0.00     0.015 C 
ENDBRANCH   5   6
ENDBRANCH   4   5
BRANCH   4   9
HETATM    9  S1  UNL     1      17.988  32.852  14.927  1.00  0.00     0.267 S 
HETATM   10  O6  UNL     1      18.518  33.891  13.951  1.00  0.00    -0.200 OA
HETATM   11  O7  UNL     1      17.105  31.877  14.161  1.00  0.00    -0.200 OA
BRANCH   9  12
HETATM   12  C22 UNL     1      16.954  33.697  16.073  1.00  0.00     0.080 A 
HETATM   13  C23 UNL     1      15.581  33.570  16.088  1.00  0.00     0.027 A 
HETATM   14  C24 UNL     1      14.788  34.248  16.995  1.00  0.00     0.028 A 
HETATM   15  C25 UNL     1      15.350  35.088  17.932  1.00  0.00     0.046 A 
HETATM   16  N3  UNL     1      14.527  35.797  18.877  1.00  0.00    -0.102 NA
HETATM   17  C26 UNL     1      16.719  35.228  17.930  1.00  0.00     0.028 A 
HETATM   18  C27 UNL     1      17.504  34.550  17.025  1.00  0.00     0.027 A 
ENDBRANCH   9  12
ENDBRANCH   4   9
ENDBRANCH   3   4
ENDBRANCH   2   3
BRANCH   2  19
HETATM   19  O1  UNL     1      20.098  28.661  16.390  1.00  0.00    -0.385 OA
ATOM     20  H1  UNL     1      19.236  28.263  16.352  1.00  0.00     0.211 HD
ENDBRANCH   2  19
ENDBRANCH   1   2
BRANCH   1  21
HETATM   21  C8  UNL     1      18.400  28.814  13.924  1.00  0.00     0.094 C 
BRANCH  21  22
HETATM   22  C9  UNL     1      18.072  28.272  12.606  1.00  0.00    -0.053 A 
HETATM   23  C10 UNL     1      17.764  26.916  12.498  1.00  0.00     0.007 A 
HETATM   24  C11 UNL     1      17.472  26.291  11.315  1.00  0.00     0.001 A 
HETATM   25  C12 UNL     1      17.480  27.040  10.153  1.00  0.00     0.000 A 
HETATM   26  C13 UNL     1      17.777  28.380  10.209  1.00  0.00     0.001 A 
HETATM   27  C14 UNL     1      18.072  28.980  11.444  1.00  0.00     0.007 A 
ENDBRANCH  21  22
ENDBRANCH   1  21
BRANCH   1  28
HETATM   28  N2  UNL     1      20.836  28.319  13.635  1.00  0.00    -0.307 N 
HETATM   29  C15 UNL     1      21.726  28.627  12.577  1.00  0.00     0.365 C 
HETATM   30  O2  UNL     1      21.658  29.725  12.013  1.00  0.00    -0.238 OA
ATOM     31  H2  UNL     1      20.922  27.400  14.069  1.00  0.00     0.170 HD
BRANCH  29  32
HETATM   32  O3  UNL     1      22.688  27.704  12.153  1.00  0.00    -0.296 OA
BRANCH  32  33
HETATM   33  C16 UNL     1      22.322  26.406  11.713  1.00  0.00     0.166 C 
HETATM   34  C17 UNL     1      21.301  26.447  10.625  1.00  0.00     0.204 C 
HETATM   35  O4  UNL     1      21.645  25.550   9.649  1.00  0.00    -0.358 OA
HETATM   36  C18 UNL     1      22.821  24.910  10.007  1.00  0.00     0.266 C 
HETATM   37  O5  UNL     1      23.724  24.807   8.956  1.00  0.00    -0.361 OA
HETATM   38  C21 UNL     1      23.520  25.823  10.993  1.00  0.00     0.075 C 
HETATM   39  C19 UNL     1      24.322  26.029   8.767  1.00  0.00     0.171 C 
HETATM   40  C20 UNL     1      24.209  26.793  10.091  1.00  0.00     0.038 C 
ENDBRANCH  32  33
ENDBRANCH  29  32
ENDBRANCH   1  28
TORSDOF 13
ENDMDL
