MODEL 7
REMARK VINA RESULT: -5.910860658      2.603      5.355
REMARK  7 active torsions:
REMARK  status: ('A' for Active; 'I' for Inactive)
REMARK       I    between atoms: C1_2  and  N2_3 
REMARK    1  A    between atoms: N2_3  and  O1_5 
REMARK    2  A    between atoms: N3_7  and  C2_9 
REMARK    3  A    between atoms: C2_9  and  C3_10 
REMARK    4  A    between atoms: C3_10  and  C4_11 
REMARK    5  A    between atoms: C4_11  and  C5_12 
REMARK    6  A    between atoms: C5_12  and  N4_13 
REMARK    7  A    between atoms: C5_12  and  C6_17 
ROOT
HETATM    1  C3  UNL     1     -41.844 -18.793  49.032  1.00  0.00     0.022 C 
ENDROOT
BRANCH   1   2
HETATM    2  C2  UNL     1     -41.362 -19.974  48.172  1.00  0.00     0.122 C 
BRANCH   2   3
HETATM    3  N3  UNL     1     -40.355 -19.453  47.282  1.00  0.00    -0.363 N 
HETATM    4  C1  UNL     1     -39.833 -20.232  46.395  1.00  0.00     0.208 C 
HETATM    5  N1  UNL     1     -38.833 -19.716  45.512  1.00  0.00    -0.062 NA
HETATM    6  N2  UNL     1     -40.253 -21.587  46.295  1.00  0.00    -0.241 N 
ATOM      7  H2  UNL     1     -39.586 -22.298  45.992  1.00  0.00     0.197 HD
ATOM      8  H3  UNL     1     -40.058 -18.480  47.353  1.00  0.00     0.162 HD
BRANCH   6   9
HETATM    9  O1  UNL     1     -41.512 -21.946  46.593  1.00  0.00    -0.287 OA
ATOM     10  H1  UNL     1     -42.065 -22.374  45.950  1.00  0.00     0.244 HD
ENDBRANCH   6   9
ENDBRANCH   2   3
ENDBRANCH   1   2
BRANCH   1  11
HETATM   11  C4  UNL     1     -42.451 -19.371  50.261  1.00  0.00     0.045 C 
BRANCH  11  12
HETATM   12  C5  UNL     1     -42.252 -18.463  51.439  1.00  0.00     0.283 C 
BRANCH  12  13
HETATM   13  N4  UNL     1     -42.568 -17.103  50.951  1.00  0.00    -0.065 N 
ATOM     14  H43 UNL     1     -42.379 -16.970  49.957  1.00  0.00     0.275 HD
ATOM     15  H42 UNL     1     -43.567 -16.905  50.912  1.00  0.00     0.275 HD
ATOM     16  H41 UNL     1     -42.047 -16.467  51.555  1.00  0.00     0.275 HD
ENDBRANCH  12  13
BRANCH  12  17
HETATM   17  C6  UNL     1     -40.881 -18.481  51.962  1.00  0.00     0.204 C 
HETATM   18  O2  UNL     1     -40.226 -17.413  52.009  1.00  0.00    -0.646 OA
HETATM   19  O3  UNL     1     -40.267 -19.628  52.414  1.00  0.00    -0.646 OA
ENDBRANCH  12  17
ENDBRANCH  11  12
ENDBRANCH   1  11
TORSDOF 7
ENDMDL
