MODEL 4
REMARK VINA RESULT: -6.052598870      1.937      2.425
REMARK  7 active torsions:
REMARK  status: ('A' for Active; 'I' for Inactive)
REMARK       I    between atoms: C1_2  and  N2_3 
REMARK    1  A    between atoms: N2_3  and  O1_5 
REMARK    2  A    between atoms: N3_7  and  C2_9 
REMARK    3  A    between atoms: C2_9  and  C3_10 
REMARK    4  A    between atoms: C3_10  and  C4_11 
REMARK    5  A    between atoms: C4_11  and  C5_12 
REMARK    6  A    between atoms: C5_12  and  N4_13 
REMARK    7  A    between atoms: C5_12  and  C6_17 
ROOT
HETATM    1  C3  UNL     1     -43.398 -18.317  50.162  1.00  0.00     0.022 C 
ENDROOT
BRANCH   1   2
HETATM    2  C2  UNL     1     -42.689 -17.231  50.991  1.00  0.00     0.122 C 
BRANCH   2   3
HETATM    3  N3  UNL     1     -43.269 -17.275  52.310  1.00  0.00    -0.363 N 
HETATM    4  C1  UNL     1     -42.686 -16.648  53.276  1.00  0.00     0.208 C 
HETATM    5  N1  UNL     1     -43.259 -16.692  54.586  1.00  0.00    -0.062 NA
HETATM    6  N2  UNL     1     -41.488 -15.918  53.038  1.00  0.00    -0.241 N 
ATOM      7  H2  UNL     1     -40.791 -15.842  53.779  1.00  0.00     0.197 HD
ATOM      8  H3  UNL     1     -44.129 -17.796  52.478  1.00  0.00     0.162 HD
BRANCH   6   9
HETATM    9  O1  UNL     1     -41.262 -15.328  51.852  1.00  0.00    -0.287 OA
ATOM     10  H1  UNL     1     -40.385 -15.276  51.491  1.00  0.00     0.244 HD
ENDBRANCH   6   9
ENDBRANCH   2   3
ENDBRANCH   1   2
BRANCH   1  11
HETATM   11  C4  UNL     1     -42.704 -18.381  48.848  1.00  0.00     0.045 C 
BRANCH  11  12
HETATM   12  C5  UNL     1     -41.553 -19.342  48.892  1.00  0.00     0.283 C 
BRANCH  12  13
HETATM   13  N4  UNL     1     -40.636 -18.916  47.812  1.00  0.00    -0.065 N 
ATOM     14  H43 UNL     1     -40.840 -17.986  47.445  1.00  0.00     0.275 HD
ATOM     15  H42 UNL     1     -39.690 -18.713  48.135  1.00  0.00     0.275 HD
ATOM     16  H41 UNL     1     -40.680 -19.652  47.109  1.00  0.00     0.275 HD
ENDBRANCH  12  13
BRANCH  12  17
HETATM   17  C6  UNL     1     -41.950 -20.736  48.665  1.00  0.00     0.204 C 
HETATM   18  O2  UNL     1     -41.502 -21.349  47.667  1.00  0.00    -0.646 OA
HETATM   19  O3  UNL     1     -42.800 -21.419  49.506  1.00  0.00    -0.646 OA
ENDBRANCH  12  17
ENDBRANCH  11  12
ENDBRANCH   1  11
TORSDOF 7
ENDMDL
