MODEL 12
REMARK VINA RESULT: -5.794663827      2.279      5.251
REMARK  7 active torsions:
REMARK  status: ('A' for Active; 'I' for Inactive)
REMARK       I    between atoms: C1_2  and  N2_3 
REMARK    1  A    between atoms: N2_3  and  O1_5 
REMARK    2  A    between atoms: N3_7  and  C2_9 
REMARK    3  A    between atoms: C2_9  and  C3_10 
REMARK    4  A    between atoms: C3_10  and  C4_11 
REMARK    5  A    between atoms: C4_11  and  C5_12 
REMARK    6  A    between atoms: C5_12  and  N4_13 
REMARK    7  A    between atoms: C5_12  and  C6_17 
ROOT
HETATM    1  C3  UNL     1     -42.717 -18.084  48.892  1.00  0.00     0.022 C 
ENDROOT
BRANCH   1   2
HETATM    2  C2  UNL     1     -41.523 -19.029  49.112  1.00  0.00     0.122 C 
BRANCH   2   3
HETATM    3  N3  UNL     1     -40.756 -19.016  47.891  1.00  0.00    -0.363 N 
HETATM    4  C1  UNL     1     -40.556 -20.124  47.261  1.00  0.00     0.208 C 
HETATM    5  N1  UNL     1     -39.794 -20.112  46.050  1.00  0.00    -0.062 NA
HETATM    6  N2  UNL     1     -41.090 -21.342  47.764  1.00  0.00    -0.241 N 
ATOM      7  H2  UNL     1     -40.588 -22.215  47.603  1.00  0.00     0.197 HD
ATOM      8  H3  UNL     1     -40.376 -18.141  47.531  1.00  0.00     0.162 HD
BRANCH   6   9
HETATM    9  O1  UNL     1     -42.246 -21.360  48.448  1.00  0.00    -0.287 OA
ATOM     10  H1  UNL     1     -42.376 -20.801  49.204  1.00  0.00     0.244 HD
ENDBRANCH   6   9
ENDBRANCH   2   3
ENDBRANCH   1   2
BRANCH   1  11
HETATM   11  C4  UNL     1     -42.666 -17.062  49.972  1.00  0.00     0.045 C 
BRANCH  11  12
HETATM   12  C5  UNL     1     -42.513 -17.708  51.318  1.00  0.00     0.283 C 
BRANCH  12  13
HETATM   13  N4  UNL     1     -43.808 -17.509  52.004  1.00  0.00    -0.065 N 
ATOM     14  H43 UNL     1     -44.537 -17.128  51.401  1.00  0.00     0.275 HD
ATOM     15  H42 UNL     1     -44.286 -18.379  52.237  1.00  0.00     0.275 HD
ATOM     16  H41 UNL     1     -43.603 -16.925  52.815  1.00  0.00     0.275 HD
ENDBRANCH  12  13
BRANCH  12  17
HETATM   17  C6  UNL     1     -41.442 -17.118  52.129  1.00  0.00     0.204 C 
HETATM   18  O2  UNL     1     -40.276 -17.567  52.029  1.00  0.00    -0.646 OA
HETATM   19  O3  UNL     1     -41.653 -16.077  53.007  1.00  0.00    -0.646 OA
ENDBRANCH  12  17
ENDBRANCH  11  12
ENDBRANCH   1  11
TORSDOF 7
ENDMDL
