MODEL 14
REMARK VINA RESULT: -5.712688988      2.860      5.641
REMARK  7 active torsions:
REMARK  status: ('A' for Active; 'I' for Inactive)
REMARK       I    between atoms: C1_2  and  N2_3 
REMARK    1  A    between atoms: N2_3  and  O1_5 
REMARK    2  A    between atoms: N3_7  and  C2_9 
REMARK    3  A    between atoms: C2_9  and  C3_10 
REMARK    4  A    between atoms: C3_10  and  C4_11 
REMARK    5  A    between atoms: C4_11  and  C5_12 
REMARK    6  A    between atoms: C5_12  and  N4_13 
REMARK    7  A    between atoms: C5_12  and  C6_17 
ROOT
HETATM    1  C3  UNL     1     -42.024 -19.949  49.039  1.00  0.00     0.022 C 
ENDROOT
BRANCH   1   2
HETATM    2  C2  UNL     1     -41.262 -20.020  47.705  1.00  0.00     0.122 C 
BRANCH   2   3
HETATM    3  N3  UNL     1     -40.902 -21.403  47.508  1.00  0.00    -0.363 N 
HETATM    4  C1  UNL     1     -40.131 -21.719  46.523  1.00  0.00     0.208 C 
HETATM    5  N1  UNL     1     -39.775 -23.091  46.326  1.00  0.00    -0.062 NA
HETATM    6  N2  UNL     1     -39.638 -20.714  45.646  1.00  0.00    -0.241 N 
ATOM      7  H2  UNL     1     -39.465 -20.943  44.667  1.00  0.00     0.197 HD
ATOM      8  H3  UNL     1     -41.254 -22.122  48.140  1.00  0.00     0.162 HD
BRANCH   6   9
HETATM    9  O1  UNL     1     -39.396 -19.469  46.087  1.00  0.00    -0.287 OA
ATOM     10  H1  UNL     1     -40.025 -18.770  45.951  1.00  0.00     0.244 HD
ENDBRANCH   6   9
ENDBRANCH   2   3
ENDBRANCH   1   2
BRANCH   1  11
HETATM   11  C4  UNL     1     -41.852 -18.567  49.564  1.00  0.00     0.045 C 
BRANCH  11  12
HETATM   12  C5  UNL     1     -42.099 -18.518  51.043  1.00  0.00     0.283 C 
BRANCH  12  13
HETATM   13  N4  UNL     1     -42.878 -17.283  51.275  1.00  0.00    -0.065 N 
ATOM     14  H43 UNL     1     -43.584 -17.375  52.005  1.00  0.00     0.275 HD
ATOM     15  H42 UNL     1     -42.341 -16.538  51.719  1.00  0.00     0.275 HD
ATOM     16  H41 UNL     1     -43.262 -17.025  50.366  1.00  0.00     0.275 HD
ENDBRANCH  12  13
BRANCH  12  17
HETATM   17  C6  UNL     1     -40.867 -18.468  51.837  1.00  0.00     0.204 C 
HETATM   18  O2  UNL     1     -40.306 -17.364  52.035  1.00  0.00    -0.646 OA
HETATM   19  O3  UNL     1     -40.285 -19.588  52.389  1.00  0.00    -0.646 OA
ENDBRANCH  12  17
ENDBRANCH  11  12
ENDBRANCH   1  11
TORSDOF 7
ENDMDL
