MODEL 1
REMARK VINA RESULT: -6.107828569      0.000      0.000
REMARK  7 active torsions:
REMARK  status: ('A' for Active; 'I' for Inactive)
REMARK       I    between atoms: C1_2  and  N2_3 
REMARK    1  A    between atoms: N2_3  and  O1_5 
REMARK    2  A    between atoms: N3_7  and  C2_9 
REMARK    3  A    between atoms: C2_9  and  C3_10 
REMARK    4  A    between atoms: C3_10  and  C4_11 
REMARK    5  A    between atoms: C4_11  and  C5_12 
REMARK    6  A    between atoms: C5_12  and  N4_13 
REMARK    7  A    between atoms: C5_12  and  C6_17 
ROOT
HETATM    1  C3  UNL     1     -41.724 -20.334  50.992  1.00  0.00     0.022 C 
ENDROOT
BRANCH   1   2
HETATM    2  C2  UNL     1     -42.583 -19.328  51.778  1.00  0.00     0.122 C 
BRANCH   2   3
HETATM    3  N3  UNL     1     -41.671 -18.388  52.380  1.00  0.00    -0.363 N 
HETATM    4  C1  UNL     1     -41.688 -17.157  51.992  1.00  0.00     0.208 C 
HETATM    5  N1  UNL     1     -40.783 -16.223  52.588  1.00  0.00    -0.062 NA
HETATM    6  N2  UNL     1     -42.601 -16.735  50.986  1.00  0.00    -0.241 N 
ATOM      7  H2  UNL     1     -42.335 -15.980  50.353  1.00  0.00     0.197 HD
ATOM      8  H3  UNL     1     -41.020 -18.692  53.104  1.00  0.00     0.162 HD
BRANCH   6   9
HETATM    9  O1  UNL     1     -43.806 -17.314  50.857  1.00  0.00    -0.287 OA
ATOM     10  H1  UNL     1     -44.424 -17.016  50.200  1.00  0.00     0.244 HD
ENDBRANCH   6   9
ENDBRANCH   2   3
ENDBRANCH   1   2
BRANCH   1  11
HETATM   11  C4  UNL     1     -42.263 -20.374  49.606  1.00  0.00     0.045 C 
BRANCH  11  12
HETATM   12  C5  UNL     1     -41.419 -19.552  48.676  1.00  0.00     0.283 C 
BRANCH  12  13
HETATM   13  N4  UNL     1     -42.292 -18.452  48.214  1.00  0.00    -0.065 N 
ATOM     14  H43 UNL     1     -42.966 -18.142  48.914  1.00  0.00     0.275 HD
ATOM     15  H42 UNL     1     -41.807 -17.561  48.109  1.00  0.00     0.275 HD
ATOM     16  H41 UNL     1     -42.724 -18.788  47.352  1.00  0.00     0.275 HD
ENDBRANCH  12  13
BRANCH  12  17
HETATM   17  C6  UNL     1     -40.934 -20.304  47.513  1.00  0.00     0.204 C 
HETATM   18  O2  UNL     1     -41.488 -21.385  47.204  1.00  0.00    -0.646 OA
HETATM   19  O3  UNL     1     -39.884 -19.877  46.730  1.00  0.00    -0.646 OA
ENDBRANCH  12  17
ENDBRANCH  11  12
ENDBRANCH   1  11
TORSDOF 7
ENDMDL
