MODEL 1
REMARK VINA RESULT: -6.352625342      0.000      0.000
REMARK  6 active torsions:
REMARK  status: ('A' for Active; 'I' for Inactive)
REMARK       I    between atoms: C1_2  and  N2_3 
REMARK    1  A    between atoms: N2_3  and  O1_5 
REMARK    2  A    between atoms: N3_7  and  C2_9 
REMARK    3  A    between atoms: C2_9  and  C3_10 
REMARK    4  A    between atoms: C3_10  and  C4_11 
REMARK    5  A    between atoms: C4_11  and  N4_12 
REMARK    6  A    between atoms: C4_11  and  C5_16 
ROOT
HETATM    1  C2  UNL     1     -41.833  18.927  40.026  1.00  0.00     0.125 C 
ENDROOT
BRANCH   1   2
HETATM    2  N3  UNL     1     -41.036  19.249  41.174  1.00  0.00    -0.363 N 
HETATM    3  C1  UNL     1     -41.026  20.399  41.743  1.00  0.00     0.208 C 
HETATM    4  N1  UNL     1     -41.833  21.462  41.252  1.00  0.00    -0.062 NA
HETATM    5  N2  UNL     1     -40.210  20.644  42.878  1.00  0.00    -0.241 N 
ATOM      6  H2  UNL     1     -40.071  21.593  43.227  1.00  0.00     0.197 HD
ATOM      7  H3  UNL     1     -40.440  18.517  41.562  1.00  0.00     0.162 HD
BRANCH   5   8
HETATM    8  O1  UNL     1     -39.615  19.579  43.493  1.00  0.00    -0.287 OA
ATOM      9  H1  UNL     1     -38.697  19.647  43.726  1.00  0.00     0.244 HD
ENDBRANCH   5   8
ENDBRANCH   1   2
BRANCH   1  10
HETATM   10  C3  UNL     1     -42.930  17.936  40.334  1.00  0.00     0.063 C 
BRANCH  10  11
HETATM   11  C4  UNL     1     -43.920  17.807  39.224  1.00  0.00     0.285 C 
BRANCH  11  12
HETATM   12  N4  UNL     1     -44.845  16.752  39.566  1.00  0.00    -0.065 N 
ATOM     13  H43 UNL     1     -45.044  16.711  40.566  1.00  0.00     0.275 HD
ATOM     14  H42 UNL     1     -45.795  16.942  39.245  1.00  0.00     0.275 HD
ATOM     15  H41 UNL     1     -44.475  15.874  39.203  1.00  0.00     0.275 HD
ENDBRANCH  11  12
BRANCH  11  16
HETATM   16  C5  UNL     1     -43.212  17.437  37.979  1.00  0.00     0.204 C 
HETATM   17  O2  UNL     1     -42.597  16.345  37.888  1.00  0.00    -0.646 OA
HETATM   18  O3  UNL     1     -43.224  18.313  36.880  1.00  0.00    -0.646 OA
ENDBRANCH  11  16
ENDBRANCH  10  11
ENDBRANCH   1  10
TORSDOF 6
ENDMDL
