MODEL 3
REMARK VINA RESULT: -6.180474594      1.126      1.129
REMARK  6 active torsions:
REMARK  status: ('A' for Active; 'I' for Inactive)
REMARK       I    between atoms: C1_2  and  N2_3 
REMARK    1  A    between atoms: N2_3  and  O1_5 
REMARK    2  A    between atoms: N3_7  and  C2_9 
REMARK    3  A    between atoms: C2_9  and  C3_10 
REMARK    4  A    between atoms: C3_10  and  C4_11 
REMARK    5  A    between atoms: C4_11  and  N4_12 
REMARK    6  A    between atoms: C4_11  and  C5_16 
ROOT
HETATM    1  C2  UNL     1     -42.077  19.788  40.493  1.00  0.00     0.125 C 
ENDROOT
BRANCH   1   2
HETATM    2  N3  UNL     1     -41.058  19.753  41.502  1.00  0.00    -0.363 N 
HETATM    3  C1  UNL     1     -40.788  20.734  42.284  1.00  0.00     0.208 C 
HETATM    4  N1  UNL     1     -41.507  21.958  42.193  1.00  0.00    -0.062 NA
HETATM    5  N2  UNL     1     -39.764  20.627  43.261  1.00  0.00    -0.241 N 
ATOM      6  H2  UNL     1     -39.434  21.450  43.765  1.00  0.00     0.197 HD
ATOM      7  H3  UNL     1     -40.516  18.896  41.604  1.00  0.00     0.162 HD
BRANCH   5   8
HETATM    8  O1  UNL     1     -39.232  19.393  43.512  1.00  0.00    -0.287 OA
ATOM      9  H1  UNL     1     -38.724  19.274  44.305  1.00  0.00     0.244 HD
ENDBRANCH   5   8
ENDBRANCH   1   2
BRANCH   1  10
HETATM   10  C3  UNL     1     -42.504  18.410  40.045  1.00  0.00     0.063 C 
BRANCH  10  11
HETATM   11  C4  UNL     1     -43.027  18.394  38.647  1.00  0.00     0.285 C 
BRANCH  11  12
HETATM   12  N4  UNL     1     -44.258  17.639  38.635  1.00  0.00    -0.065 N 
ATOM     13  H43 UNL     1     -44.897  17.916  39.380  1.00  0.00     0.275 HD
ATOM     14  H42 UNL     1     -44.857  17.876  37.844  1.00  0.00     0.275 HD
ATOM     15  H41 UNL     1     -44.022  16.647  38.666  1.00  0.00     0.275 HD
ENDBRANCH  11  12
BRANCH  11  16
HETATM   16  C5  UNL     1     -42.046  17.724  37.766  1.00  0.00     0.204 C 
HETATM   17  O2  UNL     1     -42.243  16.553  37.355  1.00  0.00    -0.646 OA
HETATM   18  O3  UNL     1     -40.875  18.399  37.380  1.00  0.00    -0.646 OA
ENDBRANCH  11  16
ENDBRANCH  10  11
ENDBRANCH   1  10
TORSDOF 6
ENDMDL
