MODEL 9
REMARK VINA RESULT: -5.985536458      1.308      1.477
REMARK  6 active torsions:
REMARK  status: ('A' for Active; 'I' for Inactive)
REMARK       I    between atoms: C1_2  and  N2_3 
REMARK    1  A    between atoms: N2_3  and  O1_5 
REMARK    2  A    between atoms: N3_7  and  C2_9 
REMARK    3  A    between atoms: C2_9  and  C3_10 
REMARK    4  A    between atoms: C3_10  and  C4_11 
REMARK    5  A    between atoms: C4_11  and  N4_12 
REMARK    6  A    between atoms: C4_11  and  C5_16 
ROOT
HETATM    1  C2  UNL     1     -42.606  18.574  39.838  1.00  0.00     0.125 C 
ENDROOT
BRANCH   1   2
HETATM    2  N3  UNL     1     -41.729  19.059  40.863  1.00  0.00    -0.363 N 
HETATM    3  C1  UNL     1     -41.585  20.299  41.159  1.00  0.00     0.208 C 
HETATM    4  N1  UNL     1     -42.314  21.304  40.463  1.00  0.00    -0.062 NA
HETATM    5  N2  UNL     1     -40.697  20.706  42.188  1.00  0.00    -0.241 N 
ATOM      6  H2  UNL     1     -40.454  21.689  42.312  1.00  0.00     0.197 HD
ATOM      7  H3  UNL     1     -41.184  18.376  41.389  1.00  0.00     0.162 HD
BRANCH   5   8
HETATM    8  O1  UNL     1     -40.173  19.748  43.010  1.00  0.00    -0.287 OA
ATOM      9  H1  UNL     1     -39.401  19.963  43.519  1.00  0.00     0.244 HD
ENDBRANCH   5   8
ENDBRANCH   1   2
BRANCH   1  10
HETATM   10  C3  UNL     1     -41.955  18.543  38.475  1.00  0.00     0.063 C 
BRANCH  10  11
HETATM   11  C4  UNL     1     -42.938  18.341  37.370  1.00  0.00     0.285 C 
BRANCH  11  12
HETATM   12  N4  UNL     1     -44.262  18.307  37.946  1.00  0.00    -0.065 N 
ATOM     13  H43 UNL     1     -44.573  17.360  38.163  1.00  0.00     0.275 HD
ATOM     14  H42 UNL     1     -44.288  18.681  38.895  1.00  0.00     0.275 HD
ATOM     15  H41 UNL     1     -44.896  18.795  37.314  1.00  0.00     0.275 HD
ENDBRANCH  11  12
BRANCH  11  16
HETATM   16  C5  UNL     1     -42.670  17.046  36.708  1.00  0.00     0.204 C 
HETATM   17  O2  UNL     1     -42.095  16.114  37.325  1.00  0.00    -0.646 OA
HETATM   18  O3  UNL     1     -43.061  16.847  35.373  1.00  0.00    -0.646 OA
ENDBRANCH  11  16
ENDBRANCH  10  11
ENDBRANCH   1  10
TORSDOF 6
ENDMDL
