MODEL 2
REMARK VINA RESULT: -6.302386353      2.278      5.551
REMARK  6 active torsions:
REMARK  status: ('A' for Active; 'I' for Inactive)
REMARK       I    between atoms: C1_2  and  N2_3 
REMARK    1  A    between atoms: N2_3  and  O1_5 
REMARK    2  A    between atoms: N3_7  and  C2_9 
REMARK    3  A    between atoms: C2_9  and  C3_10 
REMARK    4  A    between atoms: C3_10  and  C4_11 
REMARK    5  A    between atoms: C4_11  and  N4_12 
REMARK    6  A    between atoms: C4_11  and  C5_16 
ROOT
HETATM    1  C2  UNL     1     -41.950  18.869  39.697  1.00  0.00     0.125 C 
ENDROOT
BRANCH   1   2
HETATM    2  N3  UNL     1     -43.186  18.217  40.018  1.00  0.00    -0.363 N 
HETATM    3  C1  UNL     1     -43.667  17.226  39.361  1.00  0.00     0.208 C 
HETATM    4  N1  UNL     1     -42.980  16.695  38.235  1.00  0.00    -0.062 NA
HETATM    5  N2  UNL     1     -44.899  16.629  39.739  1.00  0.00    -0.241 N 
ATOM      6  H2  UNL     1     -45.365  15.959  39.126  1.00  0.00     0.197 HD
ATOM      7  H3  UNL     1     -43.715  18.563  40.818  1.00  0.00     0.162 HD
BRANCH   5   8
HETATM    8  O1  UNL     1     -45.445  16.974  40.943  1.00  0.00    -0.287 OA
ATOM      9  H1  UNL     1     -46.061  17.697  40.969  1.00  0.00     0.244 HD
ENDBRANCH   5   8
ENDBRANCH   1   2
BRANCH   1  10
HETATM   10  C3  UNL     1     -41.147  19.237  40.922  1.00  0.00     0.063 C 
BRANCH  10  11
HETATM   11  C4  UNL     1     -41.632  20.489  41.576  1.00  0.00     0.285 C 
BRANCH  11  12
HETATM   12  N4  UNL     1     -41.918  21.456  40.542  1.00  0.00    -0.065 N 
ATOM     13  H43 UNL     1     -42.465  21.063  39.776  1.00  0.00     0.275 HD
ATOM     14  H42 UNL     1     -42.588  22.164  40.840  1.00  0.00     0.275 HD
ATOM     15  H41 UNL     1     -41.034  21.857  40.229  1.00  0.00     0.275 HD
ENDBRANCH  11  12
BRANCH  11  16
HETATM   16  C5  UNL     1     -40.569  21.026  42.453  1.00  0.00     0.204 C 
HETATM   17  O2  UNL     1     -40.410  22.265  42.587  1.00  0.00    -0.646 OA
HETATM   18  O3  UNL     1     -39.723  20.145  43.148  1.00  0.00    -0.646 OA
ENDBRANCH  11  16
ENDBRANCH  10  11
ENDBRANCH   1  10
TORSDOF 6
ENDMDL
