MODEL 10
REMARK VINA RESULT: -5.976440679      2.702      5.435
REMARK  6 active torsions:
REMARK  status: ('A' for Active; 'I' for Inactive)
REMARK       I    between atoms: C1_2  and  N2_3 
REMARK    1  A    between atoms: N2_3  and  O1_5 
REMARK    2  A    between atoms: N3_7  and  C2_9 
REMARK    3  A    between atoms: C2_9  and  C3_10 
REMARK    4  A    between atoms: C3_10  and  C4_11 
REMARK    5  A    between atoms: C4_11  and  N4_12 
REMARK    6  A    between atoms: C4_11  and  C5_16 
ROOT
HETATM    1  C2  UNL     1     -43.760  18.270  38.426  1.00  0.00     0.125 C 
ENDROOT
BRANCH   1   2
HETATM    2  N3  UNL     1     -43.051  17.182  37.818  1.00  0.00    -0.363 N 
HETATM    3  C1  UNL     1     -42.809  17.094  36.562  1.00  0.00     0.208 C 
HETATM    4  N1  UNL     1     -43.246  18.105  35.662  1.00  0.00    -0.062 NA
HETATM    5  N2  UNL     1     -42.100  15.984  36.031  1.00  0.00    -0.241 N 
ATOM      6  H2  UNL     1     -42.054  15.826  35.025  1.00  0.00     0.197 HD
ATOM      7  H3  UNL     1     -42.719  16.431  38.424  1.00  0.00     0.162 HD
BRANCH   5   8
HETATM    8  O1  UNL     1     -41.480  15.133  36.902  1.00  0.00    -0.287 OA
ATOM      9  H1  UNL     1     -40.533  15.159  36.962  1.00  0.00     0.244 HD
ENDBRANCH   5   8
ENDBRANCH   1   2
BRANCH   1  10
HETATM   10  C3  UNL     1     -43.262  18.591  39.815  1.00  0.00     0.063 C 
BRANCH  10  11
HETATM   11  C4  UNL     1     -41.993  19.376  39.807  1.00  0.00     0.285 C 
BRANCH  11  12
HETATM   12  N4  UNL     1     -41.114  18.823  40.811  1.00  0.00    -0.065 N 
ATOM     13  H43 UNL     1     -40.885  17.844  40.637  1.00  0.00     0.275 HD
ATOM     14  H42 UNL     1     -40.167  19.198  40.756  1.00  0.00     0.275 HD
ATOM     15  H41 UNL     1     -41.543  18.970  41.724  1.00  0.00     0.275 HD
ENDBRANCH  11  12
BRANCH  11  16
HETATM   16  C5  UNL     1     -42.286  20.784  40.151  1.00  0.00     0.204 C 
HETATM   17  O2  UNL     1     -43.061  21.473  39.442  1.00  0.00    -0.646 OA
HETATM   18  O3  UNL     1     -41.693  21.366  41.285  1.00  0.00    -0.646 OA
ENDBRANCH  11  16
ENDBRANCH  10  11
ENDBRANCH   1  10
TORSDOF 6
ENDMDL
