MODEL 8
REMARK VINA RESULT: -5.988595835      2.621      5.696
REMARK  6 active torsions:
REMARK  status: ('A' for Active; 'I' for Inactive)
REMARK       I    between atoms: C1_2  and  N2_3 
REMARK    1  A    between atoms: N2_3  and  O1_5 
REMARK    2  A    between atoms: N3_7  and  C2_9 
REMARK    3  A    between atoms: C2_9  and  C3_10 
REMARK    4  A    between atoms: C3_10  and  C4_11 
REMARK    5  A    between atoms: C4_11  and  N4_12 
REMARK    6  A    between atoms: C4_11  and  C5_16 
ROOT
HETATM    1  C2  UNL     1     -43.208  17.353  39.160  1.00  0.00     0.125 C 
ENDROOT
BRANCH   1   2
HETATM    2  N3  UNL     1     -43.600  17.531  37.792  1.00  0.00    -0.363 N 
HETATM    3  C1  UNL     1     -42.958  17.050  36.792  1.00  0.00     0.208 C 
HETATM    4  N1  UNL     1     -41.775  16.285  36.985  1.00  0.00    -0.062 NA
HETATM    5  N2  UNL     1     -43.408  17.268  35.463  1.00  0.00    -0.241 N 
ATOM      6  H2  UNL     1     -42.815  17.035  34.666  1.00  0.00     0.197 HD
ATOM      7  H3  UNL     1     -44.443  18.074  37.604  1.00  0.00     0.162 HD
BRANCH   5   8
HETATM    8  O1  UNL     1     -44.654  17.796  35.277  1.00  0.00    -0.287 OA
ATOM      9  H1  UNL     1     -44.825  18.674  35.597  1.00  0.00     0.244 HD
ENDBRANCH   5   8
ENDBRANCH   1   2
BRANCH   1  10
HETATM   10  C3  UNL     1     -43.262  18.636  39.956  1.00  0.00     0.063 C 
BRANCH  10  11
HETATM   11  C4  UNL     1     -41.986  19.409  39.893  1.00  0.00     0.285 C 
BRANCH  11  12
HETATM   12  N4  UNL     1     -41.095  18.890  40.904  1.00  0.00    -0.065 N 
ATOM     13  H43 UNL     1     -41.531  18.839  41.825  1.00  0.00     0.275 HD
ATOM     14  H42 UNL     1     -40.903  17.895  40.787  1.00  0.00     0.275 HD
ATOM     15  H41 UNL     1     -40.247  19.457  40.901  1.00  0.00     0.275 HD
ENDBRANCH  11  12
BRANCH  11  16
HETATM   16  C5  UNL     1     -42.262  20.833  40.182  1.00  0.00     0.204 C 
HETATM   17  O2  UNL     1     -43.049  21.496  39.461  1.00  0.00    -0.646 OA
HETATM   18  O3  UNL     1     -41.640  21.458  41.275  1.00  0.00    -0.646 OA
ENDBRANCH  11  16
ENDBRANCH  10  11
ENDBRANCH   1  10
TORSDOF 6
ENDMDL
