MODEL 17
REMARK VINA RESULT: -5.834104291      1.968      2.118
REMARK  6 active torsions:
REMARK  status: ('A' for Active; 'I' for Inactive)
REMARK       I    between atoms: C1_2  and  N2_3 
REMARK    1  A    between atoms: N2_3  and  O1_5 
REMARK    2  A    between atoms: N3_7  and  C2_9 
REMARK    3  A    between atoms: C2_9  and  C3_10 
REMARK    4  A    between atoms: C3_10  and  C4_11 
REMARK    5  A    between atoms: C4_11  and  N4_12 
REMARK    6  A    between atoms: C4_11  and  C5_16 
ROOT
HETATM    1  C2  UNL     1     -43.320  18.490  39.884  1.00  0.00     0.125 C 
ENDROOT
BRANCH   1   2
HETATM    2  N3  UNL     1     -42.252  18.930  40.733  1.00  0.00    -0.363 N 
HETATM    3  C1  UNL     1     -41.892  20.155  40.859  1.00  0.00     0.208 C 
HETATM    4  N1  UNL     1     -42.554  21.187  40.137  1.00  0.00    -0.062 NA
HETATM    5  N2  UNL     1     -40.824  20.517  41.721  1.00  0.00    -0.241 N 
ATOM      6  H2  UNL     1     -40.427  21.457  41.696  1.00  0.00     0.197 HD
ATOM      7  H3  UNL     1     -41.747  18.225  41.271  1.00  0.00     0.162 HD
BRANCH   5   8
HETATM    8  O1  UNL     1     -40.340  19.577  42.586  1.00  0.00    -0.287 OA
ATOM      9  H1  UNL     1     -39.805  19.867  43.315  1.00  0.00     0.244 HD
ENDBRANCH   5   8
ENDBRANCH   1   2
BRANCH   1  10
HETATM   10  C3  UNL     1     -42.842  17.615  38.749  1.00  0.00     0.063 C 
BRANCH  10  11
HETATM   11  C4  UNL     1     -42.780  18.342  37.446  1.00  0.00     0.285 C 
BRANCH  11  12
HETATM   12  N4  UNL     1     -43.048  17.396  36.389  1.00  0.00    -0.065 N 
ATOM     13  H43 UNL     1     -43.206  16.450  36.737  1.00  0.00     0.275 HD
ATOM     14  H42 UNL     1     -43.961  17.537  35.957  1.00  0.00     0.275 HD
ATOM     15  H41 UNL     1     -42.283  17.445  35.717  1.00  0.00     0.275 HD
ENDBRANCH  11  12
BRANCH  11  16
HETATM   16  C5  UNL     1     -41.421  18.896  37.260  1.00  0.00     0.204 C 
HETATM   17  O2  UNL     1     -40.413  18.146  37.276  1.00  0.00    -0.646 OA
HETATM   18  O3  UNL     1     -41.248  20.276  37.062  1.00  0.00    -0.646 OA
ENDBRANCH  11  16
ENDBRANCH  10  11
ENDBRANCH   1  10
TORSDOF 6
ENDMDL
