MODEL 1
REMARK VINA RESULT: -7.395514803      0.000      0.000
REMARK  8 active torsions:
REMARK  status: ('A' for Active; 'I' for Inactive)
REMARK    1  A    between atoms: N4_10  and  C5_11 
REMARK    2  A    between atoms: C6_13  and  C7_14 
REMARK    3  A    between atoms: C7_14  and  O2_15 
REMARK    4  A    between atoms: O2_15  and  P1_16 
REMARK    5  A    between atoms: P1_16  and  O5_19 
REMARK    6  A    between atoms: O5_19  and  P2_20 
REMARK    7  A    between atoms: C8_24  and  O9_25 
REMARK    8  A    between atoms: C9_27  and  O10_28 
ROOT
HETATM    1  C5  UNL     1      21.980   0.511   1.309  1.00  0.00     0.262 C 
HETATM    2  O1  UNL     1      22.990   1.401   0.948  1.00  0.00    -0.353 OA
HETATM    3  C6  UNL     1      23.096   2.349   1.924  1.00  0.00     0.180 C 
HETATM    4  C8  UNL     1      22.704   1.732   3.240  1.00  0.00     0.182 C 
HETATM    5  C9  UNL     1      22.087   0.419   2.798  1.00  0.00     0.198 C 
ENDROOT
BRANCH   1   6
HETATM    6  N4  UNL     1      22.308  -0.749   0.647  1.00  0.00    -0.297 N 
HETATM    7  C2  UNL     1      22.479  -0.886  -0.692  1.00  0.00     0.146 A 
HETATM    8  N2  UNL     1      22.406  -0.001  -1.704  1.00  0.00    -0.314 N 
HETATM    9  C3  UNL     1      22.775  -2.224  -0.898  1.00  0.00     0.146 A 
HETATM   10  C1  UNL     1      22.627  -0.438  -2.940  1.00  0.00     0.196 A 
ATOM     11  H2  UNL     1      22.186   0.979  -1.527  1.00  0.00     0.170 HD
HETATM   12  N1  UNL     1      22.555   0.478  -4.020  1.00  0.00    -0.063 NA
HETATM   13  N5  UNL     1      22.919  -1.731  -3.192  1.00  0.00    -0.295 N 
HETATM   14  C10 UNL     1      22.999  -2.639  -2.199  1.00  0.00     0.278 A 
ATOM     15  H5  UNL     1      23.083  -2.028  -4.154  1.00  0.00     0.171 HD
HETATM   16  O11 UNL     1      23.275  -3.863  -2.440  1.00  0.00    -0.265 OA
HETATM   17  N3  UNL     1      22.784  -2.882   0.289  1.00  0.00    -0.345 N 
HETATM   18  C4  UNL     1      22.494  -1.962   1.226  1.00  0.00     0.188 A 
ATOM     19  H3  UNL     1      22.971  -3.874   0.439  1.00  0.00     0.167 HD
ENDBRANCH   1   6
BRANCH   5  20
HETATM   20  O10 UNL     1      20.822   0.361   3.420  1.00  0.00    -0.388 OA
ATOM     21  H10 UNL     1      20.884   0.427   4.365  1.00  0.00     0.210 HD
ENDBRANCH   5  20
BRANCH   3  22
HETATM   22  C7  UNL     1      24.486   2.901   2.068  1.00  0.00     0.216 C 
BRANCH  22  23
HETATM   23  O2  UNL     1      24.587   3.477   3.332  1.00  0.00    -0.287 OA
BRANCH  23  24
HETATM   24  P1  UNL     1      25.973   3.759   3.953  1.00  0.00     0.418 P 
HETATM   25  O3  UNL     1      25.253   3.982   5.421  1.00  0.00    -0.624 OA
HETATM   26  O4  UNL     1      26.384   2.185   3.517  1.00  0.00    -0.624 OA
BRANCH  24  27
HETATM   27  O5  UNL     1      27.355   3.840   4.624  1.00  0.00    -0.173 OA
BRANCH  27  28
HETATM   28  P2  UNL     1      28.561   4.771   4.418  1.00  0.00     0.431 P 
HETATM   29  O6  UNL     1      29.597   5.919   4.309  1.00  0.00    -0.616 OA
HETATM   30  O7  UNL     1      27.502   5.737   3.560  1.00  0.00    -0.616 OA
HETATM   31  O8  UNL     1      29.422   3.687   3.559  1.00  0.00    -0.616 OA
ENDBRANCH  27  28
ENDBRANCH  24  27
ENDBRANCH  23  24
ENDBRANCH  22  23
ENDBRANCH   3  22
BRANCH   4  32
HETATM   32  O9  UNL     1      21.761   2.581   3.827  1.00  0.00    -0.390 OA
ATOM     33  H9  UNL     1      21.916   3.452   3.479  1.00  0.00     0.210 HD
ENDBRANCH   4  32
TORSDOF 8
ENDMDL
