MODEL 9
REMARK VINA RESULT: -6.716002765      5.500      9.215
REMARK  8 active torsions:
REMARK  status: ('A' for Active; 'I' for Inactive)
REMARK    1  A    between atoms: N4_10  and  C5_11 
REMARK    2  A    between atoms: C6_13  and  C7_14 
REMARK    3  A    between atoms: C7_14  and  O2_15 
REMARK    4  A    between atoms: O2_15  and  P1_16 
REMARK    5  A    between atoms: P1_16  and  O5_19 
REMARK    6  A    between atoms: O5_19  and  P2_20 
REMARK    7  A    between atoms: C8_24  and  O9_25 
REMARK    8  A    between atoms: C9_27  and  O10_28 
ROOT
HETATM    1  C5  UNL     1      25.309   4.064   4.097  1.00  0.00     0.262 C 
HETATM    2  O1  UNL     1      24.340   3.067   4.000  1.00  0.00    -0.353 OA
HETATM    3  C6  UNL     1      24.083   2.845   2.679  1.00  0.00     0.180 C 
HETATM    4  C8  UNL     1      25.332   3.133   1.890  1.00  0.00     0.182 C 
HETATM    5  C9  UNL     1      26.201   3.824   2.922  1.00  0.00     0.198 C 
ENDROOT
BRANCH   1   6
HETATM    6  N4  UNL     1      25.988   3.834   5.370  1.00  0.00    -0.297 N 
HETATM    7  C2  UNL     1      27.072   4.531   5.794  1.00  0.00     0.146 A 
HETATM    8  N2  UNL     1      27.773   5.535   5.233  1.00  0.00    -0.314 N 
HETATM    9  C3  UNL     1      27.397   4.003   7.034  1.00  0.00     0.146 A 
HETATM   10  C1  UNL     1      28.811   6.028   5.902  1.00  0.00     0.196 A 
ATOM     11  H2  UNL     1      27.515   5.907   4.320  1.00  0.00     0.170 HD
HETATM   12  N1  UNL     1      29.562   7.086   5.329  1.00  0.00    -0.063 NA
HETATM   13  N5  UNL     1      29.167   5.548   7.112  1.00  0.00    -0.295 N 
HETATM   14  C10 UNL     1      28.484   4.545   7.698  1.00  0.00     0.278 A 
ATOM     15  H5  UNL     1      29.969   5.954   7.594  1.00  0.00     0.171 HD
HETATM   16  O11 UNL     1      28.823   4.091   8.843  1.00  0.00    -0.265 OA
HETATM   17  N3  UNL     1      26.529   3.009   7.353  1.00  0.00    -0.345 N 
HETATM   18  C4  UNL     1      25.672   2.919   6.320  1.00  0.00     0.188 A 
ATOM     19  H3  UNL     1      26.528   2.445   8.204  1.00  0.00     0.167 HD
ENDBRANCH   1   6
BRANCH   5  20
HETATM   20  O10 UNL     1      26.626   5.029   2.321  1.00  0.00    -0.388 OA
ATOM     21  H10 UNL     1      26.305   5.118   1.432  1.00  0.00     0.210 HD
ENDBRANCH   5  20
BRANCH   3  22
HETATM   22  C7  UNL     1      23.664   1.432   2.384  1.00  0.00     0.216 C 
BRANCH  22  23
HETATM   23  O2  UNL     1      23.140   1.405   1.093  1.00  0.00    -0.287 OA
BRANCH  23  24
HETATM   24  P1  UNL     1      22.603   0.084   0.497  1.00  0.00     0.418 P 
HETATM   25  O3  UNL     1      21.300   0.178   1.507  1.00  0.00    -0.624 OA
HETATM   26  O4  UNL     1      22.509   0.896  -0.975  1.00  0.00    -0.624 OA
BRANCH  24  27
HETATM   27  O5  UNL     1      21.955  -1.111  -0.220  1.00  0.00    -0.173 OA
BRANCH  27  28
HETATM   28  P2  UNL     1      22.348  -1.914  -1.472  1.00  0.00     0.431 P 
HETATM   29  O6  UNL     1      22.514  -2.591  -2.856  1.00  0.00    -0.616 OA
HETATM   30  O7  UNL     1      20.751  -2.401  -1.501  1.00  0.00    -0.616 OA
HETATM   31  O8  UNL     1      23.395  -2.884  -0.685  1.00  0.00    -0.616 OA
ENDBRANCH  27  28
ENDBRANCH  24  27
ENDBRANCH  23  24
ENDBRANCH  22  23
ENDBRANCH   3  22
BRANCH   4  32
HETATM   32  O9  UNL     1      24.972   3.994   0.849  1.00  0.00    -0.390 OA
ATOM     33  H9  UNL     1      25.245   3.580   0.038  1.00  0.00     0.210 HD
ENDBRANCH   4  32
TORSDOF 8
ENDMDL
