MODEL 10
REMARK VINA RESULT: -6.681583824      5.664      9.293
REMARK  8 active torsions:
REMARK  status: ('A' for Active; 'I' for Inactive)
REMARK    1  A    between atoms: N4_10  and  C5_11 
REMARK    2  A    between atoms: C6_13  and  C7_14 
REMARK    3  A    between atoms: C7_14  and  O2_15 
REMARK    4  A    between atoms: O2_15  and  P1_16 
REMARK    5  A    between atoms: P1_16  and  O5_19 
REMARK    6  A    between atoms: O5_19  and  P2_20 
REMARK    7  A    between atoms: C8_24  and  O9_25 
REMARK    8  A    between atoms: C9_27  and  O10_28 
ROOT
HETATM    1  C5  UNL     1      25.634   4.285   4.226  1.00  0.00     0.262 C 
HETATM    2  O1  UNL     1      24.794   3.172   4.218  1.00  0.00    -0.353 OA
HETATM    3  C6  UNL     1      24.484   2.879   2.922  1.00  0.00     0.180 C 
HETATM    4  C8  UNL     1      25.634   3.294   2.045  1.00  0.00     0.182 C 
HETATM    5  C9  UNL     1      26.473   4.120   3.000  1.00  0.00     0.198 C 
ENDROOT
BRANCH   1   6
HETATM    6  N4  UNL     1      26.416   4.180   5.456  1.00  0.00    -0.297 N 
HETATM    7  C2  UNL     1      27.592   4.823   5.670  1.00  0.00     0.146 A 
HETATM    8  N2  UNL     1      28.314   5.659   4.900  1.00  0.00    -0.314 N 
HETATM    9  C3  UNL     1      27.995   4.456   6.944  1.00  0.00     0.146 A 
HETATM   10  C1  UNL     1      29.452   6.142   5.391  1.00  0.00     0.196 A 
ATOM     11  H2  UNL     1      27.997   5.915   3.965  1.00  0.00     0.170 HD
HETATM   12  N1  UNL     1      30.227   7.025   4.596  1.00  0.00    -0.063 NA
HETATM   13  N5  UNL     1      29.886   5.815   6.626  1.00  0.00    -0.295 N 
HETATM   14  C10 UNL     1      29.184   4.981   7.418  1.00  0.00     0.278 A 
ATOM     15  H5  UNL     1      30.763   6.207   6.966  1.00  0.00     0.171 HD
HETATM   16  O11 UNL     1      29.598   4.671   8.587  1.00  0.00    -0.265 OA
HETATM   17  N3  UNL     1      27.084   3.610   7.489  1.00  0.00    -0.345 N 
HETATM   18  C4  UNL     1      26.122   3.452   6.562  1.00  0.00     0.188 A 
ATOM     19  H3  UNL     1      27.121   3.181   8.415  1.00  0.00     0.167 HD
ENDBRANCH   1   6
BRANCH   5  20
HETATM   20  O10 UNL     1      26.704   5.348   2.345  1.00  0.00    -0.388 OA
ATOM     21  H10 UNL     1      27.288   5.254   1.602  1.00  0.00     0.210 HD
ENDBRANCH   5  20
BRANCH   3  22
HETATM   22  C7  UNL     1      24.228   1.417   2.688  1.00  0.00     0.216 C 
BRANCH  22  23
HETATM   23  O2  UNL     1      23.644   1.282   1.430  1.00  0.00    -0.287 OA
BRANCH  23  24
HETATM   24  P1  UNL     1      22.575   0.196   1.179  1.00  0.00     0.418 P 
HETATM   25  O3  UNL     1      22.603   0.563  -0.430  1.00  0.00    -0.624 OA
HETATM   26  O4  UNL     1      23.706  -0.915   1.746  1.00  0.00    -0.624 OA
BRANCH  24  27
HETATM   27  O5  UNL     1      21.669  -1.010   0.883  1.00  0.00    -0.173 OA
BRANCH  27  28
HETATM   28  P2  UNL     1      20.283  -1.427   1.404  1.00  0.00     0.431 P 
HETATM   29  O6  UNL     1      18.793  -1.604   1.795  1.00  0.00    -0.616 OA
HETATM   30  O7  UNL     1      20.181   0.133   1.994  1.00  0.00    -0.616 OA
HETATM   31  O8  UNL     1      20.859  -2.559   2.424  1.00  0.00    -0.616 OA
ENDBRANCH  27  28
ENDBRANCH  24  27
ENDBRANCH  23  24
ENDBRANCH  22  23
ENDBRANCH   3  22
BRANCH   4  32
HETATM   32  O9  UNL     1      25.103   4.071   1.011  1.00  0.00    -0.390 OA
ATOM     33  H9  UNL     1      25.727   4.046   0.294  1.00  0.00     0.210 HD
ENDBRANCH   4  32
TORSDOF 8
ENDMDL
