MODEL 3
REMARK VINA RESULT: -7.297751774      0.710      1.226
REMARK  8 active torsions:
REMARK  status: ('A' for Active; 'I' for Inactive)
REMARK    1  A    between atoms: N4_10  and  C5_11 
REMARK    2  A    between atoms: C6_13  and  C7_14 
REMARK    3  A    between atoms: C7_14  and  O2_15 
REMARK    4  A    between atoms: O2_15  and  P1_16 
REMARK    5  A    between atoms: P1_16  and  O5_19 
REMARK    6  A    between atoms: O5_19  and  P2_20 
REMARK    7  A    between atoms: C8_24  and  O9_25 
REMARK    8  A    between atoms: C9_27  and  O10_28 
ROOT
HETATM    1  C5  UNL     1      22.222   0.659   1.368  1.00  0.00     0.262 C 
HETATM    2  O1  UNL     1      23.341   1.411   1.011  1.00  0.00    -0.353 OA
HETATM    3  C6  UNL     1      23.527   2.378   1.956  1.00  0.00     0.180 C 
HETATM    4  C8  UNL     1      23.025   1.862   3.278  1.00  0.00     0.182 C 
HETATM    5  C9  UNL     1      22.272   0.614   2.861  1.00  0.00     0.198 C 
ENDROOT
BRANCH   1   6
HETATM    6  N4  UNL     1      22.421  -0.656   0.763  1.00  0.00    -0.297 N 
HETATM    7  C2  UNL     1      22.528  -0.873  -0.572  1.00  0.00     0.146 A 
HETATM    8  N2  UNL     1      22.488  -0.037  -1.627  1.00  0.00    -0.314 N 
HETATM    9  C3  UNL     1      22.705  -2.240  -0.718  1.00  0.00     0.146 A 
HETATM   10  C1  UNL     1      22.624  -0.553  -2.845  1.00  0.00     0.196 A 
ATOM     11  H2  UNL     1      22.356   0.966  -1.495  1.00  0.00     0.170 HD
HETATM   12  N1  UNL     1      22.585   0.311  -3.969  1.00  0.00    -0.063 NA
HETATM   13  N5  UNL     1      22.800  -1.877  -3.038  1.00  0.00    -0.295 N 
HETATM   14  C10 UNL     1      22.844  -2.737  -2.002  1.00  0.00     0.278 A 
ATOM     15  H5  UNL     1      22.901  -2.233  -3.988  1.00  0.00     0.171 HD
HETATM   16  O11 UNL     1      23.010  -3.991  -2.186  1.00  0.00    -0.265 OA
HETATM   17  N3  UNL     1      22.706  -2.837   0.502  1.00  0.00    -0.345 N 
HETATM   18  C4  UNL     1      22.530  -1.849   1.398  1.00  0.00     0.188 A 
ATOM     19  H3  UNL     1      22.818  -3.832   0.698  1.00  0.00     0.167 HD
ENDBRANCH   1   6
BRANCH   5  20
HETATM   20  O10 UNL     1      20.990   0.728   3.440  1.00  0.00    -0.388 OA
ATOM     21  H10 UNL     1      20.930   1.465   4.035  1.00  0.00     0.210 HD
ENDBRANCH   5  20
BRANCH   3  22
HETATM   22  C7  UNL     1      24.968   2.769   2.129  1.00  0.00     0.216 C 
BRANCH  22  23
HETATM   23  O2  UNL     1      25.039   3.669   3.191  1.00  0.00    -0.287 OA
BRANCH  23  24
HETATM   24  P1  UNL     1      26.390   3.949   3.885  1.00  0.00     0.418 P 
HETATM   25  O3  UNL     1      26.654   5.194   2.834  1.00  0.00    -0.624 OA
HETATM   26  O4  UNL     1      25.500   4.279   5.276  1.00  0.00    -0.624 OA
BRANCH  24  27
HETATM   27  O5  UNL     1      27.633   4.370   4.687  1.00  0.00    -0.173 OA
BRANCH  27  28
HETATM   28  P2  UNL     1      28.369   5.712   4.842  1.00  0.00     0.431 P 
HETATM   29  O6  UNL     1      29.148   7.045   4.708  1.00  0.00    -0.616 OA
HETATM   30  O7  UNL     1      29.606   4.982   3.990  1.00  0.00    -0.616 OA
HETATM   31  O8  UNL     1      28.452   5.632   6.467  1.00  0.00    -0.616 OA
ENDBRANCH  27  28
ENDBRANCH  24  27
ENDBRANCH  23  24
ENDBRANCH  22  23
ENDBRANCH   3  22
BRANCH   4  32
HETATM   32  O9  UNL     1      22.170   2.838   3.801  1.00  0.00    -0.390 OA
ATOM     33  H9  UNL     1      22.535   3.109   4.636  1.00  0.00     0.210 HD
ENDBRANCH   4  32
TORSDOF 8
ENDMDL
