MODEL 13
REMARK VINA RESULT: -8.047767582      3.578      5.104
REMARK  4 active torsions:
REMARK  status: ('A' for Active; 'I' for Inactive)
REMARK    1  A    between atoms: C5_10  and  N4_11 
REMARK    2  A    between atoms: N4_11  and  C6_13 
REMARK    3  A    between atoms: C6_13  and  C7_14 
REMARK    4  A    between atoms: C7_14  and  N5_15 
ROOT
HETATM    1  N1  UNL     1     108.334  17.959  22.462  1.00  0.00    -0.063 NA
HETATM    2  C1  UNL     1     107.664  17.919  21.207  1.00  0.00     0.195 A 
HETATM    3  N2  UNL     1     106.476  17.310  21.068  1.00  0.00    -0.329 N 
ATOM      4  H2  UNL     1     106.047  16.867  21.880  1.00  0.00     0.168 HD
HETATM    5  C2  UNL     1     105.838  17.268  19.885  1.00  0.00     0.052 A 
HETATM    6  C3  UNL     1     104.621  16.651  19.714  1.00  0.00     0.063 A 
HETATM    7  C4  UNL     1     103.980  16.619  18.490  1.00  0.00     0.078 A 
HETATM    8  N3  UNL     1     102.815  16.107  18.018  1.00  0.00    -0.190 N 
ATOM      9  H3  UNL     1     102.141  15.594  18.586  1.00  0.00     0.184 HD
HETATM   10  C5  UNL     1     102.666  16.361  16.723  1.00  0.00     0.679 A 
HETATM   11  N6  UNL     1     103.782  17.059  16.363  1.00  0.00    -0.190 N 
ATOM     12  H6  UNL     1     103.974  17.406  15.423  1.00  0.00     0.184 HD
HETATM   13  C13 UNL     1     104.592  17.226  17.422  1.00  0.00     0.077 A 
HETATM   14  C14 UNL     1     105.819  17.859  17.551  1.00  0.00     0.052 A 
HETATM   15  C15 UNL     1     106.431  17.874  18.786  1.00  0.00     0.061 A 
HETATM   16  C16 UNL     1     107.655  18.496  18.950  1.00  0.00     0.260 A 
HETATM   17  O1  UNL     1     108.156  19.032  17.926  1.00  0.00    -0.267 OA
HETATM   18  N7  UNL     1     108.233  18.502  20.146  1.00  0.00    -0.297 N 
ATOM     19  H7  UNL     1     109.136  18.963  20.258  1.00  0.00     0.171 HD
ENDROOT
BRANCH  10  20
HETATM   20  N4  UNL     1     101.659  16.012  15.803  1.00  0.00    -0.224 N 
ATOM     21  H4  UNL     1     101.747  15.153  15.260  1.00  0.00     0.177 HD
BRANCH  20  22
HETATM   22  C6  UNL     1     100.504  16.853  15.621  1.00  0.00     0.168 C 
BRANCH  22  23
HETATM   23  C7  UNL     1     100.719  17.970  14.669  1.00  0.00     0.292 C 
BRANCH  23  24
HETATM   24  N5  UNL     1      99.647  18.899  14.632  1.00  0.00     0.090 N 
HETATM   25  C8  UNL     1     100.157  20.277  14.609  1.00  0.00     0.272 C 
HETATM   26  C9  UNL     1      98.950  21.190  14.597  1.00  0.00     0.030 C 
HETATM   27  C10 UNL     1      98.147  20.970  13.335  1.00  0.00     0.003 C 
HETATM   28  C11 UNL     1      97.667  19.521  13.354  1.00  0.00     0.030 C 
HETATM   29  C12 UNL     1      98.889  18.665  13.408  1.00  0.00     0.272 C 
ENDBRANCH  23  24
ENDBRANCH  22  23
ENDBRANCH  20  22
ENDBRANCH  10  20
TORSDOF 4
ENDMDL
