MODEL 14
REMARK VINA RESULT: -8.016608306      4.042      6.264
REMARK  4 active torsions:
REMARK  status: ('A' for Active; 'I' for Inactive)
REMARK    1  A    between atoms: C5_10  and  N4_11 
REMARK    2  A    between atoms: N4_11  and  C6_13 
REMARK    3  A    between atoms: C6_13  and  C7_14 
REMARK    4  A    between atoms: C7_14  and  N5_15 
ROOT
HETATM    1  N1  UNL     1     101.648  15.806  18.447  1.00  0.00    -0.063 NA
HETATM    2  C1  UNL     1     102.890  16.462  18.214  1.00  0.00     0.195 A 
HETATM    3  N2  UNL     1     103.295  16.770  16.972  1.00  0.00    -0.329 N 
ATOM      4  H2  UNL     1     102.699  16.528  16.180  1.00  0.00     0.168 HD
HETATM    5  C2  UNL     1     104.467  17.389  16.745  1.00  0.00     0.052 A 
HETATM    6  C3  UNL     1     104.908  17.716  15.484  1.00  0.00     0.063 A 
HETATM    7  C4  UNL     1     106.116  18.353  15.271  1.00  0.00     0.078 A 
HETATM    8  N3  UNL     1     106.803  18.792  14.186  1.00  0.00    -0.190 N 
ATOM      9  H3  UNL     1     106.476  18.702  13.224  1.00  0.00     0.184 HD
HETATM   10  C5  UNL     1     107.953  19.354  14.538  1.00  0.00     0.679 A 
HETATM   11  N6  UNL     1     107.994  19.265  15.900  1.00  0.00    -0.190 N 
ATOM     12  H6  UNL     1     108.758  19.609  16.483  1.00  0.00     0.184 HD
HETATM   13  C13 UNL     1     106.887  18.660  16.364  1.00  0.00     0.077 A 
HETATM   14  C14 UNL     1     106.481  18.348  17.652  1.00  0.00     0.052 A 
HETATM   15  C15 UNL     1     105.271  17.713  17.830  1.00  0.00     0.061 A 
HETATM   16  C16 UNL     1     104.834  17.387  19.101  1.00  0.00     0.260 A 
HETATM   17  O1  UNL     1     105.596  17.700  20.054  1.00  0.00    -0.267 OA
HETATM   18  N7  UNL     1     103.666  16.775  19.257  1.00  0.00    -0.297 N 
ATOM     19  H7  UNL     1     103.352  16.538  20.198  1.00  0.00     0.171 HD
ENDROOT
BRANCH  10  20
HETATM   20  N4  UNL     1     109.000  19.914  13.782  1.00  0.00    -0.224 N 
ATOM     21  H4  UNL     1     109.355  20.840  14.020  1.00  0.00     0.177 HD
BRANCH  20  22
HETATM   22  C6  UNL     1     109.575  19.195  12.675  1.00  0.00     0.168 C 
BRANCH  22  23
HETATM   23  C7  UNL     1     110.885  19.729  12.227  1.00  0.00     0.292 C 
BRANCH  23  24
HETATM   24  N5  UNL     1     111.996  19.102  12.847  1.00  0.00     0.090 N 
HETATM   25  C8  UNL     1     112.147  17.722  12.363  1.00  0.00     0.272 C 
HETATM   26  C9  UNL     1     113.333  17.130  13.095  1.00  0.00     0.030 C 
HETATM   27  C10 UNL     1     114.591  17.888  12.739  1.00  0.00     0.003 C 
HETATM   28  C11 UNL     1     114.395  19.328  13.206  1.00  0.00     0.030 C 
HETATM   29  C12 UNL     1     113.194  19.851  12.490  1.00  0.00     0.272 C 
ENDBRANCH  23  24
ENDBRANCH  22  23
ENDBRANCH  20  22
ENDBRANCH  10  20
TORSDOF 4
ENDMDL
