MODEL 19
REMARK VINA RESULT: -7.896599012      1.924      2.348
REMARK  4 active torsions:
REMARK  status: ('A' for Active; 'I' for Inactive)
REMARK    1  A    between atoms: C5_10  and  N4_11 
REMARK    2  A    between atoms: N4_11  and  C6_13 
REMARK    3  A    between atoms: C6_13  and  C7_14 
REMARK    4  A    between atoms: C7_14  and  N5_15 
ROOT
HETATM    1  N1  UNL     1     104.206  16.786  24.833  1.00  0.00    -0.063 NA
HETATM    2  C1  UNL     1     105.172  17.166  23.859  1.00  0.00     0.195 A 
HETATM    3  N2  UNL     1     104.889  17.138  22.546  1.00  0.00    -0.329 N 
ATOM      4  H2  UNL     1     103.962  16.838  22.244  1.00  0.00     0.168 HD
HETATM    5  C2  UNL     1     105.797  17.495  21.621  1.00  0.00     0.052 A 
HETATM    6  C3  UNL     1     105.535  17.476  20.271  1.00  0.00     0.063 A 
HETATM    7  C4  UNL     1     106.482  17.847  19.335  1.00  0.00     0.078 A 
HETATM    8  N3  UNL     1     106.525  17.932  17.981  1.00  0.00    -0.190 N 
ATOM      9  H3  UNL     1     105.747  17.699  17.365  1.00  0.00     0.184 HD
HETATM   10  C5  UNL     1     107.712  18.358  17.562  1.00  0.00     0.679 A 
HETATM   11  N6  UNL     1     108.446  18.548  18.697  1.00  0.00    -0.190 N 
ATOM     12  H6  UNL     1     109.412  18.876  18.717  1.00  0.00     0.184 HD
HETATM   13  C13 UNL     1     107.716  18.243  19.784  1.00  0.00     0.077 A 
HETATM   14  C14 UNL     1     108.022  18.277  21.135  1.00  0.00     0.052 A 
HETATM   15  C15 UNL     1     107.056  17.901  22.044  1.00  0.00     0.061 A 
HETATM   16  C16 UNL     1     107.326  17.923  23.399  1.00  0.00     0.260 A 
HETATM   17  O1  UNL     1     108.480  18.298  23.737  1.00  0.00    -0.267 OA
HETATM   18  N7  UNL     1     106.385  17.558  24.262  1.00  0.00    -0.297 N 
ATOM     19  H7  UNL     1     106.594  17.576  25.261  1.00  0.00     0.171 HD
ENDROOT
BRANCH  10  20
HETATM   20  N4  UNL     1     108.237  18.568  16.273  1.00  0.00    -0.224 N 
ATOM     21  H4  UNL     1     109.213  18.342  16.083  1.00  0.00     0.177 HD
BRANCH  20  22
HETATM   22  C6  UNL     1     107.411  19.100  15.219  1.00  0.00     0.168 C 
BRANCH  22  23
HETATM   23  C7  UNL     1     108.001  18.961  13.865  1.00  0.00     0.292 C 
BRANCH  23  24
HETATM   24  N5  UNL     1     107.073  19.181  12.816  1.00  0.00     0.090 N 
HETATM   25  C8  UNL     1     106.466  20.515  12.933  1.00  0.00     0.272 C 
HETATM   26  C9  UNL     1     105.478  20.648  11.795  1.00  0.00     0.030 C 
HETATM   27  C10 UNL     1     106.203  20.582  10.470  1.00  0.00     0.003 C 
HETATM   28  C11 UNL     1     106.866  19.209  10.388  1.00  0.00     0.030 C 
HETATM   29  C12 UNL     1     107.795  19.111  11.551  1.00  0.00     0.272 C 
ENDBRANCH  23  24
ENDBRANCH  22  23
ENDBRANCH  20  22
ENDBRANCH  10  20
TORSDOF 4
ENDMDL
