MODEL 5
REMARK VINA RESULT: -8.369797494      3.670      5.725
REMARK  4 active torsions:
REMARK  status: ('A' for Active; 'I' for Inactive)
REMARK    1  A    between atoms: C5_10  and  N4_11 
REMARK    2  A    between atoms: N4_11  and  C6_13 
REMARK    3  A    between atoms: C6_13  and  C7_14 
REMARK    4  A    between atoms: C7_14  and  N5_15 
ROOT
HETATM    1  N1  UNL     1     106.127  17.216  22.137  1.00  0.00    -0.063 NA
HETATM    2  C1  UNL     1     105.882  17.451  20.754  1.00  0.00     0.195 A 
HETATM    3  N2  UNL     1     106.867  17.833  19.925  1.00  0.00    -0.329 N 
ATOM      4  H2  UNL     1     107.809  17.956  20.296  1.00  0.00     0.168 HD
HETATM    5  C2  UNL     1     106.642  18.056  18.618  1.00  0.00     0.052 A 
HETATM    6  C3  UNL     1     107.630  18.448  17.746  1.00  0.00     0.063 A 
HETATM    7  C4  UNL     1     107.380  18.672  16.406  1.00  0.00     0.078 A 
HETATM    8  N3  UNL     1     108.117  19.053  15.332  1.00  0.00    -0.190 N 
ATOM      9  H3  UNL     1     109.116  19.259  15.364  1.00  0.00     0.184 HD
HETATM   10  C5  UNL     1     107.372  19.122  14.234  1.00  0.00     0.679 A 
HETATM   11  N6  UNL     1     106.114  18.772  14.632  1.00  0.00    -0.190 N 
ATOM     12  H6  UNL     1     105.301  18.726  14.018  1.00  0.00     0.184 HD
HETATM   13  C13 UNL     1     106.099  18.495  15.948  1.00  0.00     0.077 A 
HETATM   14  C14 UNL     1     105.073  18.102  16.793  1.00  0.00     0.052 A 
HETATM   15  C15 UNL     1     105.356  17.885  18.124  1.00  0.00     0.061 A 
HETATM   16  C16 UNL     1     104.356  17.491  18.995  1.00  0.00     0.260 A 
HETATM   17  O1  UNL     1     103.206  17.349  18.503  1.00  0.00    -0.267 OA
HETATM   18  N7  UNL     1     104.644  17.287  20.275  1.00  0.00    -0.297 N 
ATOM     19  H7  UNL     1     103.901  16.997  20.911  1.00  0.00     0.171 HD
ENDROOT
BRANCH  10  20
HETATM   20  N4  UNL     1     107.674  19.495  12.911  1.00  0.00    -0.224 N 
ATOM     21  H4  UNL     1     106.922  19.578  12.227  1.00  0.00     0.177 HD
BRANCH  20  22
HETATM   22  C6  UNL     1     109.032  19.761  12.513  1.00  0.00     0.168 C 
BRANCH  22  23
HETATM   23  C7  UNL     1     109.770  18.560  12.051  1.00  0.00     0.292 C 
BRANCH  23  24
HETATM   24  N5  UNL     1     111.038  18.402  12.665  1.00  0.00     0.090 N 
HETATM   25  C8  UNL     1     111.645  17.121  12.277  1.00  0.00     0.272 C 
HETATM   26  C9  UNL     1     112.973  17.029  12.997  1.00  0.00     0.030 C 
HETATM   27  C10 UNL     1     113.890  18.138  12.532  1.00  0.00     0.003 C 
HETATM   28  C11 UNL     1     113.221  19.459  12.901  1.00  0.00     0.030 C 
HETATM   29  C12 UNL     1     111.902  19.482  12.203  1.00  0.00     0.272 C 
ENDBRANCH  23  24
ENDBRANCH  22  23
ENDBRANCH  20  22
ENDBRANCH  10  20
TORSDOF 4
ENDMDL
