MODEL 2
REMARK VINA RESULT: -8.986420584      1.665      2.348
REMARK  4 active torsions:
REMARK  status: ('A' for Active; 'I' for Inactive)
REMARK    1  A    between atoms: C6_13  and  N4_14 
REMARK    2  A    between atoms: N4_14  and  C7_16 
REMARK    3  A    between atoms: C7_16  and  C8_17 
REMARK    4  A    between atoms: C8_17  and  N5_18 
ROOT
HETATM    1  O1  UNL     1     108.840  18.363  23.822  1.00  0.00    -0.267 OA
HETATM    2  C1  UNL     1     107.685  18.035  23.449  1.00  0.00     0.258 A 
HETATM    3  N1  UNL     1     106.704  17.719  24.292  1.00  0.00    -0.319 N 
ATOM      4  H1  UNL     1     106.885  17.741  25.296  1.00  0.00     0.169 HD
HETATM    5  C2  UNL     1     105.472  17.369  23.851  1.00  0.00     0.183 A 
HETATM    6  N2  UNL     1     105.185  17.325  22.536  1.00  0.00    -0.351 N 
ATOM      7  H2  UNL     1     104.258  17.063  22.203  1.00  0.00     0.166 HD
HETATM    8  C3  UNL     1     106.175  17.643  21.680  1.00  0.00     0.051 A 
HETATM    9  C4  UNL     1     105.956  17.621  20.316  1.00  0.00     0.063 A 
HETATM   10  C5  UNL     1     106.927  17.935  19.398  1.00  0.00     0.078 A 
HETATM   11  N3  UNL     1     106.994  17.996  18.055  1.00  0.00    -0.190 N 
ATOM     12  H3  UNL     1     106.216  17.787  17.429  1.00  0.00     0.184 HD
HETATM   13  C6  UNL     1     108.215  18.369  17.647  1.00  0.00     0.679 A 
HETATM   14  N6  UNL     1     108.960  18.555  18.746  1.00  0.00    -0.190 N 
ATOM     15  H6  UNL     1     109.938  18.843  18.760  1.00  0.00     0.184 HD
HETATM   16  C14 UNL     1     108.195  18.295  19.837  1.00  0.00     0.077 A 
HETATM   17  C15 UNL     1     108.447  18.328  21.192  1.00  0.00     0.052 A 
HETATM   18  C16 UNL     1     107.439  18.003  22.101  1.00  0.00     0.061 A 
ENDROOT
BRANCH  13  19
HETATM   19  N4  UNL     1     108.593  18.522  16.289  1.00  0.00    -0.224 N 
ATOM     20  H4  UNL     1     109.431  18.072  15.919  1.00  0.00     0.177 HD
BRANCH  19  21
HETATM   21  C7  UNL     1     107.739  19.348  15.438  1.00  0.00     0.168 C 
BRANCH  21  22
HETATM   22  C8  UNL     1     107.908  18.913  14.003  1.00  0.00     0.292 C 
BRANCH  22  23
HETATM   23  N5  UNL     1     108.439  19.990  13.227  1.00  0.00     0.090 N 
HETATM   24  C9  UNL     1     109.879  19.928  13.082  1.00  0.00     0.272 C 
HETATM   25  C10 UNL     1     110.374  18.756  12.320  1.00  0.00     0.030 C 
HETATM   26  C11 UNL     1     109.415  18.069  11.436  1.00  0.00     0.003 C 
HETATM   27  C12 UNL     1     108.147  18.756  11.130  1.00  0.00     0.030 C 
HETATM   28  C13 UNL     1     107.908  20.034  11.879  1.00  0.00     0.272 C 
ENDBRANCH  22  23
ENDBRANCH  21  22
ENDBRANCH  19  21
ENDBRANCH  13  19
TORSDOF 4
ENDMDL
