MODEL 5
REMARK VINA RESULT: -8.448651375      2.931      4.162
REMARK  4 active torsions:
REMARK  status: ('A' for Active; 'I' for Inactive)
REMARK    1  A    between atoms: C6_13  and  N4_14 
REMARK    2  A    between atoms: N4_14  and  C7_16 
REMARK    3  A    between atoms: C7_16  and  C8_17 
REMARK    4  A    between atoms: C8_17  and  N5_18 
ROOT
HETATM    1  O1  UNL     1     103.443  17.102  24.363  1.00  0.00    -0.267 OA
HETATM    2  C1  UNL     1     104.510  17.325  23.737  1.00  0.00     0.258 A 
HETATM    3  N1  UNL     1     105.626  17.761  24.318  1.00  0.00    -0.319 N 
ATOM      4  H1  UNL     1     105.630  17.926  25.325  1.00  0.00     0.169 HD
HETATM    5  C2  UNL     1     106.756  17.991  23.608  1.00  0.00     0.183 A 
HETATM    6  N2  UNL     1     106.800  17.787  22.277  1.00  0.00    -0.351 N 
ATOM      7  H2  UNL     1     107.651  17.959  21.741  1.00  0.00     0.166 HD
HETATM    8  C3  UNL     1     105.674  17.348  21.684  1.00  0.00     0.051 A 
HETATM    9  C4  UNL     1     105.643  17.116  20.323  1.00  0.00     0.063 A 
HETATM   10  C5  UNL     1     104.524  16.667  19.666  1.00  0.00     0.078 A 
HETATM   11  N3  UNL     1     104.216  16.365  18.391  1.00  0.00    -0.190 N 
ATOM     12  H3  UNL     1     104.867  16.437  17.609  1.00  0.00     0.184 HD
HETATM   13  C6  UNL     1     102.943  15.959  18.283  1.00  0.00     0.679 A 
HETATM   14  N6  UNL     1     102.410  15.997  19.512  1.00  0.00    -0.190 N 
ATOM     15  H6  UNL     1     101.452  15.743  19.753  1.00  0.00     0.184 HD
HETATM   16  C14 UNL     1     103.358  16.428  20.383  1.00  0.00     0.077 A 
HETATM   17  C15 UNL     1     103.355  16.649  21.744  1.00  0.00     0.052 A 
HETATM   18  C16 UNL     1     104.509  17.105  22.384  1.00  0.00     0.061 A 
ENDROOT
BRANCH  13  19
HETATM   19  N4  UNL     1     102.327  15.573  17.066  1.00  0.00    -0.224 N 
ATOM     20  H4  UNL     1     101.657  14.804  17.033  1.00  0.00     0.177 HD
BRANCH  19  21
HETATM   21  C7  UNL     1     102.686  16.317  15.861  1.00  0.00     0.168 C 
BRANCH  21  22
HETATM   22  C8  UNL     1     101.899  17.604  15.825  1.00  0.00     0.292 C 
BRANCH  22  23
HETATM   23  N5  UNL     1     102.752  18.706  16.145  1.00  0.00     0.090 N 
HETATM   24  C9  UNL     1     103.884  18.825  15.247  1.00  0.00     0.272 C 
HETATM   25  C10 UNL     1     103.530  19.134  13.842  1.00  0.00     0.030 C 
HETATM   26  C11 UNL     1     102.201  19.724  13.592  1.00  0.00     0.003 C 
HETATM   27  C12 UNL     1     101.452  20.246  14.749  1.00  0.00     0.030 C 
HETATM   28  C13 UNL     1     102.071  19.985  16.090  1.00  0.00     0.272 C 
ENDBRANCH  22  23
ENDBRANCH  21  22
ENDBRANCH  19  21
ENDBRANCH  13  19
TORSDOF 4
ENDMDL
