MODEL 11
REMARK VINA RESULT: -8.228147218      2.664      3.763
REMARK  4 active torsions:
REMARK  status: ('A' for Active; 'I' for Inactive)
REMARK    1  A    between atoms: C6_13  and  N4_14 
REMARK    2  A    between atoms: N4_14  and  C7_16 
REMARK    3  A    between atoms: C7_16  and  C8_17 
REMARK    4  A    between atoms: C8_17  and  N5_18 
ROOT
HETATM    1  O1  UNL     1     104.234  17.198  24.102  1.00  0.00    -0.267 OA
HETATM    2  C1  UNL     1     105.339  17.505  23.585  1.00  0.00     0.258 A 
HETATM    3  N1  UNL     1     106.390  17.919  24.290  1.00  0.00    -0.319 N 
ATOM      4  H1  UNL     1     106.309  17.996  25.304  1.00  0.00     0.169 HD
HETATM    5  C2  UNL     1     107.563  18.242  23.695  1.00  0.00     0.183 A 
HETATM    6  N2  UNL     1     107.718  18.157  22.360  1.00  0.00    -0.351 N 
ATOM      7  H2  UNL     1     108.602  18.399  21.911  1.00  0.00     0.166 HD
HETATM    8  C3  UNL     1     106.657  17.740  21.643  1.00  0.00     0.051 A 
HETATM    9  C4  UNL     1     106.741  17.628  20.269  1.00  0.00     0.063 A 
HETATM   10  C5  UNL     1     105.692  17.208  19.488  1.00  0.00     0.078 A 
HETATM   11  N3  UNL     1     105.496  17.011  18.171  1.00  0.00    -0.190 N 
ATOM     12  H3  UNL     1     106.203  17.169  17.453  1.00  0.00     0.184 HD
HETATM   13  C6  UNL     1     104.250  16.581  17.926  1.00  0.00     0.679 A 
HETATM   14  N6  UNL     1     103.622  16.495  19.107  1.00  0.00    -0.190 N 
ATOM     15  H6  UNL     1     102.657  16.195  19.247  1.00  0.00     0.184 HD
HETATM   16  C14 UNL     1     104.483  16.875  20.085  1.00  0.00     0.077 A 
HETATM   17  C15 UNL     1     104.366  16.975  21.455  1.00  0.00     0.052 A 
HETATM   18  C16 UNL     1     105.451  17.405  22.223  1.00  0.00     0.061 A 
ENDROOT
BRANCH  13  19
HETATM   19  N4  UNL     1     103.744  16.286  16.635  1.00  0.00    -0.224 N 
ATOM     20  H4  UNL     1     104.358  15.959  15.888  1.00  0.00     0.177 HD
BRANCH  19  21
HETATM   21  C7  UNL     1     102.311  16.469  16.412  1.00  0.00     0.168 C 
BRANCH  21  22
HETATM   22  C8  UNL     1     102.110  17.309  15.175  1.00  0.00     0.292 C 
BRANCH  22  23
HETATM   23  N5  UNL     1     101.534  18.568  15.530  1.00  0.00     0.090 N 
HETATM   24  C9  UNL     1     102.438  19.412  16.286  1.00  0.00     0.272 C 
HETATM   25  C10 UNL     1     103.645  19.848  15.544  1.00  0.00     0.030 C 
HETATM   26  C11 UNL     1     103.592  19.791  14.072  1.00  0.00     0.003 C 
HETATM   27  C12 UNL     1     102.274  19.609  13.437  1.00  0.00     0.030 C 
HETATM   28  C13 UNL     1     101.134  19.354  14.379  1.00  0.00     0.272 C 
ENDBRANCH  22  23
ENDBRANCH  21  22
ENDBRANCH  19  21
ENDBRANCH  13  19
TORSDOF 4
ENDMDL
