MODEL 10
REMARK VINA RESULT: -8.308496304      1.697      2.451
REMARK  4 active torsions:
REMARK  status: ('A' for Active; 'I' for Inactive)
REMARK    1  A    between atoms: C6_13  and  N4_14 
REMARK    2  A    between atoms: N4_14  and  C7_16 
REMARK    3  A    between atoms: C7_16  and  C8_17 
REMARK    4  A    between atoms: C8_17  and  N5_18 
ROOT
HETATM    1  O1  UNL     1     108.924  18.355  23.214  1.00  0.00    -0.267 OA
HETATM    2  C1  UNL     1     107.766  18.034  22.842  1.00  0.00     0.258 A 
HETATM    3  N1  UNL     1     106.791  17.699  23.684  1.00  0.00    -0.319 N 
ATOM      4  H1  UNL     1     106.979  17.698  24.686  1.00  0.00     0.169 HD
HETATM    5  C2  UNL     1     105.557  17.358  23.244  1.00  0.00     0.183 A 
HETATM    6  N2  UNL     1     105.260  17.344  21.930  1.00  0.00    -0.351 N 
ATOM      7  H2  UNL     1     104.330  17.089  21.597  1.00  0.00     0.166 HD
HETATM    8  C3  UNL     1     106.244  17.681  21.074  1.00  0.00     0.051 A 
HETATM    9  C4  UNL     1     106.015  17.690  19.712  1.00  0.00     0.063 A 
HETATM   10  C5  UNL     1     106.980  18.025  18.794  1.00  0.00     0.078 A 
HETATM   11  N3  UNL     1     107.037  18.117  17.452  1.00  0.00    -0.190 N 
ATOM     12  H3  UNL     1     106.255  17.921  16.828  1.00  0.00     0.184 HD
HETATM   13  C6  UNL     1     108.255  18.499  17.044  1.00  0.00     0.679 A 
HETATM   14  N6  UNL     1     109.008  18.660  18.142  1.00  0.00    -0.190 N 
ATOM     15  H6  UNL     1     109.986  18.949  18.155  1.00  0.00     0.184 HD
HETATM   16  C14 UNL     1     108.251  18.376  19.232  1.00  0.00     0.077 A 
HETATM   17  C15 UNL     1     108.512  18.378  20.586  1.00  0.00     0.052 A 
HETATM   18  C16 UNL     1     107.510  18.033  21.495  1.00  0.00     0.061 A 
ENDROOT
BRANCH  13  19
HETATM   19  N4  UNL     1     108.624  18.683  15.688  1.00  0.00    -0.224 N 
ATOM     20  H4  UNL     1     109.580  18.520  15.373  1.00  0.00     0.177 HD
BRANCH  19  21
HETATM   21  C7  UNL     1     107.583  19.115  14.757  1.00  0.00     0.168 C 
BRANCH  21  22
HETATM   22  C8  UNL     1     108.217  19.431  13.425  1.00  0.00     0.292 C 
BRANCH  22  23
HETATM   23  N5  UNL     1     107.992  18.355  12.511  1.00  0.00     0.090 N 
HETATM   24  C9  UNL     1     106.697  18.423  11.863  1.00  0.00     0.272 C 
HETATM   25  C10 UNL     1     106.511  19.596  10.976  1.00  0.00     0.030 C 
HETATM   26  C11 UNL     1     107.725  20.278  10.490  1.00  0.00     0.003 C 
HETATM   27  C12 UNL     1     109.016  19.586  10.654  1.00  0.00     0.030 C 
HETATM   28  C13 UNL     1     108.967  18.308  11.439  1.00  0.00     0.272 C 
ENDBRANCH  22  23
ENDBRANCH  21  22
ENDBRANCH  19  21
ENDBRANCH  13  19
TORSDOF 4
ENDMDL
