MODEL 8
REMARK VINA RESULT: -8.347378267      2.709      3.983
REMARK  4 active torsions:
REMARK  status: ('A' for Active; 'I' for Inactive)
REMARK    1  A    between atoms: C6_13  and  N4_14 
REMARK    2  A    between atoms: N4_14  and  C7_16 
REMARK    3  A    between atoms: C7_16  and  C8_17 
REMARK    4  A    between atoms: C8_17  and  N5_18 
ROOT
HETATM    1  O1  UNL     1     103.316  17.103  24.335  1.00  0.00    -0.267 OA
HETATM    2  C1  UNL     1     104.402  17.320  23.740  1.00  0.00     0.258 A 
HETATM    3  N1  UNL     1     105.498  17.764  24.352  1.00  0.00    -0.319 N 
ATOM      4  H1  UNL     1     105.470  17.939  25.356  1.00  0.00     0.169 HD
HETATM    5  C2  UNL     1     106.650  17.987  23.675  1.00  0.00     0.183 A 
HETATM    6  N2  UNL     1     106.736  17.770  22.348  1.00  0.00    -0.351 N 
ATOM      7  H2  UNL     1     107.603  17.937  21.838  1.00  0.00     0.166 HD
HETATM    8  C3  UNL     1     105.629  17.323  21.725  1.00  0.00     0.051 A 
HETATM    9  C4  UNL     1     105.641  17.077  20.366  1.00  0.00     0.063 A 
HETATM   10  C5  UNL     1     104.544  16.620  19.679  1.00  0.00     0.078 A 
HETATM   11  N3  UNL     1     104.276  16.305  18.398  1.00  0.00    -0.190 N 
ATOM     12  H3  UNL     1     104.952  16.369  17.636  1.00  0.00     0.184 HD
HETATM   13  C6  UNL     1     103.008  15.896  18.254  1.00  0.00     0.679 A 
HETATM   14  N6  UNL     1     102.436  15.946  19.466  1.00  0.00    -0.190 N 
ATOM     15  H6  UNL     1     101.472  15.693  19.679  1.00  0.00     0.184 HD
HETATM   16  C14 UNL     1     103.356  16.388  20.362  1.00  0.00     0.077 A 
HETATM   17  C15 UNL     1     103.310  16.623  21.719  1.00  0.00     0.052 A 
HETATM   18  C16 UNL     1     104.443  17.086  22.390  1.00  0.00     0.061 A 
ENDROOT
BRANCH  13  19
HETATM   19  N4  UNL     1     102.430  15.497  17.023  1.00  0.00    -0.224 N 
ATOM     20  H4  UNL     1     102.307  14.511  16.792  1.00  0.00     0.177 HD
BRANCH  19  21
HETATM   21  C7  UNL     1     102.019  16.549  16.096  1.00  0.00     0.168 C 
BRANCH  21  22
HETATM   22  C8  UNL     1     103.191  16.916  15.219  1.00  0.00     0.292 C 
BRANCH  22  23
HETATM   23  N5  UNL     1     103.243  18.334  15.043  1.00  0.00     0.090 N 
HETATM   24  C9  UNL     1     104.048  19.000  16.048  1.00  0.00     0.272 C 
HETATM   25  C10 UNL     1     105.489  18.654  16.016  1.00  0.00     0.030 C 
HETATM   26  C11 UNL     1     106.020  18.082  14.764  1.00  0.00     0.003 C 
HETATM   27  C12 UNL     1     105.184  18.179  13.554  1.00  0.00     0.030 C 
HETATM   28  C13 UNL     1     103.804  18.728  13.766  1.00  0.00     0.272 C 
ENDBRANCH  22  23
ENDBRANCH  21  22
ENDBRANCH  19  21
ENDBRANCH  13  19
TORSDOF 4
ENDMDL
