MODEL 3
REMARK VINA RESULT: -8.849338279      0.829      1.660
REMARK  4 active torsions:
REMARK  status: ('A' for Active; 'I' for Inactive)
REMARK    1  A    between atoms: C6_13  and  N4_14 
REMARK    2  A    between atoms: N4_14  and  C7_16 
REMARK    3  A    between atoms: C7_16  and  C8_17 
REMARK    4  A    between atoms: C8_17  and  N5_18 
ROOT
HETATM    1  O1  UNL     1     108.769  18.339  23.919  1.00  0.00    -0.267 OA
HETATM    2  C1  UNL     1     107.620  17.999  23.538  1.00  0.00     0.258 A 
HETATM    3  N1  UNL     1     106.637  17.669  24.374  1.00  0.00    -0.319 N 
ATOM      4  H1  UNL     1     106.812  17.690  25.379  1.00  0.00     0.169 HD
HETATM    5  C2  UNL     1     105.413  17.306  23.924  1.00  0.00     0.183 A 
HETATM    6  N2  UNL     1     105.135  17.263  22.607  1.00  0.00    -0.351 N 
ATOM      7  H2  UNL     1     104.212  16.990  22.267  1.00  0.00     0.166 HD
HETATM    8  C3  UNL     1     106.126  17.594  21.758  1.00  0.00     0.051 A 
HETATM    9  C4  UNL     1     105.916  17.573  20.393  1.00  0.00     0.063 A 
HETATM   10  C5  UNL     1     106.889  17.901  19.482  1.00  0.00     0.078 A 
HETATM   11  N3  UNL     1     106.963  17.967  18.139  1.00  0.00    -0.190 N 
ATOM     12  H3  UNL     1     106.191  17.749  17.508  1.00  0.00     0.184 HD
HETATM   13  C6  UNL     1     108.183  18.354  17.740  1.00  0.00     0.679 A 
HETATM   14  N6  UNL     1     108.918  18.546  18.844  1.00  0.00    -0.190 N 
ATOM     15  H6  UNL     1     109.893  18.846  18.865  1.00  0.00     0.184 HD
HETATM   16  C14 UNL     1     108.150  18.274  19.930  1.00  0.00     0.077 A 
HETATM   17  C15 UNL     1     108.393  18.306  21.286  1.00  0.00     0.052 A 
HETATM   18  C16 UNL     1     107.383  17.967  22.189  1.00  0.00     0.061 A 
ENDROOT
BRANCH  13  19
HETATM   19  N4  UNL     1     108.567  18.515  16.385  1.00  0.00    -0.224 N 
ATOM     20  H4  UNL     1     109.312  17.950  15.976  1.00  0.00     0.177 HD
BRANCH  19  21
HETATM   21  C7  UNL     1     107.858  19.521  15.596  1.00  0.00     0.168 C 
BRANCH  21  22
HETATM   22  C8  UNL     1     107.741  19.034  14.172  1.00  0.00     0.292 C 
BRANCH  22  23
HETATM   23  N5  UNL     1     106.432  18.508  13.943  1.00  0.00     0.090 N 
HETATM   24  C9  UNL     1     105.426  19.541  13.790  1.00  0.00     0.272 C 
HETATM   25  C10 UNL     1     105.602  20.403  12.597  1.00  0.00     0.030 C 
HETATM   26  C11 UNL     1     106.434  19.878  11.498  1.00  0.00     0.003 C 
HETATM   27  C12 UNL     1     106.773  18.443  11.517  1.00  0.00     0.030 C 
HETATM   28  C13 UNL     1     106.347  17.696  12.746  1.00  0.00     0.272 C 
ENDBRANCH  22  23
ENDBRANCH  21  22
ENDBRANCH  19  21
ENDBRANCH  13  19
TORSDOF 4
ENDMDL
