MODEL 1
REMARK VINA RESULT: -9.064243538      0.000      0.000
REMARK  4 active torsions:
REMARK  status: ('A' for Active; 'I' for Inactive)
REMARK    1  A    between atoms: C6_13  and  N4_14 
REMARK    2  A    between atoms: N4_14  and  C7_16 
REMARK    3  A    between atoms: C7_16  and  C8_17 
REMARK    4  A    between atoms: C8_17  and  N5_18 
ROOT
HETATM    1  O1  UNL     1     108.829  18.374  23.899  1.00  0.00    -0.267 OA
HETATM    2  C1  UNL     1     107.676  18.032  23.531  1.00  0.00     0.258 A 
HETATM    3  N1  UNL     1     106.700  17.711  24.378  1.00  0.00    -0.319 N 
ATOM      4  H1  UNL     1     106.883  17.739  25.381  1.00  0.00     0.169 HD
HETATM    5  C2  UNL     1     105.471  17.347  23.942  1.00  0.00     0.183 A 
HETATM    6  N2  UNL     1     105.181  17.294  22.627  1.00  0.00    -0.351 N 
ATOM      7  H2  UNL     1     104.255  17.021  22.298  1.00  0.00     0.166 HD
HETATM    8  C3  UNL     1     106.165  17.617  21.767  1.00  0.00     0.051 A 
HETATM    9  C4  UNL     1     105.943  17.586  20.404  1.00  0.00     0.063 A 
HETATM   10  C5  UNL     1     106.909  17.906  19.482  1.00  0.00     0.078 A 
HETATM   11  N3  UNL     1     106.971  17.961  18.138  1.00  0.00    -0.190 N 
ATOM     12  H3  UNL     1     106.194  17.741  17.516  1.00  0.00     0.184 HD
HETATM   13  C6  UNL     1     108.188  18.344  17.726  1.00  0.00     0.679 A 
HETATM   14  N6  UNL     1     108.934  18.542  18.822  1.00  0.00    -0.190 N 
ATOM     15  H6  UNL     1     109.909  18.841  18.832  1.00  0.00     0.184 HD
HETATM   16  C14 UNL     1     108.174  18.280  19.916  1.00  0.00     0.077 A 
HETATM   17  C15 UNL     1     108.429  18.322  21.270  1.00  0.00     0.052 A 
HETATM   18  C16 UNL     1     107.426  17.992  22.184  1.00  0.00     0.061 A 
ENDROOT
BRANCH  13  19
HETATM   19  N4  UNL     1     108.561  18.494  16.366  1.00  0.00    -0.224 N 
ATOM     20  H4  UNL     1     109.288  17.912  15.950  1.00  0.00     0.177 HD
BRANCH  19  21
HETATM   21  C7  UNL     1     107.866  19.514  15.583  1.00  0.00     0.168 C 
BRANCH  21  22
HETATM   22  C8  UNL     1     106.455  19.051  15.317  1.00  0.00     0.292 C 
BRANCH  22  23
HETATM   23  N5  UNL     1     106.159  19.167  13.923  1.00  0.00     0.090 N 
HETATM   24  C9  UNL     1     106.529  17.988  13.165  1.00  0.00     0.272 C 
HETATM   25  C10 UNL     1     105.773  16.763  13.518  1.00  0.00     0.030 C 
HETATM   26  C11 UNL     1     104.483  16.939  14.210  1.00  0.00     0.003 C 
HETATM   27  C12 UNL     1     103.891  18.290  14.229  1.00  0.00     0.030 C 
HETATM   28  C13 UNL     1     104.750  19.378  13.657  1.00  0.00     0.272 C 
ENDBRANCH  22  23
ENDBRANCH  21  22
ENDBRANCH  19  21
ENDBRANCH  13  19
TORSDOF 4
ENDMDL
