MODEL 1
REMARK VINA RESULT: -8.662289628      0.000      0.000
REMARK  3 active torsions:
REMARK  status: ('A' for Active; 'I' for Inactive)
REMARK    1  A    between atoms: C6_13  and  N4_14 
REMARK    2  A    between atoms: N4_14  and  C7_16 
REMARK    3  A    between atoms: C7_16  and  C8_17 
ROOT
HETATM    1  O1  UNL     1     -19.283  18.542 -23.329  1.00  0.00    -0.267 OA
HETATM    2  C1  UNL     1     -18.131  18.205 -22.923  1.00  0.00     0.258 A 
HETATM    3  N1  UNL     1     -17.171  17.915 -23.846  1.00  0.00    -0.319 N 
ATOM      4  H1  UNL     1     -17.388  17.973 -24.841  1.00  0.00     0.169 HD
HETATM    5  C2  UNL     1     -15.944  17.555 -23.449  1.00  0.00     0.183 A 
HETATM    6  N2  UNL     1     -15.664  17.481 -22.136  1.00  0.00    -0.351 N 
ATOM      7  H2  UNL     1     -14.727  17.206 -21.841  1.00  0.00     0.166 HD
HETATM    8  C3  UNL     1     -16.595  17.761 -21.198  1.00  0.00     0.051 A 
HETATM    9  C4  UNL     1     -16.332  17.692 -19.847  1.00  0.00     0.063 A 
HETATM   10  C5  UNL     1     -17.284  17.980 -18.871  1.00  0.00     0.078 A 
HETATM   11  N3  UNL     1     -17.291  17.990 -17.537  1.00  0.00    -0.190 N 
ATOM     12  H3  UNL     1     -16.488  17.755 -16.955  1.00  0.00     0.184 HD
HETATM   13  C6  UNL     1     -18.496  18.349 -17.059  1.00  0.00     0.679 A 
HETATM   14  N5  UNL     1     -19.261  18.569 -18.147  1.00  0.00    -0.190 N 
ATOM     15  H5  UNL     1     -20.238  18.859 -18.123  1.00  0.00     0.184 HD
HETATM   16  C12 UNL     1     -18.551  18.352 -19.267  1.00  0.00     0.077 A 
HETATM   17  C13 UNL     1     -18.829  18.426 -20.625  1.00  0.00     0.052 A 
HETATM   18  C14 UNL     1     -17.870  18.136 -21.572  1.00  0.00     0.061 A 
ENDROOT
BRANCH  13  19
HETATM   19  N4  UNL     1     -18.879  18.471 -15.684  1.00  0.00    -0.221 N 
ATOM     20  H4  UNL     1     -19.622  17.886 -15.302  1.00  0.00     0.178 HD
BRANCH  19  21
HETATM   21  C7  UNL     1     -18.203  19.429 -14.846  1.00  0.00     0.184 C 
BRANCH  21  22
HETATM   22  C8  UNL     1     -16.986  18.787 -14.246  1.00  0.00     0.001 A 
HETATM   23  C9  UNL     1     -16.922  17.854 -13.245  1.00  0.00     0.017 A 
HETATM   24  C10 UNL     1     -15.711  17.428 -12.878  1.00  0.00     0.008 A 
HETATM   25  C11 UNL     1     -14.630  17.956 -13.529  1.00  0.00     0.050 A 
HETATM   26  S1  UNL     1     -15.348  19.036 -14.640  1.00  0.00    -0.105 SA
ENDBRANCH  21  22
ENDBRANCH  19  21
ENDBRANCH  13  19
TORSDOF 3
ENDMDL
