MODEL 4
REMARK VINA RESULT: -8.117540689      3.159      4.296
REMARK  3 active torsions:
REMARK  status: ('A' for Active; 'I' for Inactive)
REMARK    1  A    between atoms: C6_13  and  N4_14 
REMARK    2  A    between atoms: N4_14  and  C7_16 
REMARK    3  A    between atoms: C7_16  and  C8_17 
ROOT
HETATM    1  O1  UNL     1     -12.695  16.923 -23.551  1.00  0.00    -0.267 OA
HETATM    2  C1  UNL     1     -13.840  17.176 -23.072  1.00  0.00     0.258 A 
HETATM    3  N1  UNL     1     -14.824  17.598 -23.915  1.00  0.00    -0.319 N 
ATOM      4  H1  UNL     1     -14.630  17.704 -24.911  1.00  0.00     0.169 HD
HETATM    5  C2  UNL     1     -16.045  17.874 -23.439  1.00  0.00     0.183 A 
HETATM    6  N2  UNL     1     -16.295  17.733 -22.126  1.00  0.00    -0.351 N 
ATOM      7  H2  UNL     1     -17.227  17.945 -21.771  1.00  0.00     0.166 HD
HETATM    8  C3  UNL     1     -15.340  17.317 -21.266  1.00  0.00     0.051 A 
HETATM    9  C4  UNL     1     -15.572  17.165 -19.916  1.00  0.00     0.063 A 
HETATM   10  C5  UNL     1     -14.596  16.737 -19.019  1.00  0.00     0.078 A 
HETATM   11  N3  UNL     1     -14.558  16.512 -17.705  1.00  0.00    -0.190 N 
ATOM     12  H3  UNL     1     -15.350  16.640 -17.075  1.00  0.00     0.184 HD
HETATM   13  C6  UNL     1     -13.339  16.096 -17.317  1.00  0.00     0.679 A 
HETATM   14  N5  UNL     1     -12.597  16.064 -18.442  1.00  0.00    -0.190 N 
ATOM     15  H5  UNL     1     -11.617  15.787 -18.486  1.00  0.00     0.184 HD
HETATM   16  C12 UNL     1     -13.335  16.449 -19.497  1.00  0.00     0.077 A 
HETATM   17  C13 UNL     1     -13.087  16.598 -20.855  1.00  0.00     0.052 A 
HETATM   18  C14 UNL     1     -14.071  17.024 -21.722  1.00  0.00     0.061 A 
ENDROOT
BRANCH  13  19
HETATM   19  N4  UNL     1     -12.923  15.760 -15.987  1.00  0.00    -0.221 N 
ATOM     20  H4  UNL     1     -13.178  14.860 -15.580  1.00  0.00     0.178 HD
BRANCH  19  21
HETATM   21  C7  UNL     1     -12.142  16.706 -15.232  1.00  0.00     0.184 C 
BRANCH  21  22
HETATM   22  C8  UNL     1     -13.018  17.858 -14.832  1.00  0.00     0.001 A 
HETATM   23  C9  UNL     1     -14.035  17.875 -13.914  1.00  0.00     0.017 A 
HETATM   24  C10 UNL     1     -14.676  19.031 -13.728  1.00  0.00     0.008 A 
HETATM   25  C11 UNL     1     -14.267  20.108 -14.466  1.00  0.00     0.050 A 
HETATM   26  S1  UNL     1     -12.992  19.462 -15.402  1.00  0.00    -0.105 SA
ENDBRANCH  21  22
ENDBRANCH  19  21
ENDBRANCH  13  19
TORSDOF 3
ENDMDL
