MODEL 3
REMARK VINA RESULT: -8.279836271      2.738      3.967
REMARK  3 active torsions:
REMARK  status: ('A' for Active; 'I' for Inactive)
REMARK    1  A    between atoms: C6_13  and  N4_14 
REMARK    2  A    between atoms: N4_14  and  C7_16 
REMARK    3  A    between atoms: C7_16  and  C8_17 
ROOT
HETATM    1  O1  UNL     1     -13.826  17.345 -23.909  1.00  0.00    -0.267 OA
HETATM    2  C1  UNL     1     -14.878  17.533 -23.227  1.00  0.00     0.258 A 
HETATM    3  N1  UNL     1     -15.986  18.018 -23.854  1.00  0.00    -0.319 N 
ATOM      4  H1  UNL     1     -15.958  18.221 -24.853  1.00  0.00     0.169 HD
HETATM    5  C2  UNL     1     -17.112  18.228 -23.161  1.00  0.00     0.183 A 
HETATM    6  N2  UNL     1     -17.144  17.958 -21.844  1.00  0.00    -0.351 N 
ATOM      7  H2  UNL     1     -18.005  18.121 -21.323  1.00  0.00     0.166 HD
HETATM    8  C3  UNL     1     -16.061  17.477 -21.196  1.00  0.00     0.051 A 
HETATM    9  C4  UNL     1     -16.069  17.193 -19.847  1.00  0.00     0.063 A 
HETATM   10  C5  UNL     1     -14.959  16.697 -19.167  1.00  0.00     0.078 A 
HETATM   11  N3  UNL     1     -14.705  16.348 -17.905  1.00  0.00    -0.190 N 
ATOM     12  H3  UNL     1     -15.384  16.403 -17.145  1.00  0.00     0.184 HD
HETATM   13  C6  UNL     1     -13.440  15.916 -17.763  1.00  0.00     0.679 A 
HETATM   14  N5  UNL     1     -12.893  16.003 -18.992  1.00  0.00    -0.190 N 
ATOM     15  H5  UNL     1     -11.933  15.747 -19.222  1.00  0.00     0.184 HD
HETATM   16  C12 UNL     1     -13.793  16.476 -19.870  1.00  0.00     0.077 A 
HETATM   17  C13 UNL     1     -13.771  16.757 -21.229  1.00  0.00     0.052 A 
HETATM   18  C14 UNL     1     -14.884  17.248 -21.879  1.00  0.00     0.061 A 
ENDROOT
BRANCH  13  19
HETATM   19  N4  UNL     1     -12.812  15.461 -16.558  1.00  0.00    -0.221 N 
ATOM     20  H4  UNL     1     -12.703  14.462 -16.379  1.00  0.00     0.178 HD
BRANCH  19  21
HETATM   21  C7  UNL     1     -12.336  16.428 -15.602  1.00  0.00     0.184 C 
BRANCH  21  22
HETATM   22  C8  UNL     1     -13.493  16.921 -14.782  1.00  0.00     0.001 A 
HETATM   23  C9  UNL     1     -14.378  16.189 -14.035  1.00  0.00     0.017 A 
HETATM   24  C10 UNL     1     -15.334  16.858 -13.386  1.00  0.00     0.008 A 
HETATM   25  C11 UNL     1     -15.356  18.219 -13.517  1.00  0.00     0.050 A 
HETATM   26  S1  UNL     1     -14.030  18.520 -14.551  1.00  0.00    -0.105 SA
ENDBRANCH  21  22
ENDBRANCH  19  21
ENDBRANCH  13  19
TORSDOF 3
ENDMDL
