MODEL 2
REMARK VINA RESULT: -8.627608263      1.763      2.222
REMARK  4 active torsions:
REMARK  status: ('A' for Active; 'I' for Inactive)
REMARK    1  A    between atoms: C6_13  and  N4_14 
REMARK    2  A    between atoms: N4_14  and  C7_16 
REMARK    3  A    between atoms: C7_16  and  C8_17 
REMARK    4  A    between atoms: C8_17  and  N5_18 
ROOT
HETATM    1  O1  UNL     1     108.762  18.343  23.918  1.00  0.00    -0.267 OA
HETATM    2  C1  UNL     1     107.622  18.011  23.500  1.00  0.00     0.258 A 
HETATM    3  N1  UNL     1     106.665  17.694  24.400  1.00  0.00    -0.319 N 
ATOM      4  H1  UNL     1     106.846  17.717  25.403  1.00  0.00     0.169 HD
HETATM    5  C2  UNL     1     105.459  17.345  23.909  1.00  0.00     0.183 A 
HETATM    6  N2  UNL     1     105.230  17.316  22.588  1.00  0.00    -0.351 N 
ATOM      7  H2  UNL     1     104.303  17.045  22.263  1.00  0.00     0.166 HD
HETATM    8  C3  UNL     1     106.162  17.627  21.673  1.00  0.00     0.051 A 
HETATM    9  C4  UNL     1     105.923  17.596  20.313  1.00  0.00     0.063 A 
HETATM   10  C5  UNL     1     106.896  17.920  19.386  1.00  0.00     0.078 A 
HETATM   11  N3  UNL     1     106.944  17.975  18.042  1.00  0.00    -0.190 N 
ATOM     12  H3  UNL     1     106.164  17.758  17.420  1.00  0.00     0.184 HD
HETATM   13  C6  UNL     1     108.168  18.359  17.639  1.00  0.00     0.679 A 
HETATM   14  N6  UNL     1     108.885  18.540  18.760  1.00  0.00    -0.190 N 
ATOM     15  H6  UNL     1     109.862  18.833  18.781  1.00  0.00     0.184 HD
HETATM   16  C13 UNL     1     108.145  18.283  19.847  1.00  0.00     0.077 A 
HETATM   17  C14 UNL     1     108.381  18.312  21.218  1.00  0.00     0.052 A 
HETATM   18  C15 UNL     1     107.412  17.990  22.145  1.00  0.00     0.061 A 
ENDROOT
BRANCH  13  19
HETATM   19  N4  UNL     1     108.621  18.538  16.280  1.00  0.00    -0.224 N 
ATOM     20  H4  UNL     1     109.542  18.220  15.979  1.00  0.00     0.177 HD
BRANCH  19  21
HETATM   21  C7  UNL     1     107.724  19.179  15.377  1.00  0.00     0.168 C 
BRANCH  21  22
HETATM   22  C8  UNL     1     108.308  19.361  13.991  1.00  0.00     0.292 C 
BRANCH  22  23
HETATM   23  N5  UNL     1     107.301  19.070  12.986  1.00  0.00     0.094 N 
HETATM   24  C9  UNL     1     106.540  20.266  12.775  1.00  0.00     0.298 C 
HETATM   25  C10 UNL     1     106.653  20.803  11.365  1.00  0.00     0.198 C 
HETATM   26  O2  UNL     1     106.248  19.725  10.544  1.00  0.00    -0.388 OA
HETATM   27  C11 UNL     1     107.302  18.838  10.524  1.00  0.00     0.198 C 
HETATM   28  C12 UNL     1     107.862  18.477  11.838  1.00  0.00     0.298 C 
ENDBRANCH  22  23
ENDBRANCH  21  22
ENDBRANCH  19  21
ENDBRANCH  13  19
TORSDOF 4
ENDMDL
