MODEL 9
REMARK VINA RESULT: -7.917213682      2.724      4.066
REMARK  4 active torsions:
REMARK  status: ('A' for Active; 'I' for Inactive)
REMARK    1  A    between atoms: C6_13  and  N4_14 
REMARK    2  A    between atoms: N4_14  and  C7_16 
REMARK    3  A    between atoms: C7_16  and  C8_17 
REMARK    4  A    between atoms: C8_17  and  N5_18 
ROOT
HETATM    1  O1  UNL     1     103.419  17.101  24.355  1.00  0.00    -0.267 OA
HETATM    2  C1  UNL     1     104.459  17.324  23.683  1.00  0.00     0.258 A 
HETATM    3  N1  UNL     1     105.558  17.789  24.319  1.00  0.00    -0.319 N 
ATOM      4  H1  UNL     1     105.561  17.961  25.324  1.00  0.00     0.169 HD
HETATM    5  C2  UNL     1     106.650  18.013  23.562  1.00  0.00     0.183 A 
HETATM    6  N2  UNL     1     106.636  17.786  22.240  1.00  0.00    -0.351 N 
ATOM      7  H2  UNL     1     107.486  17.972  21.708  1.00  0.00     0.166 HD
HETATM    8  C3  UNL     1     105.560  17.324  21.583  1.00  0.00     0.051 A 
HETATM    9  C4  UNL     1     105.549  17.090  20.222  1.00  0.00     0.063 A 
HETATM   10  C5  UNL     1     104.429  16.615  19.565  1.00  0.00     0.078 A 
HETATM   11  N3  UNL     1     104.141  16.305  18.287  1.00  0.00    -0.190 N 
ATOM     12  H3  UNL     1     104.792  16.384  17.506  1.00  0.00     0.184 HD
HETATM   13  C6  UNL     1     102.870  15.876  18.192  1.00  0.00     0.679 A 
HETATM   14  N6  UNL     1     102.370  15.926  19.438  1.00  0.00    -0.190 N 
ATOM     15  H6  UNL     1     101.418  15.661  19.690  1.00  0.00     0.184 HD
HETATM   16  C13 UNL     1     103.290  16.371  20.305  1.00  0.00     0.077 A 
HETATM   17  C14 UNL     1     103.306  16.609  21.675  1.00  0.00     0.052 A 
HETATM   18  C15 UNL     1     104.421  17.083  22.334  1.00  0.00     0.061 A 
ENDROOT
BRANCH  13  19
HETATM   19  N4  UNL     1     102.182  15.450  16.996  1.00  0.00    -0.224 N 
ATOM     20  H4  UNL     1     101.378  14.825  17.039  1.00  0.00     0.177 HD
BRANCH  19  21
HETATM   21  C7  UNL     1     102.678  15.942  15.754  1.00  0.00     0.168 C 
BRANCH  21  22
HETATM   22  C8  UNL     1     102.348  17.402  15.521  1.00  0.00     0.292 C 
BRANCH  22  23
HETATM   23  N5  UNL     1     103.431  18.045  14.797  1.00  0.00     0.094 N 
HETATM   24  C9  UNL     1     104.080  18.949  15.700  1.00  0.00     0.298 C 
HETATM   25  C10 UNL     1     105.527  18.592  15.962  1.00  0.00     0.198 C 
HETATM   26  O2  UNL     1     106.118  18.556  14.678  1.00  0.00    -0.388 OA
HETATM   27  C11 UNL     1     105.706  17.377  14.096  1.00  0.00     0.198 C 
HETATM   28  C12 UNL     1     104.259  17.107  14.150  1.00  0.00     0.298 C 
ENDBRANCH  22  23
ENDBRANCH  21  22
ENDBRANCH  19  21
ENDBRANCH  13  19
TORSDOF 4
ENDMDL
