MODEL 10
REMARK VINA RESULT: -7.886016095      2.948      4.307
REMARK  4 active torsions:
REMARK  status: ('A' for Active; 'I' for Inactive)
REMARK    1  A    between atoms: C6_13  and  N4_14 
REMARK    2  A    between atoms: N4_14  and  C7_16 
REMARK    3  A    between atoms: C7_16  and  C8_17 
REMARK    4  A    between atoms: C8_17  and  N5_18 
ROOT
HETATM    1  O1  UNL     1     105.512  17.505  23.255  1.00  0.00    -0.267 OA
HETATM    2  C1  UNL     1     106.302  17.687  22.292  1.00  0.00     0.258 A 
HETATM    3  N1  UNL     1     107.539  18.170  22.546  1.00  0.00    -0.319 N 
ATOM      4  H1  UNL     1     107.843  18.388  23.495  1.00  0.00     0.169 HD
HETATM    5  C2  UNL     1     108.352  18.349  21.487  1.00  0.00     0.183 A 
HETATM    6  N2  UNL     1     107.944  18.061  20.242  1.00  0.00    -0.351 N 
ATOM      7  H2  UNL     1     108.593  18.214  19.472  1.00  0.00     0.166 HD
HETATM    8  C3  UNL     1     106.722  17.580  19.961  1.00  0.00     0.051 A 
HETATM    9  C4  UNL     1     106.305  17.283  18.679  1.00  0.00     0.063 A 
HETATM   10  C5  UNL     1     105.041  16.789  18.411  1.00  0.00     0.078 A 
HETATM   11  N3  UNL     1     104.384  16.423  17.294  1.00  0.00    -0.190 N 
ATOM     12  H3  UNL     1     104.770  16.460  16.350  1.00  0.00     0.184 HD
HETATM   13  C6  UNL     1     103.146  16.002  17.605  1.00  0.00     0.679 A 
HETATM   14  N6  UNL     1     103.042  16.115  18.939  1.00  0.00    -0.190 N 
ATOM     15  H6  UNL     1     102.211  15.871  19.478  1.00  0.00     0.184 HD
HETATM   16  C13 UNL     1     104.178  16.590  19.468  1.00  0.00     0.077 A 
HETATM   17  C14 UNL     1     104.603  16.891  20.758  1.00  0.00     0.052 A 
HETATM   18  C15 UNL     1     105.862  17.384  21.029  1.00  0.00     0.061 A 
ENDROOT
BRANCH  13  19
HETATM   19  N4  UNL     1     102.133  15.528  16.692  1.00  0.00    -0.224 N 
ATOM     20  H4  UNL     1     101.483  14.788  16.955  1.00  0.00     0.177 HD
BRANCH  19  21
HETATM   21  C7  UNL     1     102.081  16.141  15.406  1.00  0.00     0.168 C 
BRANCH  21  22
HETATM   22  C8  UNL     1     101.257  17.412  15.389  1.00  0.00     0.292 C 
BRANCH  22  23
HETATM   23  N5  UNL     1     102.125  18.563  15.208  1.00  0.00     0.094 N 
HETATM   24  C9  UNL     1     101.760  19.193  13.974  1.00  0.00     0.298 C 
HETATM   25  C10 UNL     1     101.246  20.606  14.155  1.00  0.00     0.198 C 
HETATM   26  O2  UNL     1     102.287  21.272  14.842  1.00  0.00    -0.388 OA
HETATM   27  C11 UNL     1     102.220  20.847  16.151  1.00  0.00     0.198 C 
HETATM   28  C12 UNL     1     102.144  19.390  16.349  1.00  0.00     0.298 C 
ENDBRANCH  22  23
ENDBRANCH  21  22
ENDBRANCH  19  21
ENDBRANCH  13  19
TORSDOF 4
ENDMDL
