MODEL 5
REMARK VINA RESULT: -8.518720821      1.998      2.592
REMARK  4 active torsions:
REMARK  status: ('A' for Active; 'I' for Inactive)
REMARK    1  A    between atoms: C6_13  and  N4_14 
REMARK    2  A    between atoms: N4_14  and  C7_16 
REMARK    3  A    between atoms: C7_16  and  C8_17 
REMARK    4  A    between atoms: C8_17  and  N5_18 
ROOT
HETATM    1  O1  UNL     1     108.734  18.299  23.902  1.00  0.00    -0.267 OA
HETATM    2  C1  UNL     1     107.595  17.973  23.479  1.00  0.00     0.258 A 
HETATM    3  N1  UNL     1     106.635  17.647  24.374  1.00  0.00    -0.319 N 
ATOM      4  H1  UNL     1     106.814  17.660  25.378  1.00  0.00     0.169 HD
HETATM    5  C2  UNL     1     105.430  17.305  23.877  1.00  0.00     0.183 A 
HETATM    6  N2  UNL     1     105.204  17.290  22.556  1.00  0.00    -0.351 N 
ATOM      7  H2  UNL     1     104.276  17.024  22.226  1.00  0.00     0.166 HD
HETATM    8  C3  UNL     1     106.137  17.610  21.645  1.00  0.00     0.051 A 
HETATM    9  C4  UNL     1     105.901  17.594  20.284  1.00  0.00     0.063 A 
HETATM   10  C5  UNL     1     106.876  17.926  19.362  1.00  0.00     0.078 A 
HETATM   11  N3  UNL     1     106.926  17.995  18.019  1.00  0.00    -0.190 N 
ATOM     12  H3  UNL     1     106.148  17.786  17.394  1.00  0.00     0.184 HD
HETATM   13  C6  UNL     1     108.151  18.382  17.623  1.00  0.00     0.679 A 
HETATM   14  N6  UNL     1     108.867  18.550  18.747  1.00  0.00    -0.190 N 
ATOM     15  H6  UNL     1     109.844  18.842  18.773  1.00  0.00     0.184 HD
HETATM   16  C13 UNL     1     108.124  18.283  19.830  1.00  0.00     0.077 A 
HETATM   17  C14 UNL     1     108.358  18.296  21.202  1.00  0.00     0.052 A 
HETATM   18  C15 UNL     1     107.387  17.966  22.124  1.00  0.00     0.061 A 
ENDROOT
BRANCH  13  19
HETATM   19  N4  UNL     1     108.607  18.574  16.266  1.00  0.00    -0.224 N 
ATOM     20  H4  UNL     1     109.588  18.458  16.012  1.00  0.00     0.177 HD
BRANCH  19  21
HETATM   21  C7  UNL     1     107.626  18.933  15.298  1.00  0.00     0.168 C 
BRANCH  21  22
HETATM   22  C8  UNL     1     107.855  20.308  14.704  1.00  0.00     0.292 C 
BRANCH  22  23
HETATM   23  N5  UNL     1     108.192  20.189  13.295  1.00  0.00     0.094 N 
HETATM   24  C9  UNL     1     109.609  20.358  13.172  1.00  0.00     0.298 C 
HETATM   25  C10 UNL     1     110.311  19.132  12.628  1.00  0.00     0.198 C 
HETATM   26  O2  UNL     1     109.664  18.874  11.397  1.00  0.00    -0.388 OA
HETATM   27  C11 UNL     1     108.447  18.308  11.711  1.00  0.00     0.198 C 
HETATM   28  C12 UNL     1     107.650  19.020  12.724  1.00  0.00     0.298 C 
ENDBRANCH  22  23
ENDBRANCH  21  22
ENDBRANCH  19  21
ENDBRANCH  13  19
TORSDOF 4
ENDMDL
