MODEL 6
REMARK VINA RESULT: -8.196687381      2.223      3.031
REMARK  4 active torsions:
REMARK  status: ('A' for Active; 'I' for Inactive)
REMARK    1  A    between atoms: C6_13  and  N4_14 
REMARK    2  A    between atoms: N4_14  and  C7_16 
REMARK    3  A    between atoms: C7_16  and  C8_17 
REMARK    4  A    between atoms: C8_17  and  N5_18 
ROOT
HETATM    1  O1  UNL     1     104.775  17.159  23.433  1.00  0.00    -0.267 OA
HETATM    2  C1  UNL     1     105.967  17.468  23.176  1.00  0.00     0.258 A 
HETATM    3  N1  UNL     1     106.836  17.624  24.200  1.00  0.00    -0.319 N 
ATOM      4  H1  UNL     1     106.547  17.498  25.170  1.00  0.00     0.169 HD
HETATM    5  C2  UNL     1     108.102  17.954  23.880  1.00  0.00     0.183 A 
HETATM    6  N2  UNL     1     108.474  18.120  22.602  1.00  0.00    -0.351 N 
ATOM      7  H2  UNL     1     109.442  18.371  22.408  1.00  0.00     0.166 HD
HETATM    8  C3  UNL     1     107.633  17.971  21.566  1.00  0.00     0.051 A 
HETATM    9  C4  UNL     1     108.018  18.142  20.250  1.00  0.00     0.063 A 
HETATM   10  C5  UNL     1     107.136  17.983  19.197  1.00  0.00     0.078 A 
HETATM   11  N3  UNL     1     107.232  18.084  17.858  1.00  0.00    -0.190 N 
ATOM     12  H3  UNL     1     108.083  18.324  17.349  1.00  0.00     0.184 HD
HETATM   13  C6  UNL     1     106.042  17.822  17.290  1.00  0.00     0.679 A 
HETATM   14  N6  UNL     1     105.200  17.557  18.303  1.00  0.00    -0.190 N 
ATOM     15  H6  UNL     1     104.214  17.321  18.190  1.00  0.00     0.184 HD
HETATM   16  C13 UNL     1     105.830  17.645  19.483  1.00  0.00     0.077 A 
HETATM   17  C14 UNL     1     105.446  17.474  20.810  1.00  0.00     0.052 A 
HETATM   18  C15 UNL     1     106.324  17.631  21.862  1.00  0.00     0.061 A 
ENDROOT
BRANCH  13  19
HETATM   19  N4  UNL     1     105.730  17.826  15.881  1.00  0.00    -0.224 N 
ATOM     20  H4  UNL     1     106.243  17.242  15.220  1.00  0.00     0.177 HD
BRANCH  19  21
HETATM   21  C7  UNL     1     104.674  18.682  15.453  1.00  0.00     0.168 C 
BRANCH  21  22
HETATM   22  C8  UNL     1     103.658  17.977  14.578  1.00  0.00     0.292 C 
BRANCH  22  23
HETATM   23  N5  UNL     1     102.435  17.744  15.327  1.00  0.00     0.094 N 
HETATM   24  C9  UNL     1     102.371  16.345  15.629  1.00  0.00     0.298 C 
HETATM   25  C10 UNL     1     102.398  16.054  17.114  1.00  0.00     0.198 C 
HETATM   26  O2  UNL     1     101.313  16.795  17.637  1.00  0.00    -0.388 OA
HETATM   27  C11 UNL     1     101.721  18.110  17.666  1.00  0.00     0.198 C 
HETATM   28  C12 UNL     1     102.315  18.625  16.420  1.00  0.00     0.298 C 
ENDBRANCH  22  23
ENDBRANCH  21  22
ENDBRANCH  19  21
ENDBRANCH  13  19
TORSDOF 4
ENDMDL
