MODEL 3
REMARK VINA RESULT: -7.259076570      1.570      1.896
REMARK  1 active torsions:
REMARK  status: ('A' for Active; 'I' for Inactive)
REMARK    1  A    between atoms: N1_2  and  C2_4 
ROOT
HETATM    1  C2  UNL     1     -16.562  18.088 -15.506  1.00  0.00     0.678 A 
HETATM    2  N2  UNL     1     -17.680  18.283 -16.229  1.00  0.00    -0.190 N 
ATOM      3  H2  UNL     1     -18.596  18.521 -15.848  1.00  0.00     0.184 HD
HETATM    4  C3  UNL     1     -17.399  18.114 -17.525  1.00  0.00     0.077 A 
HETATM    5  C4  UNL     1     -18.177  18.196 -18.685  1.00  0.00     0.052 A 
HETATM    6  C5  UNL     1     -17.609  17.969 -19.913  1.00  0.00     0.061 A 
HETATM    7  C6  UNL     1     -18.361  18.045 -21.061  1.00  0.00     0.260 A 
HETATM    8  O1  UNL     1     -19.582  18.329 -20.963  1.00  0.00    -0.267 OA
HETATM    9  N3  UNL     1     -17.779  17.815 -22.278  1.00  0.00    -0.297 N 
ATOM     10  H3  UNL     1     -18.323  17.868 -23.139  1.00  0.00     0.171 HD
HETATM   11  C7  UNL     1     -16.483  17.519 -22.303  1.00  0.00     0.195 A 
HETATM   12  N4  UNL     1     -15.846  17.274 -23.560  1.00  0.00    -0.063 NA
HETATM   13  N5  UNL     1     -15.724  17.439 -21.181  1.00  0.00    -0.329 N 
ATOM     14  H5  UNL     1     -14.732  17.210 -21.254  1.00  0.00     0.168 HD
HETATM   15  C8  UNL     1     -16.274  17.661 -19.975  1.00  0.00     0.052 A 
HETATM   16  C9  UNL     1     -15.477  17.572 -18.854  1.00  0.00     0.063 A 
HETATM   17  C10 UNL     1     -16.058  17.805 -17.602  1.00  0.00     0.078 A 
HETATM   18  N6  UNL     1     -15.561  17.793 -16.353  1.00  0.00    -0.190 N 
ATOM     19  H6  UNL     1     -14.595  17.596 -16.094  1.00  0.00     0.184 HD
ENDROOT
BRANCH   1  20
HETATM   20  N1  UNL     1     -16.496  18.189 -14.075  1.00  0.00    -0.230 N 
HETATM   21  C1  UNL     1     -15.948  17.099 -13.293  1.00  0.00     0.165 C 
ATOM     22  H1  UNL     1     -16.837  19.030 -13.608  1.00  0.00     0.177 HD
ENDBRANCH   1  20
TORSDOF 1
ENDMDL
