MODEL 1
REMARK VINA RESULT: -8.002039896      0.000      0.000
REMARK  1 active torsions:
REMARK  status: ('A' for Active; 'I' for Inactive)
REMARK    1  A    between atoms: N1_2  and  C2_4 
ROOT
HETATM    1  C2  UNL     1     -18.210  18.186 -17.044  1.00  0.00     0.678 A 
HETATM    2  N2  UNL     1     -18.964  18.444 -18.128  1.00  0.00    -0.190 N 
ATOM      3  H2  UNL     1     -19.934  18.759 -18.113  1.00  0.00     0.184 HD
HETATM    4  C3  UNL     1     -18.238  18.222 -19.229  1.00  0.00     0.077 A 
HETATM    5  C4  UNL     1     -18.523  18.331 -20.594  1.00  0.00     0.052 A 
HETATM    6  C5  UNL     1     -17.561  18.032 -21.526  1.00  0.00     0.061 A 
HETATM    7  C6  UNL     1     -17.829  18.134 -22.870  1.00  0.00     0.260 A 
HETATM    8  O1  UNL     1     -18.973  18.509 -23.230  1.00  0.00    -0.267 OA
HETATM    9  N3  UNL     1     -16.858  17.830 -23.786  1.00  0.00    -0.297 N 
ATOM     10  H3  UNL     1     -17.040  17.902 -24.787  1.00  0.00     0.171 HD
HETATM   11  C7  UNL     1     -15.671  17.440 -23.331  1.00  0.00     0.195 A 
HETATM   12  N4  UNL     1     -14.637  17.117 -24.264  1.00  0.00    -0.063 NA
HETATM   13  N5  UNL     1     -15.389  17.333 -22.008  1.00  0.00    -0.329 N 
ATOM     14  H5  UNL     1     -14.461  17.030 -21.710  1.00  0.00     0.168 HD
HETATM   15  C8  UNL     1     -16.326  17.625 -21.090  1.00  0.00     0.052 A 
HETATM   16  C9  UNL     1     -16.009  17.506 -19.755  1.00  0.00     0.063 A 
HETATM   17  C10 UNL     1     -16.991  17.813 -18.805  1.00  0.00     0.078 A 
HETATM   18  N6  UNL     1     -16.993  17.797 -17.461  1.00  0.00    -0.190 N 
ATOM     19  H6  UNL     1     -16.209  17.536 -16.864  1.00  0.00     0.184 HD
ENDROOT
BRANCH   1  20
HETATM   20  N1  UNL     1     -18.670  18.318 -15.690  1.00  0.00    -0.230 N 
HETATM   21  C1  UNL     1     -17.811  18.913 -14.685  1.00  0.00     0.165 C 
ATOM     22  H1  UNL     1     -19.603  17.993 -15.434  1.00  0.00     0.177 HD
ENDBRANCH   1  20
TORSDOF 1
ENDMDL
