MODEL 2
REMARK VINA RESULT: -7.493108881      3.672      5.178
REMARK  1 active torsions:
REMARK  status: ('A' for Active; 'I' for Inactive)
REMARK    1  A    between atoms: N1_2  and  C2_4 
ROOT
HETATM    1  C2  UNL     1     -12.444  16.917 -16.854  1.00  0.00     0.678 A 
HETATM    2  N2  UNL     1     -13.467  17.374 -16.109  1.00  0.00    -0.190 N 
ATOM      3  H2  UNL     1     -13.424  17.585 -15.112  1.00  0.00     0.184 HD
HETATM    4  C3  UNL     1     -14.549  17.506 -16.884  1.00  0.00     0.077 A 
HETATM    5  C4  UNL     1     -15.856  17.934 -16.627  1.00  0.00     0.052 A 
HETATM    6  C5  UNL     1     -16.780  17.970 -17.640  1.00  0.00     0.061 A 
HETATM    7  C6  UNL     1     -18.068  18.387 -17.402  1.00  0.00     0.260 A 
HETATM    8  O1  UNL     1     -18.382  18.737 -16.237  1.00  0.00    -0.267 OA
HETATM    9  N3  UNL     1     -18.978  18.416 -18.424  1.00  0.00    -0.297 N 
ATOM     10  H3  UNL     1     -19.938  18.724 -18.264  1.00  0.00     0.171 HD
HETATM   11  C7  UNL     1     -18.574  18.032 -19.631  1.00  0.00     0.195 A 
HETATM   12  N4  UNL     1     -19.502  18.051 -20.718  1.00  0.00    -0.063 NA
HETATM   13  N5  UNL     1     -17.308  17.616 -19.885  1.00  0.00    -0.329 N 
ATOM     14  H5  UNL     1     -17.046  17.332 -20.830  1.00  0.00     0.168 HD
HETATM   15  C8  UNL     1     -16.396  17.579 -18.898  1.00  0.00     0.052 A 
HETATM   16  C9  UNL     1     -15.119  17.152 -19.187  1.00  0.00     0.063 A 
HETATM   17  C10 UNL     1     -14.176  17.117 -18.153  1.00  0.00     0.078 A 
HETATM   18  N6  UNL     1     -12.881  16.759 -18.115  1.00  0.00    -0.190 N 
ATOM     19  H6  UNL     1     -12.328  16.425 -18.904  1.00  0.00     0.184 HD
ENDROOT
BRANCH   1  20
HETATM   20  N1  UNL     1     -11.126  16.657 -16.345  1.00  0.00    -0.230 N 
HETATM   21  C1  UNL     1     -10.774  17.063 -15.000  1.00  0.00     0.165 C 
ATOM     22  H1  UNL     1     -10.437  16.187 -16.932  1.00  0.00     0.177 HD
ENDBRANCH   1  20
TORSDOF 1
ENDMDL
