MODEL 5
REMARK VINA RESULT: -7.190950751      4.377      6.184
REMARK  1 active torsions:
REMARK  status: ('A' for Active; 'I' for Inactive)
REMARK    1  A    between atoms: N1_2  and  C2_4 
ROOT
HETATM    1  C2  UNL     1     -17.822  17.917 -18.579  1.00  0.00     0.678 A 
HETATM    2  N2  UNL     1     -17.546  18.418 -17.360  1.00  0.00    -0.190 N 
ATOM      3  H2  UNL     1     -18.232  18.798 -16.709  1.00  0.00     0.184 HD
HETATM    4  C3  UNL     1     -16.230  18.339 -17.141  1.00  0.00     0.077 A 
HETATM    5  C4  UNL     1     -15.422  18.708 -16.061  1.00  0.00     0.052 A 
HETATM    6  C5  UNL     1     -14.066  18.502 -16.112  1.00  0.00     0.061 A 
HETATM    7  C6  UNL     1     -13.261  18.861 -15.058  1.00  0.00     0.260 A 
HETATM    8  O1  UNL     1     -13.791  19.380 -14.043  1.00  0.00    -0.267 OA
HETATM    9  N3  UNL     1     -11.910  18.649 -15.125  1.00  0.00    -0.297 N 
ATOM     10  H3  UNL     1     -11.298  18.910 -14.352  1.00  0.00     0.171 HD
HETATM   11  C7  UNL     1     -11.420  18.095 -16.230  1.00  0.00     0.195 A 
HETATM   12  N4  UNL     1     -10.013  17.861 -16.330  1.00  0.00    -0.063 NA
HETATM   13  N5  UNL     1     -12.199  17.734 -17.281  1.00  0.00    -0.329 N 
ATOM     14  H5  UNL     1     -11.774  17.311 -18.106  1.00  0.00     0.168 HD
HETATM   15  C8  UNL     1     -13.528  17.933 -17.238  1.00  0.00     0.052 A 
HETATM   16  C9  UNL     1     -14.292  17.557 -18.320  1.00  0.00     0.063 A 
HETATM   17  C10 UNL     1     -15.675  17.766 -18.266  1.00  0.00     0.078 A 
HETATM   18  N6  UNL     1     -16.668  17.514 -19.138  1.00  0.00    -0.190 N 
ATOM     19  H6  UNL     1     -16.563  17.092 -20.060  1.00  0.00     0.184 HD
ENDROOT
BRANCH   1  20
HETATM   20  N1  UNL     1     -19.140  17.844 -19.144  1.00  0.00    -0.230 N 
HETATM   21  C1  UNL     1     -19.314  17.810 -20.582  1.00  0.00     0.165 C 
ATOM     22  H1  UNL     1     -19.956  17.816 -18.532  1.00  0.00     0.177 HD
ENDBRANCH   1  20
TORSDOF 1
ENDMDL
