MODEL 4
REMARK VINA RESULT: -7.211003146      4.109      6.523
REMARK  1 active torsions:
REMARK  status: ('A' for Active; 'I' for Inactive)
REMARK    1  A    between atoms: N1_2  and  C2_4 
ROOT
HETATM    1  C2  UNL     1     -17.958  18.023 -18.379  1.00  0.00     0.678 A 
HETATM    2  N2  UNL     1     -16.729  17.677 -18.806  1.00  0.00    -0.190 N 
ATOM      3  H2  UNL     1     -16.516  17.237 -19.701  1.00  0.00     0.184 HD
HETATM    4  C3  UNL     1     -15.832  18.003 -17.870  1.00  0.00     0.077 A 
HETATM    5  C4  UNL     1     -14.442  17.868 -17.797  1.00  0.00     0.052 A 
HETATM    6  C5  UNL     1     -13.764  18.303 -16.686  1.00  0.00     0.061 A 
HETATM    7  C6  UNL     1     -12.398  18.176 -16.601  1.00  0.00     0.260 A 
HETATM    8  O1  UNL     1     -11.780  17.656 -17.564  1.00  0.00    -0.267 OA
HETATM    9  N3  UNL     1     -11.738  18.614 -15.484  1.00  0.00    -0.297 N 
ATOM     10  H3  UNL     1     -10.725  18.528 -15.406  1.00  0.00     0.171 HD
HETATM   11  C7  UNL     1     -12.458  19.154 -14.506  1.00  0.00     0.195 A 
HETATM   12  N4  UNL     1     -11.796  19.621 -13.327  1.00  0.00    -0.063 NA
HETATM   13  N5  UNL     1     -13.806  19.287 -14.571  1.00  0.00    -0.329 N 
ATOM     14  H5  UNL     1     -14.313  19.710 -13.793  1.00  0.00     0.168 HD
HETATM   15  C8  UNL     1     -14.477  18.865 -15.657  1.00  0.00     0.052 A 
HETATM   16  C9  UNL     1     -15.845  19.013 -15.693  1.00  0.00     0.063 A 
HETATM   17  C10 UNL     1     -16.535  18.571 -16.828  1.00  0.00     0.078 A 
HETATM   18  N6  UNL     1     -17.838  18.574 -17.160  1.00  0.00    -0.190 N 
ATOM     19  H6  UNL     1     -18.602  18.932 -16.586  1.00  0.00     0.184 HD
ENDROOT
BRANCH   1  20
HETATM   20  N1  UNL     1     -19.162  17.819 -19.134  1.00  0.00    -0.230 N 
HETATM   21  C1  UNL     1     -19.140  17.916 -20.579  1.00  0.00     0.165 C 
ATOM     22  H1  UNL     1     -20.036  17.605 -18.651  1.00  0.00     0.177 HD
ENDBRANCH   1  20
TORSDOF 1
ENDMDL
