MODEL 19
REMARK VINA RESULT: -6.142712525      5.305      8.298
REMARK  4 active torsions:
REMARK  status: ('A' for Active; 'I' for Inactive)
REMARK    1  A    between atoms: N1_1  and  S1_4 
REMARK    2  A    between atoms: S1_4  and  C1_7 
REMARK    3  A    between atoms: C4_10  and  N2_11 
REMARK    4  A    between atoms: N3_13  and  N4_15 
ROOT
HETATM    1  C1  UNL     1       0.128   5.332  11.677  1.00  0.00     0.079 A 
HETATM    2  C2  UNL     1      -0.438   6.149  12.605  1.00  0.00     0.027 A 
HETATM    3  C3  UNL     1      -1.487   5.692  13.385  1.00  0.00     0.032 A 
HETATM    4  C4  UNL     1      -1.971   4.415  13.234  1.00  0.00     0.049 A 
HETATM    5  C11 UNL     1      -1.383   3.606  12.288  1.00  0.00     0.032 A 
HETATM    6  C12 UNL     1      -0.331   4.058  11.503  1.00  0.00     0.027 A 
ENDROOT
BRANCH   4   7
HETATM    7  N2  UNL     1      -3.031   3.913  14.001  1.00  0.00    -0.287 N 
HETATM    8  N3  UNL     1      -3.684   2.863  13.730  1.00  0.00    -0.244 N 
ATOM      9  H3  UNL     1      -3.446   2.319  12.900  1.00  0.00     0.208 HD
ATOM     10  H2  UNL     1      -3.296   4.431  14.839  1.00  0.00     0.188 HD
BRANCH   8  11
HETATM   11  N4  UNL     1      -4.693   2.457  14.532  1.00  0.00    -0.303 N 
HETATM   12  C5  UNL     1      -5.756   3.447  14.944  1.00  0.00     0.223 C 
HETATM   13  C6  UNL     1      -6.480   2.843  15.999  1.00  0.00    -0.162 C 
HETATM   14  C7  UNL     1      -7.070   2.112  17.034  1.00  0.00     0.081 C 
HETATM   15  C8  UNL     1      -6.322   0.730  17.091  1.00  0.00     0.013 C 
HETATM   16  C9  UNL     1      -4.943   0.828  16.446  1.00  0.00     0.022 C 
HETATM   17  C10 UNL     1      -4.779   1.058  15.016  1.00  0.00     0.145 C 
ENDBRANCH   8  11
ENDBRANCH   4   7
BRANCH   1  18
HETATM   18  S1  UNL     1       1.460   5.884  10.672  1.00  0.00     0.256 S 
HETATM   19  O1  UNL     1       0.915   6.687   9.522  1.00  0.00    -0.201 OA
HETATM   20  O2  UNL     1       2.306   6.795  11.507  1.00  0.00    -0.201 OA
BRANCH  18  21
HETATM   21  N1  UNL     1       2.414   4.573  10.108  1.00  0.00    -0.324 N 
ATOM     22  H12 UNL     1       2.455   4.281   9.131  1.00  0.00     0.169 HD
ATOM     23  H11 UNL     1       2.925   4.136  10.875  1.00  0.00     0.169 HD
ENDBRANCH  18  21
ENDBRANCH   1  18
TORSDOF 4
ENDMDL
