MODEL 8
REMARK VINA RESULT: -6.810973846      0.567      1.768
REMARK  4 active torsions:
REMARK  status: ('A' for Active; 'I' for Inactive)
REMARK    1  A    between atoms: N1_1  and  S1_4 
REMARK    2  A    between atoms: S1_4  and  C1_7 
REMARK    3  A    between atoms: C4_10  and  N2_11 
REMARK    4  A    between atoms: N3_13  and  N4_15 
ROOT
HETATM    1  C1  UNL     1      -5.308   2.530  15.985  1.00  0.00     0.079 A 
HETATM    2  C2  UNL     1      -4.009   2.647  15.601  1.00  0.00     0.027 A 
HETATM    3  C3  UNL     1      -3.559   3.822  15.022  1.00  0.00     0.032 A 
HETATM    4  C4  UNL     1      -4.412   4.883  14.829  1.00  0.00     0.049 A 
HETATM    5  C11 UNL     1      -5.722   4.741  15.226  1.00  0.00     0.032 A 
HETATM    6  C12 UNL     1      -6.180   3.566  15.805  1.00  0.00     0.027 A 
ENDROOT
BRANCH   4   7
HETATM    7  N2  UNL     1      -3.998   6.089  14.247  1.00  0.00    -0.287 N 
HETATM    8  N3  UNL     1      -2.865   6.625  14.429  1.00  0.00    -0.244 N 
ATOM      9  H3  UNL     1      -2.181   6.172  15.036  1.00  0.00     0.208 HD
ATOM     10  H2  UNL     1      -4.656   6.568  13.634  1.00  0.00     0.188 HD
BRANCH   8  11
HETATM   11  N4  UNL     1      -2.555   7.793  13.824  1.00  0.00    -0.303 N 
HETATM   12  C5  UNL     1      -2.736   7.924  12.330  1.00  0.00     0.223 C 
HETATM   13  C6  UNL     1      -2.058   9.106  11.946  1.00  0.00    -0.162 C 
HETATM   14  C7  UNL     1      -1.329  10.280  11.740  1.00  0.00     0.081 C 
HETATM   15  C8  UNL     1      -0.833  10.755  13.156  1.00  0.00     0.013 C 
HETATM   16  C9  UNL     1      -0.814   9.595  14.145  1.00  0.00     0.022 C 
HETATM   17  C10 UNL     1      -2.041   8.950  14.597  1.00  0.00     0.145 C 
ENDBRANCH   8  11
ENDBRANCH   4   7
BRANCH   1  18
HETATM   18  S1  UNL     1      -5.909   1.052  16.720  1.00  0.00     0.256 S 
HETATM   19  O1  UNL     1      -5.352  -0.134  15.979  1.00  0.00    -0.201 OA
HETATM   20  O2  UNL     1      -5.386   1.002  18.123  1.00  0.00    -0.201 OA
BRANCH  18  21
HETATM   21  N1  UNL     1      -7.625   1.007  16.746  1.00  0.00    -0.324 N 
ATOM     22  H12 UNL     1      -8.177   0.927  17.600  1.00  0.00     0.169 HD
ATOM     23  H11 UNL     1      -8.006   1.072  15.802  1.00  0.00     0.169 HD
ENDBRANCH  18  21
ENDBRANCH   1  18
TORSDOF 4
ENDMDL
