MODEL 11
REMARK VINA RESULT: -6.492133753      1.070      1.994
REMARK  4 active torsions:
REMARK  status: ('A' for Active; 'I' for Inactive)
REMARK    1  A    between atoms: N1_1  and  S1_4 
REMARK    2  A    between atoms: S1_4  and  C1_7 
REMARK    3  A    between atoms: C4_10  and  N2_11 
REMARK    4  A    between atoms: N3_13  and  N4_15 
ROOT
HETATM    1  C1  UNL     1      -5.373   2.499  16.001  1.00  0.00     0.079 A 
HETATM    2  C2  UNL     1      -4.066   2.612  15.641  1.00  0.00     0.027 A 
HETATM    3  C3  UNL     1      -3.622   3.749  14.987  1.00  0.00     0.032 A 
HETATM    4  C4  UNL     1      -4.488   4.775  14.693  1.00  0.00     0.049 A 
HETATM    5  C11 UNL     1      -5.806   4.639  15.066  1.00  0.00     0.032 A 
HETATM    6  C12 UNL     1      -6.258   3.501  15.722  1.00  0.00     0.027 A 
ENDROOT
BRANCH   4   7
HETATM    7  N2  UNL     1      -4.080   5.942  14.032  1.00  0.00    -0.287 N 
HETATM    8  N3  UNL     1      -4.133   6.117  12.779  1.00  0.00    -0.244 N 
ATOM      9  H3  UNL     1      -4.495   5.376  12.179  1.00  0.00     0.208 HD
ATOM     10  H2  UNL     1      -3.714   6.705  14.601  1.00  0.00     0.188 HD
BRANCH   8  11
HETATM   11  N4  UNL     1      -3.715   7.280  12.232  1.00  0.00    -0.303 N 
HETATM   12  C5  UNL     1      -4.479   7.869  11.070  1.00  0.00     0.223 C 
HETATM   13  C6  UNL     1      -3.658   8.882  10.522  1.00  0.00    -0.162 C 
HETATM   14  C7  UNL     1      -2.718   9.826  10.098  1.00  0.00     0.081 C 
HETATM   15  C8  UNL     1      -1.506   9.733  11.097  1.00  0.00     0.013 C 
HETATM   16  C9  UNL     1      -1.482   8.382  11.803  1.00  0.00     0.022 C 
HETATM   17  C10 UNL     1      -2.521   7.990  12.749  1.00  0.00     0.145 C 
ENDBRANCH   8  11
ENDBRANCH   4   7
BRANCH   1  18
HETATM   18  S1  UNL     1      -5.967   1.069  16.831  1.00  0.00     0.256 S 
HETATM   19  O1  UNL     1      -5.414  -0.160  16.160  1.00  0.00    -0.201 OA
HETATM   20  O2  UNL     1      -5.433   1.106  18.230  1.00  0.00    -0.201 OA
BRANCH  18  21
HETATM   21  N1  UNL     1      -7.683   1.026  16.872  1.00  0.00    -0.324 N 
ATOM     22  H12 UNL     1      -8.220   0.547  17.596  1.00  0.00     0.169 HD
ATOM     23  H11 UNL     1      -8.080   1.537  16.084  1.00  0.00     0.169 HD
ENDBRANCH  18  21
ENDBRANCH   1  18
TORSDOF 4
ENDMDL
