MODEL 4
REMARK VINA RESULT: -6.917171716      0.110      1.089
REMARK  4 active torsions:
REMARK  status: ('A' for Active; 'I' for Inactive)
REMARK    1  A    between atoms: N1_1  and  S1_4 
REMARK    2  A    between atoms: S1_4  and  C1_7 
REMARK    3  A    between atoms: C4_10  and  N2_11 
REMARK    4  A    between atoms: N3_13  and  N4_15 
ROOT
HETATM    1  C1  UNL     1      -5.317   2.543  15.997  1.00  0.00     0.079 A 
HETATM    2  C2  UNL     1      -4.009   2.621  15.634  1.00  0.00     0.027 A 
HETATM    3  C3  UNL     1      -3.525   3.765  15.022  1.00  0.00     0.032 A 
HETATM    4  C4  UNL     1      -4.352   4.834  14.773  1.00  0.00     0.049 A 
HETATM    5  C11 UNL     1      -5.673   4.732  15.149  1.00  0.00     0.032 A 
HETATM    6  C12 UNL     1      -6.165   3.588  15.763  1.00  0.00     0.027 A 
ENDROOT
BRANCH   4   7
HETATM    7  N2  UNL     1      -3.904   6.009  14.156  1.00  0.00    -0.287 N 
HETATM    8  N3  UNL     1      -2.755   6.516  14.319  1.00  0.00    -0.244 N 
ATOM      9  H3  UNL     1      -2.083   6.059  14.937  1.00  0.00     0.208 HD
ATOM     10  H2  UNL     1      -4.549   6.491  13.531  1.00  0.00     0.188 HD
BRANCH   8  11
HETATM   11  N4  UNL     1      -2.412   7.656  13.679  1.00  0.00    -0.303 N 
HETATM   12  C5  UNL     1      -1.991   8.860  14.487  1.00  0.00     0.223 C 
HETATM   13  C6  UNL     1      -1.997   9.961  13.597  1.00  0.00    -0.162 C 
HETATM   14  C7  UNL     1      -2.073  10.933  12.596  1.00  0.00     0.081 C 
HETATM   15  C8  UNL     1      -2.483  10.185  11.275  1.00  0.00     0.013 C 
HETATM   16  C9  UNL     1      -3.163   8.856  11.587  1.00  0.00     0.022 C 
HETATM   17  C10 UNL     1      -2.440   7.748  12.199  1.00  0.00     0.145 C 
ENDBRANCH   8  11
ENDBRANCH   4   7
BRANCH   1  18
HETATM   18  S1  UNL     1      -5.960   1.105  16.774  1.00  0.00     0.256 S 
HETATM   19  O1  UNL     1      -5.418  -0.117  16.083  1.00  0.00    -0.201 OA
HETATM   20  O2  UNL     1      -5.459   1.093  18.186  1.00  0.00    -0.201 OA
BRANCH  18  21
HETATM   21  N1  UNL     1      -7.678   1.098  16.775  1.00  0.00    -0.324 N 
ATOM     22  H12 UNL     1      -8.241   0.292  16.503  1.00  0.00     0.169 HD
ATOM     23  H11 UNL     1      -8.046   1.999  17.081  1.00  0.00     0.169 HD
ENDBRANCH  18  21
ENDBRANCH   1  18
TORSDOF 4
ENDMDL
