MODEL 6
REMARK VINA RESULT: -6.872226428      0.675      1.445
REMARK  4 active torsions:
REMARK  status: ('A' for Active; 'I' for Inactive)
REMARK    1  A    between atoms: N1_1  and  S1_4 
REMARK    2  A    between atoms: S1_4  and  C1_7 
REMARK    3  A    between atoms: C4_10  and  N2_11 
REMARK    4  A    between atoms: N3_13  and  N4_15 
ROOT
HETATM    1  C1  UNL     1      -5.377   2.564  15.985  1.00  0.00     0.079 A 
HETATM    2  C2  UNL     1      -6.217   3.613  15.777  1.00  0.00     0.027 A 
HETATM    3  C3  UNL     1      -5.748   4.769  15.176  1.00  0.00     0.032 A 
HETATM    4  C4  UNL     1      -4.435   4.875  14.783  1.00  0.00     0.049 A 
HETATM    5  C11 UNL     1      -3.603   3.801  15.005  1.00  0.00     0.032 A 
HETATM    6  C12 UNL     1      -4.067   2.639  15.607  1.00  0.00     0.027 A 
ENDROOT
BRANCH   4   7
HETATM    7  N2  UNL     1      -3.919   6.026  14.172  1.00  0.00    -0.287 N 
HETATM    8  N3  UNL     1      -3.023   6.768  14.672  1.00  0.00    -0.244 N 
ATOM      9  H3  UNL     1      -2.625   6.538  15.583  1.00  0.00     0.208 HD
ATOM     10  H2  UNL     1      -4.293   6.285  13.260  1.00  0.00     0.188 HD
BRANCH   8  11
HETATM   11  N4  UNL     1      -2.588   7.860  14.007  1.00  0.00    -0.303 N 
HETATM   12  C5  UNL     1      -2.697   7.903  12.501  1.00  0.00     0.223 C 
HETATM   13  C6  UNL     1      -1.903   8.993  12.072  1.00  0.00    -0.162 C 
HETATM   14  C7  UNL     1      -1.066  10.085  11.824  1.00  0.00     0.081 C 
HETATM   15  C8  UNL     1      -0.587  10.612  13.226  1.00  0.00     0.013 C 
HETATM   16  C9  UNL     1      -0.709   9.526  14.290  1.00  0.00     0.022 C 
HETATM   17  C10 UNL     1      -2.005   9.020  14.725  1.00  0.00     0.145 C 
ENDBRANCH   8  11
ENDBRANCH   4   7
BRANCH   1  18
HETATM   18  S1  UNL     1      -5.943   1.085  16.746  1.00  0.00     0.256 S 
HETATM   19  O1  UNL     1      -5.384  -0.100  16.005  1.00  0.00    -0.201 OA
HETATM   20  O2  UNL     1      -5.392   1.055  18.139  1.00  0.00    -0.201 OA
BRANCH  18  21
HETATM   21  N1  UNL     1      -7.658   1.018  16.806  1.00  0.00    -0.324 N 
ATOM     22  H12 UNL     1      -8.185   0.165  16.996  1.00  0.00     0.169 HD
ATOM     23  H11 UNL     1      -8.065   1.936  16.628  1.00  0.00     0.169 HD
ENDBRANCH  18  21
ENDBRANCH   1  18
TORSDOF 4
ENDMDL
