MODEL 13
REMARK VINA RESULT: -6.485079550      3.871      4.648
REMARK  4 active torsions:
REMARK  status: ('A' for Active; 'I' for Inactive)
REMARK    1  A    between atoms: N1_1  and  S1_4 
REMARK    2  A    between atoms: S1_4  and  C1_7 
REMARK    3  A    between atoms: C4_10  and  N2_11 
REMARK    4  A    between atoms: N3_13  and  N4_15 
ROOT
HETATM    1  C1  UNL     1      -4.570   1.827  14.045  1.00  0.00     0.079 A 
HETATM    2  C2  UNL     1      -4.630   1.187  12.846  1.00  0.00     0.027 A 
HETATM    3  C3  UNL     1      -4.477   1.901  11.670  1.00  0.00     0.032 A 
HETATM    4  C4  UNL     1      -4.264   3.259  11.693  1.00  0.00     0.049 A 
HETATM    5  C11 UNL     1      -4.208   3.885  12.918  1.00  0.00     0.032 A 
HETATM    6  C12 UNL     1      -4.361   3.175  14.101  1.00  0.00     0.027 A 
ENDROOT
BRANCH   4   7
HETATM    7  N2  UNL     1      -4.105   4.019  10.527  1.00  0.00    -0.287 N 
HETATM    8  N3  UNL     1      -4.554   5.192  10.364  1.00  0.00    -0.244 N 
ATOM      9  H3  UNL     1      -5.074   5.644  11.116  1.00  0.00     0.208 HD
ATOM     10  H2  UNL     1      -3.589   3.598   9.754  1.00  0.00     0.188 HD
BRANCH   8  11
HETATM   11  N4  UNL     1      -4.350   5.848   9.200  1.00  0.00    -0.303 N 
HETATM   12  C5  UNL     1      -5.439   6.738   8.650  1.00  0.00     0.223 C 
HETATM   13  C6  UNL     1      -5.081   7.031   7.313  1.00  0.00    -0.162 C 
HETATM   14  C7  UNL     1      -4.589   7.202   6.016  1.00  0.00     0.081 C 
HETATM   15  C8  UNL     1      -3.220   6.431   5.949  1.00  0.00     0.013 C 
HETATM   16  C9  UNL     1      -3.140   5.364   7.035  1.00  0.00     0.022 C 
HETATM   17  C10 UNL     1      -3.078   5.711   8.450  1.00  0.00     0.145 C 
ENDBRANCH   8  11
ENDBRANCH   4   7
BRANCH   1  18
HETATM   18  S1  UNL     1      -4.761   0.948  15.554  1.00  0.00     0.256 S 
HETATM   19  O1  UNL     1      -4.839  -0.527  15.264  1.00  0.00    -0.201 OA
HETATM   20  O2  UNL     1      -3.532   1.189  16.374  1.00  0.00    -0.201 OA
BRANCH  18  21
HETATM   21  N1  UNL     1      -6.144   1.475  16.425  1.00  0.00    -0.324 N 
ATOM     22  H12 UNL     1      -7.102   1.249  16.157  1.00  0.00     0.169 HD
ATOM     23  H11 UNL     1      -5.875   2.036  17.233  1.00  0.00     0.169 HD
ENDBRANCH  18  21
ENDBRANCH   1  18
TORSDOF 4
ENDMDL
