MODEL 20
REMARK VINA RESULT: -6.125914006      5.249      8.316
REMARK  4 active torsions:
REMARK  status: ('A' for Active; 'I' for Inactive)
REMARK    1  A    between atoms: N1_1  and  S1_4 
REMARK    2  A    between atoms: S1_4  and  C1_7 
REMARK    3  A    between atoms: C4_10  and  N2_11 
REMARK    4  A    between atoms: N3_13  and  N4_15 
ROOT
HETATM    1  C1  UNL     1       0.070   5.520  12.021  1.00  0.00     0.079 A 
HETATM    2  C2  UNL     1      -0.239   4.251  11.644  1.00  0.00     0.027 A 
HETATM    3  C3  UNL     1      -1.353   3.620  12.174  1.00  0.00     0.032 A 
HETATM    4  C4  UNL     1      -2.159   4.263  13.083  1.00  0.00     0.049 A 
HETATM    5  C11 UNL     1      -1.827   5.548  13.449  1.00  0.00     0.032 A 
HETATM    6  C12 UNL     1      -0.711   6.185  12.923  1.00  0.00     0.027 A 
ENDROOT
BRANCH   4   7
HETATM    7  N2  UNL     1      -3.294   3.662  13.643  1.00  0.00    -0.287 N 
HETATM    8  N3  UNL     1      -3.400   3.311  14.855  1.00  0.00    -0.244 N 
ATOM      9  H3  UNL     1      -2.621   3.463  15.496  1.00  0.00     0.208 HD
ATOM     10  H2  UNL     1      -4.093   3.496  13.031  1.00  0.00     0.188 HD
BRANCH   8  11
HETATM   11  N4  UNL     1      -4.538   2.737  15.305  1.00  0.00    -0.303 N 
HETATM   12  C5  UNL     1      -5.788   3.573  15.436  1.00  0.00     0.223 C 
HETATM   13  C6  UNL     1      -6.702   2.811  16.202  1.00  0.00    -0.162 C 
HETATM   14  C7  UNL     1      -7.468   1.939  16.981  1.00  0.00     0.081 C 
HETATM   15  C8  UNL     1      -6.602   0.642  17.186  1.00  0.00     0.013 C 
HETATM   16  C9  UNL     1      -5.120   0.936  16.979  1.00  0.00     0.022 C 
HETATM   17  C10 UNL     1      -4.584   1.301  15.673  1.00  0.00     0.145 C 
ENDBRANCH   8  11
ENDBRANCH   4   7
BRANCH   1  18
HETATM   18  S1  UNL     1       1.476   6.345  11.367  1.00  0.00     0.256 S 
HETATM   19  O1  UNL     1       1.502   6.174   9.872  1.00  0.00    -0.201 OA
HETATM   20  O2  UNL     1       1.317   7.806  11.658  1.00  0.00    -0.201 OA
BRANCH  18  21
HETATM   21  N1  UNL     1       2.933   5.775  12.075  1.00  0.00    -0.324 N 
ATOM     22  H12 UNL     1       3.820   5.713  11.575  1.00  0.00     0.169 HD
ATOM     23  H11 UNL     1       2.786   5.511  13.050  1.00  0.00     0.169 HD
ENDBRANCH  18  21
ENDBRANCH   1  18
TORSDOF 4
ENDMDL
