MODEL 1
REMARK VINA RESULT: -6.995385876      0.000      0.000
REMARK  4 active torsions:
REMARK  status: ('A' for Active; 'I' for Inactive)
REMARK    1  A    between atoms: N1_1  and  S1_4 
REMARK    2  A    between atoms: S1_4  and  C1_7 
REMARK    3  A    between atoms: C4_10  and  N2_11 
REMARK    4  A    between atoms: N3_13  and  N4_15 
ROOT
HETATM    1  C1  UNL     1      -5.434   2.602  15.977  1.00  0.00     0.079 A 
HETATM    2  C2  UNL     1      -6.272   3.654  15.779  1.00  0.00     0.027 A 
HETATM    3  C3  UNL     1      -5.808   4.808  15.171  1.00  0.00     0.032 A 
HETATM    4  C4  UNL     1      -4.500   4.909  14.759  1.00  0.00     0.049 A 
HETATM    5  C11 UNL     1      -3.670   3.831  14.969  1.00  0.00     0.032 A 
HETATM    6  C12 UNL     1      -4.129   2.671  15.579  1.00  0.00     0.027 A 
ENDROOT
BRANCH   4   7
HETATM    7  N2  UNL     1      -3.989   6.057  14.140  1.00  0.00    -0.287 N 
HETATM    8  N3  UNL     1      -2.844   6.548  14.364  1.00  0.00    -0.244 N 
ATOM      9  H3  UNL     1      -2.223   6.098  15.037  1.00  0.00     0.208 HD
ATOM     10  H2  UNL     1      -4.583   6.532  13.460  1.00  0.00     0.188 HD
BRANCH   8  11
HETATM   11  N4  UNL     1      -2.437   7.662  13.717  1.00  0.00    -0.303 N 
HETATM   12  C5  UNL     1      -1.999   8.865  14.517  1.00  0.00     0.223 C 
HETATM   13  C6  UNL     1      -1.933   9.949  13.609  1.00  0.00    -0.162 C 
HETATM   14  C7  UNL     1      -1.941  10.905  12.589  1.00  0.00     0.081 C 
HETATM   15  C8  UNL     1      -2.336  10.148  11.268  1.00  0.00     0.013 C 
HETATM   16  C9  UNL     1      -3.075   8.851  11.580  1.00  0.00     0.022 C 
HETATM   17  C10 UNL     1      -2.414   7.729  12.235  1.00  0.00     0.145 C 
ENDBRANCH   8  11
ENDBRANCH   4   7
BRANCH   1  18
HETATM   18  S1  UNL     1      -5.994   1.125  16.746  1.00  0.00     0.256 S 
HETATM   19  O1  UNL     1      -5.429  -0.062  16.014  1.00  0.00    -0.201 OA
HETATM   20  O2  UNL     1      -5.445   1.108  18.140  1.00  0.00    -0.201 OA
BRANCH  18  21
HETATM   21  N1  UNL     1      -7.709   1.051  16.805  1.00  0.00    -0.324 N 
ATOM     22  H12 UNL     1      -8.227   0.380  17.373  1.00  0.00     0.169 HD
ATOM     23  H11 UNL     1      -8.125   1.759  16.201  1.00  0.00     0.169 HD
ENDBRANCH  18  21
ENDBRANCH   1  18
TORSDOF 4
ENDMDL
