MODEL 3
REMARK VINA RESULT: -7.403121289      1.109      1.228
REMARK  6 active torsions:
REMARK  status: ('A' for Active; 'I' for Inactive)
REMARK       I    between atoms: N1_6  and  C6_7 
REMARK    1  A    between atoms: C6_7  and  C7_9 
REMARK    2  A    between atoms: C7_9  and  C8_10 
REMARK    3  A    between atoms: C8_10  and  N2_11 
REMARK    4  A    between atoms: N2_11  and  C9_13 
REMARK    5  A    between atoms: C12_16  and  S1_17 
REMARK    6  A    between atoms: S1_17  and  N3_18 
ROOT
HETATM    1  N2  UNL     1      -4.485   5.426  13.449  1.00  0.00    -0.389 N 
ATOM      2  H2  UNL     1      -4.229   6.354  13.785  1.00  0.00     0.159 HD
ENDROOT
BRANCH   1   3
HETATM    3  C8  UNL     1      -4.429   5.171  12.034  1.00  0.00     0.129 C 
BRANCH   3   4
HETATM    4  C7  UNL     1      -4.494   6.468  11.215  1.00  0.00     0.124 C 
BRANCH   4   5
HETATM    5  C6  UNL     1      -5.889   6.820  11.024  1.00  0.00     0.244 C 
HETATM    6  N1  UNL     1      -6.520   7.176   9.805  1.00  0.00    -0.229 N 
HETATM    7  C4  UNL     1      -6.017   7.262   8.554  1.00  0.00     0.035 A 
HETATM    8  N4  UNL     1      -7.818   7.523   9.677  1.00  0.00    -0.296 N 
HETATM    9  C3  UNL     1      -7.013   7.662   7.669  1.00  0.00     0.052 A 
HETATM   10  C5  UNL     1      -4.633   6.985   8.113  1.00  0.00     0.070 C 
HETATM   11  C2  UNL     1      -8.129   7.815   8.419  1.00  0.00     0.024 A 
HETATM   12  C1  UNL     1      -9.478   8.240   7.911  1.00  0.00     0.070 C 
ATOM     13  H4  UNL     1      -8.479   7.556  10.452  1.00  0.00     0.187 HD
HETATM   14  O1  UNL     1      -6.655   6.817  12.057  1.00  0.00    -0.271 OA
ENDBRANCH   4   5
ENDBRANCH   3   4
ENDBRANCH   1   3
BRANCH   1  15
HETATM   15  C9  UNL     1      -4.874   4.459  14.391  1.00  0.00     0.028 A 
HETATM   16  C10 UNL     1      -4.029   3.429  14.768  1.00  0.00     0.030 A 
HETATM   17  C11 UNL     1      -4.428   2.466  15.684  1.00  0.00     0.027 A 
HETATM   18  C12 UNL     1      -5.677   2.501  16.249  1.00  0.00     0.079 A 
HETATM   19  C13 UNL     1      -6.520   3.523  15.878  1.00  0.00     0.027 A 
HETATM   20  C14 UNL     1      -6.123   4.499  14.953  1.00  0.00     0.030 A 
BRANCH  18  21
HETATM   21  S1  UNL     1      -6.172   1.288  17.401  1.00  0.00     0.256 S 
HETATM   22  O2  UNL     1      -7.522   0.735  16.975  1.00  0.00    -0.201 OA
HETATM   23  O3  UNL     1      -5.230   0.124  17.423  1.00  0.00    -0.201 OA
BRANCH  21  24
HETATM   24  N3  UNL     1      -6.368   1.998  18.940  1.00  0.00    -0.324 N 
ATOM     25  H32 UNL     1      -6.252   2.993  19.133  1.00  0.00     0.169 HD
ATOM     26  H31 UNL     1      -6.616   1.282  19.622  1.00  0.00     0.169 HD
ENDBRANCH  21  24
ENDBRANCH  18  21
ENDBRANCH   1  15
TORSDOF 6
ENDMDL
