MODEL 18
REMARK VINA RESULT: -6.927505002      3.556      4.361
REMARK  6 active torsions:
REMARK  status: ('A' for Active; 'I' for Inactive)
REMARK       I    between atoms: N1_6  and  C6_7 
REMARK    1  A    between atoms: C6_7  and  C7_9 
REMARK    2  A    between atoms: C7_9  and  C8_10 
REMARK    3  A    between atoms: C8_10  and  N2_11 
REMARK    4  A    between atoms: N2_11  and  C9_13 
REMARK    5  A    between atoms: C12_16  and  S1_17 
REMARK    6  A    between atoms: S1_17  and  N3_18 
ROOT
HETATM    1  N2  UNL     1      -4.039   5.682  14.092  1.00  0.00    -0.389 N 
ATOM      2  H2  UNL     1      -4.402   6.601  14.344  1.00  0.00     0.159 HD
ENDROOT
BRANCH   1   3
HETATM    3  C8  UNL     1      -3.049   5.599  13.050  1.00  0.00     0.129 C 
BRANCH   3   4
HETATM    4  C7  UNL     1      -1.858   6.530  13.318  1.00  0.00     0.124 C 
BRANCH   4   5
HETATM    5  C6  UNL     1      -2.041   7.743  12.543  1.00  0.00     0.244 C 
HETATM    6  N1  UNL     1      -2.012   9.077  13.026  1.00  0.00    -0.229 N 
HETATM    7  C4  UNL     1      -1.800   9.549  14.274  1.00  0.00     0.035 A 
HETATM    8  N4  UNL     1      -2.213  10.178  12.272  1.00  0.00    -0.296 N 
HETATM    9  C3  UNL     1      -1.875  10.938  14.274  1.00  0.00     0.052 A 
HETATM   10  C5  UNL     1      -1.521   8.773  15.501  1.00  0.00     0.070 C 
HETATM   11  C2  UNL     1      -2.137  11.290  12.994  1.00  0.00     0.024 A 
HETATM   12  C1  UNL     1      -2.309  12.695  12.487  1.00  0.00     0.070 C 
ATOM     13  H4  UNL     1      -2.402  10.158  11.271  1.00  0.00     0.187 HD
HETATM   14  O1  UNL     1      -2.254   7.622  11.281  1.00  0.00    -0.271 OA
ENDBRANCH   4   5
ENDBRANCH   3   4
ENDBRANCH   1   3
BRANCH   1  15
HETATM   15  C9  UNL     1      -4.530   4.558  14.778  1.00  0.00     0.028 A 
HETATM   16  C10 UNL     1      -5.855   4.468  15.170  1.00  0.00     0.030 A 
HETATM   17  C11 UNL     1      -6.328   3.364  15.865  1.00  0.00     0.027 A 
HETATM   18  C12 UNL     1      -5.498   2.321  16.188  1.00  0.00     0.079 A 
HETATM   19  C13 UNL     1      -4.180   2.407  15.800  1.00  0.00     0.027 A 
HETATM   20  C14 UNL     1      -3.696   3.520  15.098  1.00  0.00     0.030 A 
BRANCH  18  21
HETATM   21  S1  UNL     1      -6.099   0.936  17.061  1.00  0.00     0.256 S 
HETATM   22  O2  UNL     1      -5.611  -0.325  16.369  1.00  0.00    -0.201 OA
HETATM   23  O3  UNL     1      -5.564   0.882  18.458  1.00  0.00    -0.201 OA
BRANCH  21  24
HETATM   24  N3  UNL     1      -7.805   0.921  17.015  1.00  0.00    -0.324 N 
ATOM     25  H32 UNL     1      -8.362   1.249  16.225  1.00  0.00     0.169 HD
ATOM     26  H31 UNL     1      -8.171   0.538  17.886  1.00  0.00     0.169 HD
ENDBRANCH  21  24
ENDBRANCH  18  21
ENDBRANCH   1  15
TORSDOF 6
ENDMDL
