MODEL 8
REMARK VINA RESULT: -7.010048024      2.138      2.507
REMARK  6 active torsions:
REMARK  status: ('A' for Active; 'I' for Inactive)
REMARK       I    between atoms: N1_6  and  C6_7 
REMARK    1  A    between atoms: C6_7  and  C7_9 
REMARK    2  A    between atoms: C7_9  and  C8_10 
REMARK    3  A    between atoms: C8_10  and  N2_11 
REMARK    4  A    between atoms: N2_11  and  C9_13 
REMARK    5  A    between atoms: C12_16  and  S1_17 
REMARK    6  A    between atoms: S1_17  and  N3_18 
ROOT
HETATM    1  N2  UNL     1      -4.236   4.050  10.388  1.00  0.00    -0.389 N 
ATOM      2  H2  UNL     1      -5.071   4.196   9.821  1.00  0.00     0.159 HD
ENDROOT
BRANCH   1   3
HETATM    3  C8  UNL     1      -2.985   4.586   9.917  1.00  0.00     0.129 C 
BRANCH   3   4
HETATM    4  C7  UNL     1      -3.140   6.019   9.388  1.00  0.00     0.124 C 
BRANCH   4   5
HETATM    5  C6  UNL     1      -4.376   6.098   8.633  1.00  0.00     0.244 C 
HETATM    6  N1  UNL     1      -5.540   6.833   8.974  1.00  0.00    -0.229 N 
HETATM    7  C4  UNL     1      -5.788   7.630  10.037  1.00  0.00     0.035 A 
HETATM    8  N4  UNL     1      -6.680   6.859   8.253  1.00  0.00    -0.296 N 
HETATM    9  C3  UNL     1      -7.081   8.136   9.957  1.00  0.00     0.052 A 
HETATM   10  C5  UNL     1      -4.876   7.964  11.152  1.00  0.00     0.070 C 
HETATM   11  C2  UNL     1      -7.605   7.624   8.819  1.00  0.00     0.024 A 
HETATM   12  C1  UNL     1      -8.991   7.882   8.296  1.00  0.00     0.070 C 
ATOM     13  H4  UNL     1      -6.814   6.351   7.379  1.00  0.00     0.187 HD
HETATM   14  O1  UNL     1      -4.448   5.440   7.530  1.00  0.00    -0.271 OA
ENDBRANCH   4   5
ENDBRANCH   3   4
ENDBRANCH   1   3
BRANCH   1  15
HETATM   15  C9  UNL     1      -4.363   3.337  11.592  1.00  0.00     0.028 A 
HETATM   16  C10 UNL     1      -4.147   3.938  12.820  1.00  0.00     0.030 A 
HETATM   17  C11 UNL     1      -4.254   3.222  14.004  1.00  0.00     0.027 A 
HETATM   18  C12 UNL     1      -4.579   1.890  13.998  1.00  0.00     0.079 A 
HETATM   19  C13 UNL     1      -4.795   1.288  12.779  1.00  0.00     0.027 A 
HETATM   20  C14 UNL     1      -4.687   2.006  11.580  1.00  0.00     0.030 A 
BRANCH  18  21
HETATM   21  S1  UNL     1      -4.714   0.996  15.490  1.00  0.00     0.256 S 
HETATM   22  O2  UNL     1      -4.819  -0.484  15.162  1.00  0.00    -0.201 OA
HETATM   23  O3  UNL     1      -3.494   1.151  16.344  1.00  0.00    -0.201 OA
BRANCH  21  24
HETATM   24  N3  UNL     1      -6.144   1.445  16.305  1.00  0.00    -0.324 N 
ATOM     25  H32 UNL     1      -7.085   1.244  15.969  1.00  0.00     0.169 HD
ATOM     26  H31 UNL     1      -5.909   1.938  17.167  1.00  0.00     0.169 HD
ENDBRANCH  21  24
ENDBRANCH  18  21
ENDBRANCH   1  15
TORSDOF 6
ENDMDL
