MODEL 1
REMARK VINA RESULT: -11.098366470      0.000      0.000
REMARK  4 active torsions:
REMARK  status: ('A' for Active; 'I' for Inactive)
REMARK    1  A    between atoms: N1_4  and  C4_5 
REMARK    2  A    between atoms: C5_10  and  C6_11 
REMARK    3  A    between atoms: C6_11  and  C7_12 
REMARK    4  A    between atoms: N4_27  and  C21_28 
ROOT
HETATM    1  C21 UNL     1      37.582  14.162  20.285  1.00  0.00     0.103 A 
HETATM    2  C22 UNL     1      37.945  15.420  19.849  1.00  0.00     0.050 A 
HETATM    3  C23 UNL     1      39.124  15.640  19.161  1.00  0.00     0.028 A 
HETATM    4  C24 UNL     1      39.969  14.581  18.897  1.00  0.00     0.060 A 
HETATM    5  C25 UNL     1      41.205  14.765  18.184  1.00  0.00     0.101 C 
HETATM    6  N5  UNL     1      42.187  14.911  17.594  1.00  0.00    -0.191 NA
HETATM    7  C26 UNL     1      39.580  13.332  19.345  1.00  0.00     0.112 A 
HETATM    8  N6  UNL     1      38.414  13.154  20.018  1.00  0.00    -0.351 N 
ATOM      9  H6  UNL     1      38.166  12.216  20.332  1.00  0.00     0.166 HD
ENDROOT
BRANCH   1  10
HETATM   10  N4  UNL     1      36.377  13.945  20.982  1.00  0.00    -0.360 N 
HETATM   11  C2  UNL     1      36.253  13.894  22.422  1.00  0.00     0.100 C 
HETATM   12  C1  UNL     1      37.531  14.073  23.168  1.00  0.00     0.034 C 
HETATM   13  C3  UNL     1      35.556  12.599  22.729  1.00  0.00     0.149 C 
HETATM   14  N1  UNL     1      34.216  12.675  22.226  1.00  0.00    -0.362 N 
HETATM   15  C19 UNL     1      33.966  13.509  21.066  1.00  0.00     0.144 C 
HETATM   16  C20 UNL     1      35.153  13.754  20.200  1.00  0.00     0.145 C 
BRANCH  14  17
HETATM   17  C4  UNL     1      33.112  11.989  22.794  1.00  0.00     0.129 A 
HETATM   18  N2  UNL     1      32.361  11.117  22.105  1.00  0.00    -0.285 N 
HETATM   19  N3  UNL     1      31.350  10.465  22.627  1.00  0.00    -0.302 N 
ATOM     20  H2  UNL     1      32.588  10.952  21.124  1.00  0.00     0.188 HD
HETATM   21  C5  UNL     1      30.977  10.625  23.934  1.00  0.00     0.041 A 
ATOM     22  H3  UNL     1      30.824   9.818  22.039  1.00  0.00     0.186 HD
HETATM   23  C13 UNL     1      31.712  11.500  24.675  1.00  0.00     0.002 A 
HETATM   24  C14 UNL     1      31.425  11.729  26.016  1.00  0.00     0.016 A 
HETATM   25  C18 UNL     1      32.797  12.201  24.112  1.00  0.00     0.023 A 
HETATM   26  C15 UNL     1      32.141  12.596  26.808  1.00  0.00     0.025 A 
HETATM   27  C16 UNL     1      33.197  13.282  26.261  1.00  0.00     0.035 A 
HETATM   28 CL1  UNL     1      34.156  14.407  27.208  1.00  0.00    -0.084 Cl
HETATM   29  C17 UNL     1      33.493  13.061  24.927  1.00  0.00     0.040 A 
BRANCH  21  30
HETATM   30  C6  UNL     1      29.803   9.900  24.438  1.00  0.00     0.098 C 
BRANCH  30  31
HETATM   31  C7  UNL     1      30.027   8.532  24.884  1.00  0.00    -0.052 A 
HETATM   32  C8  UNL     1      29.796   8.223  26.230  1.00  0.00     0.007 A 
HETATM   33  C9  UNL     1      29.958   6.947  26.732  1.00  0.00     0.001 A 
HETATM   34  C10 UNL     1      30.362   5.972  25.844  1.00  0.00     0.000 A 
HETATM   35  C11 UNL     1      30.596   6.243  24.516  1.00  0.00     0.001 A 
HETATM   36  C12 UNL     1      30.419   7.532  24.069  1.00  0.00     0.007 A 
ENDBRANCH  30  31
ENDBRANCH  21  30
ENDBRANCH  14  17
ENDBRANCH   1  10
TORSDOF 4
ENDMDL
