MODEL 3
REMARK VINA RESULT: -10.713921844      1.321      1.887
REMARK  4 active torsions:
REMARK  status: ('A' for Active; 'I' for Inactive)
REMARK    1  A    between atoms: N1_4  and  C4_5 
REMARK    2  A    between atoms: C5_10  and  C6_11 
REMARK    3  A    between atoms: C6_11  and  C7_12 
REMARK    4  A    between atoms: N4_27  and  C21_28 
ROOT
HETATM    1  C21 UNL     1      38.992  14.660  19.789  1.00  0.00     0.103 A 
HETATM    2  C22 UNL     1      39.465  15.893  19.391  1.00  0.00     0.050 A 
HETATM    3  C23 UNL     1      40.552  16.017  18.545  1.00  0.00     0.028 A 
HETATM    4  C24 UNL     1      41.191  14.885  18.081  1.00  0.00     0.060 A 
HETATM    5  C25 UNL     1      42.325  14.969  17.201  1.00  0.00     0.101 C 
HETATM    6  N5  UNL     1      43.223  15.036  16.477  1.00  0.00    -0.191 NA
HETATM    7  C26 UNL     1      40.695  13.663  18.497  1.00  0.00     0.112 A 
HETATM    8  N6  UNL     1      39.625  13.580  19.328  1.00  0.00    -0.351 N 
ATOM      9  H6  UNL     1      39.292  12.658  19.611  1.00  0.00     0.166 HD
ENDROOT
BRANCH   1  10
HETATM   10  N4  UNL     1      37.882  14.541  20.647  1.00  0.00    -0.360 N 
HETATM   11  C2  UNL     1      37.958  14.272  22.067  1.00  0.00     0.100 C 
HETATM   12  C1  UNL     1      39.340  14.100  22.598  1.00  0.00     0.034 C 
HETATM   13  C3  UNL     1      37.070  13.084  22.308  1.00  0.00     0.149 C 
HETATM   14  N1  UNL     1      35.714  13.475  22.059  1.00  0.00    -0.362 N 
HETATM   15  C19 UNL     1      35.469  14.521  21.086  1.00  0.00     0.144 C 
HETATM   16  C20 UNL     1      36.544  14.698  20.070  1.00  0.00     0.145 C 
BRANCH  14  17
HETATM   17  C4  UNL     1      34.590  12.904  22.710  1.00  0.00     0.129 A 
HETATM   18  N2  UNL     1      33.802  11.982  22.134  1.00  0.00    -0.285 N 
HETATM   19  N3  UNL     1      32.772  11.437  22.735  1.00  0.00    -0.302 N 
ATOM     20  H2  UNL     1      34.017  11.690  21.181  1.00  0.00     0.188 HD
HETATM   21  C5  UNL     1      32.413  11.770  24.013  1.00  0.00     0.041 A 
ATOM     22  H3  UNL     1      32.219  10.743  22.232  1.00  0.00     0.186 HD
HETATM   23  C13 UNL     1      33.185  12.702  24.639  1.00  0.00     0.002 A 
HETATM   24  C14 UNL     1      32.915  13.104  25.943  1.00  0.00     0.016 A 
HETATM   25  C18 UNL     1      34.291  13.288  23.993  1.00  0.00     0.023 A 
HETATM   26  C15 UNL     1      33.667  14.036  26.620  1.00  0.00     0.025 A 
HETATM   27  C16 UNL     1      34.744  14.609  25.991  1.00  0.00     0.035 A 
HETATM   28 CL1  UNL     1      35.749  15.806  26.790  1.00  0.00    -0.084 Cl
HETATM   29  C17 UNL     1      35.022  14.216  24.694  1.00  0.00     0.040 A 
BRANCH  21  30
HETATM   30  C6  UNL     1      31.217  11.156  24.605  1.00  0.00     0.098 C 
BRANCH  30  31
HETATM   31  C7  UNL     1      31.214   9.703  24.702  1.00  0.00    -0.052 A 
HETATM   32  C8  UNL     1      30.415   8.978  23.809  1.00  0.00     0.007 A 
HETATM   33  C9  UNL     1      30.372   7.598  23.814  1.00  0.00     0.001 A 
HETATM   34  C10 UNL     1      31.157   6.950  24.745  1.00  0.00     0.000 A 
HETATM   35  C11 UNL     1      31.952   7.634  25.635  1.00  0.00     0.001 A 
HETATM   36  C12 UNL     1      31.957   9.009  25.586  1.00  0.00     0.007 A 
ENDBRANCH  30  31
ENDBRANCH  21  30
ENDBRANCH  14  17
ENDBRANCH   1  10
TORSDOF 4
ENDMDL
