MODEL 2
REMARK VINA RESULT: -10.899050748      1.100      1.259
REMARK  4 active torsions:
REMARK  status: ('A' for Active; 'I' for Inactive)
REMARK    1  A    between atoms: N1_4  and  C4_5 
REMARK    2  A    between atoms: C5_10  and  C6_11 
REMARK    3  A    between atoms: C6_11  and  C7_12 
REMARK    4  A    between atoms: N4_27  and  C21_28 
ROOT
HETATM    1  C21 UNL     1      38.511  14.414  19.800  1.00  0.00     0.103 A 
HETATM    2  C22 UNL     1      38.828  15.619  19.206  1.00  0.00     0.050 A 
HETATM    3  C23 UNL     1      39.958  15.770  18.425  1.00  0.00     0.028 A 
HETATM    4  C24 UNL     1      40.800  14.695  18.225  1.00  0.00     0.060 A 
HETATM    5  C25 UNL     1      41.987  14.808  17.419  1.00  0.00     0.101 C 
HETATM    6  N5  UNL     1      42.928  14.894  16.756  1.00  0.00    -0.191 NA
HETATM    7  C26 UNL     1      40.457  13.500  18.832  1.00  0.00     0.112 A 
HETATM    8  N6  UNL     1      39.339  13.389  19.593  1.00  0.00    -0.351 N 
ATOM      9  H6  UNL     1      39.124  12.490  20.023  1.00  0.00     0.166 HD
ENDROOT
BRANCH   1  10
HETATM   10  N4  UNL     1      37.355  14.268  20.592  1.00  0.00    -0.360 N 
HETATM   11  C2  UNL     1      37.341  14.244  22.038  1.00  0.00     0.100 C 
HETATM   12  C1  UNL     1      38.680  14.370  22.679  1.00  0.00     0.034 C 
HETATM   13  C3  UNL     1      36.609  12.989  22.422  1.00  0.00     0.149 C 
HETATM   14  N1  UNL     1      35.239  13.124  22.022  1.00  0.00    -0.362 N 
HETATM   15  C19 UNL     1      34.939  13.952  20.870  1.00  0.00     0.144 C 
HETATM   16  C20 UNL     1      36.065  14.125  19.910  1.00  0.00     0.145 C 
BRANCH  14  17
HETATM   17  C4  UNL     1      34.151  12.501  22.686  1.00  0.00     0.129 A 
HETATM   18  N2  UNL     1      33.423  11.518  22.133  1.00  0.00    -0.285 N 
HETATM   19  N3  UNL     1      32.428  10.925  22.747  1.00  0.00    -0.302 N 
ATOM     20  H2  UNL     1      33.657  11.217  21.187  1.00  0.00     0.188 HD
HETATM   21  C5  UNL     1      32.048  11.266  24.017  1.00  0.00     0.041 A 
ATOM     22  H3  UNL     1      31.920  10.186  22.261  1.00  0.00     0.186 HD
HETATM   23  C13 UNL     1      32.759  12.259  24.619  1.00  0.00     0.002 A 
HETATM   24  C14 UNL     1      32.463  12.675  25.913  1.00  0.00     0.016 A 
HETATM   25  C18 UNL     1      33.828  12.896  23.959  1.00  0.00     0.023 A 
HETATM   26  C15 UNL     1      33.154  13.668  26.568  1.00  0.00     0.025 A 
HETATM   27  C16 UNL     1      34.195  14.291  25.925  1.00  0.00     0.035 A 
HETATM   28 CL1  UNL     1      35.123  15.568  26.695  1.00  0.00    -0.084 Cl
HETATM   29  C17 UNL     1      34.499  13.884  24.637  1.00  0.00     0.040 A 
BRANCH  21  30
HETATM   30  C6  UNL     1      30.891  10.594  24.623  1.00  0.00     0.098 C 
BRANCH  30  31
HETATM   31  C7  UNL     1      30.959   9.142  24.717  1.00  0.00    -0.052 A 
HETATM   32  C8  UNL     1      31.734   8.576  25.736  1.00  0.00     0.007 A 
HETATM   33  C9  UNL     1      31.834   7.210  25.914  1.00  0.00     0.001 A 
HETATM   34  C10 UNL     1      31.130   6.412  25.036  1.00  0.00     0.000 A 
HETATM   35  C11 UNL     1      30.360   6.937  24.025  1.00  0.00     0.001 A 
HETATM   36  C12 UNL     1      30.296   8.305  23.894  1.00  0.00     0.007 A 
ENDBRANCH  30  31
ENDBRANCH  21  30
ENDBRANCH  14  17
ENDBRANCH   1  10
TORSDOF 4
ENDMDL
