MODEL 11
REMARK VINA RESULT: -4.384730914      2.072      3.120
REMARK  1 active torsions:
REMARK  status: ('A' for Active; 'I' for Inactive)
REMARK    1  A    between atoms: N1_6  and  O1_7 
ROOT
HETATM    1  C1  UNL     1      15.028   4.942  15.871  1.00  0.00     0.051 C 
HETATM    2  C2  UNL     1      15.572   3.911  14.950  1.00  0.00    -0.022 A 
HETATM    3  C3  UNL     1      15.996   4.202  13.666  1.00  0.00     0.011 A 
HETATM    4  C4  UNL     1      16.497   3.186  12.855  1.00  0.00     0.020 A 
HETATM    5  C5  UNL     1      16.589   1.877  13.288  1.00  0.00     0.124 A 
HETATM    6  N1  UNL     1      16.170   1.624  14.542  1.00  0.00    -0.225 N 
HETATM    7  C6  UNL     1      15.679   2.595  15.349  1.00  0.00     0.134 A 
HETATM    8  S1  UNL     1      15.174   2.247  16.881  1.00  0.00    -0.057 SA
ENDROOT
BRANCH   6   9
HETATM    9  O1  UNL     1      16.243   0.341  15.011  1.00  0.00    -0.282 OA
ATOM     10  H1  UNL     1      16.009   0.173  15.916  1.00  0.00     0.245 HD
ENDBRANCH   6   9
TORSDOF 1
ENDMDL
