MODEL 14
REMARK VINA RESULT: -4.339273336      4.948      5.783
REMARK  1 active torsions:
REMARK  status: ('A' for Active; 'I' for Inactive)
REMARK    1  A    between atoms: N1_6  and  O1_7 
ROOT
HETATM    1  C1  UNL     1      16.528   2.820  13.098  1.00  0.00     0.051 C 
HETATM    2  C2  UNL     1      17.122   1.693  12.334  1.00  0.00    -0.022 A 
HETATM    3  C3  UNL     1      16.620   0.405  12.388  1.00  0.00     0.011 A 
HETATM    4  C4  UNL     1      17.227  -0.606  11.645  1.00  0.00     0.020 A 
HETATM    5  C5  UNL     1      18.327  -0.371  10.844  1.00  0.00     0.124 A 
HETATM    6  N1  UNL     1      18.793   0.892  10.811  1.00  0.00    -0.225 N 
HETATM    7  C6  UNL     1      18.221   1.891  11.523  1.00  0.00     0.134 A 
HETATM    8  S1  UNL     1      18.819   3.427  11.459  1.00  0.00    -0.057 SA
ENDROOT
BRANCH   6   9
HETATM    9  O1  UNL     1      19.882   1.168  10.030  1.00  0.00    -0.282 OA
ATOM     10  H1  UNL     1      20.740   1.190  10.436  1.00  0.00     0.245 HD
ENDBRANCH   6   9
TORSDOF 1
ENDMDL
