MODEL 2
REMARK VINA RESULT: -5.393321660      1.665      2.653
REMARK  1 active torsions:
REMARK  status: ('A' for Active; 'I' for Inactive)
REMARK    1  A    between atoms: N1_6  and  O1_7 
ROOT
HETATM    1  C1  UNL     1      14.206   3.482  17.758  1.00  0.00     0.051 C 
HETATM    2  C2  UNL     1      14.924   3.104  16.514  1.00  0.00    -0.022 A 
HETATM    3  C3  UNL     1      15.227   4.014  15.517  1.00  0.00     0.011 A 
HETATM    4  C4  UNL     1      15.903   3.591  14.375  1.00  0.00     0.020 A 
HETATM    5  C5  UNL     1      16.290   2.278  14.193  1.00  0.00     0.124 A 
HETATM    6  N1  UNL     1      15.983   1.415  15.179  1.00  0.00    -0.225 N 
HETATM    7  C6  UNL     1      15.327   1.802  16.299  1.00  0.00     0.134 A 
HETATM    8  S1  UNL     1      14.966   0.715  17.487  1.00  0.00    -0.057 SA
ENDROOT
BRANCH   6   9
HETATM    9  O1  UNL     1      16.348   0.104  15.040  1.00  0.00    -0.282 OA
ATOM     10  H1  UNL     1      15.900  -0.551  15.561  1.00  0.00     0.245 HD
ENDBRANCH   6   9
TORSDOF 1
ENDMDL
