MODEL 6
REMARK VINA RESULT: -4.970550367      5.664      6.281
REMARK  1 active torsions:
REMARK  status: ('A' for Active; 'I' for Inactive)
REMARK    1  A    between atoms: N1_6  and  O1_7 
ROOT
HETATM    1  C1  UNL     1      20.042   2.516  11.632  1.00  0.00     0.051 C 
HETATM    2  C2  UNL     1      18.909   1.600  11.341  1.00  0.00    -0.022 A 
HETATM    3  C3  UNL     1      19.088   0.270  11.005  1.00  0.00     0.011 A 
HETATM    4  C4  UNL     1      17.980  -0.533  10.744  1.00  0.00     0.020 A 
HETATM    5  C5  UNL     1      16.688  -0.048  10.808  1.00  0.00     0.124 A 
HETATM    6  N1  UNL     1      16.544   1.249  11.137  1.00  0.00    -0.225 N 
HETATM    7  C6  UNL     1      17.606   2.050  11.396  1.00  0.00     0.134 A 
HETATM    8  S1  UNL     1      17.392   3.636  11.796  1.00  0.00    -0.057 SA
ENDROOT
BRANCH   6   9
HETATM    9  O1  UNL     1      15.282   1.770  11.212  1.00  0.00    -0.282 OA
ATOM     10  H1  UNL     1      15.013   2.197  12.017  1.00  0.00     0.245 HD
ENDBRANCH   6   9
TORSDOF 1
ENDMDL
