MODEL 19
REMARK VINA RESULT: -4.056851573      5.351      6.513
REMARK  1 active torsions:
REMARK  status: ('A' for Active; 'I' for Inactive)
REMARK    1  A    between atoms: N1_6  and  O1_7 
ROOT
HETATM    1  C1  UNL     1      16.940  -0.449  11.889  1.00  0.00     0.051 C 
HETATM    2  C2  UNL     1      17.904   0.646  11.609  1.00  0.00    -0.022 A 
HETATM    3  C3  UNL     1      19.078   0.448  10.904  1.00  0.00     0.011 A 
HETATM    4  C4  UNL     1      19.938   1.521  10.677  1.00  0.00     0.020 A 
HETATM    5  C5  UNL     1      19.663   2.794  11.136  1.00  0.00     0.124 A 
HETATM    6  N1  UNL     1      18.514   2.957  11.818  1.00  0.00    -0.225 N 
HETATM    7  C6  UNL     1      17.661   1.931  12.050  1.00  0.00     0.134 A 
HETATM    8  S1  UNL     1      16.261   2.166  12.891  1.00  0.00    -0.057 SA
ENDROOT
BRANCH   6   9
HETATM    9  O1  UNL     1      18.202   4.203  12.289  1.00  0.00    -0.282 OA
ATOM     10  H1  UNL     1      18.416   4.958  11.754  1.00  0.00     0.245 HD
ENDBRANCH   6   9
TORSDOF 1
ENDMDL
