MODEL 8
REMARK VINA RESULT: -4.648300952      1.942      2.550
REMARK  1 active torsions:
REMARK  status: ('A' for Active; 'I' for Inactive)
REMARK    1  A    between atoms: N1_6  and  O1_7 
ROOT
HETATM    1  C1  UNL     1      14.523   4.477  16.725  1.00  0.00     0.051 C 
HETATM    2  C2  UNL     1      15.137   3.237  16.183  1.00  0.00    -0.022 A 
HETATM    3  C3  UNL     1      15.709   3.173  14.925  1.00  0.00     0.011 A 
HETATM    4  C4  UNL     1      16.268   1.977  14.480  1.00  0.00     0.020 A 
HETATM    5  C5  UNL     1      16.274   0.834  15.255  1.00  0.00     0.124 A 
HETATM    6  N1  UNL     1      15.711   0.926  16.474  1.00  0.00    -0.225 N 
HETATM    7  C6  UNL     1      15.162   2.077  16.930  1.00  0.00     0.134 A 
HETATM    8  S1  UNL     1      14.480   2.154  18.430  1.00  0.00    -0.057 SA
ENDROOT
BRANCH   6   9
HETATM    9  O1  UNL     1      15.696  -0.182  17.275  1.00  0.00    -0.282 OA
ATOM     10  H1  UNL     1      16.002  -0.101  18.171  1.00  0.00     0.245 HD
ENDBRANCH   6   9
TORSDOF 1
ENDMDL
