MODEL 12
REMARK VINA RESULT: -4.198254418      4.905      5.731
REMARK  1 active torsions:
REMARK  status: ('A' for Active; 'I' for Inactive)
REMARK    1  A    between atoms: N1_5  and  O1_6 
ROOT
HETATM    1  C1  UNL     1      20.669   2.623  10.243  1.00  0.00     0.048 C 
HETATM    2  C2  UNL     1      19.557   1.859  10.863  1.00  0.00    -0.058 A 
HETATM    3  C3  UNL     1      19.460   0.496  10.674  1.00  0.00     0.026 A 
HETATM    4  C4  UNL     1      18.429  -0.248  11.243  1.00  0.00     0.125 A 
HETATM    5  N1  UNL     1      17.492   0.342  11.996  1.00  0.00    -0.225 N 
HETATM    6  C5  UNL     1      17.556   1.677  12.203  1.00  0.00     0.129 A 
HETATM    7  S1  UNL     1      16.395   2.351  13.126  1.00  0.00    -0.058 SA
HETATM    8  C6  UNL     1      18.581   2.450  11.643  1.00  0.00     0.051 A 
ENDROOT
BRANCH   5   9
HETATM    9  O1  UNL     1      16.473  -0.396  12.558  1.00  0.00    -0.282 OA
ATOM     10  H1  UNL     1      15.657   0.019  12.812  1.00  0.00     0.245 HD
ENDBRANCH   5   9
TORSDOF 1
ENDMDL
