MODEL 4
REMARK VINA RESULT: -4.552390832      5.634      6.573
REMARK  1 active torsions:
REMARK  status: ('A' for Active; 'I' for Inactive)
REMARK    1  A    between atoms: N1_5  and  O1_6 
ROOT
HETATM    1  C1  UNL     1      18.279  -1.999  11.264  1.00  0.00     0.048 C 
HETATM    2  C2  UNL     1      17.851  -0.577  11.293  1.00  0.00    -0.058 A 
HETATM    3  C3  UNL     1      16.511  -0.256  11.334  1.00  0.00     0.026 A 
HETATM    4  C4  UNL     1      16.078   1.069  11.362  1.00  0.00     0.125 A 
HETATM    5  N1  UNL     1      16.958   2.077  11.348  1.00  0.00    -0.225 N 
HETATM    6  C5  UNL     1      18.281   1.799  11.308  1.00  0.00     0.129 A 
HETATM    7  S1  UNL     1      19.314   3.059  11.293  1.00  0.00    -0.058 SA
HETATM    8  C6  UNL     1      18.744   0.478  11.279  1.00  0.00     0.051 A 
ENDROOT
BRANCH   5   9
HETATM    9  O1  UNL     1      16.528   3.387  11.377  1.00  0.00    -0.282 OA
ATOM     10  H1  UNL     1      15.719   3.622  11.813  1.00  0.00     0.245 HD
ENDBRANCH   5   9
TORSDOF 1
ENDMDL
