MODEL 7
REMARK VINA RESULT: -4.421933049      5.317      5.941
REMARK  1 active torsions:
REMARK  status: ('A' for Active; 'I' for Inactive)
REMARK    1  A    between atoms: N1_5  and  O1_6 
ROOT
HETATM    1  C1  UNL     1      20.829   2.863  10.989  1.00  0.00     0.048 C 
HETATM    2  C2  UNL     1      19.397   2.474  11.069  1.00  0.00    -0.058 A 
HETATM    3  C3  UNL     1      18.410   3.413  10.854  1.00  0.00     0.026 A 
HETATM    4  C4  UNL     1      17.059   3.079  10.923  1.00  0.00     0.125 A 
HETATM    5  N1  UNL     1      16.675   1.828  11.203  1.00  0.00    -0.225 N 
HETATM    6  C5  UNL     1      17.617   0.881  11.420  1.00  0.00     0.129 A 
HETATM    7  S1  UNL     1      17.103  -0.628  11.756  1.00  0.00    -0.058 SA
HETATM    8  C6  UNL     1      18.982   1.188  11.357  1.00  0.00     0.051 A 
ENDROOT
BRANCH   5   9
HETATM    9  O1  UNL     1      15.339   1.499  11.270  1.00  0.00    -0.282 OA
ATOM     10  H1  UNL     1      15.020   0.894  11.929  1.00  0.00     0.245 HD
ENDBRANCH   5   9
TORSDOF 1
ENDMDL
