MODEL 9
REMARK VINA RESULT: -4.269670418      1.427      1.493
REMARK  1 active torsions:
REMARK  status: ('A' for Active; 'I' for Inactive)
REMARK    1  A    between atoms: N1_5  and  O1_6 
ROOT
HETATM    1  C1  UNL     1      15.702   5.521  13.536  1.00  0.00     0.048 C 
HETATM    2  C2  UNL     1      15.834   4.129  14.036  1.00  0.00    -0.058 A 
HETATM    3  C3  UNL     1      16.451   3.169  13.261  1.00  0.00     0.026 A 
HETATM    4  C4  UNL     1      16.591   1.854  13.702  1.00  0.00     0.125 A 
HETATM    5  N1  UNL     1      16.125   1.480  14.900  1.00  0.00    -0.225 N 
HETATM    6  C5  UNL     1      15.515   2.396  15.687  1.00  0.00     0.129 A 
HETATM    7  S1  UNL     1      14.966   1.896  17.137  1.00  0.00    -0.058 SA
HETATM    8  C6  UNL     1      15.361   3.724  15.269  1.00  0.00     0.051 A 
ENDROOT
BRANCH   5   9
HETATM    9  O1  UNL     1      16.264   0.180  15.335  1.00  0.00    -0.282 OA
ATOM     10  H1  UNL     1      15.691  -0.171  16.007  1.00  0.00     0.245 HD
ENDBRANCH   5   9
TORSDOF 1
ENDMDL
