MODEL 1
REMARK VINA RESULT: -5.279585547      0.000      0.000
REMARK  1 active torsions:
REMARK  status: ('A' for Active; 'I' for Inactive)
REMARK    1  A    between atoms: N1_5  and  O1_6 
ROOT
HETATM    1  C1  UNL     1      14.865   5.418  14.974  1.00  0.00     0.048 C 
HETATM    2  C2  UNL     1      15.359   4.087  15.411  1.00  0.00    -0.058 A 
HETATM    3  C3  UNL     1      16.626   3.668  15.062  1.00  0.00     0.026 A 
HETATM    4  C4  UNL     1      17.118   2.425  15.457  1.00  0.00     0.125 A 
HETATM    5  N1  UNL     1      16.369   1.594  16.191  1.00  0.00    -0.225 N 
HETATM    6  C5  UNL     1      15.121   1.972  16.551  1.00  0.00     0.129 A 
HETATM    7  S1  UNL     1      14.248   0.927  17.445  1.00  0.00    -0.058 SA
HETATM    8  C6  UNL     1      14.602   3.215  16.169  1.00  0.00     0.051 A 
ENDROOT
BRANCH   5   9
HETATM    9  O1  UNL     1      16.858   0.365  16.580  1.00  0.00    -0.282 OA
ATOM     10  H1  UNL     1      17.640   0.302  17.115  1.00  0.00     0.245 HD
ENDBRANCH   5   9
TORSDOF 1
ENDMDL
