MODEL 1
REMARK VINA RESULT: -5.644583506      0.000      0.000
REMARK  1 active torsions:
REMARK  status: ('A' for Active; 'I' for Inactive)
REMARK    1  A    between atoms: N1_7  and  O1_8 
ROOT
HETATM    1  C1  UNL     1      16.349   5.229  14.175  1.00  0.00     0.049 C 
HETATM    2  C2  UNL     1      15.940   4.074  15.019  1.00  0.00    -0.044 A 
HETATM    3  C3  UNL     1      14.692   4.039  15.612  1.00  0.00     0.011 A 
HETATM    4  C4  UNL     1      14.332   2.955  16.393  1.00  0.00     0.045 A 
HETATM    5  C5  UNL     1      15.193   1.917  16.589  1.00  0.00     0.128 A 
HETATM    6  S1  UNL     1      14.722   0.665  17.516  1.00  0.00    -0.058 SA
HETATM    7  N1  UNL     1      16.412   1.950  16.011  1.00  0.00    -0.225 N 
HETATM    8  C6  UNL     1      16.774   2.999  15.248  1.00  0.00     0.131 A 
ENDROOT
BRANCH   7   9
HETATM    9  O1  UNL     1      17.280   0.883  16.219  1.00  0.00    -0.282 OA
ATOM     10  H1  UNL     1      17.888   0.925  16.948  1.00  0.00     0.245 HD
ENDBRANCH   7   9
TORSDOF 1
ENDMDL
