MODEL 20
REMARK VINA RESULT: -4.046248339      1.687      1.763
REMARK  1 active torsions:
REMARK  status: ('A' for Active; 'I' for Inactive)
REMARK    1  A    between atoms: N1_7  and  O1_8 
ROOT
HETATM    1  C1  UNL     1      14.341   5.471  14.263  1.00  0.00     0.049 C 
HETATM    2  C2  UNL     1      14.870   4.152  14.703  1.00  0.00    -0.044 A 
HETATM    3  C3  UNL     1      14.578   3.656  15.960  1.00  0.00     0.011 A 
HETATM    4  C4  UNL     1      15.082   2.428  16.349  1.00  0.00     0.045 A 
HETATM    5  C5  UNL     1      15.865   1.694  15.509  1.00  0.00     0.128 A 
HETATM    6  S1  UNL     1      16.433   0.255  16.012  1.00  0.00    -0.058 SA
HETATM    7  N1  UNL     1      16.152   2.178  14.281  1.00  0.00    -0.225 N 
HETATM    8  C6  UNL     1      15.667   3.372  13.891  1.00  0.00     0.131 A 
ENDROOT
BRANCH   7   9
HETATM    9  O1  UNL     1      16.952   1.418  13.434  1.00  0.00    -0.282 OA
ATOM     10  H1  UNL     1      16.650   1.250  12.549  1.00  0.00     0.245 HD
ENDBRANCH   7   9
TORSDOF 1
ENDMDL
