MODEL 3
REMARK VINA RESULT: -5.074143287      5.662      6.554
REMARK  1 active torsions:
REMARK  status: ('A' for Active; 'I' for Inactive)
REMARK    1  A    between atoms: N1_7  and  O1_8 
ROOT
HETATM    1  C1  UNL     1      18.104  -2.127  11.105  1.00  0.00     0.049 C 
HETATM    2  C2  UNL     1      17.898  -0.653  11.103  1.00  0.00    -0.044 A 
HETATM    3  C3  UNL     1      18.977   0.211  11.101  1.00  0.00     0.011 A 
HETATM    4  C4  UNL     1      18.764   1.578  11.099  1.00  0.00     0.045 A 
HETATM    5  C5  UNL     1      17.500   2.089  11.098  1.00  0.00     0.128 A 
HETATM    6  S1  UNL     1      17.301   3.704  11.095  1.00  0.00    -0.058 SA
HETATM    7  N1  UNL     1      16.446   1.246  11.100  1.00  0.00    -0.225 N 
HETATM    8  C6  UNL     1      16.641  -0.086  11.102  1.00  0.00     0.131 A 
ENDROOT
BRANCH   7   9
HETATM    9  O1  UNL     1      15.161   1.782  11.099  1.00  0.00    -0.282 OA
ATOM     10  H1  UNL     1      15.061   2.726  11.073  1.00  0.00     0.245 HD
ENDBRANCH   7   9
TORSDOF 1
ENDMDL
