MODEL 11
REMARK VINA RESULT: -4.410960281      5.841      6.608
REMARK  1 active torsions:
REMARK  status: ('A' for Active; 'I' for Inactive)
REMARK    1  A    between atoms: N1_7  and  O1_8 
ROOT
HETATM    1  C1  UNL     1      17.003  -1.490  11.659  1.00  0.00     0.049 C 
HETATM    2  C2  UNL     1      17.439  -0.098  11.365  1.00  0.00    -0.044 A 
HETATM    3  C3  UNL     1      18.781   0.212  11.243  1.00  0.00     0.011 A 
HETATM    4  C4  UNL     1      19.164   1.513  10.970  1.00  0.00     0.045 A 
HETATM    5  C5  UNL     1      18.235   2.500  10.819  1.00  0.00     0.128 A 
HETATM    6  S1  UNL     1      18.736   4.014  10.498  1.00  0.00    -0.058 SA
HETATM    7  N1  UNL     1      16.925   2.198  10.939  1.00  0.00    -0.225 N 
HETATM    8  C6  UNL     1      16.539   0.936  11.204  1.00  0.00     0.131 A 
ENDROOT
BRANCH   7   9
HETATM    9  O1  UNL     1      15.988   3.215  10.783  1.00  0.00    -0.282 OA
ATOM     10  H1  UNL     1      15.070   2.982  10.711  1.00  0.00     0.245 HD
ENDBRANCH   7   9
TORSDOF 1
ENDMDL
