MODEL 8
REMARK VINA RESULT: -4.585940000      1.024      1.042
REMARK  1 active torsions:
REMARK  status: ('A' for Active; 'I' for Inactive)
REMARK    1  A    between atoms: N1_7  and  O1_8 
ROOT
HETATM    1  C1  UNL     1      16.357   5.411  13.245  1.00  0.00     0.049 C 
HETATM    2  C2  UNL     1      15.880   4.373  14.198  1.00  0.00    -0.044 A 
HETATM    3  C3  UNL     1      14.965   4.687  15.186  1.00  0.00     0.011 A 
HETATM    4  C4  UNL     1      14.535   3.706  16.061  1.00  0.00     0.045 A 
HETATM    5  C5  UNL     1      15.001   2.429  15.966  1.00  0.00     0.128 A 
HETATM    6  S1  UNL     1      14.464   1.311  17.019  1.00  0.00    -0.058 SA
HETATM    7  N1  UNL     1      15.895   2.122  15.002  1.00  0.00    -0.225 N 
HETATM    8  C6  UNL     1      16.321   3.067  14.143  1.00  0.00     0.131 A 
ENDROOT
BRANCH   7   9
HETATM    9  O1  UNL     1      16.362   0.813  14.916  1.00  0.00    -0.282 OA
ATOM     10  H1  UNL     1      17.299   0.661  14.950  1.00  0.00     0.245 HD
ENDBRANCH   7   9
TORSDOF 1
ENDMDL
