MODEL 10
REMARK VINA RESULT: -4.524570301      6.032      6.767
REMARK  1 active torsions:
REMARK  status: ('A' for Active; 'I' for Inactive)
REMARK    1  A    between atoms: N1_7  and  O1_8 
ROOT
HETATM    1  C1  UNL     1      17.984  -3.036  11.336  1.00  0.00     0.049 C 
HETATM    2  C2  UNL     1      17.918  -1.550  11.320  1.00  0.00    -0.044 A 
HETATM    3  C3  UNL     1      16.889  -0.881  11.956  1.00  0.00     0.011 A 
HETATM    4  C4  UNL     1      16.847   0.501  11.928  1.00  0.00     0.045 A 
HETATM    5  C5  UNL     1      17.808   1.218  11.280  1.00  0.00     0.128 A 
HETATM    6  S1  UNL     1      17.715   2.843  11.276  1.00  0.00    -0.058 SA
HETATM    7  N1  UNL     1      18.813   0.566  10.658  1.00  0.00    -0.225 N 
HETATM    8  C6  UNL     1      18.866  -0.779  10.679  1.00  0.00     0.131 A 
ENDROOT
BRANCH   7   9
HETATM    9  O1  UNL     1      19.788   1.311  10.001  1.00  0.00    -0.282 OA
ATOM     10  H1  UNL     1      20.484   0.851   9.546  1.00  0.00     0.245 HD
ENDBRANCH   7   9
TORSDOF 1
ENDMDL
