MODEL 4
REMARK VINA RESULT: -5.001964408      0.969      1.015
REMARK  1 active torsions:
REMARK  status: ('A' for Active; 'I' for Inactive)
REMARK    1  A    between atoms: N1_7  and  O1_8 
ROOT
HETATM    1  C1  UNL     1      17.585   4.148  14.229  1.00  0.00     0.049 C 
HETATM    2  C2  UNL     1      16.594   3.352  15.002  1.00  0.00    -0.044 A 
HETATM    3  C3  UNL     1      15.370   3.892  15.350  1.00  0.00     0.011 A 
HETATM    4  C4  UNL     1      14.464   3.133  16.069  1.00  0.00     0.045 A 
HETATM    5  C5  UNL     1      14.760   1.856  16.442  1.00  0.00     0.128 A 
HETATM    6  S1  UNL     1      13.660   1.004  17.286  1.00  0.00    -0.058 SA
HETATM    7  N1  UNL     1      15.955   1.328  16.102  1.00  0.00    -0.225 N 
HETATM    8  C6  UNL     1      16.845   2.056  15.402  1.00  0.00     0.131 A 
ENDROOT
BRANCH   7   9
HETATM    9  O1  UNL     1      16.243   0.022  16.489  1.00  0.00    -0.282 OA
ATOM     10  H1  UNL     1      16.810  -0.116  17.238  1.00  0.00     0.245 HD
ENDBRANCH   7   9
TORSDOF 1
ENDMDL
