MODEL 11
REMARK VINA RESULT: -4.314655482      4.718      5.484
REMARK  1 active torsions:
REMARK  status: ('A' for Active; 'I' for Inactive)
REMARK    1  A    between atoms: N1_8  and  O1_9 
ROOT
HETATM    1  C1  UNL     1      17.838  -1.093  10.839  1.00  0.00     0.071 C 
HETATM    2  C2  UNL     1      17.715   0.275  11.372  1.00  0.00     0.037 A 
HETATM    3  C3  UNL     1      16.640   0.589  12.178  1.00  0.00     0.027 A 
HETATM    4  C4  UNL     1      16.511   1.873  12.686  1.00  0.00     0.005 A 
HETATM    5  C5  UNL     1      17.444   2.862  12.404  1.00  0.00     0.044 A 
HETATM    6  C6  UNL     1      18.497   2.492  11.594  1.00  0.00     0.129 A 
HETATM    7  S1  UNL     1      19.629   3.629  11.232  1.00  0.00    -0.058 SA
HETATM    8  N1  UNL     1      18.628   1.248  11.098  1.00  0.00    -0.219 N 
ENDROOT
BRANCH   8   9
HETATM    9  O1  UNL     1      19.684   0.874  10.285  1.00  0.00    -0.282 OA
ATOM     10  H1  UNL     1      20.460   0.558  10.732  1.00  0.00     0.245 HD
ENDBRANCH   8   9
TORSDOF 1
ENDMDL
