MODEL 6
REMARK VINA RESULT: -4.524807722      5.491      5.946
REMARK  1 active torsions:
REMARK  status: ('A' for Active; 'I' for Inactive)
REMARK    1  A    between atoms: N1_8  and  O1_9 
ROOT
HETATM    1  C1  UNL     1      16.602  -0.873  11.074  1.00  0.00     0.071 C 
HETATM    2  C2  UNL     1      17.419   0.353  11.061  1.00  0.00     0.037 A 
HETATM    3  C3  UNL     1      18.794   0.244  11.007  1.00  0.00     0.027 A 
HETATM    4  C4  UNL     1      19.576   1.389  10.994  1.00  0.00     0.005 A 
HETATM    5  C5  UNL     1      19.008   2.655  11.036  1.00  0.00     0.044 A 
HETATM    6  C6  UNL     1      17.631   2.704  11.090  1.00  0.00     0.129 A 
HETATM    7  S1  UNL     1      16.912   4.182  11.141  1.00  0.00    -0.058 SA
HETATM    8  N1  UNL     1      16.866   1.596  11.102  1.00  0.00    -0.219 N 
ENDROOT
BRANCH   8   9
HETATM    9  O1  UNL     1      15.484   1.643  11.156  1.00  0.00    -0.282 OA
ATOM     10  H1  UNL     1      15.029   1.385  10.363  1.00  0.00     0.245 HD
ENDBRANCH   8   9
TORSDOF 1
ENDMDL
