MODEL 7
REMARK VINA RESULT: -4.504971783      1.939      3.034
REMARK  1 active torsions:
REMARK  status: ('A' for Active; 'I' for Inactive)
REMARK    1  A    between atoms: N1_8  and  O1_9 
ROOT
HETATM    1  C1  UNL     1      16.607   1.354  12.674  1.00  0.00     0.071 C 
HETATM    2  C2  UNL     1      16.076   2.176  13.775  1.00  0.00     0.037 A 
HETATM    3  C3  UNL     1      15.804   3.510  13.547  1.00  0.00     0.027 A 
HETATM    4  C4  UNL     1      15.304   4.296  14.575  1.00  0.00     0.005 A 
HETATM    5  C5  UNL     1      15.067   3.773  15.839  1.00  0.00     0.044 A 
HETATM    6  C6  UNL     1      15.357   2.435  16.008  1.00  0.00     0.129 A 
HETATM    7  S1  UNL     1      15.093   1.770  17.489  1.00  0.00    -0.058 SA
HETATM    8  N1  UNL     1      15.842   1.667  15.016  1.00  0.00    -0.219 N 
ENDROOT
BRANCH   8   9
HETATM    9  O1  UNL     1      16.134   0.324  15.184  1.00  0.00    -0.282 OA
ATOM     10  H1  UNL     1      15.636  -0.279  14.645  1.00  0.00     0.245 HD
ENDBRANCH   8   9
TORSDOF 1
ENDMDL
