MODEL 2
REMARK VINA RESULT: -5.035458096      1.788      2.886
REMARK  1 active torsions:
REMARK  status: ('A' for Active; 'I' for Inactive)
REMARK    1  A    between atoms: N1_8  and  O1_9 
ROOT
HETATM    1  C1  UNL     1      16.523   2.524  13.278  1.00  0.00     0.071 C 
HETATM    2  C2  UNL     1      15.826   2.660  14.568  1.00  0.00     0.037 A 
HETATM    3  C3  UNL     1      15.265   3.876  14.904  1.00  0.00     0.027 A 
HETATM    4  C4  UNL     1      14.605   4.018  16.116  1.00  0.00     0.005 A 
HETATM    5  C5  UNL     1      14.492   2.962  17.009  1.00  0.00     0.044 A 
HETATM    6  C6  UNL     1      15.072   1.772  16.621  1.00  0.00     0.129 A 
HETATM    7  S1  UNL     1      14.964   0.491  17.647  1.00  0.00    -0.058 SA
HETATM    8  N1  UNL     1      15.713   1.627  15.447  1.00  0.00    -0.219 N 
ENDROOT
BRANCH   8   9
HETATM    9  O1  UNL     1      16.295   0.434  15.056  1.00  0.00    -0.282 OA
ATOM     10  H1  UNL     1      16.376  -0.230  15.731  1.00  0.00     0.245 HD
ENDBRANCH   8   9
TORSDOF 1
ENDMDL
