MODEL 3
REMARK VINA RESULT: -4.838621656      1.892      3.076
REMARK  1 active torsions:
REMARK  status: ('A' for Active; 'I' for Inactive)
REMARK    1  A    between atoms: N1_8  and  O1_9 
ROOT
HETATM    1  C1  UNL     1      16.221   5.348  14.333  1.00  0.00     0.071 C 
HETATM    2  C2  UNL     1      15.648   4.392  15.296  1.00  0.00     0.037 A 
HETATM    3  C3  UNL     1      14.640   4.811  16.140  1.00  0.00     0.027 A 
HETATM    4  C4  UNL     1      14.091   3.922  17.053  1.00  0.00     0.005 A 
HETATM    5  C5  UNL     1      14.533   2.609  17.141  1.00  0.00     0.044 A 
HETATM    6  C6  UNL     1      15.542   2.246  16.274  1.00  0.00     0.129 A 
HETATM    7  S1  UNL     1      16.099   0.701  16.341  1.00  0.00    -0.058 SA
HETATM    8  N1  UNL     1      16.079   3.104  15.387  1.00  0.00    -0.219 N 
ENDROOT
BRANCH   8   9
HETATM    9  O1  UNL     1      17.092   2.742  14.515  1.00  0.00    -0.282 OA
ATOM     10  H1  UNL     1      17.167   3.266  13.726  1.00  0.00     0.245 HD
ENDBRANCH   8   9
TORSDOF 1
ENDMDL
