MODEL 9
REMARK VINA RESULT: -4.355596280      5.485      6.241
REMARK  1 active torsions:
REMARK  status: ('A' for Active; 'I' for Inactive)
REMARK    1  A    between atoms: N1_8  and  O1_9 
ROOT
HETATM    1  C1  UNL     1      16.748   4.114  10.978  1.00  0.00     0.071 C 
HETATM    2  C2  UNL     1      17.522   2.862  11.031  1.00  0.00     0.037 A 
HETATM    3  C3  UNL     1      18.899   2.919  10.958  1.00  0.00     0.027 A 
HETATM    4  C4  UNL     1      19.641   1.748  11.006  1.00  0.00     0.005 A 
HETATM    5  C5  UNL     1      19.031   0.507  11.127  1.00  0.00     0.044 A 
HETATM    6  C6  UNL     1      17.653   0.510  11.195  1.00  0.00     0.129 A 
HETATM    7  S1  UNL     1      16.884  -0.936  11.338  1.00  0.00    -0.058 SA
HETATM    8  N1  UNL     1      16.928   1.643  11.149  1.00  0.00    -0.219 N 
ENDROOT
BRANCH   8   9
HETATM    9  O1  UNL     1      15.545   1.648  11.217  1.00  0.00    -0.282 OA
ATOM     10  H1  UNL     1      15.124   0.797  11.179  1.00  0.00     0.245 HD
ENDBRANCH   8   9
TORSDOF 1
ENDMDL
