MODEL 4
REMARK VINA RESULT: -4.628544578      4.008      5.412
REMARK  1 active torsions:
REMARK  status: ('A' for Active; 'I' for Inactive)
REMARK    1  A    between atoms: N1_6  and  O1_7 
ROOT
HETATM    1  C1  UNL     1      20.528   2.668   9.704  1.00  0.00     0.048 C 
HETATM    2  C2  UNL     1      19.471   1.972  10.506  1.00  0.00    -0.057 A 
HETATM    3  C3  UNL     1      19.312   0.604  10.452  1.00  0.00     0.034 A 
HETATM    4  C4  UNL     1      18.344  -0.060  11.183  1.00  0.00     0.038 A 
HETATM    5  C5  UNL     1      18.234  -1.541  11.072  1.00  0.00     0.071 C 
HETATM    6  N1  UNL     1      17.515   0.633  11.982  1.00  0.00    -0.219 N 
HETATM    7  C6  UNL     1      17.664   1.969  12.041  1.00  0.00     0.129 A 
HETATM    8  S1  UNL     1      16.661   2.806  13.008  1.00  0.00    -0.058 SA
HETATM    9  C7  UNL     1      18.611   2.667  11.333  1.00  0.00     0.051 A 
ENDROOT
BRANCH   6  10
HETATM   10  O1  UNL     1      16.533  -0.013  12.727  1.00  0.00    -0.282 OA
ATOM     11  H1  UNL     1      15.954   0.476  13.300  1.00  0.00     0.245 HD
ENDBRANCH   6  10
TORSDOF 1
ENDMDL
