MODEL 5
REMARK VINA RESULT: -4.520074887      3.990      5.707
REMARK  1 active torsions:
REMARK  status: ('A' for Active; 'I' for Inactive)
REMARK    1  A    between atoms: N1_6  and  O1_7 
ROOT
HETATM    1  C1  UNL     1      17.242  -1.750  11.570  1.00  0.00     0.048 C 
HETATM    2  C2  UNL     1      17.561  -0.287  11.628  1.00  0.00    -0.057 A 
HETATM    3  C3  UNL     1      18.640   0.240  10.953  1.00  0.00     0.034 A 
HETATM    4  C4  UNL     1      18.953   1.587  10.992  1.00  0.00     0.038 A 
HETATM    5  C5  UNL     1      20.137   2.083  10.235  1.00  0.00     0.071 C 
HETATM    6  N1  UNL     1      18.193   2.431  11.708  1.00  0.00    -0.219 N 
HETATM    7  C6  UNL     1      17.137   1.924  12.370  1.00  0.00     0.129 A 
HETATM    8  S1  UNL     1      16.217   2.946  13.236  1.00  0.00    -0.058 SA
HETATM    9  C7  UNL     1      16.791   0.596  12.358  1.00  0.00     0.051 A 
ENDROOT
BRANCH   6  10
HETATM   10  O1  UNL     1      18.488   3.790  11.763  1.00  0.00    -0.282 OA
ATOM     11  H1  UNL     1      18.645   4.223  12.594  1.00  0.00     0.245 HD
ENDBRANCH   6  10
TORSDOF 1
ENDMDL
