MODEL 6
REMARK VINA RESULT: -4.510617327      3.950      5.433
REMARK  1 active torsions:
REMARK  status: ('A' for Active; 'I' for Inactive)
REMARK    1  A    between atoms: N1_6  and  O1_7 
ROOT
HETATM    1  C1  UNL     1      17.911  -1.929  11.219  1.00  0.00     0.048 C 
HETATM    2  C2  UNL     1      18.013  -0.439  11.344  1.00  0.00    -0.057 A 
HETATM    3  C3  UNL     1      17.086   0.287  12.060  1.00  0.00     0.034 A 
HETATM    4  C4  UNL     1      17.160   1.662  12.190  1.00  0.00     0.038 A 
HETATM    5  C5  UNL     1      16.120   2.377  12.980  1.00  0.00     0.071 C 
HETATM    6  N1  UNL     1      18.162   2.337  11.603  1.00  0.00    -0.219 N 
HETATM    7  C6  UNL     1      19.072   1.635  10.902  1.00  0.00     0.129 A 
HETATM    8  S1  UNL     1      20.285   2.453  10.194  1.00  0.00    -0.058 SA
HETATM    9  C7  UNL     1      19.036   0.272  10.749  1.00  0.00     0.051 A 
ENDROOT
BRANCH   6  10
HETATM   10  O1  UNL     1      18.257   3.720  11.719  1.00  0.00    -0.282 OA
ATOM     11  H1  UNL     1      19.005   4.125  12.144  1.00  0.00     0.245 HD
ENDBRANCH   6  10
TORSDOF 1
ENDMDL
