MODEL 2
REMARK VINA RESULT: -5.058216604      1.699      2.705
REMARK  1 active torsions:
REMARK  status: ('A' for Active; 'I' for Inactive)
REMARK    1  A    between atoms: N1_6  and  O1_7 
ROOT
HETATM    1  C1  UNL     1      14.835   5.442  14.310  1.00  0.00     0.048 C 
HETATM    2  C2  UNL     1      15.269   4.017  14.482  1.00  0.00    -0.057 A 
HETATM    3  C3  UNL     1      15.897   3.330  13.467  1.00  0.00     0.034 A 
HETATM    4  C4  UNL     1      16.307   2.016  13.603  1.00  0.00     0.038 A 
HETATM    5  C5  UNL     1      16.980   1.339  12.460  1.00  0.00     0.071 C 
HETATM    6  N1  UNL     1      16.093   1.365  14.758  1.00  0.00    -0.219 N 
HETATM    7  C6  UNL     1      15.480   2.029  15.755  1.00  0.00     0.129 A 
HETATM    8  S1  UNL     1      15.223   1.241  17.153  1.00  0.00    -0.058 SA
HETATM    9  C7  UNL     1      15.059   3.332  15.662  1.00  0.00     0.051 A 
ENDROOT
BRANCH   6  10
HETATM   10  O1  UNL     1      16.495   0.042  14.920  1.00  0.00    -0.282 OA
ATOM     11  H1  UNL     1      17.327  -0.169  15.328  1.00  0.00     0.245 HD
ENDBRANCH   6  10
TORSDOF 1
ENDMDL
