MODEL 20
REMARK VINA RESULT: -5.325554450      5.634      6.702
REMARK  2 active torsions:
REMARK  status: ('A' for Active; 'I' for Inactive)
REMARK    1  A    between atoms: O1_1  and  N1_3 
REMARK    2  A    between atoms: C4_7  and  C5_8 
ROOT
HETATM    1  N1  UNL     1      18.566   2.931  11.907  1.00  0.00    -0.224 N 
HETATM    2  C1  UNL     1      19.750   2.801  11.276  1.00  0.00     0.124 A 
HETATM    3  C2  UNL     1      20.086   1.568  10.768  1.00  0.00     0.021 A 
HETATM    4  C3  UNL     1      19.209   0.485  10.911  1.00  0.00     0.021 A 
HETATM    5  C4  UNL     1      18.005   0.644  11.560  1.00  0.00     0.088 A 
HETATM    6  C6  UNL     1      17.705   1.894  12.054  1.00  0.00     0.143 A 
HETATM    7  S1  UNL     1      16.286   2.132  12.833  1.00  0.00    -0.057 SA
ENDROOT
BRANCH   5   8
HETATM    8  C5  UNL     1      17.095  -0.521  11.697  1.00  0.00     0.420 C 
HETATM    9  F1  UNL     1      15.996  -0.289  10.904  1.00  0.00    -0.166 F 
HETATM   10  F2  UNL     1      16.781  -0.729  13.002  1.00  0.00    -0.166 F 
HETATM   11  F3  UNL     1      17.750  -1.656  11.237  1.00  0.00    -0.166 F 
ENDBRANCH   5   8
BRANCH   1  12
HETATM   12  O1  UNL     1      18.242   4.177  12.412  1.00  0.00    -0.282 OA
ATOM     13  H1  UNL     1      17.345   4.319  12.693  1.00  0.00     0.245 HD
ENDBRANCH   1  12
TORSDOF 2
ENDMDL
