MODEL 15
REMARK VINA RESULT: -5.570872258      1.811      2.872
REMARK  2 active torsions:
REMARK  status: ('A' for Active; 'I' for Inactive)
REMARK    1  A    between atoms: O1_1  and  N1_3 
REMARK    2  A    between atoms: C4_7  and  C5_8 
ROOT
HETATM    1  N1  UNL     1      16.482   0.646  14.889  1.00  0.00    -0.224 N 
HETATM    2  C1  UNL     1      16.806   0.689  13.583  1.00  0.00     0.124 A 
HETATM    3  C2  UNL     1      16.533   1.840  12.881  1.00  0.00     0.021 A 
HETATM    4  C3  UNL     1      15.935   2.931  13.525  1.00  0.00     0.021 A 
HETATM    5  C4  UNL     1      15.615   2.862  14.863  1.00  0.00     0.088 A 
HETATM    6  C6  UNL     1      15.904   1.692  15.529  1.00  0.00     0.143 A 
HETATM    7  S1  UNL     1      15.542   1.562  17.119  1.00  0.00    -0.057 SA
ENDROOT
BRANCH   5   8
HETATM    8  C5  UNL     1      14.982   4.033  15.518  1.00  0.00     0.420 C 
HETATM    9  F1  UNL     1      15.966   4.715  16.197  1.00  0.00    -0.166 F 
HETATM   10  F2  UNL     1      13.957   3.636  16.316  1.00  0.00    -0.166 F 
HETATM   11  F3  UNL     1      14.454   4.863  14.538  1.00  0.00    -0.166 F 
ENDBRANCH   5   8
BRANCH   1  12
HETATM   12  O1  UNL     1      16.762  -0.518  15.582  1.00  0.00    -0.282 OA
ATOM     13  H1  UNL     1      16.126  -0.815  16.222  1.00  0.00     0.245 HD
ENDBRANCH   1  12
TORSDOF 2
ENDMDL
