MODEL 7
REMARK VINA RESULT: -6.205431019      1.864      2.843
REMARK  2 active torsions:
REMARK  status: ('A' for Active; 'I' for Inactive)
REMARK    1  A    between atoms: O1_1  and  N1_3 
REMARK    2  A    between atoms: C4_7  and  C5_8 
ROOT
HETATM    1  N1  UNL     1      16.316   0.839  15.275  1.00  0.00    -0.224 N 
HETATM    2  C1  UNL     1      16.893   1.489  14.246  1.00  0.00     0.124 A 
HETATM    3  C2  UNL     1      16.736   2.854  14.167  1.00  0.00     0.021 A 
HETATM    4  C3  UNL     1      15.993   3.534  15.139  1.00  0.00     0.021 A 
HETATM    5  C4  UNL     1      15.413   2.845  16.182  1.00  0.00     0.088 A 
HETATM    6  C6  UNL     1      15.593   1.481  16.226  1.00  0.00     0.143 A 
HETATM    7  S1  UNL     1      14.924   0.620  17.445  1.00  0.00    -0.057 SA
ENDROOT
BRANCH   5   8
HETATM    8  C5  UNL     1      14.631   3.592  17.199  1.00  0.00     0.420 C 
HETATM    9  F1  UNL     1      15.162   3.301  18.433  1.00  0.00    -0.166 F 
HETATM   10  F2  UNL     1      13.310   3.291  17.098  1.00  0.00    -0.166 F 
HETATM   11  F3  UNL     1      14.770   4.953  16.959  1.00  0.00    -0.166 F 
ENDBRANCH   5   8
BRANCH   1  12
HETATM   12  O1  UNL     1      16.483  -0.532  15.342  1.00  0.00    -0.282 OA
ATOM     13  H1  UNL     1      16.114  -0.986  16.091  1.00  0.00     0.245 HD
ENDBRANCH   1  12
TORSDOF 2
ENDMDL
