MODEL 18
REMARK VINA RESULT: -5.473368800      1.663      2.568
REMARK  2 active torsions:
REMARK  status: ('A' for Active; 'I' for Inactive)
REMARK    1  A    between atoms: O1_1  and  N1_3 
REMARK    2  A    between atoms: C4_7  and  C5_8 
ROOT
HETATM    1  N1  UNL     1      16.005   0.964  16.218  1.00  0.00    -0.224 N 
HETATM    2  C1  UNL     1      16.564   0.642  15.036  1.00  0.00     0.124 A 
HETATM    3  C2  UNL     1      16.648   1.616  14.068  1.00  0.00     0.021 A 
HETATM    4  C3  UNL     1      16.161   2.904  14.322  1.00  0.00     0.021 A 
HETATM    5  C4  UNL     1      15.593   3.208  15.540  1.00  0.00     0.088 A 
HETATM    6  C6  UNL     1      15.528   2.205  16.482  1.00  0.00     0.143 A 
HETATM    7  S1  UNL     1      14.863   2.517  17.943  1.00  0.00    -0.057 SA
ENDROOT
BRANCH   5   8
HETATM    8  C5  UNL     1      15.086   4.581  15.781  1.00  0.00     0.420 C 
HETATM    9  F1  UNL     1      16.165   5.381  16.075  1.00  0.00    -0.166 F 
HETATM   10  F2  UNL     1      14.141   4.575  16.757  1.00  0.00    -0.166 F 
HETATM   11  F3  UNL     1      14.484   5.046  14.619  1.00  0.00    -0.166 F 
ENDBRANCH   5   8
BRANCH   1  12
HETATM   12  O1  UNL     1      15.927  -0.026  17.181  1.00  0.00    -0.282 OA
ATOM     13  H1  UNL     1      15.168  -0.596  17.168  1.00  0.00     0.245 HD
ENDBRANCH   1  12
TORSDOF 2
ENDMDL
