MODEL 15
REMARK VINA RESULT: -5.094999369      5.680      6.438
REMARK  2 active torsions:
REMARK  status: ('A' for Active; 'I' for Inactive)
REMARK    1  A    between atoms: O1_1  and  N1_3 
REMARK    2  A    between atoms: C3_6  and  C4_7 
ROOT
HETATM    1  N1  UNL     1      19.562   3.007  11.393  1.00  0.00    -0.225 N 
HETATM    2  C1  UNL     1      20.043   1.865  10.895  1.00  0.00     0.125 A 
HETATM    3  C2  UNL     1      19.288   0.720  10.951  1.00  0.00     0.036 A 
HETATM    4  C3  UNL     1      18.027   0.703  11.513  1.00  0.00     0.052 A 
HETATM    5  C5  UNL     1      17.543   1.887  12.024  1.00  0.00     0.060 A 
HETATM    6  C6  UNL     1      18.327   3.036  11.955  1.00  0.00     0.129 A 
HETATM    7  S1  UNL     1      17.795   4.468  12.575  1.00  0.00    -0.058 SA
ENDROOT
BRANCH   4   8
HETATM    8  C4  UNL     1      17.168  -0.502  11.561  1.00  0.00     0.417 C 
HETATM    9  F1  UNL     1      17.879  -1.569  10.991  1.00  0.00    -0.166 F 
HETATM   10  F2  UNL     1      16.050  -0.317  10.734  1.00  0.00    -0.166 F 
HETATM   11  F3  UNL     1      16.737  -0.844  12.815  1.00  0.00    -0.166 F 
ENDBRANCH   4   8
BRANCH   1  12
HETATM   12  O1  UNL     1      20.321   4.156  11.308  1.00  0.00    -0.282 OA
ATOM     13  H1  UNL     1      20.146   4.780  10.612  1.00  0.00     0.245 HD
ENDBRANCH   1  12
TORSDOF 2
ENDMDL
