MODEL 14
REMARK VINA RESULT: -5.097412335      5.621      6.384
REMARK  2 active torsions:
REMARK  status: ('A' for Active; 'I' for Inactive)
REMARK    1  A    between atoms: O1_1  and  N1_3 
REMARK    2  A    between atoms: C3_6  and  C4_7 
ROOT
HETATM    1  N1  UNL     1      19.536   3.028  11.503  1.00  0.00    -0.225 N 
HETATM    2  C1  UNL     1      20.049   1.915  10.972  1.00  0.00     0.125 A 
HETATM    3  C2  UNL     1      19.316   0.754  10.975  1.00  0.00     0.036 A 
HETATM    4  C3  UNL     1      18.048   0.691  11.516  1.00  0.00     0.052 A 
HETATM    5  C5  UNL     1      17.532   1.846  12.062  1.00  0.00     0.060 A 
HETATM    6  C6  UNL     1      18.293   3.012  12.047  1.00  0.00     0.129 A 
HETATM    7  S1  UNL     1      17.723   4.409  12.709  1.00  0.00    -0.058 SA
ENDROOT
BRANCH   4   8
HETATM    8  C4  UNL     1      17.213  -0.532  11.507  1.00  0.00     0.417 C 
HETATM    9  F1  UNL     1      16.072  -0.276  10.731  1.00  0.00    -0.166 F 
HETATM   10  F2  UNL     1      16.734  -0.786  12.800  1.00  0.00    -0.166 F 
HETATM   11  F3  UNL     1      17.851  -1.652  11.045  1.00  0.00    -0.166 F 
ENDBRANCH   4   8
BRANCH   1  12
HETATM   12  O1  UNL     1      20.273   4.195  11.471  1.00  0.00    -0.282 OA
ATOM     13  H1  UNL     1      19.994   4.907  10.907  1.00  0.00     0.245 HD
ENDBRANCH   1  12
TORSDOF 2
ENDMDL
