MODEL 4
REMARK VINA RESULT: -6.017399493      1.530      2.029
REMARK  2 active torsions:
REMARK  status: ('A' for Active; 'I' for Inactive)
REMARK    1  A    between atoms: O1_1  and  N1_3 
REMARK    2  A    between atoms: C3_6  and  C4_7 
ROOT
HETATM    1  N1  UNL     1      16.175   1.040  15.167  1.00  0.00    -0.225 N 
HETATM    2  C1  UNL     1      15.748   1.663  16.268  1.00  0.00     0.125 A 
HETATM    3  C2  UNL     1      15.415   2.994  16.217  1.00  0.00     0.036 A 
HETATM    4  C3  UNL     1      15.506   3.726  15.050  1.00  0.00     0.052 A 
HETATM    5  C5  UNL     1      15.950   3.071  13.923  1.00  0.00     0.060 A 
HETATM    6  C6  UNL     1      16.281   1.721  13.998  1.00  0.00     0.129 A 
HETATM    7  S1  UNL     1      16.837   0.905  12.678  1.00  0.00    -0.058 SA
ENDROOT
BRANCH   4   8
HETATM    8  C4  UNL     1      15.123   5.153  14.946  1.00  0.00     0.417 C 
HETATM    9  F1  UNL     1      16.288   5.904  14.731  1.00  0.00    -0.166 F 
HETATM   10  F2  UNL     1      14.618   5.596  16.177  1.00  0.00    -0.166 F 
HETATM   11  F3  UNL     1      14.204   5.424  13.969  1.00  0.00    -0.166 F 
ENDBRANCH   4   8
BRANCH   1  12
HETATM   12  O1  UNL     1      16.483  -0.305  15.226  1.00  0.00    -0.282 OA
ATOM     13  H1  UNL     1      15.909  -0.933  14.803  1.00  0.00     0.245 HD
ENDBRANCH   1  12
TORSDOF 2
ENDMDL
