MODEL 5
REMARK VINA RESULT: -5.995632126      1.523      2.322
REMARK  2 active torsions:
REMARK  status: ('A' for Active; 'I' for Inactive)
REMARK    1  A    between atoms: O1_1  and  N1_3 
REMARK    2  A    between atoms: C3_6  and  C4_7 
ROOT
HETATM    1  N1  UNL     1      16.181   1.011  15.205  1.00  0.00    -0.225 N 
HETATM    2  C1  UNL     1      15.759   1.618  16.317  1.00  0.00     0.125 A 
HETATM    3  C2  UNL     1      15.422   2.949  16.286  1.00  0.00     0.036 A 
HETATM    4  C3  UNL     1      15.504   3.697  15.128  1.00  0.00     0.052 A 
HETATM    5  C5  UNL     1      15.942   3.058  13.989  1.00  0.00     0.060 A 
HETATM    6  C6  UNL     1      16.278   1.707  14.045  1.00  0.00     0.129 A 
HETATM    7  S1  UNL     1      16.828   0.911  12.711  1.00  0.00    -0.058 SA
ENDROOT
BRANCH   4   8
HETATM    8  C4  UNL     1      15.116   5.123  15.045  1.00  0.00     0.417 C 
HETATM    9  F1  UNL     1      14.184   5.263  14.005  1.00  0.00    -0.166 F 
HETATM   10  F2  UNL     1      16.223   5.891  14.658  1.00  0.00    -0.166 F 
HETATM   11  F3  UNL     1      14.604   5.640  16.205  1.00  0.00    -0.166 F 
ENDBRANCH   4   8
BRANCH   1  12
HETATM   12  O1  UNL     1      16.493  -0.333  15.245  1.00  0.00    -0.282 OA
ATOM     13  H1  UNL     1      17.399  -0.604  15.151  1.00  0.00     0.245 HD
ENDBRANCH   1  12
TORSDOF 2
ENDMDL
