MODEL 16
REMARK VINA RESULT: -5.039962311      4.347      5.017
REMARK  2 active torsions:
REMARK  status: ('A' for Active; 'I' for Inactive)
REMARK    1  A    between atoms: O1_1  and  N1_3 
REMARK    2  A    between atoms: C3_6  and  C4_7 
ROOT
HETATM    1  N1  UNL     1      16.668   3.000  14.183  1.00  0.00    -0.225 N 
HETATM    2  C1  UNL     1      16.953   3.236  12.899  1.00  0.00     0.125 A 
HETATM    3  C2  UNL     1      17.041   2.191  12.013  1.00  0.00     0.036 A 
HETATM    4  C3  UNL     1      16.846   0.881  12.405  1.00  0.00     0.052 A 
HETATM    5  C5  UNL     1      16.555   0.653  13.731  1.00  0.00     0.060 A 
HETATM    6  C6  UNL     1      16.468   1.728  14.612  1.00  0.00     0.129 A 
HETATM    7  S1  UNL     1      16.146   1.496  16.211  1.00  0.00    -0.058 SA
ENDROOT
BRANCH   4   8
HETATM    8  C4  UNL     1      16.898  -0.268  11.474  1.00  0.00     0.417 C 
HETATM    9  F1  UNL     1      18.122  -0.221  10.789  1.00  0.00    -0.166 F 
HETATM   10  F2  UNL     1      15.913  -0.120  10.486  1.00  0.00    -0.166 F 
HETATM   11  F3  UNL     1      16.743  -1.490  12.071  1.00  0.00    -0.166 F 
ENDBRANCH   4   8
BRANCH   1  12
HETATM   12  O1  UNL     1      16.557   4.062  15.058  1.00  0.00    -0.282 OA
ATOM     13  H1  UNL     1      16.056   3.955  15.858  1.00  0.00     0.245 HD
ENDBRANCH   1  12
TORSDOF 2
ENDMDL
