MODEL 2
REMARK VINA RESULT: -6.150498711      0.081      1.149
REMARK  2 active torsions:
REMARK  status: ('A' for Active; 'I' for Inactive)
REMARK    1  A    between atoms: O1_1  and  N1_3 
REMARK    2  A    between atoms: C3_6  and  C4_7 
ROOT
HETATM    1  N1  UNL     1      16.086   1.069  15.283  1.00  0.00    -0.225 N 
HETATM    2  C1  UNL     1      16.464   1.754  14.200  1.00  0.00     0.125 A 
HETATM    3  C2  UNL     1      16.145   3.085  14.086  1.00  0.00     0.036 A 
HETATM    4  C3  UNL     1      15.435   3.754  15.063  1.00  0.00     0.052 A 
HETATM    5  C5  UNL     1      15.051   3.035  16.173  1.00  0.00     0.060 A 
HETATM    6  C6  UNL     1      15.387   1.686  16.269  1.00  0.00     0.129 A 
HETATM    7  S1  UNL     1      14.927   0.784  17.569  1.00  0.00    -0.058 SA
ENDROOT
BRANCH   4   8
HETATM    8  C4  UNL     1      15.103   5.195  14.992  1.00  0.00     0.417 C 
HETATM    9  F1  UNL     1      14.161   5.377  13.968  1.00  0.00    -0.166 F 
HETATM   10  F2  UNL     1      16.234   5.920  14.589  1.00  0.00    -0.166 F 
HETATM   11  F3  UNL     1      14.632   5.727  16.162  1.00  0.00    -0.166 F 
ENDBRANCH   4   8
BRANCH   1  12
HETATM   12  O1  UNL     1      16.435  -0.262  15.398  1.00  0.00    -0.282 OA
ATOM     13  H1  UNL     1      16.807  -0.577  16.214  1.00  0.00     0.245 HD
ENDBRANCH   1  12
TORSDOF 2
ENDMDL
