MODEL 1
REMARK VINA RESULT: -6.154906767      0.000      0.000
REMARK  2 active torsions:
REMARK  status: ('A' for Active; 'I' for Inactive)
REMARK    1  A    between atoms: O1_1  and  N1_3 
REMARK    2  A    between atoms: C3_6  and  C4_7 
ROOT
HETATM    1  N1  UNL     1      16.083   1.070  15.283  1.00  0.00    -0.225 N 
HETATM    2  C1  UNL     1      16.460   1.752  14.197  1.00  0.00     0.125 A 
HETATM    3  C2  UNL     1      16.139   3.081  14.077  1.00  0.00     0.036 A 
HETATM    4  C3  UNL     1      15.429   3.753  15.052  1.00  0.00     0.052 A 
HETATM    5  C5  UNL     1      15.046   3.038  16.165  1.00  0.00     0.060 A 
HETATM    6  C6  UNL     1      15.383   1.691  16.266  1.00  0.00     0.129 A 
HETATM    7  S1  UNL     1      14.924   0.794  17.570  1.00  0.00    -0.058 SA
ENDROOT
BRANCH   4   8
HETATM    8  C4  UNL     1      15.094   5.194  14.975  1.00  0.00     0.417 C 
HETATM    9  F1  UNL     1      16.287   5.910  14.789  1.00  0.00    -0.166 F 
HETATM   10  F2  UNL     1      14.590   5.627  16.210  1.00  0.00    -0.166 F 
HETATM   11  F3  UNL     1      14.196   5.517  13.993  1.00  0.00    -0.166 F 
ENDBRANCH   4   8
BRANCH   1  12
HETATM   12  O1  UNL     1      16.434  -0.259  15.403  1.00  0.00    -0.282 OA
ATOM     13  H1  UNL     1      17.058  -0.518  16.072  1.00  0.00     0.245 HD
ENDBRANCH   1  12
TORSDOF 2
ENDMDL
