MODEL 15
REMARK VINA RESULT: -4.938974264      4.360      6.013
REMARK  1 active torsions:
REMARK  status: ('A' for Active; 'I' for Inactive)
REMARK    1  A    between atoms: O1_1  and  N1_3 
ROOT
HETATM    1  N1  UNL     1      17.757   3.645  11.895  1.00  0.00    -0.252 N 
HETATM    2  C1  UNL     1      16.755   3.274  12.832  1.00  0.00     0.119 A 
HETATM    3  C2  UNL     1      16.391   2.031  13.043  1.00  0.00     0.031 A 
HETATM    4  C3  UNL     1      17.046   0.967  12.277  1.00  0.00    -0.026 A 
HETATM    5  C4  UNL     1      16.698  -0.357  12.462  1.00  0.00     0.012 A 
HETATM    6  C5  UNL     1      17.308  -1.365  11.748  1.00  0.00     0.001 A 
HETATM    7  C6  UNL     1      18.269  -1.018  10.848  1.00  0.00     0.001 A 
HETATM    8  C7  UNL     1      18.633   0.288  10.645  1.00  0.00     0.011 A 
HETATM    9  C8  UNL     1      18.022   1.294  11.360  1.00  0.00    -0.012 A 
HETATM   10  C9  UNL     1      18.457   2.688  11.098  1.00  0.00     0.220 A 
HETATM   11  S1  UNL     1      20.258   2.748  11.419  1.00  0.00    -0.062 SA
ENDROOT
BRANCH   1  12
HETATM   12  O1  UNL     1      18.071   4.952  11.741  1.00  0.00    -0.287 OA
ATOM     13  H1  UNL     1      17.561   5.487  11.143  1.00  0.00     0.244 HD
ENDBRANCH   1  12
TORSDOF 1
ENDMDL
