MODEL 4
REMARK VINA RESULT: -6.241484848      1.555      2.693
REMARK  1 active torsions:
REMARK  status: ('A' for Active; 'I' for Inactive)
REMARK    1  A    between atoms: O1_1  and  N1_3 
ROOT
HETATM    1  N1  UNL     1      16.394   1.666  13.710  1.00  0.00    -0.252 N 
HETATM    2  C1  UNL     1      16.938   2.819  13.081  1.00  0.00     0.119 A 
HETATM    3  C2  UNL     1      16.742   4.040  13.522  1.00  0.00     0.031 A 
HETATM    4  C3  UNL     1      15.920   4.230  14.720  1.00  0.00    -0.026 A 
HETATM    5  C4  UNL     1      15.683   5.495  15.222  1.00  0.00     0.012 A 
HETATM    6  C5  UNL     1      14.913   5.687  16.348  1.00  0.00     0.001 A 
HETATM    7  C6  UNL     1      14.388   4.588  16.956  1.00  0.00     0.001 A 
HETATM    8  C7  UNL     1      14.607   3.322  16.478  1.00  0.00     0.011 A 
HETATM    9  C8  UNL     1      15.377   3.133  15.353  1.00  0.00    -0.012 A 
HETATM   10  C9  UNL     1      15.580   1.741  14.882  1.00  0.00     0.220 A 
HETATM   11  S1  UNL     1      16.334   0.818  16.272  1.00  0.00    -0.062 SA
ENDROOT
BRANCH   1  12
HETATM   12  O1  UNL     1      16.648   0.443  13.189  1.00  0.00    -0.287 OA
ATOM     13  H1  UNL     1      17.404   0.324  12.626  1.00  0.00     0.244 HD
ENDBRANCH   1  12
TORSDOF 1
ENDMDL
