MODEL 17
REMARK VINA RESULT: -4.804595326      5.232      6.292
REMARK  1 active torsions:
REMARK  status: ('A' for Active; 'I' for Inactive)
REMARK    1  A    between atoms: O1_1  and  N1_3 
ROOT
HETATM    1  N1  UNL     1      16.624   1.756  11.084  1.00  0.00    -0.252 N 
HETATM    2  C1  UNL     1      17.473   0.618  11.016  1.00  0.00     0.119 A 
HETATM    3  C2  UNL     1      18.778   0.698  10.909  1.00  0.00     0.031 A 
HETATM    4  C3  UNL     1      19.398   2.025  10.854  1.00  0.00    -0.026 A 
HETATM    5  C4  UNL     1      20.768   2.163  10.741  1.00  0.00     0.012 A 
HETATM    6  C5  UNL     1      21.362   3.405  10.689  1.00  0.00     0.001 A 
HETATM    7  C6  UNL     1      20.556   4.501  10.754  1.00  0.00     0.001 A 
HETATM    8  C7  UNL     1      19.194   4.391  10.866  1.00  0.00     0.011 A 
HETATM    9  C8  UNL     1      18.603   3.149  10.917  1.00  0.00    -0.012 A 
HETATM   10  C9  UNL     1      17.125   3.093  11.039  1.00  0.00     0.220 A 
HETATM   11  S1  UNL     1      16.686   4.016  12.558  1.00  0.00    -0.062 SA
ENDROOT
BRANCH   1  12
HETATM   12  O1  UNL     1      15.287   1.581  11.195  1.00  0.00    -0.287 OA
ATOM     13  H1  UNL     1      14.700   2.230  10.824  1.00  0.00     0.244 HD
ENDBRANCH   1  12
TORSDOF 1
ENDMDL
