MODEL 2
REMARK VINA RESULT: -6.567870823      1.948      2.663
REMARK  1 active torsions:
REMARK  status: ('A' for Active; 'I' for Inactive)
REMARK    1  A    between atoms: O1_1  and  N1_3 
ROOT
HETATM    1  N1  UNL     1      15.179   0.715  16.660  1.00  0.00    -0.252 N 
HETATM    2  C1  UNL     1      16.137   0.704  15.610  1.00  0.00     0.119 A 
HETATM    3  C2  UNL     1      16.494   1.780  14.950  1.00  0.00     0.031 A 
HETATM    4  C3  UNL     1      15.878   3.061  15.308  1.00  0.00    -0.026 A 
HETATM    5  C4  UNL     1      16.220   4.222  14.642  1.00  0.00     0.012 A 
HETATM    6  C5  UNL     1      15.647   5.432  14.970  1.00  0.00     0.001 A 
HETATM    7  C6  UNL     1      14.729   5.451  15.976  1.00  0.00     0.001 A 
HETATM    8  C7  UNL     1      14.372   4.313  16.651  1.00  0.00     0.011 A 
HETATM    9  C8  UNL     1      14.945   3.105  16.322  1.00  0.00    -0.012 A 
HETATM   10  C9  UNL     1      14.520   1.908  17.087  1.00  0.00     0.220 A 
HETATM   11  S1  UNL     1      14.864   2.260  18.851  1.00  0.00    -0.062 SA
ENDROOT
BRANCH   1  12
HETATM   12  O1  UNL     1      14.870  -0.443  17.289  1.00  0.00    -0.287 OA
ATOM     13  H1  UNL     1      14.019  -0.536  17.701  1.00  0.00     0.244 HD
ENDBRANCH   1  12
TORSDOF 1
ENDMDL
