MODEL 13
REMARK VINA RESULT: -4.973695102      5.221      6.750
REMARK  1 active torsions:
REMARK  status: ('A' for Active; 'I' for Inactive)
REMARK    1  A    between atoms: O1_1  and  N1_3 
ROOT
HETATM    1  N1  UNL     1      19.667   3.721  10.970  1.00  0.00    -0.252 N 
HETATM    2  C1  UNL     1      20.446   2.722  10.326  1.00  0.00     0.119 A 
HETATM    3  C2  UNL     1      20.109   1.453  10.295  1.00  0.00     0.031 A 
HETATM    4  C3  UNL     1      18.869   1.040  10.958  1.00  0.00    -0.026 A 
HETATM    5  C4  UNL     1      18.471  -0.283  10.955  1.00  0.00     0.012 A 
HETATM    6  C5  UNL     1      17.307  -0.683  11.574  1.00  0.00     0.001 A 
HETATM    7  C6  UNL     1      16.555   0.268  12.194  1.00  0.00     0.001 A 
HETATM    8  C7  UNL     1      16.928   1.587  12.212  1.00  0.00     0.011 A 
HETATM    9  C8  UNL     1      18.091   1.984  11.593  1.00  0.00    -0.012 A 
HETATM   10  C9  UNL     1      18.443   3.425  11.645  1.00  0.00     0.220 A 
HETATM   11  S1  UNL     1      17.040   4.338  10.904  1.00  0.00    -0.062 SA
ENDROOT
BRANCH   1  12
HETATM   12  O1  UNL     1      20.089   5.006  10.953  1.00  0.00    -0.287 OA
ATOM     13  H1  UNL     1      20.022   5.508  10.149  1.00  0.00     0.244 HD
ENDBRANCH   1  12
TORSDOF 1
ENDMDL
