MODEL 6
REMARK VINA RESULT: -4.063670359      2.412      2.699
REMARK  0 active torsions:
REMARK  status: ('A' for Active; 'I' for Inactive)
ROOT
HETATM    1  C1  UNL     1      17.825  -2.110  11.641  1.00  0.00     0.048 C 
HETATM    2  C2  UNL     1      17.241  -0.771  11.852  1.00  0.00    -0.058 A 
HETATM    3  C3  UNL     1      16.828  -0.060  10.744  1.00  0.00     0.024 A 
HETATM    4  C4  UNL     1      16.283   1.193  10.944  1.00  0.00     0.089 A 
HETATM    5  N1  UNL     1      16.153   1.713  12.186  1.00  0.00    -0.360 N 
ATOM      6  H1  UNL     1      15.744   2.642  12.287  1.00  0.00     0.166 HD
HETATM    7  C5  UNL     1      16.542   1.053  13.296  1.00  0.00     0.081 A 
HETATM    8  S1  UNL     1      16.365   1.753  14.936  1.00  0.00    -0.033 SA
HETATM    9  C6  UNL     1      17.092  -0.207  13.102  1.00  0.00     0.044 A 
ENDROOT
TORSDOF 0
ENDMDL
