MODEL 8
REMARK VINA RESULT: -4.054610654      1.784      2.431
REMARK  0 active torsions:
REMARK  status: ('A' for Active; 'I' for Inactive)
ROOT
HETATM    1  C1  UNL     1      17.784  -2.103  11.561  1.00  0.00     0.048 C 
HETATM    2  C2  UNL     1      17.952  -0.645  11.716  1.00  0.00    -0.058 A 
HETATM    3  C3  UNL     1      19.014  -0.042  11.075  1.00  0.00     0.024 A 
HETATM    4  C4  UNL     1      19.170   1.323  11.222  1.00  0.00     0.089 A 
HETATM    5  N1  UNL     1      18.311   2.052  11.969  1.00  0.00    -0.360 N 
ATOM      6  H1  UNL     1      18.464   3.057  12.050  1.00  0.00     0.166 HD
HETATM    7  C5  UNL     1      17.260   1.504  12.612  1.00  0.00     0.081 A 
HETATM    8  S1  UNL     1      16.128   2.481  13.600  1.00  0.00    -0.033 SA
HETATM    9  C6  UNL     1      17.098   0.132  12.469  1.00  0.00     0.044 A 
ENDROOT
TORSDOF 0
ENDMDL
