MODEL 2
REMARK VINA RESULT: -4.400386500      5.524      6.561
REMARK  0 active torsions:
REMARK  status: ('A' for Active; 'I' for Inactive)
ROOT
HETATM    1  C1  UNL     1      14.636   5.318  14.595  1.00  0.00     0.048 C 
HETATM    2  C2  UNL     1      15.330   4.128  15.122  1.00  0.00    -0.058 A 
HETATM    3  C3  UNL     1      16.669   3.973  14.828  1.00  0.00     0.024 A 
HETATM    4  C4  UNL     1      17.317   2.857  15.322  1.00  0.00     0.089 A 
HETATM    5  N1  UNL     1      16.665   1.942  16.074  1.00  0.00    -0.360 N 
ATOM      6  H1  UNL     1      17.183   1.133  16.418  1.00  0.00     0.166 HD
HETATM    7  C5  UNL     1      15.358   2.054  16.386  1.00  0.00     0.081 A 
HETATM    8  S1  UNL     1      14.505   0.833  17.384  1.00  0.00    -0.033 SA
HETATM    9  C6  UNL     1      14.700   3.173  15.892  1.00  0.00     0.044 A 
ENDROOT
TORSDOF 0
ENDMDL
