MODEL 1
REMARK VINA RESULT: -4.405398996      0.000      0.000
REMARK  0 active torsions:
REMARK  status: ('A' for Active; 'I' for Inactive)
ROOT
HETATM    1  C1  UNL     1      18.067  -2.408  11.475  1.00  0.00     0.048 C 
HETATM    2  C2  UNL     1      17.995  -0.953  11.707  1.00  0.00    -0.058 A 
HETATM    3  C3  UNL     1      16.968  -0.469  12.491  1.00  0.00     0.024 A 
HETATM    4  C4  UNL     1      16.903   0.894  12.707  1.00  0.00     0.089 A 
HETATM    5  N1  UNL     1      17.815   1.735  12.170  1.00  0.00    -0.360 N 
ATOM      6  H1  UNL     1      17.729   2.734  12.356  1.00  0.00     0.166 HD
HETATM    7  C5  UNL     1      18.835   1.306  11.398  1.00  0.00     0.081 A 
HETATM    8  S1  UNL     1      20.038   2.431  10.692  1.00  0.00    -0.033 SA
HETATM    9  C6  UNL     1      18.906  -0.063  11.177  1.00  0.00     0.044 A 
ENDROOT
TORSDOF 0
ENDMDL
