MODEL 4
REMARK VINA RESULT: -6.705000318      1.186      7.236
REMARK  5 active torsions:
REMARK  status: ('A' for Active; 'I' for Inactive)
REMARK    1  A    between atoms: O1_1  and  C1_3 
REMARK    2  A    between atoms: C4_6  and  C5_7 
REMARK    3  A    between atoms: C6_8  and  C7_9 
REMARK    4  A    between atoms: C9_11  and  O2_12 
REMARK    5  A    between atoms: C11_15  and  O3_16 
ROOT
HETATM    1  C7  UNL     1      -9.985  12.248 -10.052  1.00  0.00    -0.031 A 
HETATM    2  C8  UNL     1      -9.002  11.992 -10.994  1.00  0.00     0.048 A 
HETATM    3  C9  UNL     1      -8.322  13.011 -11.634  1.00  0.00     0.069 A 
HETATM    4  C10 UNL     1      -8.670  14.287 -11.289  1.00  0.00     0.073 A 
HETATM    5  C11 UNL     1      -9.636  14.608 -10.362  1.00  0.00     0.069 A 
HETATM    6  C12 UNL     1     -10.296  13.537  -9.742  1.00  0.00     0.048 A 
ENDROOT
BRANCH   1   7
HETATM    7  C6  UNL     1     -10.641  11.111  -9.435  1.00  0.00     0.012 C 
HETATM    8  C5  UNL     1     -10.349  10.744  -8.222  1.00  0.00     0.012 C 
BRANCH   8   9
HETATM    9  C4  UNL     1     -11.006   9.598  -7.590  1.00  0.00    -0.036 A 
HETATM   10  C3  UNL     1     -10.732   9.231  -6.305  1.00  0.00     0.014 A 
HETATM   11  C2  UNL     1     -11.408   8.118  -5.777  1.00  0.00     0.037 A 
HETATM   12  C1  UNL     1     -12.323   7.399  -6.501  1.00  0.00     0.065 A 
HETATM   13  C14 UNL     1     -12.598   7.772  -7.799  1.00  0.00     0.037 A 
HETATM   14  C13 UNL     1     -11.945   8.857  -8.328  1.00  0.00     0.014 A 
BRANCH  12  15
HETATM   15  O1  UNL     1     -13.000   6.301  -6.000  1.00  0.00    -0.361 OA
ATOM     16  H1  UNL     1     -13.750   6.368  -5.420  1.00  0.00     0.217 HD
ENDBRANCH  12  15
ENDBRANCH   8   9
ENDBRANCH   1   7
BRANCH   3  17
HETATM   17  O2  UNL     1      -7.348  12.704 -12.570  1.00  0.00    -0.361 OA
ATOM     18  H2  UNL     1      -6.924  11.854 -12.547  1.00  0.00     0.217 HD
ENDBRANCH   3  17
BRANCH   5  19
HETATM   19  O3  UNL     1      -9.931  15.927 -10.068  1.00  0.00    -0.361 OA
ATOM     20  H3  UNL     1     -10.492  16.151  -9.335  1.00  0.00     0.217 HD
ENDBRANCH   5  19
TORSDOF 5
ENDMDL
