MODEL 7
REMARK VINA RESULT: -6.682037954      1.372      7.465
REMARK  5 active torsions:
REMARK  status: ('A' for Active; 'I' for Inactive)
REMARK    1  A    between atoms: O1_1  and  C1_3 
REMARK    2  A    between atoms: C4_6  and  C5_7 
REMARK    3  A    between atoms: C6_8  and  C7_9 
REMARK    4  A    between atoms: C9_11  and  O2_12 
REMARK    5  A    between atoms: C11_15  and  O3_16 
ROOT
HETATM    1  C7  UNL     1      -9.210  13.253 -10.705  1.00  0.00    -0.031 A 
HETATM    2  C8  UNL     1      -8.178  13.039 -11.605  1.00  0.00     0.048 A 
HETATM    3  C9  UNL     1      -7.509  14.087 -12.209  1.00  0.00     0.069 A 
HETATM    4  C10 UNL     1      -7.918  15.347 -11.872  1.00  0.00     0.073 A 
HETATM    5  C11 UNL     1      -8.934  15.626 -10.986  1.00  0.00     0.069 A 
HETATM    6  C12 UNL     1      -9.581  14.527 -10.402  1.00  0.00     0.048 A 
ENDROOT
BRANCH   1   7
HETATM    7  C6  UNL     1      -9.850  12.089 -10.124  1.00  0.00     0.012 C 
HETATM    8  C5  UNL     1      -9.779  11.849  -8.849  1.00  0.00     0.012 C 
BRANCH   8   9
HETATM    9  C4  UNL     1     -10.422  10.677  -8.251  1.00  0.00    -0.036 A 
HETATM   10  C3  UNL     1     -11.510  10.084  -8.821  1.00  0.00     0.014 A 
HETATM   11  C2  UNL     1     -12.064   8.963  -8.179  1.00  0.00     0.037 A 
HETATM   12  C1  UNL     1     -11.552   8.452  -7.015  1.00  0.00     0.065 A 
HETATM   13  C14 UNL     1     -10.453   9.052  -6.442  1.00  0.00     0.037 A 
HETATM   14  C13 UNL     1      -9.901  10.148  -7.057  1.00  0.00     0.014 A 
BRANCH  12  15
HETATM   15  O1  UNL     1     -12.081   7.349  -6.368  1.00  0.00    -0.361 OA
ATOM     16  H1  UNL     1     -11.771   7.036  -5.526  1.00  0.00     0.217 HD
ENDBRANCH  12  15
ENDBRANCH   8   9
ENDBRANCH   1   7
BRANCH   3  17
HETATM   17  O2  UNL     1      -6.484  13.822 -13.102  1.00  0.00    -0.361 OA
ATOM     18  H2  UNL     1      -6.393  14.353 -13.885  1.00  0.00     0.217 HD
ENDBRANCH   3  17
BRANCH   5  19
HETATM   19  O3  UNL     1      -9.290  16.931 -10.698  1.00  0.00    -0.361 OA
ATOM     20  H3  UNL     1      -8.762  17.465 -10.115  1.00  0.00     0.217 HD
ENDBRANCH   5  19
TORSDOF 5
ENDMDL
