MODEL 3
REMARK VINA RESULT: -6.720170134      1.158      7.356
REMARK  5 active torsions:
REMARK  status: ('A' for Active; 'I' for Inactive)
REMARK    1  A    between atoms: O1_1  and  C1_3 
REMARK    2  A    between atoms: C4_6  and  C5_7 
REMARK    3  A    between atoms: C6_8  and  C7_9 
REMARK    4  A    between atoms: C9_11  and  O2_12 
REMARK    5  A    between atoms: C11_15  and  O3_16 
ROOT
HETATM    1  C7  UNL     1      -9.831  12.340 -10.357  1.00  0.00    -0.031 A 
HETATM    2  C8  UNL     1     -10.194  13.621  -9.975  1.00  0.00     0.048 A 
HETATM    3  C9  UNL     1      -9.553  14.740 -10.471  1.00  0.00     0.069 A 
HETATM    4  C10 UNL     1      -8.539  14.517 -11.361  1.00  0.00     0.073 A 
HETATM    5  C11 UNL     1      -8.131  13.271 -11.782  1.00  0.00     0.069 A 
HETATM    6  C12 UNL     1      -8.814  12.170 -11.246  1.00  0.00     0.048 A 
ENDROOT
BRANCH   1   7
HETATM    7  C6  UNL     1     -10.565  11.230  -9.780  1.00  0.00     0.012 C 
HETATM    8  C5  UNL     1     -10.405  10.894  -8.534  1.00  0.00     0.012 C 
BRANCH   8   9
HETATM    9  C4  UNL     1     -11.141   9.776  -7.941  1.00  0.00    -0.036 A 
HETATM   10  C3  UNL     1     -10.796   9.249  -6.731  1.00  0.00     0.014 A 
HETATM   11  C2  UNL     1     -11.557   8.175  -6.237  1.00  0.00     0.037 A 
HETATM   12  C1  UNL     1     -12.622   7.649  -6.922  1.00  0.00     0.065 A 
HETATM   13  C14 UNL     1     -12.968   8.184  -8.143  1.00  0.00     0.037 A 
HETATM   14  C13 UNL     1     -12.233   9.232  -8.639  1.00  0.00     0.014 A 
BRANCH  12  15
HETATM   15  O1  UNL     1     -13.384   6.594  -6.452  1.00  0.00    -0.361 OA
ATOM     16  H1  UNL     1     -14.311   6.495  -6.637  1.00  0.00     0.217 HD
ENDBRANCH  12  15
ENDBRANCH   8   9
ENDBRANCH   1   7
BRANCH   3  17
HETATM   17  O2  UNL     1      -9.952  16.000 -10.058  1.00  0.00    -0.361 OA
ATOM     18  H2  UNL     1      -9.442  16.466  -9.406  1.00  0.00     0.217 HD
ENDBRANCH   3  17
BRANCH   5  19
HETATM   19  O3  UNL     1      -7.094  13.129 -12.686  1.00  0.00    -0.361 OA
ATOM     20  H3  UNL     1      -6.730  13.882 -13.136  1.00  0.00     0.217 HD
ENDBRANCH   5  19
TORSDOF 5
ENDMDL
