MODEL 11
REMARK VINA RESULT: -4.618476900      5.966      6.668
REMARK  1 active torsions:
REMARK  status: ('A' for Active; 'I' for Inactive)
REMARK    1  A    between atoms: C5_5  and  O1_6 
ROOT
HETATM    1  C1  UNL     1      18.409  -1.987  11.194  1.00  0.00     0.048 C 
HETATM    2  C2  UNL     1      17.919  -0.585  11.089  1.00  0.00    -0.061 A 
HETATM    3  C3  UNL     1      16.568  -0.308  10.998  1.00  0.00     0.009 A 
HETATM    4  C4  UNL     1      16.087   0.983  10.900  1.00  0.00     0.038 A 
HETATM    5  C5  UNL     1      16.949   2.057  10.887  1.00  0.00     0.083 A 
HETATM    6  C6  UNL     1      18.299   1.796  10.977  1.00  0.00     0.045 A 
HETATM    7  S1  UNL     1      19.425   3.162  10.963  1.00  0.00    -0.050 SA
HETATM    8  C7  UNL     1      18.778   0.494  11.076  1.00  0.00     0.029 A 
ENDROOT
BRANCH   5   9
HETATM    9  O1  UNL     1      16.454   3.365  10.787  1.00  0.00    -0.359 OA
ATOM     10  H1  UNL     1      15.535   3.519  10.601  1.00  0.00     0.217 HD
ENDBRANCH   5   9
TORSDOF 1
ENDMDL
