MODEL 7
REMARK VINA RESULT: -5.057427739      2.186      3.035
REMARK  1 active torsions:
REMARK  status: ('A' for Active; 'I' for Inactive)
REMARK    1  A    between atoms: C5_5  and  O1_6 
ROOT
HETATM    1  C1  UNL     1      15.839   5.295  13.941  1.00  0.00     0.048 C 
HETATM    2  C2  UNL     1      15.463   4.352  15.029  1.00  0.00    -0.061 A 
HETATM    3  C3  UNL     1      14.594   4.734  16.034  1.00  0.00     0.009 A 
HETATM    4  C4  UNL     1      14.229   3.879  17.055  1.00  0.00     0.038 A 
HETATM    5  C5  UNL     1      14.726   2.595  17.110  1.00  0.00     0.083 A 
HETATM    6  C6  UNL     1      15.592   2.200  16.116  1.00  0.00     0.045 A 
HETATM    7  S1  UNL     1      16.242   0.553  16.167  1.00  0.00    -0.050 SA
HETATM    8  C7  UNL     1      15.956   3.066  15.089  1.00  0.00     0.029 A 
ENDROOT
BRANCH   5   9
HETATM    9  O1  UNL     1      14.351   1.732  18.150  1.00  0.00    -0.359 OA
ATOM     10  H1  UNL     1      13.701   1.055  18.003  1.00  0.00     0.217 HD
ENDBRANCH   5   9
TORSDOF 1
ENDMDL
