MODEL 19
REMARK VINA RESULT: -4.237946299      5.000      6.422
REMARK  1 active torsions:
REMARK  status: ('A' for Active; 'I' for Inactive)
REMARK    1  A    between atoms: C5_5  and  O1_6 
ROOT
HETATM    1  C1  UNL     1      20.721   2.986  10.108  1.00  0.00     0.048 C 
HETATM    2  C2  UNL     1      19.635   2.171  10.717  1.00  0.00    -0.061 A 
HETATM    3  C3  UNL     1      19.579   0.803  10.524  1.00  0.00     0.009 A 
HETATM    4  C4  UNL     1      18.582   0.023  11.078  1.00  0.00     0.038 A 
HETATM    5  C5  UNL     1      17.593   0.589  11.853  1.00  0.00     0.083 A 
HETATM    6  C6  UNL     1      17.637   1.951  12.053  1.00  0.00     0.045 A 
HETATM    7  S1  UNL     1      16.376   2.699  13.046  1.00  0.00    -0.050 SA
HETATM    8  C7  UNL     1      18.643   2.732  11.493  1.00  0.00     0.029 A 
ENDROOT
BRANCH   5   9
HETATM    9  O1  UNL     1      16.584  -0.209  12.411  1.00  0.00    -0.359 OA
ATOM     10  H1  UNL     1      16.004  -0.712  11.853  1.00  0.00     0.217 HD
ENDBRANCH   5   9
TORSDOF 1
ENDMDL
