MODEL 2
REMARK VINA RESULT: -5.551065698      1.421      1.708
REMARK  1 active torsions:
REMARK  status: ('A' for Active; 'I' for Inactive)
REMARK    1  A    between atoms: C5_5  and  O1_6 
ROOT
HETATM    1  C1  UNL     1      14.637   5.016  15.813  1.00  0.00     0.048 C 
HETATM    2  C2  UNL     1      14.831   3.616  16.281  1.00  0.00    -0.061 A 
HETATM    3  C3  UNL     1      14.276   3.181  17.470  1.00  0.00     0.009 A 
HETATM    4  C4  UNL     1      14.440   1.888  17.927  1.00  0.00     0.038 A 
HETATM    5  C5  UNL     1      15.175   0.973  17.205  1.00  0.00     0.083 A 
HETATM    6  C6  UNL     1      15.734   1.393  16.018  1.00  0.00     0.045 A 
HETATM    7  S1  UNL     1      16.681   0.233  15.074  1.00  0.00    -0.050 SA
HETATM    8  C7  UNL     1      15.565   2.697  15.562  1.00  0.00     0.029 A 
ENDROOT
BRANCH   5   9
HETATM    9  O1  UNL     1      15.338  -0.338  17.676  1.00  0.00    -0.359 OA
ATOM     10  H1  UNL     1      15.198  -1.078  17.097  1.00  0.00     0.217 HD
ENDBRANCH   5   9
TORSDOF 1
ENDMDL
