MODEL 10
REMARK VINA RESULT: -4.692099605      2.802      4.052
REMARK  1 active torsions:
REMARK  status: ('A' for Active; 'I' for Inactive)
REMARK    1  A    between atoms: C5_5  and  O1_6 
ROOT
HETATM    1  C1  UNL     1      17.515   3.427  13.192  1.00  0.00     0.048 C 
HETATM    2  C2  UNL     1      16.524   3.549  14.297  1.00  0.00    -0.061 A 
HETATM    3  C3  UNL     1      15.967   4.771  14.621  1.00  0.00     0.009 A 
HETATM    4  C4  UNL     1      15.047   4.912  15.641  1.00  0.00     0.038 A 
HETATM    5  C5  UNL     1      14.645   3.823  16.383  1.00  0.00     0.083 A 
HETATM    6  C6  UNL     1      15.191   2.598  16.071  1.00  0.00     0.045 A 
HETATM    7  S1  UNL     1      14.689   1.185  17.012  1.00  0.00    -0.050 SA
HETATM    8  C7  UNL     1      16.118   2.462  15.042  1.00  0.00     0.029 A 
ENDROOT
BRANCH   5   9
HETATM    9  O1  UNL     1      13.710   3.974  17.417  1.00  0.00    -0.359 OA
ATOM     10  H1  UNL     1      13.242   3.220  17.756  1.00  0.00     0.217 HD
ENDBRANCH   5   9
TORSDOF 1
ENDMDL
