MODEL 14
REMARK VINA RESULT: -4.468019786      5.841      6.843
REMARK  1 active torsions:
REMARK  status: ('A' for Active; 'I' for Inactive)
REMARK    1  A    between atoms: C5_5  and  O1_6 
ROOT
HETATM    1  C1  UNL     1      20.962   2.783  10.553  1.00  0.00     0.048 C 
HETATM    2  C2  UNL     1      19.503   2.517  10.676  1.00  0.00    -0.061 A 
HETATM    3  C3  UNL     1      18.576   3.521  10.464  1.00  0.00     0.009 A 
HETATM    4  C4  UNL     1      17.217   3.301  10.572  1.00  0.00     0.038 A 
HETATM    5  C5  UNL     1      16.728   2.055  10.901  1.00  0.00     0.083 A 
HETATM    6  C6  UNL     1      17.640   1.045  11.114  1.00  0.00     0.045 A 
HETATM    7  S1  UNL     1      17.034  -0.564  11.536  1.00  0.00    -0.050 SA
HETATM    8  C7  UNL     1      19.009   1.273  11.004  1.00  0.00     0.029 A 
ENDROOT
BRANCH   5   9
HETATM    9  O1  UNL     1      15.347   1.839  11.008  1.00  0.00    -0.359 OA
ATOM     10  H1  UNL     1      14.740   2.568  10.955  1.00  0.00     0.217 HD
ENDBRANCH   5   9
TORSDOF 1
ENDMDL
