MODEL 2
REMARK VINA RESULT: -11.578717297      1.252      1.252
REMARK  15 active torsions:
REMARK  status: ('A' for Active; 'I' for Inactive)
REMARK    1  A    between atoms: C1_2  and  C2_4 
REMARK    2  A    between atoms: N2_6  and  C4_7 
REMARK    3  A    between atoms: C5_9  and  C6_10 
REMARK    4  A    between atoms: C6_10  and  O3_11 
REMARK    5  A    between atoms: O3_11  and  P1_12 
REMARK    6  A    between atoms: P1_12  and  O6_15 
REMARK    7  A    between atoms: O6_15  and  P2_16 
REMARK    8  A    between atoms: P2_16  and  O9_19 
REMARK    9  A    between atoms: O9_19  and  C7_20 
REMARK   10  A    between atoms: C7_20  and  C8_21 
REMARK   11  A    between atoms: C9_23  and  N3_24 
REMARK   12  A    between atoms: C15_37  and  O11_38 
REMARK   13  A    between atoms: C16_40  and  O12_41 
REMARK   14  A    between atoms: C17_43  and  O13_44 
REMARK   15  A    between atoms: C18_46  and  O14_47 
ROOT
HETATM    1  P2  UNL     1      49.882  21.555  26.243  1.00  0.00     0.417 P 
HETATM    2  O7  UNL     1      50.447  20.731  25.105  1.00  0.00    -0.624 OA
HETATM    3  O8  UNL     1      49.095  22.877  25.607  1.00  0.00    -0.624 OA
ENDROOT
BRANCH   1   4
HETATM    4  O6  UNL     1      48.904  20.562  27.170  1.00  0.00    -0.180 OA
BRANCH   4   5
HETATM    5  P1  UNL     1      47.307  20.564  26.722  1.00  0.00     0.417 P 
HETATM    6  O4  UNL     1      47.189  20.245  25.250  1.00  0.00    -0.624 OA
HETATM    7  O5  UNL     1      46.535  19.278  27.547  1.00  0.00    -0.624 OA
BRANCH   5   8
HETATM    8  O3  UNL     1      46.488  21.975  27.125  1.00  0.00    -0.287 OA
BRANCH   8   9
HETATM    9  C6  UNL     1      45.168  21.837  26.774  1.00  0.00     0.216 C 
BRANCH   9  10
HETATM   10  C5  UNL     1      44.668  22.959  25.896  1.00  0.00     0.180 C 
HETATM   11  O2  UNL     1      43.512  23.510  26.447  1.00  0.00    -0.353 OA
HETATM   12  C4  UNL     1      43.334  24.756  25.898  1.00  0.00     0.259 C 
HETATM   13  C18 UNL     1      44.687  25.262  25.453  1.00  0.00     0.198 C 
HETATM   14  C17 UNL     1      45.605  24.149  25.922  1.00  0.00     0.182 C 
BRANCH  12  15
HETATM   15  N2  UNL     1      42.810  25.721  26.843  1.00  0.00    -0.337 N 
HETATM   16  C3  UNL     1      42.230  26.918  26.367  1.00  0.00     0.105 A 
HETATM   17  C2  UNL     1      41.720  27.870  27.164  1.00  0.00     0.026 A 
HETATM   18  C21 UNL     1      41.751  27.685  28.632  1.00  0.00     0.073 A 
HETATM   19  C20 UNL     1      42.366  26.423  29.063  1.00  0.00    -0.005 A 
HETATM   20  C19 UNL     1      42.862  25.504  28.239  1.00  0.00     0.089 A 
BRANCH  17  21
HETATM   21  C1  UNL     1      41.143  29.068  26.587  1.00  0.00     0.262 C 
HETATM   22  N1  UNL     1      40.455  28.993  25.361  1.00  0.00    -0.057 NA
HETATM   23  O1  UNL     1      41.259  30.156  27.178  1.00  0.00    -0.271 OA
ENDBRANCH  17  21
ENDBRANCH  12  15
BRANCH  13  24
HETATM   24  O14 UNL     1      44.697  25.362  24.065  1.00  0.00    -0.388 OA
ATOM     25  H14 UNL     1      45.509  25.771  23.791  1.00  0.00     0.210 HD
ENDBRANCH  13  24
BRANCH  14  26
HETATM   26  O13 UNL     1      46.657  24.009  25.030  1.00  0.00    -0.390 OA
ATOM     27  H13 UNL     1      46.976  24.846  24.715  1.00  0.00     0.210 HD
ENDBRANCH  14  26
ENDBRANCH   9  10
ENDBRANCH   8   9
ENDBRANCH   5   8
ENDBRANCH   4   5
ENDBRANCH   1   4
BRANCH   1  28
HETATM   28  O9  UNL     1      51.221  22.003  27.209  1.00  0.00    -0.287 OA
BRANCH  28  29
HETATM   29  C7  UNL     1      52.298  22.131  26.330  1.00  0.00     0.216 C 
BRANCH  29  30
HETATM   30  C8  UNL     1      52.880  23.512  26.336  1.00  0.00     0.180 C 
HETATM   31  O10 UNL     1      54.046  23.531  25.621  1.00  0.00    -0.353 OA
HETATM   32  C9  UNL     1      54.136  24.687  24.905  1.00  0.00     0.262 C 
HETATM   33  C15 UNL     1      52.971  25.560  25.211  1.00  0.00     0.198 C 
HETATM   34  C16 UNL     1      51.949  24.548  25.744  1.00  0.00     0.182 C 
BRANCH  32  35
HETATM   35  N3  UNL     1      54.200  24.443  23.467  1.00  0.00    -0.297 N 
HETATM   36  C10 UNL     1      54.081  25.322  22.458  1.00  0.00     0.188 A 
HETATM   37  N4  UNL     1      54.202  24.678  21.287  1.00  0.00    -0.346 N 
HETATM   38  C11 UNL     1      54.399  23.383  21.574  1.00  0.00     0.119 A 
ATOM     39  H4  UNL     1      54.154  25.095  20.357  1.00  0.00     0.167 HD
HETATM   40  C12 UNL     1      54.586  22.285  20.767  1.00  0.00     0.148 A 
HETATM   41  C14 UNL     1      54.400  23.224  22.926  1.00  0.00     0.142 A 
HETATM   42  N5  UNL     1      54.583  22.464  19.356  1.00  0.00    -0.080 NA
HETATM   43  N6  UNL     1      54.761  21.095  21.327  1.00  0.00    -0.339 N 
HETATM   44  C13 UNL     1      54.761  20.949  22.656  1.00  0.00     0.183 A 
ATOM     45  H6  UNL     1      54.897  20.276  20.734  1.00  0.00     0.167 HD
HETATM   46  N7  UNL     1      54.581  22.009  23.458  1.00  0.00    -0.336 N 
ATOM     47  H7  UNL     1      54.582  21.889  24.471  1.00  0.00     0.168 HD
ENDBRANCH  32  35
BRANCH  33  48
HETATM   48  O11 UNL     1      53.301  26.458  26.249  1.00  0.00    -0.388 OA
ATOM     49  H11 UNL     1      53.510  25.975  27.040  1.00  0.00     0.210 HD
ENDBRANCH  33  48
BRANCH  34  50
HETATM   50  O12 UNL     1      51.118  25.102  26.690  1.00  0.00    -0.390 OA
ATOM     51  H12 UNL     1      51.153  26.051  26.689  1.00  0.00     0.210 HD
ENDBRANCH  34  50
ENDBRANCH  29  30
ENDBRANCH  28  29
ENDBRANCH   1  28
TORSDOF 15
ENDMDL
