MODEL 1
REMARK VINA RESULT: -11.652164039      0.000      0.000
REMARK  15 active torsions:
REMARK  status: ('A' for Active; 'I' for Inactive)
REMARK    1  A    between atoms: C1_2  and  C2_4 
REMARK    2  A    between atoms: N2_6  and  C4_7 
REMARK    3  A    between atoms: C5_9  and  C6_10 
REMARK    4  A    between atoms: C6_10  and  O3_11 
REMARK    5  A    between atoms: O3_11  and  P1_12 
REMARK    6  A    between atoms: P1_12  and  O6_15 
REMARK    7  A    between atoms: O6_15  and  P2_16 
REMARK    8  A    between atoms: P2_16  and  O9_19 
REMARK    9  A    between atoms: O9_19  and  C7_20 
REMARK   10  A    between atoms: C7_20  and  C8_21 
REMARK   11  A    between atoms: C9_23  and  N3_24 
REMARK   12  A    between atoms: C15_37  and  O11_38 
REMARK   13  A    between atoms: C16_40  and  O12_41 
REMARK   14  A    between atoms: C17_43  and  O13_44 
REMARK   15  A    between atoms: C18_46  and  O14_47 
ROOT
HETATM    1  P2  UNL     1      50.026  21.412  26.238  1.00  0.00     0.417 P 
HETATM    2  O7  UNL     1      50.516  20.496  25.136  1.00  0.00    -0.624 OA
HETATM    3  O8  UNL     1      49.313  22.748  25.546  1.00  0.00    -0.624 OA
ENDROOT
BRANCH   1   4
HETATM    4  O6  UNL     1      49.004  20.532  27.231  1.00  0.00    -0.180 OA
BRANCH   4   5
HETATM    5  P1  UNL     1      47.413  20.549  26.762  1.00  0.00     0.417 P 
HETATM    6  O4  UNL     1      47.310  20.205  25.295  1.00  0.00    -0.624 OA
HETATM    7  O5  UNL     1      46.612  19.290  27.600  1.00  0.00    -0.624 OA
BRANCH   5   8
HETATM    8  O3  UNL     1      46.610  21.979  27.129  1.00  0.00    -0.287 OA
BRANCH   8   9
HETATM    9  C6  UNL     1      45.282  21.836  26.809  1.00  0.00     0.216 C 
BRANCH   9  10
HETATM   10  C5  UNL     1      44.762  22.948  25.931  1.00  0.00     0.180 C 
HETATM   11  O2  UNL     1      43.599  23.482  26.484  1.00  0.00    -0.353 OA
HETATM   12  C4  UNL     1      43.400  24.723  25.934  1.00  0.00     0.259 C 
HETATM   13  C18 UNL     1      44.743  25.251  25.483  1.00  0.00     0.198 C 
HETATM   14  C17 UNL     1      45.680  24.153  25.951  1.00  0.00     0.182 C 
BRANCH  12  15
HETATM   15  N2  UNL     1      42.864  25.682  26.880  1.00  0.00    -0.337 N 
HETATM   16  C3  UNL     1      42.273  26.875  26.404  1.00  0.00     0.105 A 
HETATM   17  C2  UNL     1      41.753  27.819  27.201  1.00  0.00     0.026 A 
HETATM   18  C21 UNL     1      41.781  27.632  28.669  1.00  0.00     0.073 A 
HETATM   19  C20 UNL     1      42.407  26.375  29.099  1.00  0.00    -0.005 A 
HETATM   20  C19 UNL     1      42.914  25.463  28.275  1.00  0.00     0.089 A 
BRANCH  17  21
HETATM   21  C1  UNL     1      41.166  29.013  26.625  1.00  0.00     0.262 C 
HETATM   22  N1  UNL     1      40.482  28.935  25.397  1.00  0.00    -0.057 NA
HETATM   23  O1  UNL     1      41.269  30.101  27.219  1.00  0.00    -0.271 OA
ENDBRANCH  17  21
ENDBRANCH  12  15
BRANCH  13  24
HETATM   24  O14 UNL     1      44.747  25.348  24.095  1.00  0.00    -0.388 OA
ATOM     25  H14 UNL     1      45.633  25.521  23.800  1.00  0.00     0.210 HD
ENDBRANCH  13  24
BRANCH  14  26
HETATM   26  O13 UNL     1      46.731  24.028  25.056  1.00  0.00    -0.390 OA
ATOM     27  H13 UNL     1      46.981  24.862  24.676  1.00  0.00     0.210 HD
ENDBRANCH  14  26
ENDBRANCH   9  10
ENDBRANCH   8   9
ENDBRANCH   5   8
ENDBRANCH   4   5
ENDBRANCH   1   4
BRANCH   1  28
HETATM   28  O9  UNL     1      51.409  21.822  27.159  1.00  0.00    -0.287 OA
BRANCH  28  29
HETATM   29  C7  UNL     1      52.329  22.346  26.248  1.00  0.00     0.216 C 
BRANCH  29  30
HETATM   30  C8  UNL     1      52.689  23.767  26.555  1.00  0.00     0.180 C 
HETATM   31  O10 UNL     1      53.964  24.028  26.131  1.00  0.00    -0.353 OA
HETATM   32  C9  UNL     1      54.032  25.282  25.600  1.00  0.00     0.262 C 
HETATM   33  C15 UNL     1      52.714  25.959  25.737  1.00  0.00     0.198 C 
HETATM   34  C16 UNL     1      51.763  24.767  25.897  1.00  0.00     0.182 C 
BRANCH  32  35
HETATM   35  N3  UNL     1      54.431  25.266  24.196  1.00  0.00    -0.297 N 
HETATM   36  C10 UNL     1      53.837  25.857  23.146  1.00  0.00     0.188 A 
HETATM   37  N4  UNL     1      54.531  25.589  22.029  1.00  0.00    -0.346 N 
HETATM   38  C11 UNL     1      55.569  24.821  22.392  1.00  0.00     0.119 A 
ATOM     39  H4  UNL     1      54.311  25.908  21.085  1.00  0.00     0.167 HD
HETATM   40  C12 UNL     1      56.592  24.261  21.663  1.00  0.00     0.148 A 
HETATM   41  C14 UNL     1      55.518  24.613  23.737  1.00  0.00     0.142 A 
HETATM   42  N5  UNL     1      56.635  24.485  20.259  1.00  0.00    -0.080 NA
HETATM   43  N6  UNL     1      57.505  23.530  22.289  1.00  0.00    -0.339 N 
HETATM   44  C13 UNL     1      57.447  23.332  23.610  1.00  0.00     0.183 A 
ATOM     45  H6  UNL     1      58.265  23.110  21.754  1.00  0.00     0.167 HD
HETATM   46  N7  UNL     1      56.457  23.871  24.337  1.00  0.00    -0.336 N 
ATOM     47  H7  UNL     1      56.419  23.715  25.344  1.00  0.00     0.168 HD
ENDBRANCH  32  35
BRANCH  33  48
HETATM   48  O11 UNL     1      52.686  26.722  26.925  1.00  0.00    -0.388 OA
ATOM     49  H11 UNL     1      51.975  26.427  27.482  1.00  0.00     0.210 HD
ENDBRANCH  33  48
BRANCH  34  50
HETATM   50  O12 UNL     1      50.680  25.072  26.689  1.00  0.00    -0.390 OA
ATOM     51  H12 UNL     1      50.916  25.629  27.421  1.00  0.00     0.210 HD
ENDBRANCH  34  50
ENDBRANCH  29  30
ENDBRANCH  28  29
ENDBRANCH   1  28
TORSDOF 15
ENDMDL
