MODEL 3
REMARK VINA RESULT: -11.371145191      1.520      1.711
REMARK  15 active torsions:
REMARK  status: ('A' for Active; 'I' for Inactive)
REMARK    1  A    between atoms: C1_2  and  C2_4 
REMARK    2  A    between atoms: N2_6  and  C4_7 
REMARK    3  A    between atoms: C5_9  and  C6_10 
REMARK    4  A    between atoms: C6_10  and  O3_11 
REMARK    5  A    between atoms: O3_11  and  P1_12 
REMARK    6  A    between atoms: P1_12  and  O6_15 
REMARK    7  A    between atoms: O6_15  and  P2_16 
REMARK    8  A    between atoms: P2_16  and  O9_19 
REMARK    9  A    between atoms: O9_19  and  C7_20 
REMARK   10  A    between atoms: C7_20  and  C8_21 
REMARK   11  A    between atoms: C9_23  and  N3_24 
REMARK   12  A    between atoms: C15_37  and  O11_38 
REMARK   13  A    between atoms: C16_40  and  O12_41 
REMARK   14  A    between atoms: C17_43  and  O13_44 
REMARK   15  A    between atoms: C18_46  and  O14_47 
ROOT
HETATM    1  P2  UNL     1      50.370  22.827  25.889  1.00  0.00     0.417 P 
HETATM    2  O7  UNL     1      50.713  22.299  24.512  1.00  0.00    -0.624 OA
HETATM    3  O8  UNL     1      49.447  24.202  25.720  1.00  0.00    -0.624 OA
ENDROOT
BRANCH   1   4
HETATM    4  O6  UNL     1      49.615  21.601  26.744  1.00  0.00    -0.180 OA
BRANCH   4   5
HETATM    5  P1  UNL     1      48.017  21.379  26.354  1.00  0.00     0.417 P 
HETATM    6  O4  UNL     1      47.855  21.367  24.852  1.00  0.00    -0.624 OA
HETATM    7  O5  UNL     1      47.565  19.818  26.891  1.00  0.00    -0.624 OA
BRANCH   5   8
HETATM    8  O3  UNL     1      46.978  22.477  27.089  1.00  0.00    -0.287 OA
BRANCH   8   9
HETATM    9  C6  UNL     1      45.684  22.127  26.795  1.00  0.00     0.216 C 
BRANCH   9  10
HETATM   10  C5  UNL     1      44.983  23.132  25.913  1.00  0.00     0.180 C 
HETATM   11  O2  UNL     1      43.812  23.568  26.531  1.00  0.00    -0.353 OA
HETATM   12  C4  UNL     1      43.440  24.752  25.945  1.00  0.00     0.259 C 
HETATM   13  C18 UNL     1      44.682  25.394  25.370  1.00  0.00     0.198 C 
HETATM   14  C17 UNL     1      45.764  24.426  25.811  1.00  0.00     0.182 C 
BRANCH  12  15
HETATM   15  N2  UNL     1      42.872  25.695  26.887  1.00  0.00    -0.337 N 
HETATM   16  C3  UNL     1      42.288  26.890  26.410  1.00  0.00     0.105 A 
HETATM   17  C2  UNL     1      41.739  27.822  27.204  1.00  0.00     0.026 A 
HETATM   18  C21 UNL     1      41.728  27.616  28.670  1.00  0.00     0.073 A 
HETATM   19  C20 UNL     1      42.350  26.358  29.102  1.00  0.00    -0.005 A 
HETATM   20  C19 UNL     1      42.885  25.459  28.281  1.00  0.00     0.089 A 
BRANCH  17  21
HETATM   21  C1  UNL     1      41.161  29.019  26.626  1.00  0.00     0.262 C 
HETATM   22  N1  UNL     1      40.457  28.940  25.410  1.00  0.00    -0.057 NA
HETATM   23  O1  UNL     1      41.289  30.111  27.209  1.00  0.00    -0.271 OA
ENDBRANCH  17  21
ENDBRANCH  12  15
BRANCH  13  24
HETATM   24  O14 UNL     1      44.576  25.421  23.983  1.00  0.00    -0.388 OA
ATOM     25  H14 UNL     1      45.401  25.715  23.616  1.00  0.00     0.210 HD
ENDBRANCH  13  24
BRANCH  14  26
HETATM   26  O13 UNL     1      46.756  24.367  24.844  1.00  0.00    -0.390 OA
ATOM     27  H13 UNL     1      47.435  25.016  24.985  1.00  0.00     0.210 HD
ENDBRANCH  14  26
ENDBRANCH   9  10
ENDBRANCH   8   9
ENDBRANCH   5   8
ENDBRANCH   4   5
ENDBRANCH   1   4
BRANCH   1  28
HETATM   28  O9  UNL     1      51.865  23.143  26.658  1.00  0.00    -0.287 OA
BRANCH  28  29
HETATM   29  C7  UNL     1      52.843  22.941  25.683  1.00  0.00     0.216 C 
BRANCH  29  30
HETATM   30  C8  UNL     1      53.861  24.040  25.658  1.00  0.00     0.180 C 
HETATM   31  O10 UNL     1      54.936  23.665  24.900  1.00  0.00    -0.353 OA
HETATM   32  C9  UNL     1      55.388  24.726  24.172  1.00  0.00     0.262 C 
HETATM   33  C15 UNL     1      54.602  25.942  24.515  1.00  0.00     0.198 C 
HETATM   34  C16 UNL     1      53.318  25.335  25.093  1.00  0.00     0.182 C 
BRANCH  32  35
HETATM   35  N3  UNL     1      55.311  24.483  22.735  1.00  0.00    -0.297 N 
HETATM   36  C10 UNL     1      55.383  25.368  21.727  1.00  0.00     0.188 A 
HETATM   37  N4  UNL     1      55.266  24.723  20.555  1.00  0.00    -0.346 N 
HETATM   38  C11 UNL     1      55.120  23.421  20.841  1.00  0.00     0.119 A 
ATOM     39  H4  UNL     1      55.286  25.143  19.626  1.00  0.00     0.167 HD
HETATM   40  C12 UNL     1      54.962  22.319  20.034  1.00  0.00     0.148 A 
HETATM   41  C14 UNL     1      55.146  23.259  22.193  1.00  0.00     0.142 A 
HETATM   42  N5  UNL     1      54.936  22.501  18.624  1.00  0.00    -0.080 NA
HETATM   43  N6  UNL     1      54.837  21.122  20.594  1.00  0.00    -0.339 N 
HETATM   44  C13 UNL     1      54.865  20.973  21.921  1.00  0.00     0.183 A 
ATOM     45  H6  UNL     1      54.717  20.301  20.000  1.00  0.00     0.167 HD
HETATM   46  N7  UNL     1      55.018  22.036  22.724  1.00  0.00    -0.336 N 
ATOM     47  H7  UNL     1      55.038  21.914  23.737  1.00  0.00     0.168 HD
ENDBRANCH  32  35
BRANCH  33  48
HETATM   48  O11 UNL     1      55.257  26.667  25.534  1.00  0.00    -0.388 OA
ATOM     49  H11 UNL     1      55.380  26.115  26.297  1.00  0.00     0.210 HD
ENDBRANCH  33  48
BRANCH  34  50
HETATM   50  O12 UNL     1      52.760  26.133  26.065  1.00  0.00    -0.390 OA
ATOM     51  H12 UNL     1      52.965  27.052  25.937  1.00  0.00     0.210 HD
ENDBRANCH  34  50
ENDBRANCH  29  30
ENDBRANCH  28  29
ENDBRANCH   1  28
TORSDOF 15
ENDMDL
