MODEL 2
REMARK VINA RESULT: -10.399972384      4.164      8.205
REMARK  3 active torsions:
REMARK  status: ('A' for Active; 'I' for Inactive)
REMARK    1  A    between atoms: C10_14  and  C11_15 
REMARK       I    between atoms: C11_15  and  N2_17 
REMARK    2  A    between atoms: N2_17  and  C12_19 
REMARK    3  A    between atoms: C15_22  and  C16_23 
ROOT
HETATM    1  C1  UNL     1      20.543 -11.504   6.447  1.00  0.00     0.080 C 
HETATM    2  C2  UNL     1      21.997 -11.325   6.281  1.00  0.00     0.090 A 
HETATM    3  O1  UNL     1      22.602 -10.212   5.860  1.00  0.00    -0.241 OA
HETATM    4  N1  UNL     1      23.878 -10.359   5.817  1.00  0.00    -0.259 N 
ATOM      5  H1  UNL     1      24.542  -9.642   5.525  1.00  0.00     0.195 HD
HETATM    6  C3  UNL     1      24.208 -11.610   6.216  1.00  0.00     0.085 A 
HETATM    7  C4  UNL     1      25.549 -12.138   6.309  1.00  0.00     0.015 A 
HETATM    8  C5  UNL     1      25.974 -13.211   5.554  1.00  0.00     0.015 A 
HETATM    9  C6  UNL     1      27.253 -13.728   5.588  1.00  0.00     0.001 A 
HETATM   10  C7  UNL     1      28.152 -13.108   6.444  1.00  0.00     0.002 A 
HETATM   11  C8  UNL     1      27.768 -12.023   7.225  1.00  0.00     0.025 A 
HETATM   12  C9  UNL     1      26.482 -11.540   7.161  1.00  0.00     0.046 A 
HETATM   13 CL1  UNL     1      26.037 -10.162   8.165  1.00  0.00    -0.083 Cl
HETATM   14  C10 UNL     1      23.008 -12.232   6.515  1.00  0.00     0.093 A 
ENDROOT
BRANCH  14  15
HETATM   15  C11 UNL     1      22.941 -13.615   7.007  1.00  0.00     0.261 C 
HETATM   16  O2  UNL     1      23.626 -13.874   8.043  1.00  0.00    -0.267 OA
HETATM   17  N2  UNL     1      22.212 -14.675   6.470  1.00  0.00    -0.323 N 
ATOM     18  H2  UNL     1      21.669 -14.456   5.635  1.00  0.00     0.169 HD
BRANCH  17  19
HETATM   19  C12 UNL     1      22.122 -16.013   6.922  1.00  0.00     0.035 A 
HETATM   20  C13 UNL     1      23.005 -16.937   6.371  1.00  0.00     0.030 A 
HETATM   21  C14 UNL     1      22.974 -18.254   6.753  1.00  0.00     0.010 A 
HETATM   22  C15 UNL     1      22.067 -18.701   7.693  1.00  0.00    -0.055 A 
HETATM   23  C19 UNL     1      21.193 -17.811   8.243  1.00  0.00     0.010 A 
HETATM   24  C20 UNL     1      21.227 -16.490   7.858  1.00  0.00     0.030 A 
BRANCH  22  25
HETATM   25  C16 UNL     1      22.046 -20.109   8.094  1.00  0.00     0.010 C 
HETATM   26  C17 UNL     1      21.019 -20.333   9.206  1.00  0.00     0.015 C 
HETATM   27  C18 UNL     1      23.387 -20.644   8.544  1.00  0.00     0.015 C 
ENDBRANCH  22  25
ENDBRANCH  17  19
ENDBRANCH  14  15
TORSDOF 3
ENDMDL
