MODEL 6
REMARK VINA RESULT: -9.836352372      1.034      1.056
REMARK  3 active torsions:
REMARK  status: ('A' for Active; 'I' for Inactive)
REMARK    1  A    between atoms: C10_14  and  C11_15 
REMARK       I    between atoms: C11_15  and  N2_17 
REMARK    2  A    between atoms: N2_17  and  C12_19 
REMARK    3  A    between atoms: C15_22  and  C16_23 
ROOT
HETATM    1  C1  UNL     1      26.789 -18.492   7.080  1.00  0.00     0.080 C 
HETATM    2  C2  UNL     1      25.655 -19.383   7.388  1.00  0.00     0.090 A 
HETATM    3  O1  UNL     1      25.748 -20.607   7.914  1.00  0.00    -0.241 OA
HETATM    4  N1  UNL     1      24.588 -21.139   8.067  1.00  0.00    -0.259 N 
ATOM      5  H1  UNL     1      24.415 -22.069   8.449  1.00  0.00     0.195 HD
HETATM    6  C3  UNL     1      23.631 -20.281   7.644  1.00  0.00     0.085 A 
HETATM    7  C4  UNL     1      22.207 -20.526   7.671  1.00  0.00     0.015 A 
HETATM    8  C5  UNL     1      21.443 -20.569   6.525  1.00  0.00     0.015 A 
HETATM    9  C6  UNL     1      20.088 -20.831   6.501  1.00  0.00     0.001 A 
HETATM   10  C7  UNL     1      19.479 -21.065   7.726  1.00  0.00     0.002 A 
HETATM   11  C8  UNL     1      20.210 -21.031   8.910  1.00  0.00     0.025 A 
HETATM   12  C9  UNL     1      21.560 -20.766   8.886  1.00  0.00     0.046 A 
HETATM   13 CL1  UNL     1      22.449 -20.735  10.407  1.00  0.00    -0.083 Cl
HETATM   14  C10 UNL     1      24.308 -19.155   7.209  1.00  0.00     0.093 A 
ENDROOT
BRANCH  14  15
HETATM   15  C11 UNL     1      23.612 -17.972   6.683  1.00  0.00     0.261 C 
HETATM   16  O2  UNL     1      23.139 -18.077   5.512  1.00  0.00    -0.267 OA
HETATM   17  N2  UNL     1      23.413 -16.750   7.322  1.00  0.00    -0.323 N 
ATOM     18  H2  UNL     1      23.802 -16.676   8.261  1.00  0.00     0.169 HD
BRANCH  17  19
HETATM   19  C12 UNL     1      22.744 -15.596   6.848  1.00  0.00     0.035 A 
HETATM   20  C13 UNL     1      21.451 -15.369   7.310  1.00  0.00     0.030 A 
HETATM   21  C14 UNL     1      20.736 -14.276   6.891  1.00  0.00     0.010 A 
HETATM   22  C15 UNL     1      21.277 -13.371   5.999  1.00  0.00    -0.055 A 
HETATM   23  C19 UNL     1      22.542 -13.576   5.535  1.00  0.00     0.010 A 
HETATM   24  C20 UNL     1      23.257 -14.674   5.958  1.00  0.00     0.030 A 
BRANCH  22  25
HETATM   25  C16 UNL     1      20.504 -12.207   5.562  1.00  0.00     0.010 C 
HETATM   26  C17 UNL     1      20.871 -10.978   6.395  1.00  0.00     0.015 C 
HETATM   27  C18 UNL     1      19.005 -12.407   5.609  1.00  0.00     0.015 C 
ENDBRANCH  22  25
ENDBRANCH  17  19
ENDBRANCH  14  15
TORSDOF 3
ENDMDL
