MODEL 1
REMARK VINA RESULT: -10.486020927      0.000      0.000
REMARK  3 active torsions:
REMARK  status: ('A' for Active; 'I' for Inactive)
REMARK    1  A    between atoms: C10_14  and  C11_15 
REMARK       I    between atoms: C11_15  and  N2_17 
REMARK    2  A    between atoms: N2_17  and  C12_19 
REMARK    3  A    between atoms: C15_22  and  C16_23 
ROOT
HETATM    1  C1  UNL     1      27.760 -18.970   7.513  1.00  0.00     0.080 C 
HETATM    2  C2  UNL     1      26.515 -19.735   7.712  1.00  0.00     0.090 A 
HETATM    3  O1  UNL     1      26.440 -21.021   8.065  1.00  0.00    -0.241 OA
HETATM    4  N1  UNL     1      25.218 -21.409   8.158  1.00  0.00    -0.259 N 
ATOM      5  H1  UNL     1      24.920 -22.351   8.413  1.00  0.00     0.195 HD
HETATM    6  C3  UNL     1      24.387 -20.382   7.867  1.00  0.00     0.085 A 
HETATM    7  C4  UNL     1      22.943 -20.436   7.879  1.00  0.00     0.015 A 
HETATM    8  C5  UNL     1      22.187 -20.220   6.746  1.00  0.00     0.015 A 
HETATM    9  C6  UNL     1      20.810 -20.293   6.704  1.00  0.00     0.001 A 
HETATM   10  C7  UNL     1      20.168 -20.608   7.893  1.00  0.00     0.002 A 
HETATM   11  C8  UNL     1      20.889 -20.834   9.062  1.00  0.00     0.025 A 
HETATM   12  C9  UNL     1      22.262 -20.750   9.058  1.00  0.00     0.046 A 
HETATM   13 CL1  UNL     1      23.138 -21.045  10.558  1.00  0.00    -0.083 Cl
HETATM   14  C10 UNL     1      25.212 -19.308   7.581  1.00  0.00     0.093 A 
ENDROOT
BRANCH  14  15
HETATM   15  C11 UNL     1      24.684 -17.982   7.230  1.00  0.00     0.261 C 
HETATM   16  O2  UNL     1      25.501 -17.015   7.311  1.00  0.00    -0.267 OA
HETATM   17  N2  UNL     1      23.391 -17.662   6.819  1.00  0.00    -0.323 N 
ATOM     18  H2  UNL     1      22.742 -18.447   6.762  1.00  0.00     0.169 HD
BRANCH  17  19
HETATM   19  C12 UNL     1      22.854 -16.401   6.469  1.00  0.00     0.035 A 
HETATM   20  C13 UNL     1      21.788 -15.926   7.226  1.00  0.00     0.030 A 
HETATM   21  C14 UNL     1      21.208 -14.715   6.945  1.00  0.00     0.010 A 
HETATM   22  C15 UNL     1      21.666 -13.933   5.902  1.00  0.00    -0.055 A 
HETATM   23  C19 UNL     1      22.709 -14.381   5.148  1.00  0.00     0.010 A 
HETATM   24  C20 UNL     1      23.288 -15.597   5.434  1.00  0.00     0.030 A 
BRANCH  22  25
HETATM   25  C16 UNL     1      21.040 -12.641   5.613  1.00  0.00     0.010 C 
HETATM   26  C17 UNL     1      21.591 -11.561   6.545  1.00  0.00     0.015 C 
HETATM   27  C18 UNL     1      19.530 -12.651   5.704  1.00  0.00     0.015 C 
ENDBRANCH  22  25
ENDBRANCH  17  19
ENDBRANCH  14  15
TORSDOF 3
ENDMDL
