MODEL 3
REMARK VINA RESULT: -10.319007354      3.854      6.028
REMARK  3 active torsions:
REMARK  status: ('A' for Active; 'I' for Inactive)
REMARK    1  A    between atoms: C10_14  and  C11_15 
REMARK       I    between atoms: C11_15  and  N2_17 
REMARK    2  A    between atoms: N2_17  and  C12_19 
REMARK    3  A    between atoms: C15_22  and  C16_23 
ROOT
HETATM    1  C1  UNL     1      26.519 -16.650   7.246  1.00  0.00     0.080 C 
HETATM    2  C2  UNL     1      25.088 -16.479   6.932  1.00  0.00     0.090 A 
HETATM    3  O1  UNL     1      24.233 -17.461   6.635  1.00  0.00    -0.241 OA
HETATM    4  N1  UNL     1      23.054 -17.002   6.406  1.00  0.00    -0.259 N 
ATOM      5  H1  UNL     1      22.242 -17.568   6.160  1.00  0.00     0.195 HD
HETATM    6  C3  UNL     1      23.053 -15.655   6.541  1.00  0.00     0.085 A 
HETATM    7  C4  UNL     1      21.907 -14.792   6.372  1.00  0.00     0.015 A 
HETATM    8  C5  UNL     1      21.852 -13.819   5.397  1.00  0.00     0.015 A 
HETATM    9  C6  UNL     1      20.767 -12.995   5.180  1.00  0.00     0.001 A 
HETATM   10  C7  UNL     1      19.670 -13.180   6.009  1.00  0.00     0.002 A 
HETATM   11  C8  UNL     1      19.679 -14.150   7.007  1.00  0.00     0.025 A 
HETATM   12  C9  UNL     1      20.784 -14.950   7.189  1.00  0.00     0.046 A 
HETATM   13 CL1  UNL     1      20.754 -16.167   8.462  1.00  0.00    -0.083 Cl
HETATM   14  C10 UNL     1      24.352 -15.315   6.877  1.00  0.00     0.093 A 
ENDROOT
BRANCH  14  15
HETATM   15  C11 UNL     1      24.761 -13.926   7.130  1.00  0.00     0.261 C 
HETATM   16  O2  UNL     1      24.674 -13.528   8.331  1.00  0.00    -0.267 OA
HETATM   17  N2  UNL     1      25.233 -12.997   6.205  1.00  0.00    -0.323 N 
ATOM     18  H2  UNL     1      25.294 -13.327   5.243  1.00  0.00     0.169 HD
BRANCH  17  19
HETATM   19  C12 UNL     1      25.640 -11.658   6.416  1.00  0.00     0.035 A 
HETATM   20  C13 UNL     1      24.993 -10.669   5.682  1.00  0.00     0.030 A 
HETATM   21  C14 UNL     1      25.335  -9.348   5.826  1.00  0.00     0.010 A 
HETATM   22  C15 UNL     1      26.331  -8.963   6.702  1.00  0.00    -0.055 A 
HETATM   23  C19 UNL     1      26.977  -9.918   7.430  1.00  0.00     0.010 A 
HETATM   24  C20 UNL     1      26.630 -11.242   7.283  1.00  0.00     0.030 A 
BRANCH  22  25
HETATM   25  C16 UNL     1      26.686  -7.550   6.849  1.00  0.00     0.010 C 
HETATM   26  C17 UNL     1      26.953  -7.215   8.317  1.00  0.00     0.015 C 
HETATM   27  C18 UNL     1      25.649  -6.592   6.304  1.00  0.00     0.015 C 
ENDBRANCH  22  25
ENDBRANCH  17  19
ENDBRANCH  14  15
TORSDOF 3
ENDMDL
