MODEL 4
REMARK VINA RESULT: -10.103288732      3.983      6.194
REMARK  3 active torsions:
REMARK  status: ('A' for Active; 'I' for Inactive)
REMARK    1  A    between atoms: C10_14  and  C11_15 
REMARK       I    between atoms: C11_15  and  N2_17 
REMARK    2  A    between atoms: N2_17  and  C12_19 
REMARK    3  A    between atoms: C15_22  and  C16_23 
ROOT
HETATM    1  C1  UNL     1      26.537 -16.489   7.238  1.00  0.00     0.080 C 
HETATM    2  C2  UNL     1      25.108 -16.329   6.913  1.00  0.00     0.090 A 
HETATM    3  O1  UNL     1      24.267 -17.316   6.594  1.00  0.00    -0.241 OA
HETATM    4  N1  UNL     1      23.085 -16.867   6.361  1.00  0.00    -0.259 N 
ATOM      5  H1  UNL     1      22.281 -17.438   6.099  1.00  0.00     0.195 HD
HETATM    6  C3  UNL     1      23.067 -15.523   6.515  1.00  0.00     0.085 A 
HETATM    7  C4  UNL     1      21.913 -14.670   6.349  1.00  0.00     0.015 A 
HETATM    8  C5  UNL     1      21.857 -13.683   5.388  1.00  0.00     0.015 A 
HETATM    9  C6  UNL     1      20.765 -12.868   5.172  1.00  0.00     0.001 A 
HETATM   10  C7  UNL     1      19.662 -13.077   5.989  1.00  0.00     0.002 A 
HETATM   11  C8  UNL     1      19.673 -14.061   6.973  1.00  0.00     0.025 A 
HETATM   12  C9  UNL     1      20.785 -14.851   7.153  1.00  0.00     0.046 A 
HETATM   13 CL1  UNL     1      20.757 -16.088   8.408  1.00  0.00    -0.083 Cl
HETATM   14  C10 UNL     1      24.359 -15.173   6.869  1.00  0.00     0.093 A 
ENDROOT
BRANCH  14  15
HETATM   15  C11 UNL     1      24.751 -13.784   7.145  1.00  0.00     0.261 C 
HETATM   16  O2  UNL     1      24.629 -13.398   8.347  1.00  0.00    -0.267 OA
HETATM   17  N2  UNL     1      25.239 -12.842   6.242  1.00  0.00    -0.323 N 
ATOM     18  H2  UNL     1      25.328 -13.162   5.278  1.00  0.00     0.169 HD
BRANCH  17  19
HETATM   19  C12 UNL     1      25.630 -11.501   6.477  1.00  0.00     0.035 A 
HETATM   20  C13 UNL     1      26.519 -11.267   7.521  1.00  0.00     0.030 A 
HETATM   21  C14 UNL     1      26.939  -9.995   7.815  1.00  0.00     0.010 A 
HETATM   22  C15 UNL     1      26.491  -8.911   7.084  1.00  0.00    -0.055 A 
HETATM   23  C19 UNL     1      25.620  -9.121   6.058  1.00  0.00     0.010 A 
HETATM   24  C20 UNL     1      25.201 -10.399   5.766  1.00  0.00     0.030 A 
BRANCH  22  25
HETATM   25  C16 UNL     1      26.949  -7.558   7.407  1.00  0.00     0.010 C 
HETATM   26  C17 UNL     1      25.771  -6.686   7.844  1.00  0.00     0.015 C 
HETATM   27  C18 UNL     1      27.683  -6.868   6.278  1.00  0.00     0.015 C 
ENDBRANCH  22  25
ENDBRANCH  17  19
ENDBRANCH  14  15
TORSDOF 3
ENDMDL
