MODEL 14
REMARK VINA RESULT: -4.030238264      4.807      6.428
REMARK  0 active torsions:
REMARK  status: ('A' for Active; 'I' for Inactive)
ROOT
HETATM    1  C1  UNL     1      20.266   2.065  10.219  1.00  0.00     0.048 C 
HETATM    2  C2  UNL     1      19.054   1.523  10.892  1.00  0.00    -0.061 A 
HETATM    3  C3  UNL     1      18.658   0.198  10.750  1.00  0.00     0.007 A 
HETATM    4  C4  UNL     1      17.542  -0.304  11.369  1.00  0.00     0.002 A 
HETATM    5  C5  UNL     1      16.797   0.553  12.160  1.00  0.00     0.019 A 
HETATM    6  C6  UNL     1      17.145   1.872  12.335  1.00  0.00     0.012 A 
HETATM    7  S1  UNL     1      16.135   2.911  13.367  1.00  0.00    -0.053 SA
HETATM    8  C7  UNL     1      18.266   2.343  11.701  1.00  0.00     0.026 A 
ENDROOT
TORSDOF 0
ENDMDL
