MODEL 10
REMARK VINA RESULT: -4.261886709      5.787      6.312
REMARK  0 active torsions:
REMARK  status: ('A' for Active; 'I' for Inactive)
ROOT
HETATM    1  C1  UNL     1      18.033  -2.118  11.147  1.00  0.00     0.048 C 
HETATM    2  C2  UNL     1      17.821  -0.645  11.100  1.00  0.00    -0.061 A 
HETATM    3  C3  UNL     1      16.551  -0.080  11.086  1.00  0.00     0.007 A 
HETATM    4  C4  UNL     1      16.353   1.276  11.043  1.00  0.00     0.002 A 
HETATM    5  C5  UNL     1      17.468   2.095  11.013  1.00  0.00     0.019 A 
HETATM    6  C6  UNL     1      18.747   1.588  11.025  1.00  0.00     0.012 A 
HETATM    7  S1  UNL     1      20.129   2.707  10.983  1.00  0.00    -0.053 SA
HETATM    8  C7  UNL     1      18.910   0.228  11.068  1.00  0.00     0.026 A 
ENDROOT
TORSDOF 0
ENDMDL
