MODEL 13
REMARK VINA RESULT: -4.045743978      4.706      5.962
REMARK  0 active torsions:
REMARK  status: ('A' for Active; 'I' for Inactive)
ROOT
HETATM    1  C1  UNL     1      17.335  -1.764  11.376  1.00  0.00     0.048 C 
HETATM    2  C2  UNL     1      17.712  -0.326  11.472  1.00  0.00    -0.061 A 
HETATM    3  C3  UNL     1      18.870   0.176  10.889  1.00  0.00     0.007 A 
HETATM    4  C4  UNL     1      19.219   1.500  10.975  1.00  0.00     0.002 A 
HETATM    5  C5  UNL     1      18.376   2.350  11.671  1.00  0.00     0.019 A 
HETATM    6  C6  UNL     1      17.218   1.904  12.265  1.00  0.00     0.012 A 
HETATM    7  S1  UNL     1      16.188   3.060  13.142  1.00  0.00    -0.053 SA
HETATM    8  C7  UNL     1      16.899   0.575  12.160  1.00  0.00     0.026 A 
ENDROOT
TORSDOF 0
ENDMDL
