MODEL 4
REMARK VINA RESULT: -5.030376999      1.949      3.149
REMARK  0 active torsions:
REMARK  status: ('A' for Active; 'I' for Inactive)
ROOT
HETATM    1  C1  UNL     1      16.307   3.955  13.641  1.00  0.00     0.048 C 
HETATM    2  C2  UNL     1      15.611   3.688  14.930  1.00  0.00    -0.061 A 
HETATM    3  C3  UNL     1      14.910   4.677  15.611  1.00  0.00     0.007 A 
HETATM    4  C4  UNL     1      14.267   4.433  16.798  1.00  0.00     0.002 A 
HETATM    5  C5  UNL     1      14.330   3.153  17.321  1.00  0.00     0.019 A 
HETATM    6  C6  UNL     1      15.010   2.139  16.687  1.00  0.00     0.012 A 
HETATM    7  S1  UNL     1      15.045   0.520  17.423  1.00  0.00    -0.053 SA
HETATM    8  C7  UNL     1      15.642   2.416  15.502  1.00  0.00     0.026 A 
ENDROOT
TORSDOF 0
ENDMDL
