MODEL 3
REMARK VINA RESULT: -10.644891188      4.445      6.778
REMARK  3 active torsions:
REMARK  status: ('A' for Active; 'I' for Inactive)
REMARK    1  A    between atoms: N1_5  and  C5_6 
REMARK    2  A    between atoms: C7_8  and  C8_9 
REMARK    3  A    between atoms: C11_12  and  C12_13 
ROOT
HETATM    1  C5  UNL     1     -43.270 -47.965  27.465  1.00  0.00     0.107 A 
HETATM    2  C6  UNL     1     -44.574 -48.208  27.851  1.00  0.00     0.078 A 
HETATM    3  C7  UNL     1     -45.253 -47.392  28.733  1.00  0.00     0.048 A 
HETATM    4  N2  UNL     1     -44.558 -46.320  29.207  1.00  0.00    -0.330 N 
ATOM      5  H2  UNL     1     -45.023 -45.689  29.860  1.00  0.00     0.168 HD
HETATM    6  C15 UNL     1     -43.293 -46.058  28.856  1.00  0.00     0.194 A 
HETATM    7  N3  UNL     1     -42.563 -44.989  29.377  1.00  0.00    -0.063 NA
HETATM    8  N4  UNL     1     -42.690 -46.881  28.001  1.00  0.00    -0.317 N 
ATOM      9  H4  UNL     1     -41.726 -46.675  27.737  1.00  0.00     0.170 HD
ENDROOT
BRANCH   3  10
HETATM   10  C8  UNL     1     -46.627 -47.613  29.150  1.00  0.00    -0.009 A 
HETATM   11  C9  UNL     1     -46.990 -48.233  30.315  1.00  0.00     0.014 A 
HETATM   12  C10 UNL     1     -48.328 -48.409  30.629  1.00  0.00     0.017 A 
HETATM   13  C11 UNL     1     -49.331 -47.977  29.800  1.00  0.00     0.048 A 
HETATM   14  C13 UNL     1     -48.980 -47.351  28.620  1.00  0.00     0.017 A 
HETATM   15  C14 UNL     1     -47.659 -47.182  28.314  1.00  0.00     0.014 A 
BRANCH  13  16
HETATM   16  C12 UNL     1     -50.785 -48.135  30.073  1.00  0.00     0.417 C 
HETATM   17  F1  UNL     1     -51.438 -47.939  28.866  1.00  0.00    -0.166 F 
HETATM   18  F2  UNL     1     -51.098 -49.361  30.614  1.00  0.00    -0.166 F 
HETATM   19  F3  UNL     1     -51.250 -47.164  30.923  1.00  0.00    -0.166 F 
ENDBRANCH  13  16
ENDBRANCH   3  10
BRANCH   1  20
HETATM   20  N1  UNL     1     -42.561 -48.817  26.547  1.00  0.00    -0.367 N 
HETATM   21  C4  UNL     1     -41.140 -48.700  26.463  1.00  0.00     0.124 C 
HETATM   22  C3  UNL     1     -40.571 -49.442  25.263  1.00  0.00     0.024 C 
HETATM   23  C2  UNL     1     -41.115 -50.853  25.381  1.00  0.00    -0.015 C 
HETATM   24  C1  UNL     1     -40.521 -51.746  24.292  1.00  0.00     0.010 C 
HETATM   25  C17 UNL     1     -42.600 -50.814  25.104  1.00  0.00     0.024 C 
HETATM   26  C16 UNL     1     -43.356 -49.741  25.776  1.00  0.00     0.124 C 
ENDBRANCH   1  20
TORSDOF 3
ENDMDL
