MODEL 1
REMARK VINA RESULT: -11.090951916      0.000      0.000
REMARK  3 active torsions:
REMARK  status: ('A' for Active; 'I' for Inactive)
REMARK    1  A    between atoms: N1_5  and  C5_6 
REMARK    2  A    between atoms: C7_8  and  C8_9 
REMARK    3  A    between atoms: C11_12  and  C12_13 
ROOT
HETATM    1  C5  UNL     1     -48.947 -47.173  29.499  1.00  0.00     0.107 A 
HETATM    2  C6  UNL     1     -49.893 -47.076  30.501  1.00  0.00     0.078 A 
HETATM    3  C7  UNL     1     -51.248 -47.028  30.242  1.00  0.00     0.048 A 
HETATM    4  N2  UNL     1     -51.606 -47.083  28.929  1.00  0.00    -0.330 N 
ATOM      5  H2  UNL     1     -52.597 -47.052  28.692  1.00  0.00     0.168 HD
HETATM    6  C15 UNL     1     -50.714 -47.174  27.933  1.00  0.00     0.194 A 
HETATM    7  N3  UNL     1     -51.074 -47.181  26.586  1.00  0.00    -0.063 NA
HETATM    8  N4  UNL     1     -49.420 -47.217  28.245  1.00  0.00    -0.317 N 
ATOM      9  H4  UNL     1     -48.746 -47.287  27.482  1.00  0.00     0.170 HD
ENDROOT
BRANCH   3  10
HETATM   10  C8  UNL     1     -52.268 -46.937  31.273  1.00  0.00    -0.009 A 
HETATM   11  C9  UNL     1     -52.852 -48.017  31.878  1.00  0.00     0.014 A 
HETATM   12  C10 UNL     1     -53.825 -47.835  32.847  1.00  0.00     0.017 A 
HETATM   13  C11 UNL     1     -54.239 -46.588  33.237  1.00  0.00     0.048 A 
HETATM   14  C13 UNL     1     -53.660 -45.489  32.634  1.00  0.00     0.017 A 
HETATM   15  C14 UNL     1     -52.702 -45.673  31.676  1.00  0.00     0.014 A 
BRANCH  13  16
HETATM   16  C12 UNL     1     -55.278 -46.321  34.267  1.00  0.00     0.417 C 
HETATM   17  F1  UNL     1     -56.482 -46.192  33.593  1.00  0.00    -0.166 F 
HETATM   18  F2  UNL     1     -55.348 -47.306  35.226  1.00  0.00    -0.166 F 
HETATM   19  F3  UNL     1     -55.066 -45.124  34.904  1.00  0.00    -0.166 F 
ENDBRANCH  13  16
ENDBRANCH   3  10
BRANCH   1  20
HETATM   20  N1  UNL     1     -47.534 -47.221  29.768  1.00  0.00    -0.367 N 
HETATM   21  C4  UNL     1     -46.642 -47.518  28.693  1.00  0.00     0.124 C 
HETATM   22  C3  UNL     1     -45.232 -47.818  29.180  1.00  0.00     0.024 C 
HETATM   23  C2  UNL     1     -44.856 -46.631  30.046  1.00  0.00    -0.015 C 
HETATM   24  C1  UNL     1     -43.405 -46.748  30.510  1.00  0.00     0.010 C 
HETATM   25  C17 UNL     1     -45.687 -46.680  31.307  1.00  0.00     0.024 C 
HETATM   26  C16 UNL     1     -47.125 -46.954  31.125  1.00  0.00     0.124 C 
ENDBRANCH   1  20
TORSDOF 3
ENDMDL
