MODEL 2
REMARK VINA RESULT: -10.912996108      4.884      8.339
REMARK  3 active torsions:
REMARK  status: ('A' for Active; 'I' for Inactive)
REMARK    1  A    between atoms: N1_5  and  C5_6 
REMARK    2  A    between atoms: C7_8  and  C8_9 
REMARK    3  A    between atoms: C11_12  and  C12_13 
ROOT
HETATM    1  C5  UNL     1     -51.191 -46.986  30.238  1.00  0.00     0.107 A 
HETATM    2  C6  UNL     1     -49.824 -47.068  30.422  1.00  0.00     0.078 A 
HETATM    3  C7  UNL     1     -48.935 -47.130  29.367  1.00  0.00     0.048 A 
HETATM    4  N2  UNL     1     -49.486 -47.107  28.122  1.00  0.00    -0.330 N 
ATOM      5  H2  UNL     1     -48.865 -47.149  27.313  1.00  0.00     0.168 HD
HETATM    6  C15 UNL     1     -50.807 -47.032  27.910  1.00  0.00     0.194 A 
HETATM    7  N3  UNL     1     -51.377 -47.056  26.637  1.00  0.00    -0.063 NA
HETATM    8  N4  UNL     1     -51.614 -46.973  28.966  1.00  0.00    -0.317 N 
ATOM      9  H4  UNL     1     -52.619 -46.916  28.797  1.00  0.00     0.170 HD
ENDROOT
BRANCH   3  10
HETATM   10  C8  UNL     1     -47.493 -47.205  29.525  1.00  0.00    -0.009 A 
HETATM   11  C9  UNL     1     -46.846 -47.171  30.731  1.00  0.00     0.014 A 
HETATM   12  C10 UNL     1     -45.463 -47.240  30.787  1.00  0.00     0.017 A 
HETATM   13  C11 UNL     1     -44.695 -47.344  29.656  1.00  0.00     0.048 A 
HETATM   14  C13 UNL     1     -45.334 -47.378  28.433  1.00  0.00     0.017 A 
HETATM   15  C14 UNL     1     -46.698 -47.307  28.382  1.00  0.00     0.014 A 
BRANCH  13  16
HETATM   16  C12 UNL     1     -43.209 -47.420  29.643  1.00  0.00     0.417 C 
HETATM   17  F1  UNL     1     -42.759 -46.549  30.622  1.00  0.00    -0.166 F 
HETATM   18  F2  UNL     1     -42.736 -48.695  29.855  1.00  0.00    -0.166 F 
HETATM   19  F3  UNL     1     -42.689 -46.967  28.457  1.00  0.00    -0.166 F 
ENDBRANCH  13  16
ENDBRANCH   3  10
BRANCH   1  20
HETATM   20  N1  UNL     1     -52.118 -46.924  31.337  1.00  0.00    -0.367 N 
HETATM   21  C4  UNL     1     -52.520 -45.642  31.822  1.00  0.00     0.124 C 
HETATM   22  C3  UNL     1     -53.258 -45.733  33.149  1.00  0.00     0.024 C 
HETATM   23  C2  UNL     1     -54.375 -46.731  32.907  1.00  0.00    -0.015 C 
HETATM   24  C1  UNL     1     -55.276 -46.831  34.137  1.00  0.00     0.010 C 
HETATM   25  C17 UNL     1     -53.761 -48.102  32.746  1.00  0.00     0.024 C 
HETATM   26  C16 UNL     1     -52.581 -48.184  31.865  1.00  0.00     0.124 C 
ENDBRANCH   1  20
TORSDOF 3
ENDMDL
