MODEL 4
REMARK VINA RESULT: -10.632359432      4.555      6.998
REMARK  3 active torsions:
REMARK  status: ('A' for Active; 'I' for Inactive)
REMARK    1  A    between atoms: N1_5  and  C5_6 
REMARK    2  A    between atoms: C7_8  and  C8_9 
REMARK    3  A    between atoms: C11_12  and  C12_13 
ROOT
HETATM    1  C5  UNL     1     -42.655 -48.590  29.084  1.00  0.00     0.107 A 
HETATM    2  C6  UNL     1     -44.029 -48.704  29.160  1.00  0.00     0.078 A 
HETATM    3  C7  UNL     1     -44.853 -47.619  29.386  1.00  0.00     0.048 A 
HETATM    4  N2  UNL     1     -44.229 -46.418  29.532  1.00  0.00    -0.330 N 
ATOM      5  H2  UNL     1     -44.800 -45.589  29.699  1.00  0.00     0.168 HD
HETATM    6  C15 UNL     1     -42.898 -46.274  29.467  1.00  0.00     0.194 A 
HETATM    7  N3  UNL     1     -42.253 -45.053  29.664  1.00  0.00    -0.063 NA
HETATM    8  N4  UNL     1     -42.156 -47.356  29.246  1.00  0.00    -0.317 N 
ATOM      9  H4  UNL     1     -41.143 -47.240  29.197  1.00  0.00     0.170 HD
ENDROOT
BRANCH   3  10
HETATM   10  C8  UNL     1     -46.302 -47.703  29.461  1.00  0.00    -0.009 A 
HETATM   11  C9  UNL     1     -46.990 -48.263  30.503  1.00  0.00     0.014 A 
HETATM   12  C10 UNL     1     -48.375 -48.306  30.485  1.00  0.00     0.017 A 
HETATM   13  C11 UNL     1     -49.104 -47.798  29.442  1.00  0.00     0.048 A 
HETATM   14  C13 UNL     1     -48.424 -47.231  28.383  1.00  0.00     0.017 A 
HETATM   15  C14 UNL     1     -47.057 -47.192  28.403  1.00  0.00     0.014 A 
BRANCH  13  16
HETATM   16  C12 UNL     1     -50.590 -47.813  29.357  1.00  0.00     0.417 C 
HETATM   17  F1  UNL     1     -50.909 -47.932  28.014  1.00  0.00    -0.166 F 
HETATM   18  F2  UNL     1     -51.158 -48.827  30.095  1.00  0.00    -0.166 F 
HETATM   19  F3  UNL     1     -51.134 -46.627  29.778  1.00  0.00    -0.166 F 
ENDBRANCH  13  16
ENDBRANCH   3  10
BRANCH   1  20
HETATM   20  N1  UNL     1     -41.795 -49.721  28.850  1.00  0.00    -0.367 N 
HETATM   21  C4  UNL     1     -42.388 -50.972  28.501  1.00  0.00     0.124 C 
HETATM   22  C3  UNL     1     -41.394 -52.121  28.573  1.00  0.00     0.024 C 
HETATM   23  C2  UNL     1     -40.223 -51.680  27.716  1.00  0.00    -0.015 C 
HETATM   24  C1  UNL     1     -39.191 -52.802  27.604  1.00  0.00     0.010 C 
HETATM   25  C17 UNL     1     -39.513 -50.550  28.425  1.00  0.00     0.024 C 
HETATM   26  C16 UNL     1     -40.377 -49.493  28.985  1.00  0.00     0.124 C 
ENDBRANCH   1  20
TORSDOF 3
ENDMDL
