MODEL 1
REMARK VINA RESULT: -6.569163709      0.000      0.000
REMARK  4 active torsions:
REMARK  status: ('A' for Active; 'I' for Inactive)
REMARK    1  A    between atoms: C1_2  and  C2_4 
REMARK    2  A    between atoms: C2_4  and  C3_5 
REMARK    3  A    between atoms: C7_11  and  O5_12 
REMARK    4  A    between atoms: C8_14  and  O6_15 
ROOT
HETATM    1  C3  UNL     1      -4.472  27.325   6.737  1.00  0.00    -0.029 A 
HETATM    2  C4  UNL     1      -5.733  27.605   7.199  1.00  0.00     0.091 A 
HETATM    3  C5  UNL     1      -6.601  26.551   7.384  1.00  0.00     0.288 A 
HETATM    4  O3  UNL     1      -7.763  26.851   7.815  1.00  0.00    -0.260 OA
HETATM    5  O4  UNL     1      -6.267  25.308   7.139  1.00  0.00    -0.272 OA
HETATM    6  C6  UNL     1      -5.072  25.005   6.697  1.00  0.00     0.126 A 
HETATM    7  C7  UNL     1      -4.694  23.703   6.430  1.00  0.00     0.134 A 
HETATM    8  C8  UNL     1      -3.438  23.383   5.966  1.00  0.00     0.101 A 
HETATM    9  C9  UNL     1      -2.534  24.402   5.765  1.00  0.00     0.040 A 
HETATM   10  C10 UNL     1      -2.890  25.706   6.025  1.00  0.00     0.018 A 
HETATM   11  C11 UNL     1      -4.137  26.007   6.483  1.00  0.00     0.008 A 
ENDROOT
BRANCH   1  12
HETATM   12  C2  UNL     1      -3.515  28.419   6.522  1.00  0.00     0.152 C 
BRANCH  12  13
HETATM   13  C1  UNL     1      -3.838  29.175   5.282  1.00  0.00     0.176 C 
HETATM   14  O1  UNL     1      -4.097  28.644   4.183  1.00  0.00    -0.648 OA
HETATM   15  O2  UNL     1      -3.851  30.559   5.373  1.00  0.00    -0.648 OA
ENDBRANCH  12  13
ENDBRANCH   1  12
BRANCH   7  16
HETATM   16  O5  UNL     1      -5.625  22.697   6.642  1.00  0.00    -0.356 OA
ATOM     17  H5  UNL     1      -6.108  22.370   5.892  1.00  0.00     0.218 HD
ENDBRANCH   7  16
BRANCH   8  18
HETATM   18  O6  UNL     1      -3.062  22.084   5.700  1.00  0.00    -0.358 OA
ATOM     19  H6  UNL     1      -2.219  21.736   5.967  1.00  0.00     0.217 HD
ENDBRANCH   8  18
TORSDOF 4
ENDMDL
