MODEL 4
REMARK VINA RESULT: -6.186010010      3.303      4.035
REMARK  4 active torsions:
REMARK  status: ('A' for Active; 'I' for Inactive)
REMARK    1  A    between atoms: C1_2  and  C2_4 
REMARK    2  A    between atoms: C2_4  and  C3_5 
REMARK    3  A    between atoms: C7_11  and  O5_12 
REMARK    4  A    between atoms: C8_14  and  O6_15 
ROOT
HETATM    1  C3  UNL     1      -6.584  26.129   8.925  1.00  0.00    -0.029 A 
HETATM    2  C4  UNL     1      -6.657  26.120  10.296  1.00  0.00     0.091 A 
HETATM    3  C5  UNL     1      -6.017  25.102  10.968  1.00  0.00     0.288 A 
HETATM    4  O3  UNL     1      -6.108  25.127  12.240  1.00  0.00    -0.260 OA
HETATM    5  O4  UNL     1      -5.350  24.157  10.354  1.00  0.00    -0.272 OA
HETATM    6  C6  UNL     1      -5.259  24.136   9.047  1.00  0.00     0.126 A 
HETATM    7  C7  UNL     1      -4.562  23.151   8.373  1.00  0.00     0.134 A 
HETATM    8  C8  UNL     1      -4.466  23.127   7.000  1.00  0.00     0.101 A 
HETATM    9  C9  UNL     1      -5.089  24.124   6.282  1.00  0.00     0.040 A 
HETATM   10  C10 UNL     1      -5.788  25.114   6.934  1.00  0.00     0.018 A 
HETATM   11  C11 UNL     1      -5.875  25.124   8.293  1.00  0.00     0.008 A 
ENDROOT
BRANCH   1  12
HETATM   12  C2  UNL     1      -7.255  27.195   8.167  1.00  0.00     0.152 C 
BRANCH  12  13
HETATM   13  C1  UNL     1      -8.694  27.284   8.533  1.00  0.00     0.176 C 
HETATM   14  O1  UNL     1      -9.508  26.346   8.418  1.00  0.00    -0.648 OA
HETATM   15  O2  UNL     1      -9.142  28.497   9.035  1.00  0.00    -0.648 OA
ENDBRANCH  12  13
ENDBRANCH   1  12
BRANCH   7  16
HETATM   16  O5  UNL     1      -3.944  22.161   9.122  1.00  0.00    -0.356 OA
ATOM     17  H5  UNL     1      -2.996  22.108   9.098  1.00  0.00     0.218 HD
ENDBRANCH   7  16
BRANCH   8  18
HETATM   18  O6  UNL     1      -3.770  22.145   6.330  1.00  0.00    -0.358 OA
ATOM     19  H6  UNL     1      -3.329  22.311   5.505  1.00  0.00     0.217 HD
ENDBRANCH   8  18
TORSDOF 4
ENDMDL
