MODEL 2
REMARK VINA RESULT: -6.337880770      1.723      3.535
REMARK  4 active torsions:
REMARK  status: ('A' for Active; 'I' for Inactive)
REMARK    1  A    between atoms: C1_2  and  C2_4 
REMARK    2  A    between atoms: C2_4  and  C3_5 
REMARK    3  A    between atoms: C7_11  and  O5_12 
REMARK    4  A    between atoms: C8_14  and  O6_15 
ROOT
HETATM    1  C3  UNL     1      -2.744  27.263   5.939  1.00  0.00    -0.029 A 
HETATM    2  C4  UNL     1      -1.457  27.206   5.466  1.00  0.00     0.091 A 
HETATM    3  C5  UNL     1      -0.923  25.965   5.196  1.00  0.00     0.288 A 
HETATM    4  O3  UNL     1       0.274  25.953   4.758  1.00  0.00    -0.260 OA
HETATM    5  O4  UNL     1      -1.593  24.853   5.373  1.00  0.00    -0.272 OA
HETATM    6  C6  UNL     1      -2.823  24.871   5.823  1.00  0.00     0.126 A 
HETATM    7  C7  UNL     1      -3.552  23.713   6.018  1.00  0.00     0.134 A 
HETATM    8  C8  UNL     1      -4.845  23.730   6.491  1.00  0.00     0.101 A 
HETATM    9  C9  UNL     1      -5.423  24.947   6.776  1.00  0.00     0.040 A 
HETATM   10  C10 UNL     1      -4.714  26.112   6.587  1.00  0.00     0.018 A 
HETATM   11  C11 UNL     1      -3.436  26.079   6.120  1.00  0.00     0.008 A 
ENDROOT
BRANCH   1  12
HETATM   12  C2  UNL     1      -3.351  28.566   6.243  1.00  0.00     0.152 C 
BRANCH  12  13
HETATM   13  C1  UNL     1      -3.674  29.308   4.994  1.00  0.00     0.176 C 
HETATM   14  O1  UNL     1      -3.486  30.531   4.835  1.00  0.00    -0.648 OA
HETATM   15  O2  UNL     1      -4.218  28.576   3.950  1.00  0.00    -0.648 OA
ENDBRANCH  12  13
ENDBRANCH   1  12
BRANCH   7  16
HETATM   16  O5  UNL     1      -2.945  22.502   5.723  1.00  0.00    -0.356 OA
ATOM     17  H5  UNL     1      -3.498  21.781   5.445  1.00  0.00     0.218 HD
ENDBRANCH   7  16
BRANCH   8  18
HETATM   18  O6  UNL     1      -5.571  22.575   6.686  1.00  0.00    -0.358 OA
ATOM     19  H6  UNL     1      -6.412  22.430   6.268  1.00  0.00     0.217 HD
ENDBRANCH   8  18
TORSDOF 4
ENDMDL
