MODEL 6
REMARK VINA RESULT: -7.385115310      1.780      3.602
REMARK  5 active torsions:
REMARK  status: ('A' for Active; 'I' for Inactive)
REMARK       I    between atoms: C2_2  and  N1_4 
REMARK    1  A    between atoms: N1_4  and  C3_6 
REMARK    2  A    between atoms: C3_6  and  C4_7 
REMARK    3  A    between atoms: C4_7  and  C5_8 
REMARK    4  A    between atoms: C5_8  and  C6_9 
REMARK    5  A    between atoms: C6_9  and  N2_10 
ROOT
HETATM    1  N2  UNL     1      25.301  50.473  -0.375  1.00  0.00    -0.349 N 
HETATM    2  C7  UNL     1      26.223  50.569   0.605  1.00  0.00     0.030 A 
HETATM    3  C8  UNL     1      27.482  50.558   0.055  1.00  0.00     0.067 A 
HETATM    4  C9  UNL     1      27.307  50.450  -1.317  1.00  0.00     0.008 A 
HETATM    5  C10 UNL     1      28.252  50.396  -2.318  1.00  0.00     0.015 A 
HETATM    6  C11 UNL     1      27.841  50.288  -3.626  1.00  0.00     0.001 A 
HETATM    7  C12 UNL     1      26.485  50.238  -3.871  1.00  0.00     0.002 A 
HETATM    8  C13 UNL     1      25.550  50.291  -2.866  1.00  0.00     0.030 A 
HETATM    9  C14 UNL     1      25.970  50.402  -1.539  1.00  0.00     0.046 A 
HETATM   10  C15 UNL     1      28.653  50.649   0.922  1.00  0.00     0.254 C 
HETATM   11  O2  UNL     1      29.807  50.639   0.409  1.00  0.00    -0.268 OA
HETATM   12  N3  UNL     1      28.448  50.749   2.322  1.00  0.00    -0.356 N 
ATOM     13  H3  UNL     1      29.168  51.151   2.922  1.00  0.00     0.162 HD
HETATM   14  C16 UNL     1      27.218  50.277   2.879  1.00  0.00     0.129 C 
HETATM   15  C17 UNL     1      26.012  50.676   2.057  1.00  0.00     0.078 C 
ENDROOT
BRANCH   1  16
HETATM   16  C6  UNL     1      23.879  50.445  -0.284  1.00  0.00     0.129 C 
BRANCH  16  17
HETATM   17  C5  UNL     1      23.278  49.072  -0.412  1.00  0.00     0.022 C 
BRANCH  17  18
HETATM   18  C4  UNL     1      23.172  48.499   0.991  1.00  0.00     0.021 C 
BRANCH  18  19
HETATM   19  C3  UNL     1      24.109  47.324   1.084  1.00  0.00     0.122 C 
BRANCH  19  20
HETATM   20  N1  UNL     1      24.825  47.283   2.331  1.00  0.00    -0.361 N 
HETATM   21  C2  UNL     1      24.362  46.562   3.460  1.00  0.00     0.213 C 
HETATM   22  C1  UNL     1      25.112  46.526   4.750  1.00  0.00     0.117 C 
HETATM   23  O1  UNL     1      23.279  45.928   3.376  1.00  0.00    -0.274 OA
ATOM     24  H1  UNL     1      25.705  47.795   2.405  1.00  0.00     0.162 HD
ENDBRANCH  19  20
ENDBRANCH  18  19
ENDBRANCH  17  18
ENDBRANCH  16  17
ENDBRANCH   1  16
TORSDOF 5
ENDMDL
