MODEL 9
REMARK VINA RESULT: -7.197411219      1.114      3.409
REMARK  5 active torsions:
REMARK  status: ('A' for Active; 'I' for Inactive)
REMARK       I    between atoms: C2_2  and  N1_4 
REMARK    1  A    between atoms: N1_4  and  C3_6 
REMARK    2  A    between atoms: C3_6  and  C4_7 
REMARK    3  A    between atoms: C4_7  and  C5_8 
REMARK    4  A    between atoms: C5_8  and  C6_9 
REMARK    5  A    between atoms: C6_9  and  N2_10 
ROOT
HETATM    1  N2  UNL     1      25.173  50.350  -0.206  1.00  0.00    -0.349 N 
HETATM    2  C7  UNL     1      26.470  50.618   0.047  1.00  0.00     0.030 A 
HETATM    3  C8  UNL     1      27.119  50.905  -1.130  1.00  0.00     0.067 A 
HETATM    4  C9  UNL     1      26.168  50.804  -2.134  1.00  0.00     0.008 A 
HETATM    5  C10 UNL     1      26.305  50.994  -3.492  1.00  0.00     0.015 A 
HETATM    6  C11 UNL     1      25.208  50.838  -4.307  1.00  0.00     0.001 A 
HETATM    7  C12 UNL     1      24.011  50.495  -3.715  1.00  0.00     0.002 A 
HETATM    8  C13 UNL     1      23.885  50.307  -2.360  1.00  0.00     0.030 A 
HETATM    9  C14 UNL     1      24.999  50.466  -1.535  1.00  0.00     0.046 A 
HETATM   10  C15 UNL     1      28.543  51.227  -1.113  1.00  0.00     0.254 C 
HETATM   11  O2  UNL     1      29.133  51.491  -2.199  1.00  0.00    -0.268 OA
HETATM   12  N3  UNL     1      29.217  51.234   0.134  1.00  0.00    -0.356 N 
ATOM     13  H3  UNL     1      30.078  51.768   0.254  1.00  0.00     0.162 HD
HETATM   14  C16 UNL     1      28.672  50.482   1.223  1.00  0.00     0.129 C 
HETATM   15  C17 UNL     1      27.170  50.629   1.341  1.00  0.00     0.078 C 
ENDROOT
BRANCH   1  16
HETATM   16  C6  UNL     1      24.125  50.002   0.695  1.00  0.00     0.129 C 
BRANCH  16  17
HETATM   17  C5  UNL     1      23.935  48.522   0.881  1.00  0.00     0.022 C 
BRANCH  17  18
HETATM   18  C4  UNL     1      22.439  48.268   0.947  1.00  0.00     0.021 C 
BRANCH  18  19
HETATM   19  C3  UNL     1      22.210  47.079   1.842  1.00  0.00     0.122 C 
BRANCH  19  20
HETATM   20  N1  UNL     1      23.402  46.666   2.533  1.00  0.00    -0.361 N 
HETATM   21  C2  UNL     1      23.459  46.509   3.940  1.00  0.00     0.213 C 
HETATM   22  C1  UNL     1      24.701  46.080   4.649  1.00  0.00     0.117 C 
HETATM   23  O1  UNL     1      22.427  46.737   4.621  1.00  0.00    -0.274 OA
ATOM     24  H1  UNL     1      24.243  46.478   1.986  1.00  0.00     0.162 HD
ENDBRANCH  19  20
ENDBRANCH  18  19
ENDBRANCH  17  18
ENDBRANCH  16  17
ENDBRANCH   1  16
TORSDOF 5
ENDMDL
