MODEL 5
REMARK VINA RESULT: -7.396306044      1.756      3.541
REMARK  5 active torsions:
REMARK  status: ('A' for Active; 'I' for Inactive)
REMARK       I    between atoms: C2_2  and  N1_4 
REMARK    1  A    between atoms: N1_4  and  C3_6 
REMARK    2  A    between atoms: C3_6  and  C4_7 
REMARK    3  A    between atoms: C4_7  and  C5_8 
REMARK    4  A    between atoms: C5_8  and  C6_9 
REMARK    5  A    between atoms: C6_9  and  N2_10 
ROOT
HETATM    1  N2  UNL     1      25.299  50.525  -0.778  1.00  0.00    -0.349 N 
HETATM    2  C7  UNL     1      26.150  50.601   0.265  1.00  0.00     0.030 A 
HETATM    3  C8  UNL     1      27.445  50.545  -0.192  1.00  0.00     0.067 A 
HETATM    4  C9  UNL     1      27.367  50.431  -1.572  1.00  0.00     0.008 A 
HETATM    5  C10 UNL     1      28.380  50.339  -2.501  1.00  0.00     0.015 A 
HETATM    6  C11 UNL     1      28.061  50.232  -3.835  1.00  0.00     0.001 A 
HETATM    7  C12 UNL     1      26.725  50.222  -4.178  1.00  0.00     0.002 A 
HETATM    8  C13 UNL     1      25.723  50.313  -3.243  1.00  0.00     0.030 A 
HETATM    9  C14 UNL     1      26.049  50.422  -1.890  1.00  0.00     0.046 A 
HETATM   10  C15 UNL     1      28.552  50.607   0.758  1.00  0.00     0.254 C 
HETATM   11  O2  UNL     1      29.740  50.556   0.331  1.00  0.00    -0.268 OA
HETATM   12  N3  UNL     1      28.250  50.725   2.138  1.00  0.00    -0.356 N 
ATOM     13  H3  UNL     1      28.936  51.110   2.787  1.00  0.00     0.162 HD
HETATM   14  C16 UNL     1      26.968  50.297   2.608  1.00  0.00     0.129 C 
HETATM   15  C17 UNL     1      25.838  50.727   1.697  1.00  0.00     0.078 C 
ENDROOT
BRANCH   1  16
HETATM   16  C6  UNL     1      23.874  50.542  -0.791  1.00  0.00     0.129 C 
BRANCH  16  17
HETATM   17  C5  UNL     1      23.238  49.191  -0.613  1.00  0.00     0.022 C 
BRANCH  17  18
HETATM   18  C4  UNL     1      22.626  49.165   0.776  1.00  0.00     0.021 C 
BRANCH  18  19
HETATM   19  C3  UNL     1      22.160  47.760   1.052  1.00  0.00     0.122 C 
BRANCH  19  20
HETATM   20  N1  UNL     1      22.980  47.084   2.022  1.00  0.00    -0.361 N 
HETATM   21  C2  UNL     1      22.438  46.310   3.079  1.00  0.00     0.213 C 
HETATM   22  C1  UNL     1      23.297  45.612   4.081  1.00  0.00     0.117 C 
HETATM   23  O1  UNL     1      21.190  46.203   3.179  1.00  0.00    -0.274 OA
ATOM     24  H1  UNL     1      23.994  47.165   1.946  1.00  0.00     0.162 HD
ENDBRANCH  19  20
ENDBRANCH  18  19
ENDBRANCH  17  18
ENDBRANCH  16  17
ENDBRANCH   1  16
TORSDOF 5
ENDMDL
