MODEL 2
REMARK VINA RESULT: -7.661808076      2.110      3.061
REMARK  5 active torsions:
REMARK  status: ('A' for Active; 'I' for Inactive)
REMARK       I    between atoms: C2_2  and  N1_4 
REMARK    1  A    between atoms: N1_4  and  C3_6 
REMARK    2  A    between atoms: C3_6  and  C4_7 
REMARK    3  A    between atoms: C4_7  and  C5_8 
REMARK    4  A    between atoms: C5_8  and  C6_9 
REMARK    5  A    between atoms: C6_9  and  N2_10 
ROOT
HETATM    1  N2  UNL     1      25.230  51.096  -2.047  1.00  0.00    -0.349 N 
HETATM    2  C7  UNL     1      24.219  51.258  -2.925  1.00  0.00     0.030 A 
HETATM    3  C8  UNL     1      24.582  50.742  -4.146  1.00  0.00     0.067 A 
HETATM    4  C9  UNL     1      25.869  50.249  -3.994  1.00  0.00     0.008 A 
HETATM    5  C10 UNL     1      26.685  49.633  -4.917  1.00  0.00     0.015 A 
HETATM    6  C11 UNL     1      27.940  49.220  -4.535  1.00  0.00     0.001 A 
HETATM    7  C12 UNL     1      28.323  49.448  -3.230  1.00  0.00     0.002 A 
HETATM    8  C13 UNL     1      27.502  50.064  -2.317  1.00  0.00     0.030 A 
HETATM    9  C14 UNL     1      26.228  50.482  -2.707  1.00  0.00     0.046 A 
HETATM   10  C15 UNL     1      23.647  50.803  -5.266  1.00  0.00     0.254 C 
HETATM   11  O2  UNL     1      23.987  50.326  -6.385  1.00  0.00    -0.268 OA
HETATM   12  N3  UNL     1      22.378  51.400  -5.052  1.00  0.00    -0.356 N 
ATOM     13  H3  UNL     1      21.590  51.169  -5.656  1.00  0.00     0.162 HD
HETATM   14  C16 UNL     1      22.220  52.330  -3.977  1.00  0.00     0.129 C 
HETATM   15  C17 UNL     1      22.901  51.874  -2.704  1.00  0.00     0.078 C 
ENDROOT
BRANCH   1  16
HETATM   16  C6  UNL     1      25.311  51.473  -0.675  1.00  0.00     0.129 C 
BRANCH  16  17
HETATM   17  C5  UNL     1      25.046  50.350   0.290  1.00  0.00     0.022 C 
BRANCH  17  18
HETATM   18  C4  UNL     1      23.571  50.405   0.646  1.00  0.00     0.021 C 
BRANCH  18  19
HETATM   19  C3  UNL     1      22.939  49.111   0.205  1.00  0.00     0.122 C 
BRANCH  19  20
HETATM   20  N1  UNL     1      23.322  47.996   1.030  1.00  0.00    -0.361 N 
HETATM   21  C2  UNL     1      22.387  47.240   1.780  1.00  0.00     0.213 C 
HETATM   22  C1  UNL     1      22.794  46.085   2.635  1.00  0.00     0.117 C 
HETATM   23  O1  UNL     1      21.170  47.549   1.727  1.00  0.00    -0.274 OA
ATOM     24  H1  UNL     1      24.309  47.740   1.077  1.00  0.00     0.162 HD
ENDBRANCH  19  20
ENDBRANCH  18  19
ENDBRANCH  17  18
ENDBRANCH  16  17
ENDBRANCH   1  16
TORSDOF 5
ENDMDL
