MODEL 4
REMARK VINA RESULT: -7.405457749      2.440      3.445
REMARK  5 active torsions:
REMARK  status: ('A' for Active; 'I' for Inactive)
REMARK       I    between atoms: C2_2  and  N1_4 
REMARK    1  A    between atoms: N1_4  and  C3_6 
REMARK    2  A    between atoms: C3_6  and  C4_7 
REMARK    3  A    between atoms: C4_7  and  C5_8 
REMARK    4  A    between atoms: C5_8  and  C6_9 
REMARK    5  A    between atoms: C6_9  and  N2_10 
ROOT
HETATM    1  N2  UNL     1      25.107  51.252  -3.106  1.00  0.00    -0.349 N 
HETATM    2  C7  UNL     1      24.395  51.071  -4.237  1.00  0.00     0.030 A 
HETATM    3  C8  UNL     1      25.094  50.256  -5.096  1.00  0.00     0.067 A 
HETATM    4  C9  UNL     1      26.278  49.934  -4.450  1.00  0.00     0.008 A 
HETATM    5  C10 UNL     1      27.323  49.146  -4.881  1.00  0.00     0.015 A 
HETATM    6  C11 UNL     1      28.412  48.965  -4.059  1.00  0.00     0.001 A 
HETATM    7  C12 UNL     1      28.400  49.590  -2.830  1.00  0.00     0.002 A 
HETATM    8  C13 UNL     1      27.353  50.374  -2.410  1.00  0.00     0.030 A 
HETATM    9  C14 UNL     1      26.250  50.557  -3.246  1.00  0.00     0.046 A 
HETATM   10  C15 UNL     1      24.524  49.915  -6.396  1.00  0.00     0.254 C 
HETATM   11  O2  UNL     1      25.172  49.165  -7.180  1.00  0.00    -0.268 OA
HETATM   12  N3  UNL     1      23.252  50.442  -6.733  1.00  0.00    -0.356 N 
ATOM     13  H3  UNL     1      22.671  49.984  -7.435  1.00  0.00     0.162 HD
HETATM   14  C16 UNL     1      22.794  51.627  -6.075  1.00  0.00     0.129 C 
HETATM   15  C17 UNL     1      23.074  51.615  -4.588  1.00  0.00     0.078 C 
ENDROOT
BRANCH   1  16
HETATM   16  C6  UNL     1      24.789  52.014  -1.944  1.00  0.00     0.129 C 
BRANCH  16  17
HETATM   17  C5  UNL     1      24.416  51.185  -0.746  1.00  0.00     0.022 C 
BRANCH  17  18
HETATM   18  C4  UNL     1      23.172  50.398  -1.116  1.00  0.00     0.021 C 
BRANCH  18  19
HETATM   19  C3  UNL     1      22.428  50.080   0.154  1.00  0.00     0.122 C 
BRANCH  19  20
HETATM   20  N1  UNL     1      22.990  48.961   0.862  1.00  0.00    -0.361 N 
HETATM   21  C2  UNL     1      22.226  47.827   1.236  1.00  0.00     0.213 C 
HETATM   22  C1  UNL     1      22.818  46.670   1.971  1.00  0.00     0.117 C 
HETATM   23  O1  UNL     1      21.005  47.790   0.939  1.00  0.00    -0.274 OA
ATOM     24  H1  UNL     1      23.981  48.985   1.104  1.00  0.00     0.162 HD
ENDBRANCH  19  20
ENDBRANCH  18  19
ENDBRANCH  17  18
ENDBRANCH  16  17
ENDBRANCH   1  16
TORSDOF 5
ENDMDL
