MODEL 3
REMARK VINA RESULT: -7.277304993      3.564      5.062
REMARK  10 active torsions:
REMARK  status: ('A' for Active; 'I' for Inactive)
REMARK    1  A    between atoms: O1_2  and  C2_3 
REMARK    2  A    between atoms: C5_6  and  C6_7 
REMARK    3  A    between atoms: C6_7  and  C7_8 
REMARK    4  A    between atoms: C7_8  and  N1_9 
REMARK    5  A    between atoms: C7_8  and  C8_13 
REMARK       I    between atoms: C8_13  and  N2_15 
REMARK    6  A    between atoms: N2_15  and  C9_17 
REMARK    7  A    between atoms: C10_18  and  C11_19 
REMARK    8  A    between atoms: C11_19  and  O3_20 
REMARK    9  A    between atoms: C12_23  and  N3_24 
REMARK   10  A    between atoms: C18_37  and  O5_38 
ROOT
HETATM    1  C9  UNL     1      -7.019  13.619   8.256  1.00  0.00     0.148 C 
HETATM    2  C10 UNL     1      -5.949  13.504   7.182  1.00  0.00     0.173 C 
HETATM    3  O4  UNL     1      -4.795  13.414   7.956  1.00  0.00    -0.354 OA
HETATM    4  C12 UNL     1      -5.101  12.394   8.835  1.00  0.00     0.261 C 
HETATM    5  C18 UNL     1      -6.538  12.616   9.273  1.00  0.00     0.192 C 
ENDROOT
BRANCH   1   6
HETATM    6  N2  UNL     1      -8.275  13.229   7.645  1.00  0.00    -0.349 N 
HETATM    7  C8  UNL     1      -9.426  14.004   7.843  1.00  0.00     0.249 C 
HETATM    8  O2  UNL     1      -9.312  15.047   8.573  1.00  0.00    -0.271 OA
ATOM      9  H2  UNL     1      -8.321  12.388   7.069  1.00  0.00     0.163 HD
BRANCH   7  10
HETATM   10  C7  UNL     1     -10.756  13.690   7.261  1.00  0.00     0.278 C 
BRANCH  10  11
HETATM   11  C6  UNL     1     -11.596  14.965   7.360  1.00  0.00     0.081 C 
BRANCH  11  12
HETATM   12  C5  UNL     1     -11.503  15.723   6.097  1.00  0.00    -0.056 A 
HETATM   13  C4  UNL     1     -10.370  16.462   5.753  1.00  0.00     0.010 A 
HETATM   14  C3  UNL     1     -10.314  17.155   4.571  1.00  0.00     0.037 A 
HETATM   15  C2  UNL     1     -11.362  17.156   3.679  1.00  0.00     0.068 A 
HETATM   16  C20 UNL     1     -12.490  16.421   4.021  1.00  0.00     0.037 A 
HETATM   17  C19 UNL     1     -12.561  15.713   5.214  1.00  0.00     0.010 A 
BRANCH  15  18
HETATM   18  O1  UNL     1     -11.310  17.857   2.482  1.00  0.00    -0.356 OA
HETATM   19  C1  UNL     1     -10.489  18.993   2.410  1.00  0.00     0.210 C 
ENDBRANCH  15  18
ENDBRANCH  11  12
ENDBRANCH  10  11
BRANCH  10  20
HETATM   20  N1  UNL     1     -11.393  12.636   7.988  1.00  0.00    -0.066 N 
ATOM     21  H13 UNL     1     -11.553  12.884   8.963  1.00  0.00     0.275 HD
ATOM     22  H12 UNL     1     -12.365  12.509   7.706  1.00  0.00     0.275 HD
ATOM     23  H11 UNL     1     -10.851  11.777   7.893  1.00  0.00     0.275 HD
ENDBRANCH  10  20
ENDBRANCH   7  10
ENDBRANCH   1   6
BRANCH   2  24
HETATM   24  C11 UNL     1      -5.930  14.724   6.288  1.00  0.00     0.198 C 
BRANCH  24  25
HETATM   25  O3  UNL     1      -6.724  15.727   6.840  1.00  0.00    -0.398 OA
ATOM     26  H3  UNL     1      -6.403  16.578   6.566  1.00  0.00     0.209 HD
ENDBRANCH  24  25
ENDBRANCH   2  24
BRANCH   5  27
HETATM   27  O5  UNL     1      -7.280  11.425   9.210  1.00  0.00    -0.389 OA
ATOM     28  H5  UNL     1      -6.925  10.762   9.791  1.00  0.00     0.210 HD
ENDBRANCH   5  27
BRANCH   4  29
HETATM   29  N3  UNL     1      -4.207  12.350   9.967  1.00  0.00    -0.297 N 
HETATM   30  C13 UNL     1      -3.778  13.332  10.778  1.00  0.00     0.188 A 
HETATM   31  N4  UNL     1      -2.947  12.819  11.704  1.00  0.00    -0.346 N 
HETATM   32  C14 UNL     1      -2.829  11.496  11.504  1.00  0.00     0.119 A 
ATOM     33  H4  UNL     1      -2.482  13.350  12.441  1.00  0.00     0.167 HD
HETATM   34  C15 UNL     1      -2.108  10.530  12.171  1.00  0.00     0.148 A 
HETATM   35  C17 UNL     1      -3.628  11.220  10.409  1.00  0.00     0.142 A 
HETATM   36  N5  UNL     1      -1.283  10.784  13.293  1.00  0.00    -0.080 NA
HETATM   37  N6  UNL     1      -2.205   9.271  11.713  1.00  0.00    -0.339 N 
HETATM   38  C16 UNL     1      -2.992   8.991  10.632  1.00  0.00     0.183 A 
ATOM     39  H6  UNL     1      -1.689   8.521  12.174  1.00  0.00     0.167 HD
HETATM   40  N7  UNL     1      -3.688   9.940   9.992  1.00  0.00    -0.336 N 
ATOM     41  H7  UNL     1      -4.265   9.693   9.188  1.00  0.00     0.168 HD
ENDBRANCH   4  29
TORSDOF 10
ENDMDL
