MODEL 2
REMARK VINA RESULT: -7.309332351      4.297     11.735
REMARK  10 active torsions:
REMARK  status: ('A' for Active; 'I' for Inactive)
REMARK    1  A    between atoms: O1_2  and  C2_3 
REMARK    2  A    between atoms: C5_6  and  C6_7 
REMARK    3  A    between atoms: C6_7  and  C7_8 
REMARK    4  A    between atoms: C7_8  and  N1_9 
REMARK    5  A    between atoms: C7_8  and  C8_13 
REMARK       I    between atoms: C8_13  and  N2_15 
REMARK    6  A    between atoms: N2_15  and  C9_17 
REMARK    7  A    between atoms: C10_18  and  C11_19 
REMARK    8  A    between atoms: C11_19  and  O3_20 
REMARK    9  A    between atoms: C12_23  and  N3_24 
REMARK   10  A    between atoms: C18_37  and  O5_38 
ROOT
HETATM    1  C9  UNL     1      -7.462  15.472   6.348  1.00  0.00     0.148 C 
HETATM    2  C10 UNL     1      -6.788  16.819   6.141  1.00  0.00     0.173 C 
HETATM    3  O4  UNL     1      -7.636  17.408   5.206  1.00  0.00    -0.354 OA
HETATM    4  C12 UNL     1      -8.878  17.261   5.792  1.00  0.00     0.261 C 
HETATM    5  C18 UNL     1      -8.917  15.861   6.380  1.00  0.00     0.192 C 
ENDROOT
BRANCH   1   6
HETATM    6  N2  UNL     1      -6.998  14.958   7.622  1.00  0.00    -0.349 N 
HETATM    7  C8  UNL     1      -6.615  13.614   7.742  1.00  0.00     0.249 C 
HETATM    8  O2  UNL     1      -6.695  12.886   6.695  1.00  0.00    -0.271 OA
ATOM      9  H2  UNL     1      -6.950  15.574   8.432  1.00  0.00     0.163 HD
BRANCH   7  10
HETATM   10  C7  UNL     1      -6.127  12.993   8.999  1.00  0.00     0.278 C 
BRANCH  10  11
HETATM   11  C6  UNL     1      -5.033  11.997   8.608  1.00  0.00     0.081 C 
BRANCH  11  12
HETATM   12  C5  UNL     1      -4.126  11.777   9.751  1.00  0.00    -0.056 A 
HETATM   13  C4  UNL     1      -3.427  10.583   9.927  1.00  0.00     0.010 A 
HETATM   14  C3  UNL     1      -2.590  10.408  11.001  1.00  0.00     0.037 A 
HETATM   15  C2  UNL     1      -2.405  11.394  11.944  1.00  0.00     0.068 A 
HETATM   16  C20 UNL     1      -3.102  12.582  11.769  1.00  0.00     0.037 A 
HETATM   17  C19 UNL     1      -3.951  12.773  10.686  1.00  0.00     0.010 A 
BRANCH  15  18
HETATM   18  O1  UNL     1      -1.560  11.222  13.032  1.00  0.00    -0.356 OA
HETATM   19  C1  UNL     1      -1.506   9.958  13.641  1.00  0.00     0.210 C 
ENDBRANCH  15  18
ENDBRANCH  11  12
ENDBRANCH  10  11
BRANCH  10  20
HETATM   20  N1  UNL     1      -7.185  12.307   9.673  1.00  0.00    -0.066 N 
ATOM     21  H13 UNL     1      -7.873  11.928   9.022  1.00  0.00     0.275 HD
ATOM     22  H12 UNL     1      -6.872  11.428  10.085  1.00  0.00     0.275 HD
ATOM     23  H11 UNL     1      -7.611  12.925  10.364  1.00  0.00     0.275 HD
ENDBRANCH  10  20
ENDBRANCH   7  10
ENDBRANCH   1   6
BRANCH   2  24
HETATM   24  C11 UNL     1      -5.384  16.659   5.602  1.00  0.00     0.198 C 
BRANCH  24  25
HETATM   25  O3  UNL     1      -5.149  15.322   5.287  1.00  0.00    -0.398 OA
ATOM     26  H3  UNL     1      -5.123  15.214   4.343  1.00  0.00     0.209 HD
ENDBRANCH  24  25
ENDBRANCH   2  24
BRANCH   5  27
HETATM   27  O5  UNL     1      -9.416  15.874   7.694  1.00  0.00    -0.389 OA
ATOM     28  H5  UNL     1     -10.043  16.576   7.821  1.00  0.00     0.210 HD
ENDBRANCH   5  27
BRANCH   4  29
HETATM   29  N3  UNL     1      -9.959  17.471   4.860  1.00  0.00    -0.297 N 
HETATM   30  C13 UNL     1     -11.120  16.810   4.707  1.00  0.00     0.188 A 
HETATM   31  N4  UNL     1     -11.822  17.364   3.702  1.00  0.00    -0.346 N 
HETATM   32  C14 UNL     1     -11.124  18.392   3.191  1.00  0.00     0.119 A 
ATOM     33  H4  UNL     1     -12.739  17.053   3.379  1.00  0.00     0.167 HD
HETATM   34  C15 UNL     1     -11.403  19.268   2.165  1.00  0.00     0.148 A 
HETATM   35  C17 UNL     1      -9.956  18.444   3.932  1.00  0.00     0.142 A 
HETATM   36  N5  UNL     1     -12.589  19.238   1.392  1.00  0.00    -0.080 NA
HETATM   37  N6  UNL     1     -10.479  20.205   1.895  1.00  0.00    -0.339 N 
HETATM   38  C16 UNL     1      -9.324  20.262   2.622  1.00  0.00     0.183 A 
ATOM     39  H6  UNL     1     -10.641  20.877   1.144  1.00  0.00     0.167 HD
HETATM   40  N7  UNL     1      -9.065  19.403   3.617  1.00  0.00    -0.336 N 
ATOM     41  H7  UNL     1      -8.191  19.477   4.138  1.00  0.00     0.168 HD
ENDBRANCH   4  29
TORSDOF 10
ENDMDL
