MODEL 1
REMARK VINA RESULT: -7.534244959      0.000      0.000
REMARK  10 active torsions:
REMARK  status: ('A' for Active; 'I' for Inactive)
REMARK    1  A    between atoms: O1_2  and  C2_3 
REMARK    2  A    between atoms: C5_6  and  C6_7 
REMARK    3  A    between atoms: C6_7  and  C7_8 
REMARK    4  A    between atoms: C7_8  and  N1_9 
REMARK    5  A    between atoms: C7_8  and  C8_13 
REMARK       I    between atoms: C8_13  and  N2_15 
REMARK    6  A    between atoms: N2_15  and  C9_17 
REMARK    7  A    between atoms: C10_18  and  C11_19 
REMARK    8  A    between atoms: C11_19  and  O3_20 
REMARK    9  A    between atoms: C12_23  and  N3_24 
REMARK   10  A    between atoms: C18_37  and  O5_38 
ROOT
HETATM    1  C9  UNL     1      -5.039  11.318   9.780  1.00  0.00     0.148 C 
HETATM    2  C10 UNL     1      -5.780  11.139  11.096  1.00  0.00     0.173 C 
HETATM    3  O4  UNL     1      -5.161   9.998  11.602  1.00  0.00    -0.354 OA
HETATM    4  C12 UNL     1      -3.821  10.322  11.522  1.00  0.00     0.261 C 
HETATM    5  C18 UNL     1      -3.621  11.010  10.183  1.00  0.00     0.192 C 
ENDROOT
BRANCH   1   6
HETATM    6  N2  UNL     1      -5.214  12.702   9.382  1.00  0.00    -0.349 N 
HETATM    7  C8  UNL     1      -5.928  13.016   8.217  1.00  0.00     0.249 C 
HETATM    8  O2  UNL     1      -6.405  12.041   7.542  1.00  0.00    -0.271 OA
ATOM      9  H2  UNL     1      -4.816  13.449   9.951  1.00  0.00     0.163 HD
BRANCH   7  10
HETATM   10  C7  UNL     1      -6.162  14.397   7.726  1.00  0.00     0.278 C 
BRANCH  10  11
HETATM   11  C6  UNL     1      -5.887  14.386   6.221  1.00  0.00     0.081 C 
BRANCH  11  12
HETATM   12  C5  UNL     1      -5.762  15.772   5.726  1.00  0.00    -0.056 A 
HETATM   13  C4  UNL     1      -4.618  16.229   5.073  1.00  0.00     0.010 A 
HETATM   14  C3  UNL     1      -4.533  17.523   4.625  1.00  0.00     0.037 A 
HETATM   15  C2  UNL     1      -5.562  18.420   4.797  1.00  0.00     0.068 A 
HETATM   16  C20 UNL     1      -6.701  17.965   5.448  1.00  0.00     0.037 A 
HETATM   17  C19 UNL     1      -6.802  16.657   5.907  1.00  0.00     0.010 A 
BRANCH  15  18
HETATM   18  O1  UNL     1      -5.481  19.730   4.346  1.00  0.00    -0.356 OA
HETATM   19  C1  UNL     1      -4.228  20.222   3.948  1.00  0.00     0.210 C 
ENDBRANCH  15  18
ENDBRANCH  11  12
ENDBRANCH  10  11
BRANCH  10  20
HETATM   20  N1  UNL     1      -5.283  15.323   8.370  1.00  0.00    -0.066 N 
ATOM     21  H13 UNL     1      -4.611  15.730   7.721  1.00  0.00     0.275 HD
ATOM     22  H12 UNL     1      -5.762  16.181   8.643  1.00  0.00     0.275 HD
ATOM     23  H11 UNL     1      -4.826  14.869   9.162  1.00  0.00     0.275 HD
ENDBRANCH  10  20
ENDBRANCH   7  10
ENDBRANCH   1   6
BRANCH   2  24
HETATM   24  C11 UNL     1      -7.260  10.922  10.873  1.00  0.00     0.198 C 
BRANCH  24  25
HETATM   25  O3  UNL     1      -7.469  10.333   9.628  1.00  0.00    -0.398 OA
ATOM     26  H3  UNL     1      -7.843   9.467   9.741  1.00  0.00     0.209 HD
ENDBRANCH  24  25
ENDBRANCH   2  24
BRANCH   5  27
HETATM   27  O5  UNL     1      -2.860  12.184  10.323  1.00  0.00    -0.389 OA
ATOM     28  H5  UNL     1      -2.044  12.129   9.839  1.00  0.00     0.210 HD
ENDBRANCH   5  27
BRANCH   4  29
HETATM   29  N3  UNL     1      -2.964   9.169  11.654  1.00  0.00    -0.297 N 
HETATM   30  C13 UNL     1      -2.283   8.477  10.725  1.00  0.00     0.188 A 
HETATM   31  N4  UNL     1      -1.612   7.470  11.315  1.00  0.00    -0.346 N 
HETATM   32  C14 UNL     1      -1.851   7.499  12.637  1.00  0.00     0.119 A 
ATOM     33  H4  UNL     1      -1.018   6.794  10.836  1.00  0.00     0.167 HD
HETATM   34  C15 UNL     1      -1.408   6.696  13.664  1.00  0.00     0.148 A 
HETATM   35  C17 UNL     1      -2.702   8.573  12.831  1.00  0.00     0.142 A 
HETATM   36  N5  UNL     1      -0.537   5.592  13.495  1.00  0.00    -0.080 NA
HETATM   37  N6  UNL     1      -1.838   6.995  14.902  1.00  0.00    -0.339 N 
HETATM   38  C16 UNL     1      -2.678   8.054  15.101  1.00  0.00     0.183 A 
ATOM     39  H6  UNL     1      -1.536   6.430  15.695  1.00  0.00     0.167 HD
HETATM   40  N7  UNL     1      -3.102   8.826  14.092  1.00  0.00    -0.336 N 
ATOM     41  H7  UNL     1      -3.730   9.609  14.279  1.00  0.00     0.168 HD
ENDBRANCH   4  29
TORSDOF 10
ENDMDL
