MODEL 12
REMARK VINA RESULT: -7.762546687      2.050      6.741
REMARK  8 active torsions:
REMARK  status: ('A' for Active; 'I' for Inactive)
REMARK    1  A    between atoms: S1_2  and  C1_4 
REMARK    2  A    between atoms: S1_2  and  C7_10 
REMARK    3  A    between atoms: C9_12  and  N1_13 
REMARK    4  A    between atoms: N1_13  and  C10_15 
REMARK    5  A    between atoms: C12_17  and  C13_18 
REMARK    6  A    between atoms: C19_30  and  N5_31 
REMARK    7  A    between atoms: N5_31  and  C20_33 
REMARK    8  A    between atoms: C23_36  and  O3_37 
ROOT
HETATM    1  C7  UNL     1       4.266  24.491  19.302  1.00  0.00     0.071 A 
HETATM    2  C8  UNL     1       3.854  24.312  20.623  1.00  0.00     0.072 A 
HETATM    3  C9  UNL     1       2.595  23.846  20.910  1.00  0.00     0.109 A 
HETATM    4  N4  UNL     1       1.769  23.565  19.878  1.00  0.00    -0.329 N 
ATOM      5  H4  UNL     1       0.835  23.219  20.098  1.00  0.00     0.169 HD
HETATM    6  C19 UNL     1       2.093  23.710  18.592  1.00  0.00     0.104 A 
HETATM    7  C26 UNL     1       3.366  24.182  18.315  1.00  0.00     0.072 A 
ENDROOT
BRANCH   3   8
HETATM    8  N1  UNL     1       2.154  23.658  22.231  1.00  0.00    -0.327 N 
ATOM      9  H1  UNL     1       2.820  23.864  22.976  1.00  0.00     0.169 HD
BRANCH   8  10
HETATM   10  C10 UNL     1       0.869  23.208  22.623  1.00  0.00     0.123 A 
HETATM   11  C11 UNL     1      -0.230  23.181  21.755  1.00  0.00     0.081 A 
HETATM   12  C12 UNL     1      -1.325  22.699  22.422  1.00  0.00     0.062 A 
HETATM   13  N2  UNL     1      -0.900  22.437  23.675  1.00  0.00    -0.298 N 
HETATM   14  N3  UNL     1       0.383  22.740  23.772  1.00  0.00    -0.285 N 
ATOM     15  H2  UNL     1      -1.476  22.063  24.428  1.00  0.00     0.187 HD
ATOM     16  H3  UNL     1       0.933  22.630  24.623  1.00  0.00     0.188 HD
BRANCH  12  17
HETATM   17  C13 UNL     1      -2.684  22.492  21.935  1.00  0.00    -0.008 A 
HETATM   18  C14 UNL     1      -3.337  21.313  22.200  1.00  0.00     0.014 A 
HETATM   19  C15 UNL     1      -4.639  21.078  21.748  1.00  0.00     0.001 A 
HETATM   20  C16 UNL     1      -5.267  22.060  21.024  1.00  0.00     0.000 A 
HETATM   21  C17 UNL     1      -4.637  23.231  20.752  1.00  0.00     0.001 A 
HETATM   22  C18 UNL     1      -3.340  23.456  21.206  1.00  0.00     0.014 A 
ENDBRANCH  12  17
ENDBRANCH   8  10
ENDBRANCH   3   8
BRANCH   1  23
HETATM   23  S1  UNL     1       5.859  25.081  18.940  1.00  0.00     0.207 S 
HETATM   24  O1  UNL     1       6.870  23.973  19.043  1.00  0.00    -0.217 OA
HETATM   25  O2  UNL     1       5.925  25.580  17.509  1.00  0.00    -0.217 OA
BRANCH  23  26
HETATM   26  C1  UNL     1       6.341  26.395  19.964  1.00  0.00     0.064 A 
HETATM   27  C2  UNL     1       7.507  26.325  20.698  1.00  0.00     0.024 A 
HETATM   28  C3  UNL     1       7.910  27.372  21.527  1.00  0.00     0.002 A 
HETATM   29  C4  UNL     1       7.150  28.510  21.635  1.00  0.00     0.000 A 
HETATM   30  C5  UNL     1       5.984  28.581  20.901  1.00  0.00     0.002 A 
HETATM   31  C6  UNL     1       5.588  27.541  20.083  1.00  0.00     0.024 A 
ENDBRANCH  23  26
ENDBRANCH   1  23
BRANCH   6  32
HETATM   32  N5  UNL     1       1.187  23.400  17.538  1.00  0.00    -0.372 N 
ATOM     33  H5  UNL     1       0.893  24.144  16.904  1.00  0.00     0.161 HD
BRANCH  32  34
HETATM   34  C20 UNL     1       0.668  22.062  17.337  1.00  0.00     0.083 C 
HETATM   35  C21 UNL     1      -0.707  21.990  17.869  1.00  0.00     0.028 C 
HETATM   36  C22 UNL     1      -1.804  21.903  16.863  1.00  0.00     0.034 C 
HETATM   37  C23 UNL     1      -1.470  20.684  15.992  1.00  0.00     0.118 C 
HETATM   38  C24 UNL     1      -0.263  21.063  15.197  1.00  0.00     0.034 C 
HETATM   39  C25 UNL     1       0.883  21.590  15.951  1.00  0.00     0.028 C 
BRANCH  37  40
HETATM   40  O3  UNL     1      -1.299  19.598  16.813  1.00  0.00    -0.396 OA
ATOM     41  H3  UNL     1      -0.828  18.929  16.331  1.00  0.00     0.210 HD
ENDBRANCH  37  40
ENDBRANCH  32  34
ENDBRANCH   6  32
TORSDOF 8
ENDMDL
