MODEL 2
REMARK VINA RESULT: -8.129626930      0.057      1.130
REMARK  8 active torsions:
REMARK  status: ('A' for Active; 'I' for Inactive)
REMARK    1  A    between atoms: S1_2  and  C1_4 
REMARK    2  A    between atoms: S1_2  and  C7_10 
REMARK    3  A    between atoms: C9_12  and  N1_13 
REMARK    4  A    between atoms: N1_13  and  C10_15 
REMARK    5  A    between atoms: C12_17  and  C13_18 
REMARK    6  A    between atoms: C19_30  and  N5_31 
REMARK    7  A    between atoms: N5_31  and  C20_33 
REMARK    8  A    between atoms: C23_36  and  O3_37 
ROOT
HETATM    1  C7  UNL     1       2.250  23.543  18.463  1.00  0.00     0.071 A 
HETATM    2  C8  UNL     1       1.812  23.333  19.772  1.00  0.00     0.072 A 
HETATM    3  C9  UNL     1       2.565  23.751  20.840  1.00  0.00     0.109 A 
HETATM    4  N4  UNL     1       3.740  24.371  20.589  1.00  0.00    -0.329 N 
ATOM      5  H4  UNL     1       4.295  24.679  21.388  1.00  0.00     0.169 HD
HETATM    6  C19 UNL     1       4.222  24.606  19.368  1.00  0.00     0.104 A 
HETATM    7  C26 UNL     1       3.453  24.179  18.297  1.00  0.00     0.072 A 
ENDROOT
BRANCH   3   8
HETATM    8  N1  UNL     1       2.149  23.552  22.168  1.00  0.00    -0.327 N 
ATOM      9  H1  UNL     1       2.841  23.714  22.900  1.00  0.00     0.169 HD
BRANCH   8  10
HETATM   10  C10 UNL     1       0.856  23.147  22.582  1.00  0.00     0.123 A 
HETATM   11  C11 UNL     1      -0.253  23.133  21.727  1.00  0.00     0.081 A 
HETATM   12  C12 UNL     1      -1.354  22.696  22.415  1.00  0.00     0.062 A 
HETATM   13  N2  UNL     1      -0.922  22.446  23.668  1.00  0.00    -0.298 N 
HETATM   14  N3  UNL     1       0.370  22.715  23.745  1.00  0.00    -0.285 N 
ATOM     15  H2  UNL     1      -1.500  22.104  24.435  1.00  0.00     0.187 HD
ATOM     16  H3  UNL     1       0.927  22.606  24.592  1.00  0.00     0.188 HD
BRANCH  12  17
HETATM   17  C13 UNL     1      -2.723  22.518  21.946  1.00  0.00    -0.008 A 
HETATM   18  C14 UNL     1      -3.436  23.594  21.481  1.00  0.00     0.014 A 
HETATM   19  C15 UNL     1      -4.751  23.462  21.024  1.00  0.00     0.001 A 
HETATM   20  C16 UNL     1      -5.329  22.218  21.048  1.00  0.00     0.000 A 
HETATM   21  C17 UNL     1      -4.640  21.142  21.506  1.00  0.00     0.001 A 
HETATM   22  C18 UNL     1      -3.330  21.284  21.958  1.00  0.00     0.014 A 
ENDBRANCH  12  17
ENDBRANCH   8  10
ENDBRANCH   3   8
BRANCH   1  23
HETATM   23  S1  UNL     1       1.296  23.014  17.112  1.00  0.00     0.207 S 
HETATM   24  O1  UNL     1       1.324  24.037  16.012  1.00  0.00    -0.217 OA
HETATM   25  O2  UNL     1       1.877  21.744  16.521  1.00  0.00    -0.217 OA
BRANCH  23  26
HETATM   26  C1  UNL     1      -0.351  22.675  17.539  1.00  0.00     0.064 A 
HETATM   27  C2  UNL     1      -1.293  23.681  17.566  1.00  0.00     0.024 A 
HETATM   28  C3  UNL     1      -2.621  23.426  17.908  1.00  0.00     0.002 A 
HETATM   29  C4  UNL     1      -3.029  22.155  18.228  1.00  0.00     0.000 A 
HETATM   30  C5  UNL     1      -2.087  21.147  18.200  1.00  0.00     0.002 A 
HETATM   31  C6  UNL     1      -0.773  21.405  17.863  1.00  0.00     0.024 A 
ENDBRANCH  23  26
ENDBRANCH   1  23
BRANCH   6  32
HETATM   32  N5  UNL     1       5.467  25.263  19.153  1.00  0.00    -0.372 N 
ATOM     33  H5  UNL     1       5.528  25.981  18.430  1.00  0.00     0.161 HD
BRANCH  32  34
HETATM   34  C20 UNL     1       6.650  24.946  19.928  1.00  0.00     0.083 C 
HETATM   35  C21 UNL     1       7.657  24.328  19.044  1.00  0.00     0.028 C 
HETATM   36  C22 UNL     1       8.849  25.161  18.712  1.00  0.00     0.034 C 
HETATM   37  C23 UNL     1       9.455  25.571  20.061  1.00  0.00     0.118 C 
HETATM   38  C24 UNL     1       8.487  26.530  20.675  1.00  0.00     0.034 C 
HETATM   39  C25 UNL     1       7.087  26.091  20.758  1.00  0.00     0.028 C 
BRANCH  37  40
HETATM   40  O3  UNL     1       9.682  24.436  20.797  1.00  0.00    -0.396 OA
ATOM     41  H3  UNL     1       9.253  24.533  21.639  1.00  0.00     0.210 HD
ENDBRANCH  37  40
ENDBRANCH  32  34
ENDBRANCH   6  32
TORSDOF 8
ENDMDL
