MODEL 3
REMARK VINA RESULT: -8.092370950      2.378      2.818
REMARK  8 active torsions:
REMARK  status: ('A' for Active; 'I' for Inactive)
REMARK    1  A    between atoms: S1_2  and  C1_4 
REMARK    2  A    between atoms: S1_2  and  C7_10 
REMARK    3  A    between atoms: C9_12  and  N1_13 
REMARK    4  A    between atoms: N1_13  and  C10_15 
REMARK    5  A    between atoms: C12_17  and  C13_18 
REMARK    6  A    between atoms: C19_30  and  N5_31 
REMARK    7  A    between atoms: N5_31  and  C20_33 
REMARK    8  A    between atoms: C23_36  and  O3_37 
ROOT
HETATM    1  C7  UNL     1       2.086  26.359  20.104  1.00  0.00     0.071 A 
HETATM    2  C8  UNL     1       1.686  25.345  20.976  1.00  0.00     0.072 A 
HETATM    3  C9  UNL     1       2.533  24.313  21.289  1.00  0.00     0.109 A 
HETATM    4  N4  UNL     1       3.764  24.305  20.732  1.00  0.00    -0.329 N 
ATOM      5  H4  UNL     1       4.389  23.535  20.968  1.00  0.00     0.169 HD
HETATM    6  C19 UNL     1       4.215  25.238  19.891  1.00  0.00     0.104 A 
HETATM    7  C26 UNL     1       3.351  26.275  19.582  1.00  0.00     0.072 A 
ENDROOT
BRANCH   3   8
HETATM    8  N1  UNL     1       2.155  23.279  22.164  1.00  0.00    -0.327 N 
ATOM      9  H1  UNL     1       2.900  22.684  22.528  1.00  0.00     0.169 HD
BRANCH   8  10
HETATM   10  C10 UNL     1       0.834  22.987  22.585  1.00  0.00     0.123 A 
HETATM   11  C11 UNL     1      -0.252  22.913  21.703  1.00  0.00     0.081 A 
HETATM   12  C12 UNL     1      -1.390  22.616  22.406  1.00  0.00     0.062 A 
HETATM   13  N2  UNL     1      -1.003  22.511  23.693  1.00  0.00    -0.298 N 
HETATM   14  N3  UNL     1       0.297  22.730  23.777  1.00  0.00    -0.285 N 
ATOM     15  H2  UNL     1      -1.617  22.296  24.479  1.00  0.00     0.187 HD
ATOM     16  H3  UNL     1       0.826  22.707  24.648  1.00  0.00     0.188 HD
BRANCH  12  17
HETATM   17  C13 UNL     1      -2.753  22.439  21.920  1.00  0.00    -0.008 A 
HETATM   18  C14 UNL     1      -3.422  21.265  22.163  1.00  0.00     0.014 A 
HETATM   19  C15 UNL     1      -4.730  21.059  21.712  1.00  0.00     0.001 A 
HETATM   20  C16 UNL     1      -5.347  22.065  21.012  1.00  0.00     0.000 A 
HETATM   21  C17 UNL     1      -4.700  23.232  20.761  1.00  0.00     0.001 A 
HETATM   22  C18 UNL     1      -3.398  23.428  21.214  1.00  0.00     0.014 A 
ENDBRANCH  12  17
ENDBRANCH   8  10
ENDBRANCH   3   8
BRANCH   1  23
HETATM   23  S1  UNL     1       1.014  27.665  19.708  1.00  0.00     0.207 S 
HETATM   24  O1  UNL     1       0.980  28.678  20.818  1.00  0.00    -0.217 OA
HETATM   25  O2  UNL     1       1.511  28.403  18.480  1.00  0.00    -0.217 OA
BRANCH  23  26
HETATM   26  C1  UNL     1      -0.602  27.134  19.368  1.00  0.00     0.064 A 
HETATM   27  C2  UNL     1      -0.925  26.603  18.137  1.00  0.00     0.024 A 
HETATM   28  C3  UNL     1      -2.219  26.171  17.846  1.00  0.00     0.002 A 
HETATM   29  C4  UNL     1      -3.215  26.265  18.786  1.00  0.00     0.000 A 
HETATM   30  C5  UNL     1      -2.893  26.795  20.019  1.00  0.00     0.002 A 
HETATM   31  C6  UNL     1      -1.610  27.222  20.302  1.00  0.00     0.024 A 
ENDBRANCH  23  26
ENDBRANCH   1  23
BRANCH   6  32
HETATM   32  N5  UNL     1       5.523  25.188  19.328  1.00  0.00    -0.372 N 
ATOM     33  H5  UNL     1       5.628  25.270  18.316  1.00  0.00     0.161 HD
BRANCH  32  34
HETATM   34  C20 UNL     1       6.708  25.022  20.145  1.00  0.00     0.083 C 
HETATM   35  C21 UNL     1       7.743  24.320  19.361  1.00  0.00     0.028 C 
HETATM   36  C22 UNL     1       8.910  25.138  18.921  1.00  0.00     0.034 C 
HETATM   37  C23 UNL     1       9.490  25.754  20.201  1.00  0.00     0.118 C 
HETATM   38  C24 UNL     1       8.486  26.756  20.670  1.00  0.00     0.034 C 
HETATM   39  C25 UNL     1       7.100  26.286  20.808  1.00  0.00     0.028 C 
BRANCH  37  40
HETATM   40  O3  UNL     1       9.747  24.740  21.091  1.00  0.00    -0.396 OA
ATOM     41  H3  UNL     1      10.429  25.030  21.686  1.00  0.00     0.210 HD
ENDBRANCH  37  40
ENDBRANCH  32  34
ENDBRANCH   6  32
TORSDOF 8
ENDMDL
