MODEL 1
REMARK VINA RESULT: -8.156044417      0.000      0.000
REMARK  8 active torsions:
REMARK  status: ('A' for Active; 'I' for Inactive)
REMARK    1  A    between atoms: S1_2  and  C1_4 
REMARK    2  A    between atoms: S1_2  and  C7_10 
REMARK    3  A    between atoms: C9_12  and  N1_13 
REMARK    4  A    between atoms: N1_13  and  C10_15 
REMARK    5  A    between atoms: C12_17  and  C13_18 
REMARK    6  A    between atoms: C19_30  and  N5_31 
REMARK    7  A    between atoms: N5_31  and  C20_33 
REMARK    8  A    between atoms: C23_36  and  O3_37 
ROOT
HETATM    1  C7  UNL     1       2.275  23.548  18.474  1.00  0.00     0.071 A 
HETATM    2  C8  UNL     1       1.832  23.334  19.780  1.00  0.00     0.072 A 
HETATM    3  C9  UNL     1       2.578  23.755  20.852  1.00  0.00     0.109 A 
HETATM    4  N4  UNL     1       3.750  24.380  20.608  1.00  0.00    -0.329 N 
ATOM      5  H4  UNL     1       4.300  24.691  21.409  1.00  0.00     0.169 HD
HETATM    6  C19 UNL     1       4.237  24.619  19.389  1.00  0.00     0.104 A 
HETATM    7  C26 UNL     1       3.476  24.190  18.314  1.00  0.00     0.072 A 
ENDROOT
BRANCH   3   8
HETATM    8  N1  UNL     1       2.156  23.552  22.178  1.00  0.00    -0.327 N 
ATOM      9  H1  UNL     1       2.844  23.715  22.913  1.00  0.00     0.169 HD
BRANCH   8  10
HETATM   10  C10 UNL     1       0.862  23.142  22.585  1.00  0.00     0.123 A 
HETATM   11  C11 UNL     1      -0.247  23.144  21.730  1.00  0.00     0.081 A 
HETATM   12  C12 UNL     1      -1.348  22.698  22.411  1.00  0.00     0.062 A 
HETATM   13  N2  UNL     1      -0.917  22.428  23.660  1.00  0.00    -0.298 N 
HETATM   14  N3  UNL     1       0.375  22.693  23.741  1.00  0.00    -0.285 N 
ATOM     15  H2  UNL     1      -1.496  22.075  24.421  1.00  0.00     0.187 HD
ATOM     16  H3  UNL     1       0.931  22.570  24.587  1.00  0.00     0.188 HD
BRANCH  12  17
HETATM   17  C13 UNL     1      -2.718  22.530  21.939  1.00  0.00    -0.008 A 
HETATM   18  C14 UNL     1      -3.303  21.288  21.957  1.00  0.00     0.014 A 
HETATM   19  C15 UNL     1      -4.613  21.088  21.511  1.00  0.00     0.001 A 
HETATM   20  C16 UNL     1      -5.320  22.169  21.049  1.00  0.00     0.000 A 
HETATM   21  C17 UNL     1      -4.757  23.404  21.024  1.00  0.00     0.001 A 
HETATM   22  C18 UNL     1      -3.451  23.594  21.469  1.00  0.00     0.014 A 
ENDBRANCH  12  17
ENDBRANCH   8  10
ENDBRANCH   3   8
BRANCH   1  23
HETATM   23  S1  UNL     1       1.331  23.015  17.118  1.00  0.00     0.207 S 
HETATM   24  O1  UNL     1       1.347  24.046  16.024  1.00  0.00    -0.217 OA
HETATM   25  O2  UNL     1       1.929  21.757  16.519  1.00  0.00    -0.217 OA
BRANCH  23  26
HETATM   26  C1  UNL     1      -0.312  22.651  17.539  1.00  0.00     0.064 A 
HETATM   27  C2  UNL     1      -0.706  21.353  17.784  1.00  0.00     0.024 A 
HETATM   28  C3  UNL     1      -2.022  21.042  18.123  1.00  0.00     0.002 A 
HETATM   29  C4  UNL     1      -2.971  22.030  18.223  1.00  0.00     0.000 A 
HETATM   30  C5  UNL     1      -2.578  23.330  17.978  1.00  0.00     0.002 A 
HETATM   31  C6  UNL     1      -1.273  23.633  17.642  1.00  0.00     0.024 A 
ENDBRANCH  23  26
ENDBRANCH   1  23
BRANCH   6  32
HETATM   32  N5  UNL     1       5.480  25.284  19.181  1.00  0.00    -0.372 N 
ATOM     33  H5  UNL     1       5.537  26.011  18.468  1.00  0.00     0.161 HD
BRANCH  32  34
HETATM   34  C20 UNL     1       6.665  24.959  19.950  1.00  0.00     0.083 C 
HETATM   35  C21 UNL     1       7.654  24.313  19.066  1.00  0.00     0.028 C 
HETATM   36  C22 UNL     1       8.855  25.121  18.711  1.00  0.00     0.034 C 
HETATM   37  C23 UNL     1       9.481  25.542  20.047  1.00  0.00     0.118 C 
HETATM   38  C24 UNL     1       8.534  26.525  20.656  1.00  0.00     0.034 C 
HETATM   39  C25 UNL     1       7.128  26.109  20.758  1.00  0.00     0.028 C 
BRANCH  37  40
HETATM   40  O3  UNL     1       9.697  24.414  20.798  1.00  0.00    -0.396 OA
ATOM     41  H3  UNL     1      10.616  24.183  20.734  1.00  0.00     0.210 HD
ENDBRANCH  37  40
ENDBRANCH  32  34
ENDBRANCH   6  32
TORSDOF 8
ENDMDL
