MODEL 1
REMARK VINA RESULT: -9.930174899      0.000      0.000
REMARK  10 active torsions:
REMARK  status: ('A' for Active; 'I' for Inactive)
REMARK    1  A    between atoms: N5_13  and  C6_14 
REMARK    2  A    between atoms: C7_16  and  C8_17 
REMARK    3  A    between atoms: C8_17  and  S1_18 
REMARK    4  A    between atoms: S1_18  and  C9_19 
REMARK    5  A    between atoms: C9_19  and  C10_20 
REMARK    6  A    between atoms: C10_20  and  C11_21 
REMARK    7  A    between atoms: C11_21  and  N6_22 
REMARK    8  A    between atoms: C11_21  and  C12_26 
REMARK    9  A    between atoms: C13_29  and  O4_30 
REMARK   10  A    between atoms: C14_32  and  O5_33 
ROOT
HETATM    1  C6  UNL     1      20.718   4.434   9.743  1.00  0.00     0.262 C 
HETATM    2  O1  UNL     1      20.121   4.641  10.999  1.00  0.00    -0.355 OA
HETATM    3  C7  UNL     1      21.149   5.218  11.766  1.00  0.00     0.165 C 
HETATM    4  C13 UNL     1      21.869   6.148  10.821  1.00  0.00     0.180 C 
HETATM    5  C14 UNL     1      21.241   5.815   9.485  1.00  0.00     0.198 C 
ENDROOT
BRANCH   1   6
HETATM    6  N5  UNL     1      19.760   3.951   8.800  1.00  0.00    -0.297 N 
HETATM    7  C3  UNL     1      19.810   2.763   8.176  1.00  0.00     0.142 A 
HETATM    8  N3  UNL     1      20.675   1.736   8.215  1.00  0.00    -0.336 N 
HETATM    9  C4  UNL     1      18.683   2.705   7.356  1.00  0.00     0.119 A 
HETATM   10  C2  UNL     1      20.428   0.665   7.448  1.00  0.00     0.183 A 
ATOM     11  H3  UNL     1      21.500   1.771   8.814  1.00  0.00     0.168 HD
HETATM   12  N2  UNL     1      19.353   0.589   6.654  1.00  0.00    -0.339 N 
HETATM   13  C1  UNL     1      18.470   1.598   6.594  1.00  0.00     0.148 A 
ATOM     14  H2  UNL     1      19.203  -0.246   6.087  1.00  0.00     0.167 HD
HETATM   15  N1  UNL     1      17.323   1.514   5.746  1.00  0.00    -0.080 NA
HETATM   16  N4  UNL     1      18.020   3.874   7.539  1.00  0.00    -0.346 N 
HETATM   17  C5  UNL     1      18.666   4.635   8.413  1.00  0.00     0.188 A 
ATOM     18  H4  UNL     1      17.150   4.130   7.072  1.00  0.00     0.167 HD
ENDBRANCH   1   6
BRANCH   5  19
HETATM   19  O5  UNL     1      22.160   5.890   8.449  1.00  0.00    -0.388 OA
ATOM     20  H5  UNL     1      22.554   6.747   8.341  1.00  0.00     0.210 HD
ENDBRANCH   5  19
BRANCH   3  21
HETATM   21  C8  UNL     1      20.526   6.038  12.856  1.00  0.00     0.108 C 
BRANCH  21  22
HETATM   22  S1  UNL     1      20.883   5.590  14.522  1.00  0.00    -0.166 SA
BRANCH  22  23
HETATM   23  C9  UNL     1      22.545   5.094  14.869  1.00  0.00     0.076 C 
BRANCH  23  24
HETATM   24  C10 UNL     1      22.775   4.675  16.293  1.00  0.00     0.054 C 
BRANCH  24  25
HETATM   25  C11 UNL     1      23.041   3.214  16.391  1.00  0.00     0.284 C 
BRANCH  25  26
HETATM   26  N6  UNL     1      21.875   2.415  16.187  1.00  0.00    -0.065 N 
ATOM     27  H63 UNL     1      21.805   1.684  16.895  1.00  0.00     0.275 HD
ATOM     28  H62 UNL     1      21.030   2.943  16.407  1.00  0.00     0.275 HD
ATOM     29  H61 UNL     1      21.820   2.018  15.249  1.00  0.00     0.275 HD
ENDBRANCH  25  26
BRANCH  25  30
HETATM   30  C12 UNL     1      23.706   2.821  17.642  1.00  0.00     0.204 C 
HETATM   31  O2  UNL     1      24.860   2.353  17.610  1.00  0.00    -0.646 OA
HETATM   32  O3  UNL     1      23.060   2.968  18.850  1.00  0.00    -0.646 OA
ENDBRANCH  25  30
ENDBRANCH  24  25
ENDBRANCH  23  24
ENDBRANCH  22  23
ENDBRANCH  21  22
ENDBRANCH   3  21
BRANCH   4  33
HETATM   33  O4  UNL     1      23.232   5.803  10.742  1.00  0.00    -0.390 OA
ATOM     34  H4  UNL     1      23.696   6.424  10.193  1.00  0.00     0.210 HD
ENDBRANCH   4  33
TORSDOF 10
ENDMDL
