MODEL 2
REMARK VINA RESULT: -8.790840264      2.669      8.543
REMARK  10 active torsions:
REMARK  status: ('A' for Active; 'I' for Inactive)
REMARK    1  A    between atoms: N5_13  and  C6_14 
REMARK    2  A    between atoms: C7_16  and  C8_17 
REMARK    3  A    between atoms: C8_17  and  S1_18 
REMARK    4  A    between atoms: S1_18  and  C9_19 
REMARK    5  A    between atoms: C9_19  and  C10_20 
REMARK    6  A    between atoms: C10_20  and  C11_21 
REMARK    7  A    between atoms: C11_21  and  N6_22 
REMARK    8  A    between atoms: C11_21  and  C12_26 
REMARK    9  A    between atoms: C13_29  and  O4_30 
REMARK   10  A    between atoms: C14_32  and  O5_33 
ROOT
HETATM    1  C6  UNL     1      21.348   5.004  13.767  1.00  0.00     0.262 C 
HETATM    2  O1  UNL     1      21.981   4.854  12.522  1.00  0.00    -0.355 OA
HETATM    3  C7  UNL     1      21.013   5.289  11.599  1.00  0.00     0.165 C 
HETATM    4  C13 UNL     1      20.347   6.470  12.259  1.00  0.00     0.180 C 
HETATM    5  C14 UNL     1      20.923   6.438  13.658  1.00  0.00     0.198 C 
ENDROOT
BRANCH   1   6
HETATM    6  N5  UNL     1      22.249   4.708  14.834  1.00  0.00    -0.297 N 
HETATM    7  C3  UNL     1      22.267   3.570  15.547  1.00  0.00     0.142 A 
HETATM    8  N3  UNL     1      21.531   2.447  15.511  1.00  0.00    -0.336 N 
HETATM    9  C4  UNL     1      23.302   3.705  16.473  1.00  0.00     0.119 A 
HETATM   10  C2  UNL     1      21.815   1.471  16.385  1.00  0.00     0.183 A 
ATOM     11  H3  UNL     1      20.774   2.340  14.835  1.00  0.00     0.168 HD
HETATM   12  N2  UNL     1      22.802   1.581  17.282  1.00  0.00    -0.339 N 
HETATM   13  C1  UNL     1      23.556   2.689  17.341  1.00  0.00     0.148 A 
ATOM     14  H2  UNL     1      22.984   0.812  17.928  1.00  0.00     0.167 HD
HETATM   15  N1  UNL     1      24.610   2.804  18.299  1.00  0.00    -0.080 NA
HETATM   16  N4  UNL     1      23.846   4.929  16.258  1.00  0.00    -0.346 N 
HETATM   17  C5  UNL     1      23.214   5.544  15.266  1.00  0.00     0.188 A 
ATOM     18  H4  UNL     1      24.628   5.320  16.783  1.00  0.00     0.167 HD
ENDBRANCH   1   6
BRANCH   5  19
HETATM   19  O5  UNL     1      19.992   6.828  14.610  1.00  0.00    -0.388 OA
ATOM     20  H5  UNL     1      19.755   7.746  14.567  1.00  0.00     0.210 HD
ENDBRANCH   5  19
BRANCH   3  21
HETATM   21  C8  UNL     1      21.716   5.770  10.365  1.00  0.00     0.108 C 
BRANCH  21  22
HETATM   22  S1  UNL     1      20.946   5.455   8.811  1.00  0.00    -0.166 SA
BRANCH  22  23
HETATM   23  C9  UNL     1      19.564   4.353   8.822  1.00  0.00     0.076 C 
BRANCH  23  24
HETATM   24  C10 UNL     1      19.928   2.911   8.610  1.00  0.00     0.054 C 
BRANCH  24  25
HETATM   25  C11 UNL     1      19.287   2.365   7.383  1.00  0.00     0.284 C 
BRANCH  25  26
HETATM   26  N6  UNL     1      17.860   2.397   7.432  1.00  0.00    -0.065 N 
ATOM     27  H63 UNL     1      17.466   1.506   7.128  1.00  0.00     0.275 HD
ATOM     28  H62 UNL     1      17.530   2.404   8.397  1.00  0.00     0.275 HD
ATOM     29  H61 UNL     1      17.457   3.171   6.905  1.00  0.00     0.275 HD
ENDBRANCH  25  26
BRANCH  25  30
HETATM   30  C12 UNL     1      19.748   1.015   7.031  1.00  0.00     0.204 C 
HETATM   31  O2  UNL     1      19.144   0.361   6.160  1.00  0.00    -0.646 OA
HETATM   32  O3  UNL     1      20.844   0.466   7.660  1.00  0.00    -0.646 OA
ENDBRANCH  25  30
ENDBRANCH  24  25
ENDBRANCH  23  24
ENDBRANCH  22  23
ENDBRANCH  21  22
ENDBRANCH   3  21
BRANCH   4  33
HETATM   33  O4  UNL     1      18.960   6.247  12.371  1.00  0.00    -0.390 OA
ATOM     34  H4  UNL     1      18.564   6.202  11.508  1.00  0.00     0.210 HD
ENDBRANCH   4  33
TORSDOF 10
ENDMDL
