MODEL 7
REMARK VINA RESULT: -7.214571816      2.774      8.580
REMARK  10 active torsions:
REMARK  status: ('A' for Active; 'I' for Inactive)
REMARK    1  A    between atoms: N5_13  and  C6_14 
REMARK    2  A    between atoms: C7_16  and  C8_17 
REMARK    3  A    between atoms: C8_17  and  S1_18 
REMARK    4  A    between atoms: S1_18  and  C9_19 
REMARK    5  A    between atoms: C9_19  and  C10_20 
REMARK    6  A    between atoms: C10_20  and  C11_21 
REMARK    7  A    between atoms: C11_21  and  N6_22 
REMARK    8  A    between atoms: C11_21  and  C12_26 
REMARK    9  A    between atoms: C13_29  and  O4_30 
REMARK   10  A    between atoms: C14_32  and  O5_33 
ROOT
HETATM    1  C6  UNL     1      20.871   4.841  13.876  1.00  0.00     0.262 C 
HETATM    2  O1  UNL     1      21.479   4.700  12.616  1.00  0.00    -0.355 OA
HETATM    3  C7  UNL     1      20.752   5.579  11.794  1.00  0.00     0.165 C 
HETATM    4  C13 UNL     1      20.480   6.787  12.657  1.00  0.00     0.180 C 
HETATM    5  C14 UNL     1      20.946   6.331  14.022  1.00  0.00     0.198 C 
ENDROOT
BRANCH   1   6
HETATM    6  N5  UNL     1      21.573   4.088  14.865  1.00  0.00    -0.297 N 
HETATM    7  C3  UNL     1      22.777   4.399  15.375  1.00  0.00     0.142 A 
HETATM    8  N3  UNL     1      23.638   5.406  15.156  1.00  0.00    -0.336 N 
HETATM    9  C4  UNL     1      23.077   3.403  16.304  1.00  0.00     0.119 A 
HETATM   10  C2  UNL     1      24.786   5.424  15.849  1.00  0.00     0.183 A 
ATOM     11  H3  UNL     1      23.425   6.138  14.479  1.00  0.00     0.168 HD
HETATM   12  N2  UNL     1      25.093   4.479  16.745  1.00  0.00    -0.339 N 
HETATM   13  C1  UNL     1      24.253   3.461  16.986  1.00  0.00     0.148 A 
ATOM     14  H2  UNL     1      25.978   4.532  17.251  1.00  0.00     0.167 HD
HETATM   15  N1  UNL     1      24.583   2.453  17.944  1.00  0.00    -0.080 NA
HETATM   16  N4  UNL     1      22.025   2.546  16.295  1.00  0.00    -0.346 N 
HETATM   17  C5  UNL     1      21.109   2.954  15.426  1.00  0.00     0.188 A 
ATOM     18  H4  UNL     1      21.950   1.710  16.873  1.00  0.00     0.167 HD
ENDBRANCH   1   6
BRANCH   5  19
HETATM   19  O5  UNL     1      20.152   6.842  15.037  1.00  0.00    -0.388 OA
ATOM     20  H5  UNL     1      20.305   7.760  15.225  1.00  0.00     0.210 HD
ENDBRANCH   5  19
BRANCH   3  21
HETATM   21  C8  UNL     1      21.632   6.000  10.654  1.00  0.00     0.108 C 
BRANCH  21  22
HETATM   22  S1  UNL     1      21.130   5.550   9.026  1.00  0.00    -0.166 SA
BRANCH  22  23
HETATM   23  C9  UNL     1      19.738   4.468   8.898  1.00  0.00     0.076 C 
BRANCH  23  24
HETATM   24  C10 UNL     1      20.100   3.026   8.681  1.00  0.00     0.054 C 
BRANCH  24  25
HETATM   25  C11 UNL     1      19.439   2.479   7.465  1.00  0.00     0.284 C 
BRANCH  25  26
HETATM   26  N6  UNL     1      18.014   2.575   7.508  1.00  0.00    -0.065 N 
ATOM     27  H63 UNL     1      17.640   2.077   8.317  1.00  0.00     0.275 HD
ATOM     28  H62 UNL     1      17.721   3.522   7.745  1.00  0.00     0.275 HD
ATOM     29  H61 UNL     1      17.564   2.260   6.648  1.00  0.00     0.275 HD
ENDBRANCH  25  26
BRANCH  25  30
HETATM   30  C12 UNL     1      19.840   1.101   7.150  1.00  0.00     0.204 C 
HETATM   31  O2  UNL     1      20.766   0.563   7.786  1.00  0.00    -0.646 OA
HETATM   32  O3  UNL     1      19.197   0.397   6.154  1.00  0.00    -0.646 OA
ENDBRANCH  25  30
ENDBRANCH  24  25
ENDBRANCH  23  24
ENDBRANCH  22  23
ENDBRANCH  21  22
ENDBRANCH   3  21
BRANCH   4  33
HETATM   33  O4  UNL     1      19.093   7.021  12.743  1.00  0.00    -0.390 OA
ATOM     34  H4  UNL     1      18.838   7.152  13.648  1.00  0.00     0.210 HD
ENDBRANCH   4  33
TORSDOF 10
ENDMDL
