MODEL 18
REMARK VINA RESULT: -6.214110010      0.901      1.665
REMARK  10 active torsions:
REMARK  status: ('A' for Active; 'I' for Inactive)
REMARK    1  A    between atoms: N5_13  and  C6_14 
REMARK    2  A    between atoms: C7_16  and  C8_17 
REMARK    3  A    between atoms: C8_17  and  S1_18 
REMARK    4  A    between atoms: S1_18  and  C9_19 
REMARK    5  A    between atoms: C9_19  and  C10_20 
REMARK    6  A    between atoms: C10_20  and  C11_21 
REMARK    7  A    between atoms: C11_21  and  N6_22 
REMARK    8  A    between atoms: C11_21  and  C12_26 
REMARK    9  A    between atoms: C13_29  and  O4_30 
REMARK   10  A    between atoms: C14_32  and  O5_33 
ROOT
HETATM    1  C6  UNL     1      21.142   4.172  10.158  1.00  0.00     0.262 C 
HETATM    2  O1  UNL     1      20.461   4.362  11.372  1.00  0.00    -0.355 OA
HETATM    3  C7  UNL     1      21.260   5.290  12.063  1.00  0.00     0.165 C 
HETATM    4  C13 UNL     1      21.737   6.257  11.007  1.00  0.00     0.180 C 
HETATM    5  C14 UNL     1      21.279   5.600   9.724  1.00  0.00     0.198 C 
ENDROOT
BRANCH   1   6
HETATM    6  N5  UNL     1      20.391   3.330   9.281  1.00  0.00    -0.297 N 
HETATM    7  C3  UNL     1      19.719   3.739   8.192  1.00  0.00     0.142 A 
HETATM    8  N3  UNL     1      19.538   4.939   7.617  1.00  0.00    -0.336 N 
HETATM    9  C4  UNL     1      19.142   2.597   7.638  1.00  0.00     0.119 A 
HETATM   10  C2  UNL     1      18.791   5.007   6.506  1.00  0.00     0.183 A 
ATOM     11  H3  UNL     1      19.958   5.778   8.016  1.00  0.00     0.168 HD
HETATM   12  N2  UNL     1      18.228   3.923   5.958  1.00  0.00    -0.339 N 
HETATM   13  C1  UNL     1      18.391   2.711   6.509  1.00  0.00     0.148 A 
ATOM     14  H2  UNL     1      17.667   4.020   5.111  1.00  0.00     0.167 HD
HETATM   15  N1  UNL     1      17.790   1.555   5.922  1.00  0.00    -0.080 NA
HETATM   16  N4  UNL     1      19.506   1.562   8.436  1.00  0.00    -0.346 N 
HETATM   17  C5  UNL     1      20.263   1.998   9.435  1.00  0.00     0.188 A 
ATOM     18  H4  UNL     1      19.236   0.590   8.290  1.00  0.00     0.167 HD
ENDBRANCH   1   6
BRANCH   5  19
HETATM   19  O5  UNL     1      22.184   5.795   8.691  1.00  0.00    -0.388 OA
ATOM     20  H5  UNL     1      22.247   6.694   8.394  1.00  0.00     0.210 HD
ENDBRANCH   5  19
BRANCH   3  21
HETATM   21  C8  UNL     1      20.393   6.036  13.032  1.00  0.00     0.108 C 
BRANCH  21  22
HETATM   22  S1  UNL     1      20.853   6.002  14.733  1.00  0.00    -0.166 SA
BRANCH  22  23
HETATM   23  C9  UNL     1      22.345   5.142  15.133  1.00  0.00     0.076 C 
BRANCH  23  24
HETATM   24  C10 UNL     1      22.355   4.538  16.507  1.00  0.00     0.054 C 
BRANCH  24  25
HETATM   25  C11 UNL     1      22.842   3.131  16.477  1.00  0.00     0.284 C 
BRANCH  25  26
HETATM   26  N6  UNL     1      21.813   2.187  16.173  1.00  0.00    -0.065 N 
ATOM     27  H63 UNL     1      21.298   1.927  17.014  1.00  0.00     0.275 HD
ATOM     28  H62 UNL     1      21.061   2.628  15.645  1.00  0.00     0.275 HD
ATOM     29  H61 UNL     1      22.159   1.359  15.687  1.00  0.00     0.275 HD
ENDBRANCH  25  26
BRANCH  25  30
HETATM   30  C12 UNL     1      23.547   2.728  17.701  1.00  0.00     0.204 C 
HETATM   31  O2  UNL     1      24.669   2.192  17.623  1.00  0.00    -0.646 OA
HETATM   32  O3  UNL     1      22.975   2.938  18.937  1.00  0.00    -0.646 OA
ENDBRANCH  25  30
ENDBRANCH  24  25
ENDBRANCH  23  24
ENDBRANCH  22  23
ENDBRANCH  21  22
ENDBRANCH   3  21
BRANCH   4  33
HETATM   33  O4  UNL     1      23.145   6.294  10.981  1.00  0.00    -0.390 OA
ATOM     34  H4  UNL     1      23.445   7.078  10.538  1.00  0.00     0.210 HD
ENDBRANCH   4  33
TORSDOF 10
ENDMDL
