MODEL 5
REMARK VINA RESULT: -7.632021059      3.060      8.477
REMARK  10 active torsions:
REMARK  status: ('A' for Active; 'I' for Inactive)
REMARK    1  A    between atoms: N5_13  and  C6_14 
REMARK    2  A    between atoms: C7_16  and  C8_17 
REMARK    3  A    between atoms: C8_17  and  S1_18 
REMARK    4  A    between atoms: S1_18  and  C9_19 
REMARK    5  A    between atoms: C9_19  and  C10_20 
REMARK    6  A    between atoms: C10_20  and  C11_21 
REMARK    7  A    between atoms: C11_21  and  N6_22 
REMARK    8  A    between atoms: C11_21  and  C12_26 
REMARK    9  A    between atoms: C13_29  and  O4_30 
REMARK   10  A    between atoms: C14_32  and  O5_33 
ROOT
HETATM    1  C6  UNL     1      20.901   5.102  12.707  1.00  0.00     0.262 C 
HETATM    2  O1  UNL     1      21.392   4.510  11.531  1.00  0.00    -0.355 OA
HETATM    3  C7  UNL     1      20.276   4.492  10.675  1.00  0.00     0.165 C 
HETATM    4  C13 UNL     1      19.566   5.798  10.930  1.00  0.00     0.180 C 
HETATM    5  C14 UNL     1      20.307   6.351  12.128  1.00  0.00     0.198 C 
ENDROOT
BRANCH   1   6
HETATM    6  N5  UNL     1      21.952   5.300  13.653  1.00  0.00    -0.297 N 
HETATM    7  C3  UNL     1      22.170   4.550  14.746  1.00  0.00     0.142 A 
HETATM    8  N3  UNL     1      21.549   3.481  15.270  1.00  0.00    -0.336 N 
HETATM    9  C4  UNL     1      23.293   5.090  15.373  1.00  0.00     0.119 A 
HETATM   10  C2  UNL     1      22.033   2.954  16.404  1.00  0.00     0.183 A 
ATOM     11  H3  UNL     1      20.728   3.079  14.816  1.00  0.00     0.168 HD
HETATM   12  N2  UNL     1      23.109   3.458  17.022  1.00  0.00    -0.339 N 
HETATM   13  C1  UNL     1      23.751   4.524  16.522  1.00  0.00     0.148 A 
ATOM     14  H2  UNL     1      23.444   3.026  17.883  1.00  0.00     0.167 HD
HETATM   15  N1  UNL     1      24.900   5.060  17.183  1.00  0.00    -0.080 NA
HETATM   16  N4  UNL     1      23.684   6.142  14.611  1.00  0.00    -0.346 N 
HETATM   17  C5  UNL     1      22.876   6.276  13.566  1.00  0.00     0.188 A 
ATOM     18  H4  UNL     1      24.482   6.743  14.812  1.00  0.00     0.167 HD
ENDBRANCH   1   6
BRANCH   5  19
HETATM   19  O5  UNL     1      19.462   7.030  12.991  1.00  0.00    -0.388 OA
ATOM     20  H5  UNL     1      19.529   7.976  12.936  1.00  0.00     0.210 HD
ENDBRANCH   5  19
BRANCH   3  21
HETATM   21  C8  UNL     1      20.766   4.488   9.257  1.00  0.00     0.108 C 
BRANCH  21  22
HETATM   22  S1  UNL     1      19.693   5.137   8.020  1.00  0.00    -0.166 SA
BRANCH  22  23
HETATM   23  C9  UNL     1      18.144   4.312   7.803  1.00  0.00     0.076 C 
BRANCH  23  24
HETATM   24  C10 UNL     1      18.200   2.831   8.044  1.00  0.00     0.054 C 
BRANCH  24  25
HETATM   25  C11 UNL     1      18.584   2.095   6.808  1.00  0.00     0.284 C 
BRANCH  25  26
HETATM   26  N6  UNL     1      17.493   1.391   6.212  1.00  0.00    -0.065 N 
ATOM     27  H63 UNL     1      17.366   0.479   6.651  1.00  0.00     0.275 HD
ATOM     28  H62 UNL     1      16.603   1.822   6.460  1.00  0.00     0.275 HD
ATOM     29  H61 UNL     1      17.581   1.297   5.200  1.00  0.00     0.275 HD
ENDBRANCH  25  26
BRANCH  25  30
HETATM   30  C12 UNL     1      19.725   1.189   6.995  1.00  0.00     0.204 C 
HETATM   31  O2  UNL     1      19.770   0.112   6.371  1.00  0.00    -0.646 OA
HETATM   32  O3  UNL     1      20.747   1.522   7.857  1.00  0.00    -0.646 OA
ENDBRANCH  25  30
ENDBRANCH  24  25
ENDBRANCH  23  24
ENDBRANCH  22  23
ENDBRANCH  21  22
ENDBRANCH   3  21
BRANCH   4  33
HETATM   33  O4  UNL     1      18.237   5.560  11.332  1.00  0.00    -0.390 OA
ATOM     34  H4  UNL     1      17.966   6.208  11.970  1.00  0.00     0.210 HD
ENDBRANCH   4  33
TORSDOF 10
ENDMDL
