MODEL 7
REMARK VINA RESULT: -5.645762992      1.126      5.851
REMARK  3 active torsions:
REMARK  status: ('A' for Active; 'I' for Inactive)
REMARK    1  A    between atoms: C1_2  and  C2_4 
REMARK    2  A    between atoms: C3_5  and  C4_6 
REMARK    3  A    between atoms: C7_9  and  O3_10 
ROOT
HETATM    1  C4  UNL     1       2.753 -19.837  -4.714  1.00  0.00    -0.036 A 
HETATM    2  C5  UNL     1       2.285 -18.873  -5.568  1.00  0.00     0.014 A 
HETATM    3  C6  UNL     1       1.012 -18.322  -5.454  1.00  0.00     0.037 A 
HETATM    4  C7  UNL     1       0.189 -18.761  -4.445  1.00  0.00     0.065 A 
HETATM    5  C8  UNL     1       0.623 -19.730  -3.563  1.00  0.00     0.037 A 
HETATM    6  C9  UNL     1       1.889 -20.244  -3.718  1.00  0.00     0.014 A 
ENDROOT
BRANCH   1   7
HETATM    7  C3  UNL     1       4.079 -20.434  -4.806  1.00  0.00     0.018 C 
HETATM    8  C2  UNL     1       5.141 -19.842  -5.315  1.00  0.00     0.085 C 
BRANCH   8   9
HETATM    9  C1  UNL     1       6.450 -20.453  -5.395  1.00  0.00     0.198 C 
HETATM   10  O1  UNL     1       6.933 -21.006  -4.379  1.00  0.00    -0.645 OA
HETATM   11  O2  UNL     1       7.222 -20.468  -6.546  1.00  0.00    -0.645 OA
ENDBRANCH   8   9
ENDBRANCH   1   7
BRANCH   4  12
HETATM   12  O3  UNL     1      -1.086 -18.231  -4.305  1.00  0.00    -0.361 OA
ATOM     13  H3  UNL     1      -1.535 -18.283  -3.469  1.00  0.00     0.217 HD
ENDBRANCH   4  12
TORSDOF 3
ENDMDL
