MODEL 2
REMARK VINA RESULT: -6.145080799      0.085      1.367
REMARK  3 active torsions:
REMARK  status: ('A' for Active; 'I' for Inactive)
REMARK    1  A    between atoms: C1_2  and  C2_4 
REMARK    2  A    between atoms: C3_5  and  C4_6 
REMARK    3  A    between atoms: C7_9  and  O3_10 
ROOT
HETATM    1  C4  UNL     1       3.668 -20.059  -4.783  1.00  0.00    -0.036 A 
HETATM    2  C5  UNL     1       4.601 -19.335  -5.478  1.00  0.00     0.014 A 
HETATM    3  C6  UNL     1       5.962 -19.616  -5.425  1.00  0.00     0.037 A 
HETATM    4  C7  UNL     1       6.392 -20.663  -4.645  1.00  0.00     0.065 A 
HETATM    5  C8  UNL     1       5.485 -21.417  -3.929  1.00  0.00     0.037 A 
HETATM    6  C9  UNL     1       4.149 -21.100  -4.014  1.00  0.00     0.014 A 
ENDROOT
BRANCH   1   7
HETATM    7  C3  UNL     1       2.236 -19.791  -4.816  1.00  0.00     0.018 C 
HETATM    8  C2  UNL     1       1.677 -18.632  -4.532  1.00  0.00     0.085 C 
BRANCH   8   9
HETATM    9  C1  UNL     1       0.252 -18.387  -4.572  1.00  0.00     0.198 C 
HETATM   10  O1  UNL     1      -0.366 -18.537  -5.652  1.00  0.00    -0.645 OA
HETATM   11  O2  UNL     1      -0.491 -17.988  -3.473  1.00  0.00    -0.645 OA
ENDBRANCH   8   9
ENDBRANCH   1   7
BRANCH   4  12
HETATM   12  O3  UNL     1       7.744 -20.969  -4.571  1.00  0.00    -0.361 OA
ATOM     13  H3  UNL     1       8.314 -20.791  -5.310  1.00  0.00     0.217 HD
ENDBRANCH   4  12
TORSDOF 3
ENDMDL
