MODEL 8
REMARK VINA RESULT: -5.641922441      1.874      5.673
REMARK  3 active torsions:
REMARK  status: ('A' for Active; 'I' for Inactive)
REMARK    1  A    between atoms: C1_2  and  C2_4 
REMARK    2  A    between atoms: C3_5  and  C4_6 
REMARK    3  A    between atoms: C7_9  and  O3_10 
ROOT
HETATM    1  C4  UNL     1       2.321 -20.178  -4.221  1.00  0.00    -0.036 A 
HETATM    2  C5  UNL     1       1.617 -20.165  -3.045  1.00  0.00     0.014 A 
HETATM    3  C6  UNL     1       0.534 -19.320  -2.828  1.00  0.00     0.037 A 
HETATM    4  C7  UNL     1       0.152 -18.463  -3.833  1.00  0.00     0.065 A 
HETATM    5  C8  UNL     1       0.834 -18.446  -5.032  1.00  0.00     0.037 A 
HETATM    6  C9  UNL     1       1.899 -19.300  -5.198  1.00  0.00     0.014 A 
ENDROOT
BRANCH   1   7
HETATM    7  C3  UNL     1       3.459 -21.050  -4.481  1.00  0.00     0.018 C 
HETATM    8  C2  UNL     1       3.860 -21.435  -5.676  1.00  0.00     0.085 C 
BRANCH   8   9
HETATM    9  C1  UNL     1       4.994 -22.302  -5.911  1.00  0.00     0.198 C 
HETATM   10  O1  UNL     1       5.328 -23.128  -5.029  1.00  0.00    -0.645 OA
HETATM   11  O2  UNL     1       5.754 -22.278  -7.070  1.00  0.00    -0.645 OA
ENDBRANCH   8   9
ENDBRANCH   1   7
BRANCH   4  12
HETATM   12  O3  UNL     1      -0.925 -17.607  -3.646  1.00  0.00    -0.361 OA
ATOM     13  H3  UNL     1      -1.158 -16.980  -4.321  1.00  0.00     0.217 HD
ENDBRANCH   4  12
TORSDOF 3
ENDMDL
