MODEL 5
REMARK VINA RESULT: -5.734007957      0.889      1.719
REMARK  3 active torsions:
REMARK  status: ('A' for Active; 'I' for Inactive)
REMARK    1  A    between atoms: C1_2  and  C2_4 
REMARK    2  A    between atoms: C3_5  and  C4_6 
REMARK    3  A    between atoms: C7_9  and  O3_10 
ROOT
HETATM    1  C4  UNL     1       3.969 -19.907  -5.055  1.00  0.00    -0.036 A 
HETATM    2  C5  UNL     1       5.050 -19.375  -5.708  1.00  0.00     0.014 A 
HETATM    3  C6  UNL     1       6.347 -19.836  -5.511  1.00  0.00     0.037 A 
HETATM    4  C7  UNL     1       6.556 -20.867  -4.627  1.00  0.00     0.065 A 
HETATM    5  C8  UNL     1       5.495 -21.431  -3.949  1.00  0.00     0.037 A 
HETATM    6  C9  UNL     1       4.230 -20.940  -4.178  1.00  0.00     0.014 A 
ENDROOT
BRANCH   1   7
HETATM    7  C3  UNL     1       2.598 -19.448  -5.238  1.00  0.00     0.018 C 
HETATM    8  C2  UNL     1       2.205 -18.192  -5.160  1.00  0.00     0.085 C 
BRANCH   8   9
HETATM    9  C1  UNL     1       0.837 -17.758  -5.346  1.00  0.00     0.198 C 
HETATM   10  O1  UNL     1       0.594 -16.535  -5.477  1.00  0.00    -0.645 OA
HETATM   11  O2  UNL     1      -0.245 -18.622  -5.389  1.00  0.00    -0.645 OA
ENDBRANCH   8   9
ENDBRANCH   1   7
BRANCH   4  12
HETATM   12  O3  UNL     1       7.840 -21.349  -4.408  1.00  0.00    -0.361 OA
ATOM     13  H3  UNL     1       8.187 -22.045  -4.954  1.00  0.00     0.217 HD
ENDBRANCH   4  12
TORSDOF 3
ENDMDL
