MODEL 3
REMARK VINA RESULT: -5.877612431      1.314      5.713
REMARK  3 active torsions:
REMARK  status: ('A' for Active; 'I' for Inactive)
REMARK    1  A    between atoms: C1_2  and  C2_4 
REMARK    2  A    between atoms: C3_5  and  C4_6 
REMARK    3  A    between atoms: C7_9  and  O3_10 
ROOT
HETATM    1  C4  UNL     1       2.237 -20.019  -4.552  1.00  0.00    -0.036 A 
HETATM    2  C5  UNL     1       1.587 -20.084  -3.347  1.00  0.00     0.014 A 
HETATM    3  C6  UNL     1       0.502 -19.272  -3.035  1.00  0.00     0.037 A 
HETATM    4  C7  UNL     1       0.060 -18.368  -3.972  1.00  0.00     0.065 A 
HETATM    5  C8  UNL     1       0.687 -18.273  -5.198  1.00  0.00     0.037 A 
HETATM    6  C9  UNL     1       1.756 -19.097  -5.459  1.00  0.00     0.014 A 
ENDROOT
BRANCH   1   7
HETATM    7  C3  UNL     1       3.376 -20.855  -4.910  1.00  0.00     0.018 C 
HETATM    8  C2  UNL     1       4.487 -20.960  -4.208  1.00  0.00     0.085 C 
BRANCH   8   9
HETATM    9  C1  UNL     1       5.606 -21.796  -4.582  1.00  0.00     0.198 C 
HETATM   10  O1  UNL     1       6.773 -21.361  -4.438  1.00  0.00    -0.645 OA
HETATM   11  O2  UNL     1       5.472 -23.074  -5.102  1.00  0.00    -0.645 OA
ENDBRANCH   8   9
ENDBRANCH   1   7
BRANCH   4  12
HETATM   12  O3  UNL     1      -1.020 -17.544  -3.691  1.00  0.00    -0.361 OA
ATOM     13  H3  UNL     1      -1.851 -17.921  -3.425  1.00  0.00     0.217 HD
ENDBRANCH   4  12
TORSDOF 3
ENDMDL
