MODEL 9
REMARK VINA RESULT: -5.630457908      1.140      5.681
REMARK  3 active torsions:
REMARK  status: ('A' for Active; 'I' for Inactive)
REMARK    1  A    between atoms: C1_2  and  C2_4 
REMARK    2  A    between atoms: C3_5  and  C4_6 
REMARK    3  A    between atoms: C7_9  and  O3_10 
ROOT
HETATM    1  C4  UNL     1       2.721 -19.938  -4.604  1.00  0.00    -0.036 A 
HETATM    2  C5  UNL     1       1.840 -20.293  -3.616  1.00  0.00     0.014 A 
HETATM    3  C6  UNL     1       0.572 -19.732  -3.504  1.00  0.00     0.037 A 
HETATM    4  C7  UNL     1       0.184 -18.784  -4.421  1.00  0.00     0.065 A 
HETATM    5  C8  UNL     1       1.041 -18.400  -5.431  1.00  0.00     0.037 A 
HETATM    6  C9  UNL     1       2.285 -18.983  -5.499  1.00  0.00     0.014 A 
ENDROOT
BRANCH   1   7
HETATM    7  C3  UNL     1       4.055 -20.506  -4.749  1.00  0.00     0.018 C 
HETATM    8  C2  UNL     1       5.096 -19.872  -5.251  1.00  0.00     0.085 C 
BRANCH   8   9
HETATM    9  C1  UNL     1       6.413 -20.455  -5.385  1.00  0.00     0.198 C 
HETATM   10  O1  UNL     1       6.945 -21.006  -4.393  1.00  0.00    -0.645 OA
HETATM   11  O2  UNL     1       7.143 -20.443  -6.563  1.00  0.00    -0.645 OA
ENDBRANCH   8   9
ENDBRANCH   1   7
BRANCH   4  12
HETATM   12  O3  UNL     1      -1.075 -18.205  -4.335  1.00  0.00    -0.361 OA
ATOM     13  H3  UNL     1      -1.543 -17.964  -5.126  1.00  0.00     0.217 HD
ENDBRANCH   4  12
TORSDOF 3
ENDMDL
