MODEL 4
REMARK VINA RESULT: -5.845608392      1.299      5.846
REMARK  3 active torsions:
REMARK  status: ('A' for Active; 'I' for Inactive)
REMARK    1  A    between atoms: C1_2  and  C2_4 
REMARK    2  A    between atoms: C3_5  and  C4_6 
REMARK    3  A    between atoms: C7_9  and  O3_10 
ROOT
HETATM    1  C4  UNL     1       2.273 -19.886  -4.774  1.00  0.00    -0.036 A 
HETATM    2  C5  UNL     1       1.764 -18.936  -5.620  1.00  0.00     0.014 A 
HETATM    3  C6  UNL     1       0.666 -18.148  -5.290  1.00  0.00     0.037 A 
HETATM    4  C7  UNL     1       0.066 -18.328  -4.066  1.00  0.00     0.065 A 
HETATM    5  C8  UNL     1       0.549 -19.273  -3.186  1.00  0.00     0.037 A 
HETATM    6  C9  UNL     1       1.637 -20.028  -3.558  1.00  0.00     0.014 A 
ENDROOT
BRANCH   1   7
HETATM    7  C3  UNL     1       3.421 -20.727  -5.088  1.00  0.00     0.018 C 
HETATM    8  C2  UNL     1       4.432 -20.961  -4.276  1.00  0.00     0.085 C 
BRANCH   8   9
HETATM    9  C1  UNL     1       5.562 -21.800  -4.609  1.00  0.00     0.198 C 
HETATM   10  O1  UNL     1       6.724 -21.359  -4.447  1.00  0.00    -0.645 OA
HETATM   11  O2  UNL     1       5.444 -23.088  -5.107  1.00  0.00    -0.645 OA
ENDBRANCH   8   9
ENDBRANCH   1   7
BRANCH   4  12
HETATM   12  O3  UNL     1      -1.032 -17.557  -3.708  1.00  0.00    -0.361 OA
ATOM     13  H3  UNL     1      -1.352 -16.882  -4.295  1.00  0.00     0.217 HD
ENDBRANCH   4  12
TORSDOF 3
ENDMDL
