MODEL 1
REMARK VINA RESULT: -6.147726524      0.000      0.000
REMARK  3 active torsions:
REMARK  status: ('A' for Active; 'I' for Inactive)
REMARK    1  A    between atoms: C1_2  and  C2_4 
REMARK    2  A    between atoms: C3_5  and  C4_6 
REMARK    3  A    between atoms: C7_9  and  O3_10 
ROOT
HETATM    1  C4  UNL     1       3.603 -20.151  -4.769  1.00  0.00    -0.036 A 
HETATM    2  C5  UNL     1       4.102 -21.166  -3.995  1.00  0.00     0.014 A 
HETATM    3  C6  UNL     1       5.462 -21.450  -3.916  1.00  0.00     0.037 A 
HETATM    4  C7  UNL     1       6.341 -20.682  -4.642  1.00  0.00     0.065 A 
HETATM    5  C8  UNL     1       5.879 -19.651  -5.432  1.00  0.00     0.037 A 
HETATM    6  C9  UNL     1       4.525 -19.410  -5.478  1.00  0.00     0.014 A 
ENDROOT
BRANCH   1   7
HETATM    7  C3  UNL     1       2.186 -19.827  -4.873  1.00  0.00     0.018 C 
HETATM    8  C2  UNL     1       1.627 -18.721  -4.423  1.00  0.00     0.085 C 
BRANCH   8   9
HETATM    9  C1  UNL     1       0.217 -18.420  -4.538  1.00  0.00     0.198 C 
HETATM   10  O1  UNL     1      -0.354 -18.568  -5.644  1.00  0.00    -0.645 OA
HETATM   11  O2  UNL     1      -0.561 -17.966  -3.485  1.00  0.00    -0.645 OA
ENDBRANCH   8   9
ENDBRANCH   1   7
BRANCH   4  12
HETATM   12  O3  UNL     1       7.704 -20.941  -4.584  1.00  0.00    -0.361 OA
ATOM     13  H3  UNL     1       8.241 -20.522  -3.923  1.00  0.00     0.217 HD
ENDBRANCH   4  12
TORSDOF 3
ENDMDL
