MODEL 7
REMARK VINA RESULT: -6.793213556      1.310      1.506
REMARK  5 active torsions:
REMARK  status: ('A' for Active; 'I' for Inactive)
REMARK    1  A    between atoms: O1_1  and  C1_3 
REMARK    2  A    between atoms: C4_6  and  C5_7 
REMARK    3  A    between atoms: C6_8  and  C7_9 
REMARK    4  A    between atoms: C9_11  and  O2_12 
REMARK    5  A    between atoms: C11_15  and  O3_16 
ROOT
HETATM    1  C7  UNL     1      -8.407  23.428   6.187  1.00  0.00    -0.031 A 
HETATM    2  C8  UNL     1      -8.114  23.880   7.481  1.00  0.00     0.048 A 
HETATM    3  C9  UNL     1      -8.761  24.971   8.016  1.00  0.00     0.069 A 
HETATM    4  C10 UNL     1      -9.710  25.606   7.232  1.00  0.00     0.073 A 
HETATM    5  C11 UNL     1     -10.028  25.200   5.965  1.00  0.00     0.069 A 
HETATM    6  C12 UNL     1      -9.352  24.090   5.453  1.00  0.00     0.048 A 
ENDROOT
BRANCH   1   7
HETATM    7  C6  UNL     1      -7.672  22.268   5.706  1.00  0.00     0.012 C 
HETATM    8  C5  UNL     1      -6.543  21.889   6.222  1.00  0.00     0.012 C 
BRANCH   8   9
HETATM    9  C4  UNL     1      -5.805  20.723   5.737  1.00  0.00    -0.036 A 
HETATM   10  C3  UNL     1      -5.610  20.393   4.432  1.00  0.00     0.014 A 
HETATM   11  C2  UNL     1      -4.885  19.250   4.062  1.00  0.00     0.037 A 
HETATM   12  C1  UNL     1      -4.346  18.425   5.018  1.00  0.00     0.065 A 
HETATM   13  C14 UNL     1      -4.540  18.753   6.338  1.00  0.00     0.037 A 
HETATM   14  C13 UNL     1      -5.248  19.869   6.697  1.00  0.00     0.014 A 
BRANCH  12  15
HETATM   15  O1  UNL     1      -3.627  17.292   4.693  1.00  0.00    -0.361 OA
ATOM     16  H1  UNL     1      -3.034  16.875   5.306  1.00  0.00     0.217 HD
ENDBRANCH  12  15
ENDBRANCH   8   9
ENDBRANCH   1   7
BRANCH   3  17
HETATM   17  O2  UNL     1      -8.450  25.397   9.303  1.00  0.00    -0.361 OA
ATOM     18  H2  UNL     1      -9.019  26.016   9.745  1.00  0.00     0.217 HD
ENDBRANCH   3  17
BRANCH   5  19
HETATM   19  O3  UNL     1     -10.990  25.888   5.241  1.00  0.00    -0.361 OA
ATOM     20  H3  UNL     1     -10.879  26.815   5.067  1.00  0.00     0.217 HD
ENDBRANCH   5  19
TORSDOF 5
ENDMDL
