MODEL 1
REMARK VINA RESULT: -7.059574819      0.000      0.000
REMARK  5 active torsions:
REMARK  status: ('A' for Active; 'I' for Inactive)
REMARK    1  A    between atoms: O1_1  and  C1_3 
REMARK    2  A    between atoms: C4_6  and  C5_7 
REMARK    3  A    between atoms: C6_8  and  C7_9 
REMARK    4  A    between atoms: C9_11  and  O2_12 
REMARK    5  A    between atoms: C11_15  and  O3_16 
ROOT
HETATM    1  C7  UNL     1      -8.289  23.326   6.000  1.00  0.00    -0.031 A 
HETATM    2  C8  UNL     1      -7.742  24.569   5.651  1.00  0.00     0.048 A 
HETATM    3  C9  UNL     1      -8.355  25.745   6.022  1.00  0.00     0.069 A 
HETATM    4  C10 UNL     1      -9.531  25.656   6.750  1.00  0.00     0.073 A 
HETATM    5  C11 UNL     1     -10.100  24.466   7.112  1.00  0.00     0.069 A 
HETATM    6  C12 UNL     1      -9.451  23.293   6.718  1.00  0.00     0.048 A 
ENDROOT
BRANCH   1   7
HETATM    7  C6  UNL     1      -7.570  22.140   5.563  1.00  0.00     0.012 C 
HETATM    8  C5  UNL     1      -6.448  21.762   6.095  1.00  0.00     0.012 C 
BRANCH   8   9
HETATM    9  C4  UNL     1      -5.726  20.569   5.655  1.00  0.00    -0.036 A 
HETATM   10  C3  UNL     1      -5.477  20.223   4.363  1.00  0.00     0.014 A 
HETATM   11  C2  UNL     1      -4.774  19.054   4.036  1.00  0.00     0.037 A 
HETATM   12  C1  UNL     1      -4.311  18.218   5.022  1.00  0.00     0.065 A 
HETATM   13  C14 UNL     1      -4.558  18.563   6.329  1.00  0.00     0.037 A 
HETATM   14  C13 UNL     1      -5.246  19.705   6.646  1.00  0.00     0.014 A 
BRANCH  12  15
HETATM   15  O1  UNL     1      -3.614  17.060   4.740  1.00  0.00    -0.361 OA
ATOM     16  H1  UNL     1      -2.734  17.072   4.385  1.00  0.00     0.217 HD
ENDBRANCH  12  15
ENDBRANCH   8   9
ENDBRANCH   1   7
BRANCH   3  17
HETATM   17  O2  UNL     1      -7.791  26.963   5.663  1.00  0.00    -0.361 OA
ATOM     18  H2  UNL     1      -6.898  27.163   5.917  1.00  0.00     0.217 HD
ENDBRANCH   3  17
BRANCH   5  19
HETATM   19  O3  UNL     1     -11.279  24.458   7.841  1.00  0.00    -0.361 OA
ATOM     20  H3  UNL     1     -11.264  24.669   8.767  1.00  0.00     0.217 HD
ENDBRANCH   5  19
TORSDOF 5
ENDMDL
