MODEL 2
REMARK VINA RESULT: -6.994449318      0.262      2.335
REMARK  5 active torsions:
REMARK  status: ('A' for Active; 'I' for Inactive)
REMARK    1  A    between atoms: O1_1  and  C1_3 
REMARK    2  A    between atoms: C4_6  and  C5_7 
REMARK    3  A    between atoms: C6_8  and  C7_9 
REMARK    4  A    between atoms: C9_11  and  O2_12 
REMARK    5  A    between atoms: C11_15  and  O3_16 
ROOT
HETATM    1  C7  UNL     1      -7.989  23.309   5.941  1.00  0.00    -0.031 A 
HETATM    2  C8  UNL     1      -9.196  23.221   6.649  1.00  0.00     0.048 A 
HETATM    3  C9  UNL     1      -9.907  24.351   6.983  1.00  0.00     0.069 A 
HETATM    4  C10 UNL     1      -9.390  25.577   6.594  1.00  0.00     0.073 A 
HETATM    5  C11 UNL     1      -8.218  25.709   5.902  1.00  0.00     0.069 A 
HETATM    6  C12 UNL     1      -7.522  24.542   5.580  1.00  0.00     0.048 A 
ENDROOT
BRANCH   1   7
HETATM    7  C6  UNL     1      -7.308  22.061   5.634  1.00  0.00     0.012 C 
HETATM    8  C5  UNL     1      -6.236  21.674   6.257  1.00  0.00     0.012 C 
BRANCH   8   9
HETATM    9  C4  UNL     1      -5.552  20.419   5.947  1.00  0.00    -0.036 A 
HETATM   10  C3  UNL     1      -5.096  19.518   6.858  1.00  0.00     0.014 A 
HETATM   11  C2  UNL     1      -4.448  18.337   6.466  1.00  0.00     0.037 A 
HETATM   12  C1  UNL     1      -4.256  18.055   5.135  1.00  0.00     0.065 A 
HETATM   13  C14 UNL     1      -4.714  18.962   4.210  1.00  0.00     0.037 A 
HETATM   14  C13 UNL     1      -5.346  20.115   4.596  1.00  0.00     0.014 A 
BRANCH  12  15
HETATM   15  O1  UNL     1      -3.623  16.904   4.710  1.00  0.00    -0.361 OA
ATOM     16  H1  UNL     1      -3.086  16.377   5.289  1.00  0.00     0.217 HD
ENDBRANCH  12  15
ENDBRANCH   8   9
ENDBRANCH   1   7
BRANCH   3  17
HETATM   17  O2  UNL     1     -11.101  24.235   7.686  1.00  0.00    -0.361 OA
ATOM     18  H2  UNL     1     -11.265  24.796   8.435  1.00  0.00     0.217 HD
ENDBRANCH   3  17
BRANCH   5  19
HETATM   19  O3  UNL     1      -7.765  26.971   5.547  1.00  0.00    -0.361 OA
ATOM     20  H3  UNL     1      -8.386  27.641   5.286  1.00  0.00     0.217 HD
ENDBRANCH   5  19
TORSDOF 5
ENDMDL
