MODEL 4
REMARK VINA RESULT: -6.949098022      2.124      7.087
REMARK  5 active torsions:
REMARK  status: ('A' for Active; 'I' for Inactive)
REMARK    1  A    between atoms: O1_1  and  C1_3 
REMARK    2  A    between atoms: C4_6  and  C5_7 
REMARK    3  A    between atoms: C6_8  and  C7_9 
REMARK    4  A    between atoms: C9_11  and  O2_12 
REMARK    5  A    between atoms: C11_15  and  O3_16 
ROOT
HETATM    1  C7  UNL     1      -5.578  20.524   6.245  1.00  0.00    -0.031 A 
HETATM    2  C8  UNL     1      -5.431  19.421   5.392  1.00  0.00     0.048 A 
HETATM    3  C9  UNL     1      -4.790  18.278   5.812  1.00  0.00     0.069 A 
HETATM    4  C10 UNL     1      -4.296  18.256   7.107  1.00  0.00     0.073 A 
HETATM    5  C11 UNL     1      -4.416  19.307   7.973  1.00  0.00     0.069 A 
HETATM    6  C12 UNL     1      -5.073  20.452   7.513  1.00  0.00     0.048 A 
ENDROOT
BRANCH   1   7
HETATM    7  C6  UNL     1      -6.269  21.687   5.711  1.00  0.00     0.012 C 
HETATM    8  C5  UNL     1      -5.647  22.678   5.150  1.00  0.00     0.012 C 
BRANCH   8   9
HETATM    9  C4  UNL     1      -6.343  23.847   4.614  1.00  0.00    -0.036 A 
HETATM   10  C3  UNL     1      -6.060  24.471   3.439  1.00  0.00     0.014 A 
HETATM   11  C2  UNL     1      -6.785  25.591   3.006  1.00  0.00     0.037 A 
HETATM   12  C1  UNL     1      -7.813  26.094   3.766  1.00  0.00     0.065 A 
HETATM   13  C14 UNL     1      -8.103  25.469   4.954  1.00  0.00     0.037 A 
HETATM   14  C13 UNL     1      -7.393  24.375   5.375  1.00  0.00     0.014 A 
BRANCH  12  15
HETATM   15  O1  UNL     1      -8.549  27.194   3.373  1.00  0.00    -0.361 OA
ATOM     16  H1  UNL     1      -8.866  27.839   3.994  1.00  0.00     0.217 HD
ENDBRANCH  12  15
ENDBRANCH   8   9
ENDBRANCH   1   7
BRANCH   3  17
HETATM   17  O2  UNL     1      -4.658  17.199   4.945  1.00  0.00    -0.361 OA
ATOM     18  H2  UNL     1      -3.824  17.032   4.523  1.00  0.00     0.217 HD
ENDBRANCH   3  17
BRANCH   5  19
HETATM   19  O3  UNL     1      -3.896  19.210   9.254  1.00  0.00    -0.361 OA
ATOM     20  H3  UNL     1      -4.087  19.884   9.895  1.00  0.00     0.217 HD
ENDBRANCH   5  19
TORSDOF 5
ENDMDL
