MODEL 3
REMARK VINA RESULT: -6.966108277      2.140      7.062
REMARK  5 active torsions:
REMARK  status: ('A' for Active; 'I' for Inactive)
REMARK    1  A    between atoms: O1_1  and  C1_3 
REMARK    2  A    between atoms: C4_6  and  C5_7 
REMARK    3  A    between atoms: C6_8  and  C7_9 
REMARK    4  A    between atoms: C9_11  and  O2_12 
REMARK    5  A    between atoms: C11_15  and  O3_16 
ROOT
HETATM    1  C7  UNL     1      -5.634  20.446   6.211  1.00  0.00    -0.031 A 
HETATM    2  C8  UNL     1      -5.088  20.516   7.500  1.00  0.00     0.048 A 
HETATM    3  C9  UNL     1      -4.436  19.438   8.055  1.00  0.00     0.069 A 
HETATM    4  C10 UNL     1      -4.340  18.283   7.296  1.00  0.00     0.073 A 
HETATM    5  C11 UNL     1      -4.857  18.170   6.035  1.00  0.00     0.069 A 
HETATM    6  C12 UNL     1      -5.512  19.283   5.503  1.00  0.00     0.048 A 
ENDROOT
BRANCH   1   7
HETATM    7  C6  UNL     1      -6.305  21.636   5.709  1.00  0.00     0.012 C 
HETATM    8  C5  UNL     1      -5.683  22.572   5.061  1.00  0.00     0.012 C 
BRANCH   8   9
HETATM    9  C4  UNL     1      -6.359  23.768   4.558  1.00  0.00    -0.036 A 
HETATM   10  C3  UNL     1      -6.066  24.417   3.399  1.00  0.00     0.014 A 
HETATM   11  C2  UNL     1      -6.772  25.561   2.997  1.00  0.00     0.037 A 
HETATM   12  C1  UNL     1      -7.790  26.061   3.771  1.00  0.00     0.065 A 
HETATM   13  C14 UNL     1      -8.091  25.410   4.943  1.00  0.00     0.037 A 
HETATM   14  C13 UNL     1      -7.400  24.293   5.333  1.00  0.00     0.014 A 
BRANCH  12  15
HETATM   15  O1  UNL     1      -8.507  27.184   3.409  1.00  0.00    -0.361 OA
ATOM     16  H1  UNL     1      -8.711  27.385   2.503  1.00  0.00     0.217 HD
ENDBRANCH  12  15
ENDBRANCH   8   9
ENDBRANCH   1   7
BRANCH   3  17
HETATM   17  O2  UNL     1      -3.903  19.535   9.335  1.00  0.00    -0.361 OA
ATOM     18  H2  UNL     1      -4.150  18.902   9.999  1.00  0.00     0.217 HD
ENDBRANCH   3  17
BRANCH   5  19
HETATM   19  O3  UNL     1      -4.720  16.980   5.337  1.00  0.00    -0.361 OA
ATOM     20  H3  UNL     1      -5.471  16.603   4.892  1.00  0.00     0.217 HD
ENDBRANCH   5  19
TORSDOF 5
ENDMDL
