MODEL 2
REMARK VINA RESULT: -8.444879408      1.341      2.019
REMARK  4 active torsions:
REMARK  status: ('A' for Active; 'I' for Inactive)
REMARK    1  A    between atoms: O1_2  and  C2_3 
REMARK    2  A    between atoms: C2_3  and  C3_5 
REMARK    3  A    between atoms: C3_5  and  C5_7 
REMARK    4  A    between atoms: C15_20  and  O3_21 
ROOT
HETATM    1  C5  UNL     1      69.569  -5.917  71.275  1.00  0.00     0.069 C 
HETATM    2  N1  UNL     1      70.531  -4.899  71.189  1.00  0.00    -0.354 N 
ATOM      3  H1  UNL     1      70.560  -4.515  70.244  1.00  0.00     0.166 HD
HETATM    4  C6  UNL     1      71.385  -4.305  71.937  1.00  0.00     0.055 C 
HETATM    5  C7  UNL     1      72.133  -3.263  71.285  1.00  0.00    -0.008 A 
HETATM    6  C8  UNL     1      72.138  -3.271  69.869  1.00  0.00     0.015 A 
HETATM    7  C9  UNL     1      72.591  -2.284  69.078  1.00  0.00     0.024 A 
HETATM    8  C10 UNL     1      73.108  -1.137  69.627  1.00  0.00     0.034 A 
HETATM    9 CL1  UNL     1      73.705   0.159  68.627  1.00  0.00    -0.084 Cl
HETATM   10  C11 UNL     1      73.131  -1.060  70.994  1.00  0.00     0.024 A 
HETATM   11  C12 UNL     1      72.649  -2.106  71.799  1.00  0.00     0.015 A 
HETATM   12  C13 UNL     1      71.694  -4.753  73.286  1.00  0.00     0.021 A 
HETATM   13  C14 UNL     1      72.672  -4.030  73.862  1.00  0.00     0.052 A 
HETATM   14  C15 UNL     1      72.922  -4.147  75.233  1.00  0.00     0.069 A 
HETATM   15  C17 UNL     1      72.176  -5.002  76.003  1.00  0.00     0.039 A 
HETATM   16  C18 UNL     1      71.156  -5.783  75.436  1.00  0.00     0.034 A 
HETATM   17  C19 UNL     1      70.959  -5.643  74.104  1.00  0.00     0.055 A 
HETATM   18  N2  UNL     1      70.202  -6.770  73.586  1.00  0.00    -0.282 N 
HETATM   19  C20 UNL     1      70.056  -7.905  74.273  1.00  0.00     0.100 A 
HETATM   20  C21 UNL     1      70.606  -8.367  75.544  1.00  0.00     0.091 C 
HETATM   21  N3  UNL     1      69.305  -8.717  73.429  1.00  0.00    -0.287 N 
ATOM     22  H3  UNL     1      69.005  -9.667  73.649  1.00  0.00     0.188 HD
HETATM   23  N4  UNL     1      69.042  -8.097  72.331  1.00  0.00    -0.282 N 
ATOM     24  H4  UNL     1      68.508  -8.471  71.547  1.00  0.00     0.188 HD
HETATM   25  C22 UNL     1      69.602  -6.854  72.397  1.00  0.00     0.152 A 
ENDROOT
BRANCH   1  26
HETATM   26  C3  UNL     1      69.232  -6.543  69.939  1.00  0.00     0.135 C 
HETATM   27  C4  UNL     1      69.828  -7.866  69.661  1.00  0.00     0.027 C 
BRANCH  26  28
HETATM   28  C2  UNL     1      67.775  -6.567  69.696  1.00  0.00     0.268 C 
HETATM   29  O2  UNL     1      67.191  -7.680  69.703  1.00  0.00    -0.264 OA
BRANCH  28  30
HETATM   30  O1  UNL     1      66.984  -5.466  69.459  1.00  0.00    -0.326 OA
HETATM   31  C1  UNL     1      66.328  -5.185  68.258  1.00  0.00     0.213 C 
ENDBRANCH  28  30
ENDBRANCH  26  28
ENDBRANCH   1  26
BRANCH  14  32
HETATM   32  O3  UNL     1      73.944  -3.364  75.753  1.00  0.00    -0.356 OA
HETATM   33  C16 UNL     1      75.051  -2.947  74.993  1.00  0.00     0.210 C 
ENDBRANCH  14  32
TORSDOF 4
ENDMDL
