MODEL 1
REMARK VINA RESULT: -8.445158143      0.000      0.000
REMARK  4 active torsions:
REMARK  status: ('A' for Active; 'I' for Inactive)
REMARK    1  A    between atoms: O1_2  and  C2_3 
REMARK    2  A    between atoms: C2_3  and  C3_5 
REMARK    3  A    between atoms: C3_5  and  C5_7 
REMARK    4  A    between atoms: C15_20  and  O3_21 
ROOT
HETATM    1  C5  UNL     1      69.275  -5.795  72.523  1.00  0.00     0.069 C 
HETATM    2  N1  UNL     1      70.296  -4.911  72.138  1.00  0.00    -0.354 N 
ATOM      3  H1  UNL     1      70.194  -4.657  71.155  1.00  0.00     0.166 HD
HETATM    4  C6  UNL     1      71.316  -4.326  72.646  1.00  0.00     0.055 C 
HETATM    5  C7  UNL     1      72.030  -3.467  71.739  1.00  0.00    -0.008 A 
HETATM    6  C8  UNL     1      71.789  -3.657  70.356  1.00  0.00     0.015 A 
HETATM    7  C9  UNL     1      72.185  -2.837  69.368  1.00  0.00     0.024 A 
HETATM    8  C10 UNL     1      72.889  -1.694  69.657  1.00  0.00     0.034 A 
HETATM    9 CL1  UNL     1      73.417  -0.613  68.396  1.00  0.00    -0.084 Cl
HETATM   10  C11 UNL     1      73.156  -1.446  70.977  1.00  0.00     0.024 A 
HETATM   11  C12 UNL     1      72.729  -2.319  71.991  1.00  0.00     0.015 A 
HETATM   12  C13 UNL     1      71.813  -4.630  73.979  1.00  0.00     0.021 A 
HETATM   13  C14 UNL     1      72.937  -3.955  74.280  1.00  0.00     0.052 A 
HETATM   14  C15 UNL     1      73.409  -3.922  75.596  1.00  0.00     0.069 A 
HETATM   15  C17 UNL     1      72.735  -4.582  76.591  1.00  0.00     0.039 A 
HETATM   16  C18 UNL     1      71.566  -5.310  76.313  1.00  0.00     0.034 A 
HETATM   17  C19 UNL     1      71.154  -5.319  75.023  1.00  0.00     0.055 A 
HETATM   18  N2  UNL     1      70.221  -6.411  74.802  1.00  0.00    -0.282 N 
HETATM   19  C20 UNL     1      70.095  -7.425  75.660  1.00  0.00     0.100 A 
HETATM   20  C21 UNL     1      70.814  -7.780  76.881  1.00  0.00     0.091 C 
HETATM   21  N3  UNL     1      69.140  -8.248  75.074  1.00  0.00    -0.287 N 
ATOM     22  H3  UNL     1      68.799  -9.123  75.474  1.00  0.00     0.188 HD
HETATM   23  N4  UNL     1      68.747  -7.749  73.954  1.00  0.00    -0.282 N 
ATOM     24  H4  UNL     1      68.053  -8.158  73.327  1.00  0.00     0.188 HD
HETATM   25  C22 UNL     1      69.419  -6.579  73.748  1.00  0.00     0.152 A 
ENDROOT
BRANCH   1  26
HETATM   26  C3  UNL     1      68.658  -6.545  71.363  1.00  0.00     0.135 C 
HETATM   27  C4  UNL     1      67.918  -5.736  70.373  1.00  0.00     0.027 C 
BRANCH  26  28
HETATM   28  C2  UNL     1      69.640  -7.420  70.690  1.00  0.00     0.268 C 
HETATM   29  O2  UNL     1      70.269  -6.957  69.705  1.00  0.00    -0.264 OA
BRANCH  28  30
HETATM   30  O1  UNL     1      69.935  -8.717  71.047  1.00  0.00    -0.326 OA
HETATM   31  C1  UNL     1      71.154  -9.153  71.570  1.00  0.00     0.213 C 
ENDBRANCH  28  30
ENDBRANCH  26  28
ENDBRANCH   1  26
BRANCH  14  32
HETATM   32  O3  UNL     1      74.573  -3.200  75.828  1.00  0.00    -0.356 OA
HETATM   33  C16 UNL     1      75.326  -2.612  74.797  1.00  0.00     0.210 C 
ENDBRANCH  14  32
TORSDOF 4
ENDMDL
