MODEL 3
REMARK VINA RESULT: -8.150091096      3.167      5.886
REMARK  4 active torsions:
REMARK  status: ('A' for Active; 'I' for Inactive)
REMARK    1  A    between atoms: O1_2  and  C2_3 
REMARK    2  A    between atoms: C2_3  and  C3_5 
REMARK    3  A    between atoms: C3_5  and  C5_7 
REMARK    4  A    between atoms: C15_20  and  O3_21 
ROOT
HETATM    1  C5  UNL     1      70.748  -4.715  70.335  1.00  0.00     0.069 C 
HETATM    2  N1  UNL     1      70.822  -5.086  71.687  1.00  0.00    -0.354 N 
ATOM      3  H1  UNL     1      70.065  -5.728  71.922  1.00  0.00     0.166 HD
HETATM    4  C6  UNL     1      71.553  -4.863  72.716  1.00  0.00     0.055 C 
HETATM    5  C7  UNL     1      71.148  -5.566  73.903  1.00  0.00    -0.008 A 
HETATM    6  C8  UNL     1      69.830  -6.086  73.921  1.00  0.00     0.015 A 
HETATM    7  C9  UNL     1      69.333  -6.941  74.830  1.00  0.00     0.024 A 
HETATM    8  C10 UNL     1      70.121  -7.393  75.860  1.00  0.00     0.034 A 
HETATM    9 CL1  UNL     1      69.503  -8.501  77.055  1.00  0.00    -0.084 Cl
HETATM   10  C11 UNL     1      71.410  -6.933  75.904  1.00  0.00     0.024 A 
HETATM   11  C12 UNL     1      71.906  -6.040  74.939  1.00  0.00     0.015 A 
HETATM   12  C13 UNL     1      72.602  -3.855  72.732  1.00  0.00     0.021 A 
HETATM   13  C14 UNL     1      73.190  -3.738  73.935  1.00  0.00     0.052 A 
HETATM   14  C15 UNL     1      74.379  -3.013  74.072  1.00  0.00     0.069 A 
HETATM   15  C17 UNL     1      74.953  -2.411  72.982  1.00  0.00     0.039 A 
HETATM   16  C18 UNL     1      74.361  -2.500  71.711  1.00  0.00     0.034 A 
HETATM   17  C19 UNL     1      73.206  -3.203  71.632  1.00  0.00     0.055 A 
HETATM   18  N2  UNL     1      72.500  -2.872  70.406  1.00  0.00    -0.282 N 
HETATM   19  C20 UNL     1      72.795  -1.789  69.684  1.00  0.00     0.100 A 
HETATM   20  C21 UNL     1      73.724  -0.683  69.899  1.00  0.00     0.091 C 
HETATM   21  N3  UNL     1      71.887  -1.826  68.631  1.00  0.00    -0.287 N 
ATOM     22  H3  UNL     1      71.837  -1.138  67.879  1.00  0.00     0.188 HD
HETATM   23  N4  UNL     1      71.117  -2.853  68.741  1.00  0.00    -0.282 N 
ATOM     24  H4  UNL     1      70.366  -3.109  68.100  1.00  0.00     0.188 HD
HETATM   25  C22 UNL     1      71.479  -3.540  69.864  1.00  0.00     0.152 A 
ENDROOT
BRANCH   1  26
HETATM   26  C3  UNL     1      69.368  -4.882  69.739  1.00  0.00     0.135 C 
HETATM   27  C4  UNL     1      68.674  -6.154  70.025  1.00  0.00     0.027 C 
BRANCH  26  28
HETATM   28  C2  UNL     1      68.494  -3.731  70.049  1.00  0.00     0.268 C 
HETATM   29  O2  UNL     1      68.284  -3.455  71.257  1.00  0.00    -0.264 OA
BRANCH  28  30
HETATM   30  O1  UNL     1      67.879  -2.919  69.123  1.00  0.00    -0.326 OA
HETATM   31  C1  UNL     1      67.121  -3.362  68.037  1.00  0.00     0.213 C 
ENDBRANCH  28  30
ENDBRANCH  26  28
ENDBRANCH   1  26
BRANCH  14  32
HETATM   32  O3  UNL     1      74.928  -2.942  75.346  1.00  0.00    -0.356 OA
HETATM   33  C16 UNL     1      74.345  -3.560  76.466  1.00  0.00     0.210 C 
ENDBRANCH  14  32
TORSDOF 4
ENDMDL
