MODEL 4
REMARK VINA RESULT: -7.267864389      1.709      5.628
REMARK  5 active torsions:
REMARK  status: ('A' for Active; 'I' for Inactive)
REMARK    1  A    between atoms: C2_2  and  C3_3 
REMARK    2  A    between atoms: C3_3  and  C4_4 
REMARK    3  A    between atoms: C3_3  and  C6_8 
REMARK    4  A    between atoms: C4_4  and  O2_6 
REMARK    5  A    between atoms: C16_21  and  O3_22 
ROOT
HETATM    1  C6  UNL     1      68.646  -6.431  71.526  1.00  0.00     0.165 C 
HETATM    2  N1  UNL     1      69.092  -5.702  72.723  1.00  0.00    -0.376 N 
ATOM      3  H1  UNL     1      69.040  -4.685  72.668  1.00  0.00     0.160 HD
HETATM    4  C7  UNL     1      69.540  -6.181  73.836  1.00  0.00     0.051 C 
HETATM    5  C8  UNL     1      69.935  -5.296  74.898  1.00  0.00    -0.009 A 
HETATM    6  C9  UNL     1      70.546  -5.596  76.063  1.00  0.00     0.015 A 
HETATM    7  C10 UNL     1      70.806  -4.651  77.061  1.00  0.00     0.024 A 
HETATM    8  C11 UNL     1      70.436  -3.349  76.872  1.00  0.00     0.034 A 
HETATM    9 CL1  UNL     1      70.746  -2.136  78.100  1.00  0.00    -0.084 Cl
HETATM   10  C12 UNL     1      69.808  -2.995  75.687  1.00  0.00     0.024 A 
HETATM   11  C13 UNL     1      69.568  -3.946  74.736  1.00  0.00     0.015 A 
HETATM   12  C14 UNL     1      69.572  -7.624  74.107  1.00  0.00     0.021 A 
HETATM   13  C15 UNL     1      69.215  -7.951  75.387  1.00  0.00     0.052 A 
HETATM   14  C16 UNL     1      69.208  -9.280  75.757  1.00  0.00     0.069 A 
HETATM   15  C18 UNL     1      69.550 -10.284  74.854  1.00  0.00     0.039 A 
HETATM   16  C19 UNL     1      69.914  -9.978  73.536  1.00  0.00     0.034 A 
HETATM   17  C20 UNL     1      69.907  -8.648  73.227  1.00  0.00     0.055 A 
HETATM   18  N2  UNL     1      70.247  -8.399  71.858  1.00  0.00    -0.286 N 
HETATM   19  C21 UNL     1      71.150  -9.114  71.210  1.00  0.00     0.100 A 
HETATM   20  C22 UNL     1      72.002 -10.192  71.738  1.00  0.00     0.091 C 
HETATM   21  N3  UNL     1      71.155  -8.570  69.952  1.00  0.00    -0.287 N 
ATOM     22  H3  UNL     1      71.740  -8.882  69.177  1.00  0.00     0.188 HD
HETATM   23  N4  UNL     1      70.268  -7.560  69.898  1.00  0.00    -0.285 N 
ATOM     24  H4  UNL     1      70.076  -6.986  69.076  1.00  0.00     0.188 HD
HETATM   25  C23 UNL     1      69.686  -7.428  71.073  1.00  0.00     0.128 A 
ENDROOT
BRANCH   1  26
HETATM   26  C3  UNL     1      68.315  -5.493  70.424  1.00  0.00     0.115 C 
BRANCH  26  27
HETATM   27  C2  UNL     1      66.841  -5.358  70.120  1.00  0.00     0.012 C 
HETATM   28  C1  UNL     1      66.645  -5.799  68.679  1.00  0.00     0.006 C 
ENDBRANCH  26  27
BRANCH  26  29
HETATM   29  C4  UNL     1      68.999  -4.212  70.567  1.00  0.00     0.265 C 
HETATM   30  O1  UNL     1      68.316  -3.176  70.882  1.00  0.00    -0.265 OA
BRANCH  29  31
HETATM   31  O2  UNL     1      70.349  -4.011  70.389  1.00  0.00    -0.326 OA
HETATM   32  C5  UNL     1      71.073  -3.133  71.212  1.00  0.00     0.213 C 
ENDBRANCH  29  31
ENDBRANCH  26  29
ENDBRANCH   1  26
BRANCH  14  33
HETATM   33  O3  UNL     1      68.863  -9.672  77.034  1.00  0.00    -0.356 OA
HETATM   34  C17 UNL     1      69.556  -9.285  78.192  1.00  0.00     0.210 C 
ENDBRANCH  14  33
TORSDOF 5
ENDMDL
