MODEL 3
REMARK VINA RESULT: -7.289251843      2.950      5.591
REMARK  5 active torsions:
REMARK  status: ('A' for Active; 'I' for Inactive)
REMARK    1  A    between atoms: C2_2  and  C3_3 
REMARK    2  A    between atoms: C3_3  and  C4_4 
REMARK    3  A    between atoms: C3_3  and  C6_8 
REMARK    4  A    between atoms: C4_4  and  O2_6 
REMARK    5  A    between atoms: C16_21  and  O3_22 
ROOT
HETATM    1  C6  UNL     1      68.917  -5.936  72.261  1.00  0.00     0.165 C 
HETATM    2  N1  UNL     1      70.126  -5.105  72.171  1.00  0.00    -0.376 N 
ATOM      3  H1  UNL     1      70.410  -4.836  71.228  1.00  0.00     0.160 HD
HETATM    4  C7  UNL     1      70.876  -4.670  73.128  1.00  0.00     0.051 C 
HETATM    5  C8  UNL     1      72.032  -3.866  72.834  1.00  0.00    -0.009 A 
HETATM    6  C9  UNL     1      72.999  -3.440  73.673  1.00  0.00     0.015 A 
HETATM    7  C10 UNL     1      74.036  -2.587  73.282  1.00  0.00     0.024 A 
HETATM    8  C11 UNL     1      74.100  -2.149  71.988  1.00  0.00     0.034 A 
HETATM    9 CL1  UNL     1      75.385  -1.079  71.461  1.00  0.00    -0.084 Cl
HETATM   10  C12 UNL     1      73.128  -2.565  71.091  1.00  0.00     0.024 A 
HETATM   11  C13 UNL     1      72.128  -3.397  71.510  1.00  0.00     0.015 A 
HETATM   12  C14 UNL     1      70.538  -4.881  74.541  1.00  0.00     0.021 A 
HETATM   13  C15 UNL     1      70.789  -3.795  75.335  1.00  0.00     0.052 A 
HETATM   14  C16 UNL     1      70.509  -3.877  76.684  1.00  0.00     0.069 A 
HETATM   15  C18 UNL     1      69.975  -5.037  77.242  1.00  0.00     0.039 A 
HETATM   16  C19 UNL     1      69.703  -6.162  76.451  1.00  0.00     0.034 A 
HETATM   17  C20 UNL     1      70.003  -6.024  75.126  1.00  0.00     0.055 A 
HETATM   18  N2  UNL     1      69.668  -7.188  74.362  1.00  0.00    -0.286 N 
HETATM   19  C21 UNL     1      69.806  -8.414  74.838  1.00  0.00     0.100 A 
HETATM   20  C22 UNL     1      70.371  -8.824  76.133  1.00  0.00     0.091 C 
HETATM   21  N3  UNL     1      69.363  -9.212  73.816  1.00  0.00    -0.287 N 
ATOM     22  H3  UNL     1      69.326 -10.231  73.838  1.00  0.00     0.188 HD
HETATM   23  N4  UNL     1      68.985  -8.443  72.779  1.00  0.00    -0.285 N 
ATOM     24  H4  UNL     1      68.617  -8.787  71.892  1.00  0.00     0.188 HD
HETATM   25  C23 UNL     1      69.164  -7.175  73.089  1.00  0.00     0.128 A 
ENDROOT
BRANCH   1  26
HETATM   26  C3  UNL     1      68.423  -6.308  70.911  1.00  0.00     0.115 C 
BRANCH  26  27
HETATM   27  C2  UNL     1      67.546  -5.275  70.244  1.00  0.00     0.012 C 
HETATM   28  C1  UNL     1      66.818  -5.980  69.111  1.00  0.00     0.006 C 
ENDBRANCH  26  27
BRANCH  26  29
HETATM   29  C4  UNL     1      69.494  -6.804  70.052  1.00  0.00     0.265 C 
HETATM   30  O1  UNL     1      70.349  -5.974  69.584  1.00  0.00    -0.265 OA
BRANCH  29  31
HETATM   31  O2  UNL     1      69.671  -8.120  69.688  1.00  0.00    -0.326 OA
HETATM   32  C5  UNL     1      70.941  -8.720  69.710  1.00  0.00     0.213 C 
ENDBRANCH  29  31
ENDBRANCH  26  29
ENDBRANCH   1  26
BRANCH  14  33
HETATM   33  O3  UNL     1      70.745  -2.819  77.536  1.00  0.00    -0.356 OA
HETATM   34  C17 UNL     1      69.859  -2.401  78.540  1.00  0.00     0.210 C 
ENDBRANCH  14  33
TORSDOF 5
ENDMDL
