MODEL 2
REMARK VINA RESULT: -7.414962778      3.009      5.985
REMARK  5 active torsions:
REMARK  status: ('A' for Active; 'I' for Inactive)
REMARK    1  A    between atoms: C2_2  and  C3_3 
REMARK    2  A    between atoms: C3_3  and  C4_4 
REMARK    3  A    between atoms: C3_3  and  C6_8 
REMARK    4  A    between atoms: C4_4  and  O2_6 
REMARK    5  A    between atoms: C16_21  and  O3_22 
ROOT
HETATM    1  C6  UNL     1      69.125  -5.240  70.896  1.00  0.00     0.165 C 
HETATM    2  N1  UNL     1      70.220  -4.257  70.914  1.00  0.00    -0.376 N 
ATOM      3  H1  UNL     1      70.136  -3.489  70.248  1.00  0.00     0.160 HD
HETATM    4  C7  UNL     1      71.272  -4.239  71.662  1.00  0.00     0.051 C 
HETATM    5  C8  UNL     1      72.241  -3.186  71.523  1.00  0.00    -0.009 A 
HETATM    6  C9  UNL     1      73.451  -3.070  72.109  1.00  0.00     0.015 A 
HETATM    7  C10 UNL     1      74.274  -1.949  71.960  1.00  0.00     0.024 A 
HETATM    8  C11 UNL     1      73.857  -0.903  71.184  1.00  0.00     0.034 A 
HETATM    9 CL1  UNL     1      74.862   0.519  70.974  1.00  0.00    -0.084 Cl
HETATM   10  C12 UNL     1      72.621  -0.981  70.561  1.00  0.00     0.024 A 
HETATM   11  C13 UNL     1      71.843  -2.091  70.732  1.00  0.00     0.015 A 
HETATM   12  C14 UNL     1      71.478  -5.214  72.740  1.00  0.00     0.021 A 
HETATM   13  C15 UNL     1      72.010  -4.672  73.879  1.00  0.00     0.052 A 
HETATM   14  C16 UNL     1      72.248  -5.494  74.960  1.00  0.00     0.069 A 
HETATM   15  C18 UNL     1      71.953  -6.855  74.913  1.00  0.00     0.039 A 
HETATM   16  C19 UNL     1      71.403  -7.437  73.762  1.00  0.00     0.034 A 
HETATM   17  C20 UNL     1      71.193  -6.576  72.723  1.00  0.00     0.055 A 
HETATM   18  N2  UNL     1      70.594  -7.217  71.590  1.00  0.00    -0.286 N 
HETATM   19  C21 UNL     1      70.893  -8.454  71.235  1.00  0.00     0.100 A 
HETATM   20  C22 UNL     1      71.895  -9.351  71.831  1.00  0.00     0.091 C 
HETATM   21  N3  UNL     1      70.100  -8.678  70.139  1.00  0.00    -0.287 N 
ATOM     22  H3  UNL     1      70.070  -9.544  69.601  1.00  0.00     0.188 HD
HETATM   23  N4  UNL     1      69.369  -7.578  69.883  1.00  0.00    -0.285 N 
ATOM     24  H4  UNL     1      68.699  -7.480  69.120  1.00  0.00     0.188 HD
HETATM   25  C23 UNL     1      69.656  -6.648  70.771  1.00  0.00     0.128 A 
ENDROOT
BRANCH   1  26
HETATM   26  C3  UNL     1      68.167  -4.950  69.800  1.00  0.00     0.115 C 
BRANCH  26  27
HETATM   27  C2  UNL     1      66.839  -5.662  69.908  1.00  0.00     0.012 C 
HETATM   28  C1  UNL     1      66.437  -6.062  68.498  1.00  0.00     0.006 C 
ENDBRANCH  26  27
BRANCH  26  29
HETATM   29  C4  UNL     1      68.040  -3.519  69.544  1.00  0.00     0.265 C 
HETATM   30  O1  UNL     1      67.622  -2.755  70.483  1.00  0.00    -0.265 OA
BRANCH  29  31
HETATM   31  O2  UNL     1      68.338  -2.899  68.351  1.00  0.00    -0.326 OA
HETATM   32  C5  UNL     1      67.337  -2.607  67.409  1.00  0.00     0.213 C 
ENDBRANCH  29  31
ENDBRANCH  26  29
ENDBRANCH   1  26
BRANCH  14  33
HETATM   33  O3  UNL     1      72.787  -5.007  76.133  1.00  0.00    -0.356 OA
HETATM   34  C17 UNL     1      72.173  -4.039  76.941  1.00  0.00     0.210 C 
ENDBRANCH  14  33
TORSDOF 5
ENDMDL
