MODEL 20
REMARK VINA RESULT: -6.538759415      1.980      2.184
REMARK  5 active torsions:
REMARK  status: ('A' for Active; 'I' for Inactive)
REMARK    1  A    between atoms: C2_2  and  C3_3 
REMARK    2  A    between atoms: C3_3  and  C4_4 
REMARK    3  A    between atoms: C3_3  and  C6_8 
REMARK    4  A    between atoms: C4_4  and  O2_6 
REMARK    5  A    between atoms: C16_21  and  O3_22 
ROOT
HETATM    1  C6  UNL     1      70.657  -7.170  71.852  1.00  0.00     0.165 C 
HETATM    2  N1  UNL     1      71.151  -6.624  73.125  1.00  0.00    -0.376 N 
ATOM      3  H1  UNL     1      71.228  -7.292  73.893  1.00  0.00     0.160 HD
HETATM    4  C7  UNL     1      71.500  -5.412  73.398  1.00  0.00     0.051 C 
HETATM    5  C8  UNL     1      71.956  -5.070  74.719  1.00  0.00    -0.009 A 
HETATM    6  C9  UNL     1      72.229  -3.851  75.228  1.00  0.00     0.015 A 
HETATM    7  C10 UNL     1      72.750  -3.651  76.511  1.00  0.00     0.024 A 
HETATM    8  C11 UNL     1      73.002  -4.729  77.313  1.00  0.00     0.034 A 
HETATM    9 CL1  UNL     1      73.654  -4.519  78.927  1.00  0.00    -0.084 Cl
HETATM   10  C12 UNL     1      72.732  -6.002  76.831  1.00  0.00     0.024 A 
HETATM   11  C13 UNL     1      72.226  -6.157  75.572  1.00  0.00     0.015 A 
HETATM   12  C14 UNL     1      71.548  -4.364  72.371  1.00  0.00     0.021 A 
HETATM   13  C15 UNL     1      72.626  -3.529  72.487  1.00  0.00     0.052 A 
HETATM   14  C16 UNL     1      72.776  -2.504  71.575  1.00  0.00     0.069 A 
HETATM   15  C18 UNL     1      71.857  -2.313  70.545  1.00  0.00     0.039 A 
HETATM   16  C19 UNL     1      70.747  -3.156  70.399  1.00  0.00     0.034 A 
HETATM   17  C20 UNL     1      70.648  -4.148  71.332  1.00  0.00     0.055 A 
HETATM   18  N2  UNL     1      69.519  -5.001  71.110  1.00  0.00    -0.286 N 
HETATM   19  C21 UNL     1      68.363  -4.545  70.660  1.00  0.00     0.100 A 
HETATM   20  C22 UNL     1      67.984  -3.150  70.387  1.00  0.00     0.091 C 
HETATM   21  N3  UNL     1      67.581  -5.668  70.575  1.00  0.00    -0.287 N 
ATOM     22  H3  UNL     1      66.612  -5.688  70.258  1.00  0.00     0.188 HD
HETATM   23  N4  UNL     1      68.290  -6.739  70.976  1.00  0.00    -0.285 N 
ATOM     24  H4  UNL     1      67.943  -7.697  71.010  1.00  0.00     0.188 HD
HETATM   25  C23 UNL     1      69.503  -6.355  71.317  1.00  0.00     0.128 A 
ENDROOT
BRANCH   1  26
HETATM   26  C3  UNL     1      70.259  -8.592  71.999  1.00  0.00     0.115 C 
BRANCH  26  27
HETATM   27  C2  UNL     1      70.946  -9.550  71.055  1.00  0.00     0.012 C 
HETATM   28  C1  UNL     1      70.918  -8.908  69.678  1.00  0.00     0.006 C 
ENDBRANCH  26  27
BRANCH  26  29
HETATM   29  C4  UNL     1      70.287  -9.029  73.392  1.00  0.00     0.265 C 
HETATM   30  O1  UNL     1      71.218  -9.819  73.776  1.00  0.00    -0.265 OA
BRANCH  29  31
HETATM   31  O2  UNL     1      69.376  -8.659  74.356  1.00  0.00    -0.326 OA
HETATM   32  C5  UNL     1      69.618  -8.894  75.719  1.00  0.00     0.213 C 
ENDBRANCH  29  31
ENDBRANCH  26  29
ENDBRANCH   1  26
BRANCH  14  33
HETATM   33  O3  UNL     1      73.839  -1.627  71.642  1.00  0.00    -0.356 OA
HETATM   34  C17 UNL     1      73.923  -0.433  70.910  1.00  0.00     0.210 C 
ENDBRANCH  14  33
TORSDOF 5
ENDMDL
