MODEL 5
REMARK VINA RESULT: -5.684457282      7.412     10.654
REMARK  3 active torsions:
REMARK  status: ('A' for Active; 'I' for Inactive)
REMARK    1  A    between atoms: C19_21  and  C20_22 
REMARK    2  A    between atoms: C20_22  and  C21_24 
REMARK    3  A    between atoms: C21_24  and  O4_25 
ROOT
HETATM    1  C1  UNL     1      24.893   2.018 -14.986  1.00  0.00     0.016 C 
HETATM    2  C2  UNL     1      23.845   1.833 -13.926  1.00  0.00    -0.023 C 
HETATM    3  C3  UNL     1      24.451   1.708 -12.581  1.00  0.00     0.089 C 
HETATM    4  C4  UNL     1      24.433   0.347 -11.990  1.00  0.00     0.133 C 
HETATM    5  O1  UNL     1      24.487   0.277 -10.773  1.00  0.00    -0.297 OA
HETATM    6  C5  UNL     1      24.357  -0.910 -12.760  1.00  0.00     0.072 C 
HETATM    7  C6  UNL     1      24.134  -0.557 -14.243  1.00  0.00     0.003 C 
HETATM    8  C7  UNL     1      23.735  -1.777 -15.017  1.00  0.00     0.010 C 
HETATM    9  C8  UNL     1      24.658  -2.926 -14.837  1.00  0.00     0.035 C 
HETATM   10  C9  UNL     1      25.461  -2.918 -13.599  1.00  0.00    -0.067 C 
HETATM   11  C10 UNL     1      26.254  -3.971 -13.369  1.00  0.00     0.053 C 
HETATM   12  C11 UNL     1      27.071  -4.022 -12.164  1.00  0.00     0.149 C 
HETATM   13  O2  UNL     1      28.190  -4.545 -12.180  1.00  0.00    -0.293 OA
HETATM   14  C12 UNL     1      26.512  -3.428 -10.927  1.00  0.00     0.084 C 
HETATM   15  C13 UNL     1      25.301  -2.567 -11.235  1.00  0.00     0.022 C 
HETATM   16  C14 UNL     1      25.485  -1.852 -12.578  1.00  0.00    -0.009 C 
HETATM   17  C15 UNL     1      26.834  -1.150 -12.537  1.00  0.00     0.021 C 
HETATM   18  C16 UNL     1      23.110   0.516 -14.231  1.00  0.00    -0.000 C 
HETATM   19  C17 UNL     1      22.437   0.839 -15.506  1.00  0.00     0.006 C 
HETATM   20  C18 UNL     1      22.101   2.314 -15.391  1.00  0.00     0.013 C 
HETATM   21  C19 UNL     1      22.689   2.772 -14.049  1.00  0.00     0.066 C 
ENDROOT
BRANCH  21  22
HETATM   22  C20 UNL     1      23.003   4.187 -13.998  1.00  0.00     0.154 C 
HETATM   23  O3  UNL     1      23.275   4.810 -14.996  1.00  0.00    -0.295 OA
BRANCH  22  24
HETATM   24  C21 UNL     1      22.999   4.910 -12.710  1.00  0.00     0.242 C 
BRANCH  24  25
HETATM   25  O4  UNL     1      22.152   4.324 -11.771  1.00  0.00    -0.394 OA
ATOM     26  H4  UNL     1      22.563   4.229 -10.920  1.00  0.00     0.209 HD
ENDBRANCH  24  25
ENDBRANCH  22  24
ENDBRANCH  21  22
TORSDOF 3
ENDMDL
