MODEL 2
REMARK VINA RESULT: -5.993164360      2.214      3.403
REMARK  3 active torsions:
REMARK  status: ('A' for Active; 'I' for Inactive)
REMARK    1  A    between atoms: C19_21  and  C20_22 
REMARK    2  A    between atoms: C20_22  and  C21_24 
REMARK    3  A    between atoms: C21_24  and  O4_25 
ROOT
HETATM    1  C1  UNL     1      19.337   4.956  -5.605  1.00  0.00     0.016 C 
HETATM    2  C2  UNL     1      20.057   3.708  -6.030  1.00  0.00    -0.023 C 
HETATM    3  C3  UNL     1      21.235   4.020  -6.869  1.00  0.00     0.089 C 
HETATM    4  C4  UNL     1      21.097   3.713  -8.315  1.00  0.00     0.133 C 
HETATM    5  O1  UNL     1      22.129   3.520  -8.935  1.00  0.00    -0.297 OA
HETATM    6  C5  UNL     1      19.816   3.626  -9.043  1.00  0.00     0.072 C 
HETATM    7  C6  UNL     1      18.668   3.743  -8.022  1.00  0.00     0.003 C 
HETATM    8  C7  UNL     1      17.366   3.349  -8.651  1.00  0.00     0.010 C 
HETATM    9  C8  UNL     1      17.075   4.064  -9.919  1.00  0.00     0.035 C 
HETATM   10  C9  UNL     1      18.246   4.606 -10.635  1.00  0.00    -0.067 C 
HETATM   11  C10 UNL     1      18.031   5.196 -11.816  1.00  0.00     0.053 C 
HETATM   12  C11 UNL     1      19.146   5.750 -12.571  1.00  0.00     0.149 C 
HETATM   13  O2  UNL     1      19.006   6.774 -13.248  1.00  0.00    -0.293 OA
HETATM   14  C12 UNL     1      20.447   5.043 -12.499  1.00  0.00     0.084 C 
HETATM   15  C13 UNL     1      20.456   4.036 -11.364  1.00  0.00     0.022 C 
HETATM   16  C14 UNL     1      19.649   4.567 -10.175  1.00  0.00    -0.009 C 
HETATM   17  C15 UNL     1      20.170   5.962  -9.860  1.00  0.00     0.021 C 
HETATM   18  C16 UNL     1      19.079   2.883  -6.885  1.00  0.00    -0.000 C 
HETATM   19  C17 UNL     1      18.049   2.518  -5.891  1.00  0.00     0.006 C 
HETATM   20  C18 UNL     1      18.817   2.358  -4.593  1.00  0.00     0.013 C 
HETATM   21  C19 UNL     1      20.270   2.728  -4.921  1.00  0.00     0.066 C 
ENDROOT
BRANCH  21  22
HETATM   22  C20 UNL     1      21.027   3.206  -3.780  1.00  0.00     0.154 C 
HETATM   23  O3  UNL     1      21.865   4.067  -3.893  1.00  0.00    -0.295 OA
BRANCH  22  24
HETATM   24  C21 UNL     1      20.787   2.646  -2.434  1.00  0.00     0.242 C 
BRANCH  24  25
HETATM   25  O4  UNL     1      21.123   1.295  -2.350  1.00  0.00    -0.394 OA
ATOM     26  H4  UNL     1      22.062   1.154  -2.340  1.00  0.00     0.209 HD
ENDBRANCH  24  25
ENDBRANCH  22  24
ENDBRANCH  21  22
TORSDOF 3
ENDMDL
