MODEL 3
REMARK VINA RESULT: -5.952003063      2.102      7.177
REMARK  3 active torsions:
REMARK  status: ('A' for Active; 'I' for Inactive)
REMARK    1  A    between atoms: C19_21  and  C20_22 
REMARK    2  A    between atoms: C20_22  and  C21_24 
REMARK    3  A    between atoms: C21_24  and  O4_25 
ROOT
HETATM    1  C1  UNL     1      20.750   3.093  -9.953  1.00  0.00     0.016 C 
HETATM    2  C2  UNL     1      20.462   4.511  -9.552  1.00  0.00    -0.023 C 
HETATM    3  C3  UNL     1      21.440   5.003  -8.556  1.00  0.00     0.089 C 
HETATM    4  C4  UNL     1      20.934   5.141  -7.168  1.00  0.00     0.133 C 
HETATM    5  O1  UNL     1      21.517   5.935  -6.449  1.00  0.00    -0.297 OA
HETATM    6  C5  UNL     1      19.793   4.394  -6.605  1.00  0.00     0.072 C 
HETATM    7  C6  UNL     1      19.131   3.590  -7.741  1.00  0.00     0.003 C 
HETATM    8  C7  UNL     1      17.795   3.070  -7.305  1.00  0.00     0.010 C 
HETATM    9  C8  UNL     1      17.836   2.319  -6.024  1.00  0.00     0.035 C 
HETATM   10  C9  UNL     1      18.971   2.629  -5.133  1.00  0.00    -0.067 C 
HETATM   11  C10 UNL     1      19.005   2.024  -3.941  1.00  0.00     0.053 C 
HETATM   12  C11 UNL     1      20.098   2.288  -3.016  1.00  0.00     0.149 C 
HETATM   13  O2  UNL     1      20.533   1.399  -2.278  1.00  0.00    -0.293 OA
HETATM   14  C12 UNL     1      20.665   3.657  -2.993  1.00  0.00     0.084 C 
HETATM   15  C13 UNL     1      20.207   4.457  -4.199  1.00  0.00     0.022 C 
HETATM   16  C14 UNL     1      20.090   3.547  -5.426  1.00  0.00    -0.009 C 
HETATM   17  C15 UNL     1      21.406   2.796  -5.561  1.00  0.00     0.021 C 
HETATM   18  C16 UNL     1      19.073   4.528  -8.889  1.00  0.00    -0.000 C 
HETATM   19  C17 UNL     1      18.197   4.172 -10.024  1.00  0.00     0.006 C 
HETATM   20  C18 UNL     1      18.873   4.792 -11.231  1.00  0.00     0.013 C 
HETATM   21  C19 UNL     1      20.173   5.418 -10.705  1.00  0.00     0.066 C 
ENDROOT
BRANCH  21  22
HETATM   22  C20 UNL     1      21.216   5.534 -11.706  1.00  0.00     0.154 C 
HETATM   23  O3  UNL     1      22.234   6.146 -11.489  1.00  0.00    -0.295 OA
BRANCH  22  24
HETATM   24  C21 UNL     1      21.058   4.900 -13.031  1.00  0.00     0.242 C 
BRANCH  24  25
HETATM   25  O4  UNL     1      21.918   3.818 -13.211  1.00  0.00    -0.394 OA
ATOM     26  H4  UNL     1      21.627   3.233 -13.901  1.00  0.00     0.209 HD
ENDBRANCH  24  25
ENDBRANCH  22  24
ENDBRANCH  21  22
TORSDOF 3
ENDMDL
