MODEL 8
REMARK VINA RESULT: -4.056947332      0.995      1.149
REMARK  9 active torsions:
REMARK  status: ('A' for Active; 'I' for Inactive)
REMARK    1  A    between atoms: N1_1  and  C1_5 
REMARK    2  A    between atoms: C1_5  and  C2_6 
REMARK    3  A    between atoms: C2_6  and  C3_7 
REMARK    4  A    between atoms: C3_7  and  C4_8 
REMARK    5  A    between atoms: C4_8  and  N2_9 
REMARK    6  A    between atoms: N2_9  and  C5_12 
REMARK    7  A    between atoms: C5_12  and  C6_13 
REMARK    8  A    between atoms: C6_13  and  C7_14 
REMARK    9  A    between atoms: C7_14  and  N3_15 
ROOT
HETATM    1  N2  UNL     1      20.612   3.835  -3.699  1.00  0.00    -0.075 N 
ATOM      2  H21 UNL     1      21.623   3.970  -3.707  1.00  0.00     0.277 HD
ATOM      3  H22 UNL     1      20.432   4.069  -2.723  1.00  0.00     0.277 HD
ENDROOT
BRANCH   1   4
HETATM    4  C4  UNL     1      20.252   2.451  -3.997  1.00  0.00     0.232 C 
BRANCH   4   5
HETATM    5  C3  UNL     1      19.964   1.793  -2.667  1.00  0.00     0.029 C 
BRANCH   5   6
HETATM    6  C2  UNL     1      18.795   0.848  -2.707  1.00  0.00     0.029 C 
BRANCH   6   7
HETATM    7  C1  UNL     1      18.642   0.191  -4.051  1.00  0.00     0.229 C 
BRANCH   7   8
HETATM    8  N1  UNL     1      17.883  -1.030  -3.987  1.00  0.00    -0.079 N 
ATOM      9  H13 UNL     1      18.325  -1.705  -3.363  1.00  0.00     0.274 HD
ATOM     10  H12 UNL     1      17.007  -0.892  -3.483  1.00  0.00     0.274 HD
ATOM     11  H11 UNL     1      17.716  -1.437  -4.907  1.00  0.00     0.274 HD
ENDBRANCH   7   8
ENDBRANCH   6   7
ENDBRANCH   5   6
ENDBRANCH   4   5
ENDBRANCH   1   4
BRANCH   1  12
HETATM   12  C5  UNL     1      19.942   4.753  -4.603  1.00  0.00     0.233 C 
BRANCH  12  13
HETATM   13  C6  UNL     1      20.319   6.161  -4.145  1.00  0.00     0.055 C 
BRANCH  13  14
HETATM   14  C7  UNL     1      21.053   6.904  -5.242  1.00  0.00     0.231 C 
BRANCH  14  15
HETATM   15  N3  UNL     1      21.054   8.309  -4.880  1.00  0.00    -0.079 N 
ATOM     16  H33 UNL     1      20.480   8.882  -5.499  1.00  0.00     0.274 HD
ATOM     17  H32 UNL     1      20.546   8.500  -4.017  1.00  0.00     0.274 HD
ATOM     18  H31 UNL     1      22.028   8.610  -4.846  1.00  0.00     0.274 HD
ENDBRANCH  14  15
ENDBRANCH  13  14
ENDBRANCH  12  13
ENDBRANCH   1  12
TORSDOF 9
ENDMDL
