MODEL 7
REMARK VINA RESULT: -4.059407889      1.125      1.150
REMARK  9 active torsions:
REMARK  status: ('A' for Active; 'I' for Inactive)
REMARK    1  A    between atoms: N1_1  and  C1_5 
REMARK    2  A    between atoms: C1_5  and  C2_6 
REMARK    3  A    between atoms: C2_6  and  C3_7 
REMARK    4  A    between atoms: C3_7  and  C4_8 
REMARK    5  A    between atoms: C4_8  and  N2_9 
REMARK    6  A    between atoms: N2_9  and  C5_12 
REMARK    7  A    between atoms: C5_12  and  C6_13 
REMARK    8  A    between atoms: C6_13  and  C7_14 
REMARK    9  A    between atoms: C7_14  and  N3_15 
ROOT
HETATM    1  N2  UNL     1      21.405   3.037  -4.258  1.00  0.00    -0.075 N 
ATOM      2  H21 UNL     1      21.592   3.268  -5.234  1.00  0.00     0.277 HD
ATOM      3  H22 UNL     1      22.045   2.248  -4.159  1.00  0.00     0.277 HD
ENDROOT
BRANCH   1   4
HETATM    4  C4  UNL     1      20.016   2.633  -4.056  1.00  0.00     0.232 C 
BRANCH   4   5
HETATM    5  C3  UNL     1      19.999   1.788  -2.803  1.00  0.00     0.029 C 
BRANCH   5   6
HETATM    6  C2  UNL     1      18.823   0.853  -2.728  1.00  0.00     0.029 C 
BRANCH   6   7
HETATM    7  C1  UNL     1      18.430   0.326  -4.080  1.00  0.00     0.229 C 
BRANCH   7   8
HETATM    8  N1  UNL     1      17.939  -1.026  -4.025  1.00  0.00    -0.079 N 
ATOM      9  H13 UNL     1      17.025  -1.066  -3.574  1.00  0.00     0.274 HD
ATOM     10  H12 UNL     1      17.678  -1.360  -4.954  1.00  0.00     0.274 HD
ATOM     11  H11 UNL     1      18.597  -1.665  -3.578  1.00  0.00     0.274 HD
ENDBRANCH   7   8
ENDBRANCH   6   7
ENDBRANCH   5   6
ENDBRANCH   4   5
ENDBRANCH   1   4
BRANCH   1  12
HETATM   12  C5  UNL     1      21.763   4.130  -3.371  1.00  0.00     0.233 C 
BRANCH  12  13
HETATM   13  C6  UNL     1      20.985   5.353  -3.857  1.00  0.00     0.055 C 
BRANCH  13  14
HETATM   14  C7  UNL     1      21.791   6.131  -4.876  1.00  0.00     0.231 C 
BRANCH  14  15
HETATM   15  N3  UNL     1      21.081   6.043  -6.140  1.00  0.00    -0.079 N 
ATOM     16  H33 UNL     1      20.491   5.214  -6.210  1.00  0.00     0.274 HD
ATOM     17  H32 UNL     1      20.341   6.739  -6.232  1.00  0.00     0.274 HD
ATOM     18  H31 UNL     1      21.780   6.102  -6.881  1.00  0.00     0.274 HD
ENDBRANCH  14  15
ENDBRANCH  13  14
ENDBRANCH  12  13
ENDBRANCH   1  12
TORSDOF 9
ENDMDL
