MODEL 3
REMARK VINA RESULT: -4.266087977      0.958      5.454
REMARK  9 active torsions:
REMARK  status: ('A' for Active; 'I' for Inactive)
REMARK    1  A    between atoms: N1_1  and  C1_5 
REMARK    2  A    between atoms: C1_5  and  C2_6 
REMARK    3  A    between atoms: C2_6  and  C3_7 
REMARK    4  A    between atoms: C3_7  and  C4_8 
REMARK    5  A    between atoms: C4_8  and  N2_9 
REMARK    6  A    between atoms: N2_9  and  C5_12 
REMARK    7  A    between atoms: C5_12  and  C6_13 
REMARK    8  A    between atoms: C6_13  and  C7_14 
REMARK    9  A    between atoms: C7_14  and  N3_15 
ROOT
HETATM    1  N2  UNL     1      20.665   1.696  -3.964  1.00  0.00    -0.075 N 
ATOM      2  H21 UNL     1      21.588   1.265  -3.997  1.00  0.00     0.277 HD
ATOM      3  H22 UNL     1      20.172   1.055  -4.587  1.00  0.00     0.277 HD
ENDROOT
BRANCH   1   4
HETATM    4  C4  UNL     1      20.685   3.056  -4.496  1.00  0.00     0.232 C 
BRANCH   4   5
HETATM    5  C3  UNL     1      20.904   3.970  -3.312  1.00  0.00     0.029 C 
BRANCH   5   6
HETATM    6  C2  UNL     1      21.155   5.401  -3.700  1.00  0.00     0.029 C 
BRANCH   6   7
HETATM    7  C1  UNL     1      20.093   5.934  -4.623  1.00  0.00     0.229 C 
BRANCH   7   8
HETATM    8  N1  UNL     1      19.636   7.244  -4.241  1.00  0.00    -0.079 N 
ATOM      9  H13 UNL     1      19.872   7.447  -3.270  1.00  0.00     0.274 HD
ATOM     10  H12 UNL     1      20.185   7.972  -4.699  1.00  0.00     0.274 HD
ATOM     11  H11 UNL     1      18.638   7.376  -4.410  1.00  0.00     0.274 HD
ENDBRANCH   7   8
ENDBRANCH   6   7
ENDBRANCH   5   6
ENDBRANCH   4   5
ENDBRANCH   1   4
BRANCH   1  12
HETATM   12  C5  UNL     1      20.109   1.670  -2.623  1.00  0.00     0.233 C 
BRANCH  12  13
HETATM   13  C6  UNL     1      18.762   0.956  -2.727  1.00  0.00     0.055 C 
BRANCH  13  14
HETATM   14  C7  UNL     1      18.726   0.052  -3.942  1.00  0.00     0.231 C 
BRANCH  14  15
HETATM   15  N3  UNL     1      17.619  -0.868  -3.759  1.00  0.00    -0.079 N 
ATOM     16  H33 UNL     1      17.804  -1.798  -4.135  1.00  0.00     0.274 HD
ATOM     17  H32 UNL     1      17.486  -1.144  -2.786  1.00  0.00     0.274 HD
ATOM     18  H31 UNL     1      16.793  -0.429  -4.166  1.00  0.00     0.274 HD
ENDBRANCH  14  15
ENDBRANCH  13  14
ENDBRANCH  12  13
ENDBRANCH   1  12
TORSDOF 9
ENDMDL
