MODEL 2
REMARK VINA RESULT: -4.271541942      1.880      5.325
REMARK  9 active torsions:
REMARK  status: ('A' for Active; 'I' for Inactive)
REMARK    1  A    between atoms: N1_1  and  C1_5 
REMARK    2  A    between atoms: C1_5  and  C2_6 
REMARK    3  A    between atoms: C2_6  and  C3_7 
REMARK    4  A    between atoms: C3_7  and  C4_8 
REMARK    5  A    between atoms: C4_8  and  N2_9 
REMARK    6  A    between atoms: N2_9  and  C5_12 
REMARK    7  A    between atoms: C5_12  and  C6_13 
REMARK    8  A    between atoms: C6_13  and  C7_14 
REMARK    9  A    between atoms: C7_14  and  N3_15 
ROOT
HETATM    1  N2  UNL     1      19.874   0.821  -3.627  1.00  0.00    -0.075 N 
ATOM      2  H21 UNL     1      20.664   0.179  -3.569  1.00  0.00     0.277 HD
ATOM      3  H22 UNL     1      20.224   1.432  -4.366  1.00  0.00     0.277 HD
ENDROOT
BRANCH   1   4
HETATM    4  C4  UNL     1      19.677   1.547  -2.375  1.00  0.00     0.232 C 
BRANCH   4   5
HETATM    5  C3  UNL     1      20.694   2.666  -2.370  1.00  0.00     0.029 C 
BRANCH   5   6
HETATM    6  C2  UNL     1      20.725   3.452  -3.652  1.00  0.00     0.029 C 
BRANCH   6   7
HETATM    7  C1  UNL     1      21.519   4.723  -3.519  1.00  0.00     0.229 C 
BRANCH   7   8
HETATM    8  N1  UNL     1      22.786   4.658  -4.199  1.00  0.00    -0.079 N 
ATOM      9  H13 UNL     1      22.753   3.995  -4.973  1.00  0.00     0.274 HD
ATOM     10  H12 UNL     1      22.964   5.514  -4.724  1.00  0.00     0.274 HD
ATOM     11  H11 UNL     1      23.559   4.447  -3.568  1.00  0.00     0.274 HD
ENDBRANCH   7   8
ENDBRANCH   6   7
ENDBRANCH   5   6
ENDBRANCH   4   5
ENDBRANCH   1   4
BRANCH   1  12
HETATM   12  C5  UNL     1      18.657   0.138  -4.030  1.00  0.00     0.233 C 
BRANCH  12  13
HETATM   13  C6  UNL     1      17.867   1.131  -4.881  1.00  0.00     0.055 C 
BRANCH  13  14
HETATM   14  C7  UNL     1      17.759   0.645  -6.311  1.00  0.00     0.231 C 
BRANCH  14  15
HETATM   15  N3  UNL     1      17.891  -0.801  -6.283  1.00  0.00    -0.079 N 
ATOM     16  H33 UNL     1      18.775  -1.114  -5.883  1.00  0.00     0.274 HD
ATOM     17  H32 UNL     1      17.275  -1.244  -5.602  1.00  0.00     0.274 HD
ATOM     18  H31 UNL     1      17.741  -1.135  -7.235  1.00  0.00     0.274 HD
ENDBRANCH  14  15
ENDBRANCH  13  14
ENDBRANCH  12  13
ENDBRANCH   1  12
TORSDOF 9
ENDMDL
