MODEL 5
REMARK VINA RESULT: -4.206605010      1.171      5.527
REMARK  9 active torsions:
REMARK  status: ('A' for Active; 'I' for Inactive)
REMARK    1  A    between atoms: N1_1  and  C1_5 
REMARK    2  A    between atoms: C1_5  and  C2_6 
REMARK    3  A    between atoms: C2_6  and  C3_7 
REMARK    4  A    between atoms: C3_7  and  C4_8 
REMARK    5  A    between atoms: C4_8  and  N2_9 
REMARK    6  A    between atoms: N2_9  and  C5_12 
REMARK    7  A    between atoms: C5_12  and  C6_13 
REMARK    8  A    between atoms: C6_13  and  C7_14 
REMARK    9  A    between atoms: C7_14  and  N3_15 
ROOT
HETATM    1  N2  UNL     1      20.455   1.665  -3.257  1.00  0.00    -0.075 N 
ATOM      2  H21 UNL     1      21.074   0.894  -3.006  1.00  0.00     0.277 HD
ATOM      3  H22 UNL     1      20.683   1.729  -4.250  1.00  0.00     0.277 HD
ENDROOT
BRANCH   1   4
HETATM    4  C4  UNL     1      20.804   2.891  -2.544  1.00  0.00     0.232 C 
BRANCH   4   5
HETATM    5  C3  UNL     1      21.349   3.844  -3.583  1.00  0.00     0.029 C 
BRANCH   5   6
HETATM    6  C2  UNL     1      20.325   4.816  -4.101  1.00  0.00     0.029 C 
BRANCH   6   7
HETATM    7  C1  UNL     1      20.570   6.215  -3.607  1.00  0.00     0.229 C 
BRANCH   7   8
HETATM    8  N1  UNL     1      19.793   7.197  -4.318  1.00  0.00    -0.079 N 
ATOM      9  H13 UNL     1      18.912   7.384  -3.841  1.00  0.00     0.274 HD
ATOM     10  H12 UNL     1      20.217   8.122  -4.247  1.00  0.00     0.274 HD
ATOM     11  H11 UNL     1      19.635   6.940  -5.293  1.00  0.00     0.274 HD
ENDBRANCH   7   8
ENDBRANCH   6   7
ENDBRANCH   5   6
ENDBRANCH   4   5
ENDBRANCH   1   4
BRANCH   1  12
HETATM   12  C5  UNL     1      19.059   1.322  -3.050  1.00  0.00     0.233 C 
BRANCH  12  13
HETATM   13  C6  UNL     1      18.780   0.101  -3.925  1.00  0.00     0.055 C 
BRANCH  13  14
HETATM   14  C7  UNL     1      18.017   0.497  -5.172  1.00  0.00     0.231 C 
BRANCH  14  15
HETATM   15  N3  UNL     1      17.967  -0.671  -6.032  1.00  0.00    -0.079 N 
ATOM     16  H33 UNL     1      18.614  -0.618  -6.818  1.00  0.00     0.274 HD
ATOM     17  H32 UNL     1      18.359  -1.506  -5.595  1.00  0.00     0.274 HD
ATOM     18  H31 UNL     1      16.995  -0.790  -6.320  1.00  0.00     0.274 HD
ENDBRANCH  14  15
ENDBRANCH  13  14
ENDBRANCH  12  13
ENDBRANCH   1  12
TORSDOF 9
ENDMDL
