MODEL 1
REMARK VINA RESULT: -4.380184629      0.000      0.000
REMARK  9 active torsions:
REMARK  status: ('A' for Active; 'I' for Inactive)
REMARK    1  A    between atoms: N1_1  and  C1_5 
REMARK    2  A    between atoms: C1_5  and  C2_6 
REMARK    3  A    between atoms: C2_6  and  C3_7 
REMARK    4  A    between atoms: C3_7  and  C4_8 
REMARK    5  A    between atoms: C4_8  and  N2_9 
REMARK    6  A    between atoms: N2_9  and  C5_12 
REMARK    7  A    between atoms: C5_12  and  C6_13 
REMARK    8  A    between atoms: C6_13  and  C7_14 
REMARK    9  A    between atoms: C7_14  and  N3_15 
ROOT
HETATM    1  N2  UNL     1      21.557   3.330  -3.334  1.00  0.00    -0.075 N 
ATOM      2  H21 UNL     1      22.339   2.698  -3.161  1.00  0.00     0.277 HD
ATOM      3  H22 UNL     1      21.469   3.727  -2.398  1.00  0.00     0.277 HD
ENDROOT
BRANCH   1   4
HETATM    4  C4  UNL     1      20.353   2.603  -3.727  1.00  0.00     0.232 C 
BRANCH   4   5
HETATM    5  C3  UNL     1      20.040   1.657  -2.590  1.00  0.00     0.029 C 
BRANCH   5   6
HETATM    6  C2  UNL     1      18.743   0.916  -2.769  1.00  0.00     0.029 C 
BRANCH   6   7
HETATM    7  C1  UNL     1      18.696   0.160  -4.068  1.00  0.00     0.229 C 
BRANCH   7   8
HETATM    8  N1  UNL     1      17.873  -1.019  -3.992  1.00  0.00    -0.079 N 
ATOM      9  H13 UNL     1      16.890  -0.790  -4.137  1.00  0.00     0.274 HD
ATOM     10  H12 UNL     1      18.022  -1.623  -4.800  1.00  0.00     0.274 HD
ATOM     11  H11 UNL     1      18.004  -1.533  -3.120  1.00  0.00     0.274 HD
ENDBRANCH   7   8
ENDBRANCH   6   7
ENDBRANCH   5   6
ENDBRANCH   4   5
ENDBRANCH   1   4
BRANCH   1  12
HETATM   12  C5  UNL     1      21.897   4.345  -4.316  1.00  0.00     0.233 C 
BRANCH  12  13
HETATM   13  C6  UNL     1      20.623   5.153  -4.559  1.00  0.00     0.055 C 
BRANCH  13  14
HETATM   14  C7  UNL     1      20.585   6.376  -3.666  1.00  0.00     0.231 C 
BRANCH  14  15
HETATM   15  N3  UNL     1      19.633   7.303  -4.250  1.00  0.00    -0.079 N 
ATOM     16  H33 UNL     1      20.071   8.146  -4.623  1.00  0.00     0.274 HD
ATOM     17  H32 UNL     1      19.232   6.966  -5.125  1.00  0.00     0.274 HD
ATOM     18  H31 UNL     1      18.930   7.499  -3.538  1.00  0.00     0.274 HD
ENDBRANCH  14  15
ENDBRANCH  13  14
ENDBRANCH  12  13
ENDBRANCH   1  12
TORSDOF 9
ENDMDL
