MODEL 16
REMARK VINA RESULT: -4.011110519      1.479      1.973
REMARK  9 active torsions:
REMARK  status: ('A' for Active; 'I' for Inactive)
REMARK    1  A    between atoms: N1_1  and  C1_5 
REMARK    2  A    between atoms: C1_5  and  C2_6 
REMARK    3  A    between atoms: C2_6  and  C3_7 
REMARK    4  A    between atoms: C3_7  and  C4_8 
REMARK    5  A    between atoms: C4_8  and  N2_9 
REMARK    6  A    between atoms: N2_9  and  C5_12 
REMARK    7  A    between atoms: C5_12  and  C6_13 
REMARK    8  A    between atoms: C6_13  and  C7_14 
REMARK    9  A    between atoms: C7_14  and  N3_15 
ROOT
HETATM    1  N2  UNL     1      19.582   3.768  -5.172  1.00  0.00    -0.075 N 
ATOM      2  H21 UNL     1      18.581   3.946  -5.257  1.00  0.00     0.277 HD
ATOM      3  H22 UNL     1      19.881   4.126  -6.079  1.00  0.00     0.277 HD
ENDROOT
BRANCH   1   4
HETATM    4  C4  UNL     1      19.866   2.342  -5.034  1.00  0.00     0.232 C 
BRANCH   4   5
HETATM    5  C3  UNL     1      19.862   2.051  -3.551  1.00  0.00     0.029 C 
BRANCH   5   6
HETATM    6  C2  UNL     1      18.856   1.008  -3.148  1.00  0.00     0.029 C 
BRANCH   6   7
HETATM    7  C1  UNL     1      18.277   0.289  -4.336  1.00  0.00     0.229 C 
BRANCH   7   8
HETATM    8  N1  UNL     1      17.934  -1.078  -4.043  1.00  0.00    -0.079 N 
ATOM      9  H13 UNL     1      17.422  -1.147  -3.164  1.00  0.00     0.274 HD
ATOM     10  H12 UNL     1      17.214  -1.420  -4.679  1.00  0.00     0.274 HD
ATOM     11  H11 UNL     1      18.747  -1.694  -4.043  1.00  0.00     0.274 HD
ENDBRANCH   7   8
ENDBRANCH   6   7
ENDBRANCH   5   6
ENDBRANCH   4   5
ENDBRANCH   1   4
BRANCH   1  12
HETATM   12  C5  UNL     1      20.169   4.523  -4.079  1.00  0.00     0.233 C 
BRANCH  12  13
HETATM   13  C6  UNL     1      20.956   5.666  -4.717  1.00  0.00     0.055 C 
BRANCH  13  14
HETATM   14  C7  UNL     1      22.411   5.286  -4.891  1.00  0.00     0.231 C 
BRANCH  14  15
HETATM   15  N3  UNL     1      22.755   4.399  -3.794  1.00  0.00    -0.079 N 
ATOM     16  H33 UNL     1      22.876   4.888  -2.907  1.00  0.00     0.274 HD
ATOM     17  H32 UNL     1      21.981   3.799  -3.508  1.00  0.00     0.274 HD
ATOM     18  H31 UNL     1      23.582   3.875  -4.079  1.00  0.00     0.274 HD
ENDBRANCH  14  15
ENDBRANCH  13  14
ENDBRANCH  12  13
ENDBRANCH   1  12
TORSDOF 9
ENDMDL
