MODEL 10
REMARK VINA RESULT: -7.391655671      1.948      2.186
REMARK  5 active torsions:
REMARK  status: ('A' for Active; 'I' for Inactive)
REMARK    1  A    between atoms: N1_1  and  C1_5 
REMARK    2  A    between atoms: C1_5  and  C2_6 
REMARK    3  A    between atoms: C1_5  and  C12_22 
REMARK    4  A    between atoms: C2_6  and  C3_7 
REMARK    5  A    between atoms: C3_7  and  C4_8 
ROOT
HETATM    1  C4  UNL     1      61.152 -27.759 -35.224  1.00  0.00    -0.056 A 
HETATM    2  C5  UNL     1      60.658 -27.544 -33.977  1.00  0.00     0.009 A 
HETATM    3  C6  UNL     1      59.985 -26.361 -33.701  1.00  0.00     0.032 A 
HETATM    4  C7  UNL     1      59.815 -25.410 -34.677  1.00  0.00     0.062 A 
HETATM    5  N2  UNL     1      59.150 -24.260 -34.373  1.00  0.00    -0.317 N 
ATOM      6  H2  UNL     1      58.790 -24.124 -33.429  1.00  0.00     0.169 HD
HETATM    7  C8  UNL     1      58.959 -23.301 -35.296  1.00  0.00     0.314 A 
HETATM    8  O1  UNL     1      58.340 -22.226 -35.019  1.00  0.00    -0.262 OA
HETATM    9  C9  UNL     1      59.465 -23.520 -36.579  1.00  0.00     0.314 A 
HETATM   10  O2  UNL     1      59.270 -22.605 -37.418  1.00  0.00    -0.262 OA
HETATM   11  N3  UNL     1      60.121 -24.661 -36.868  1.00  0.00    -0.317 N 
ATOM     12  H3  UNL     1      60.484 -24.805 -37.810  1.00  0.00     0.169 HD
HETATM   13  C10 UNL     1      60.305 -25.606 -35.943  1.00  0.00     0.062 A 
HETATM   14  C11 UNL     1      60.973 -26.795 -36.193  1.00  0.00     0.039 A 
ENDROOT
BRANCH   1  15
HETATM   15  C3  UNL     1      61.881 -29.000 -35.549  1.00  0.00     0.041 C 
BRANCH  15  16
HETATM   16  C2  UNL     1      61.056 -30.177 -35.867  1.00  0.00     0.048 C 
BRANCH  16  17
HETATM   17  C1  UNL     1      61.135 -31.391 -35.048  1.00  0.00     0.283 C 
BRANCH  17  18
HETATM   18  N1  UNL     1      61.737 -32.480 -35.868  1.00  0.00    -0.065 N 
ATOM     19  H13 UNL     1      61.551 -33.407 -35.485  1.00  0.00     0.275 HD
ATOM     20  H12 UNL     1      61.266 -32.601 -36.764  1.00  0.00     0.275 HD
ATOM     21  H11 UNL     1      62.735 -32.295 -35.974  1.00  0.00     0.275 HD
ENDBRANCH  17  18
BRANCH  17  22
HETATM   22  C12 UNL     1      59.869 -31.937 -34.574  1.00  0.00     0.204 C 
HETATM   23  O3  UNL     1      59.806 -33.026 -33.979  1.00  0.00    -0.646 OA
HETATM   24  O4  UNL     1      58.685 -31.255 -34.772  1.00  0.00    -0.646 OA
ENDBRANCH  17  22
ENDBRANCH  16  17
ENDBRANCH  15  16
ENDBRANCH   1  15
TORSDOF 5
ENDMDL
