MODEL 1
REMARK VINA RESULT: -8.511705076      0.000      0.000
REMARK  5 active torsions:
REMARK  status: ('A' for Active; 'I' for Inactive)
REMARK    1  A    between atoms: N1_1  and  C1_5 
REMARK    2  A    between atoms: C1_5  and  C2_6 
REMARK    3  A    between atoms: C1_5  and  C12_22 
REMARK    4  A    between atoms: C2_6  and  C3_7 
REMARK    5  A    between atoms: C3_7  and  C4_8 
ROOT
HETATM    1  C4  UNL     1      60.423 -28.493 -36.596  1.00  0.00    -0.056 A 
HETATM    2  C5  UNL     1      61.643 -28.032 -36.212  1.00  0.00     0.009 A 
HETATM    3  C6  UNL     1      61.887 -26.665 -36.202  1.00  0.00     0.032 A 
HETATM    4  C7  UNL     1      60.908 -25.778 -36.574  1.00  0.00     0.062 A 
HETATM    5  N2  UNL     1      61.180 -24.443 -36.552  1.00  0.00    -0.317 N 
ATOM      6  H2  UNL     1      62.104 -24.125 -36.260  1.00  0.00     0.169 HD
HETATM    7  C8  UNL     1      60.252 -23.536 -36.908  1.00  0.00     0.314 A 
HETATM    8  O1  UNL     1      60.499 -22.290 -36.891  1.00  0.00    -0.262 OA
HETATM    9  C9  UNL     1      58.998 -24.007 -37.302  1.00  0.00     0.314 A 
HETATM   10  O2  UNL     1      58.154 -23.135 -37.629  1.00  0.00    -0.262 OA
HETATM   11  N3  UNL     1      58.739 -25.330 -37.320  1.00  0.00    -0.317 N 
ATOM     12  H3  UNL     1      57.818 -25.656 -37.610  1.00  0.00     0.169 HD
HETATM   13  C10 UNL     1      59.669 -26.221 -36.965  1.00  0.00     0.062 A 
HETATM   14  C11 UNL     1      59.451 -27.589 -36.967  1.00  0.00     0.039 A 
ENDROOT
BRANCH   1  15
HETATM   15  C3  UNL     1      60.133 -29.939 -36.629  1.00  0.00     0.041 C 
BRANCH  15  16
HETATM   16  C2  UNL     1      60.680 -30.739 -35.522  1.00  0.00     0.048 C 
BRANCH  16  17
HETATM   17  C1  UNL     1      59.807 -31.602 -34.717  1.00  0.00     0.283 C 
BRANCH  17  18
HETATM   18  N1  UNL     1      59.769 -31.073 -33.324  1.00  0.00    -0.065 N 
ATOM     19  H13 UNL     1      60.477 -31.498 -32.726  1.00  0.00     0.275 HD
ATOM     20  H12 UNL     1      60.094 -30.108 -33.264  1.00  0.00     0.275 HD
ATOM     21  H11 UNL     1      58.825 -31.191 -32.956  1.00  0.00     0.275 HD
ENDBRANCH  17  18
BRANCH  17  22
HETATM   22  C12 UNL     1      60.220 -32.993 -34.579  1.00  0.00     0.204 C 
HETATM   23  O3  UNL     1      59.400 -33.901 -34.357  1.00  0.00    -0.646 OA
HETATM   24  O4  UNL     1      61.548 -33.353 -34.691  1.00  0.00    -0.646 OA
ENDBRANCH  17  22
ENDBRANCH  16  17
ENDBRANCH  15  16
ENDBRANCH   1  15
TORSDOF 5
ENDMDL
