MODEL 7
REMARK VINA RESULT: -7.528680327      3.805      4.941
REMARK  5 active torsions:
REMARK  status: ('A' for Active; 'I' for Inactive)
REMARK    1  A    between atoms: N1_1  and  C1_5 
REMARK    2  A    between atoms: C1_5  and  C2_6 
REMARK    3  A    between atoms: C1_5  and  C12_22 
REMARK    4  A    between atoms: C2_6  and  C3_7 
REMARK    5  A    between atoms: C3_7  and  C4_8 
ROOT
HETATM    1  C4  UNL     1      61.366 -29.289 -34.757  1.00  0.00    -0.056 A 
HETATM    2  C5  UNL     1      60.923 -28.073 -35.169  1.00  0.00     0.009 A 
HETATM    3  C6  UNL     1      60.942 -27.001 -34.286  1.00  0.00     0.032 A 
HETATM    4  C7  UNL     1      61.404 -27.161 -33.003  1.00  0.00     0.062 A 
HETATM    5  N2  UNL     1      61.410 -26.089 -32.162  1.00  0.00    -0.317 N 
ATOM      6  H2  UNL     1      61.072 -25.188 -32.498  1.00  0.00     0.169 HD
HETATM    7  C8  UNL     1      61.853 -26.197 -30.897  1.00  0.00     0.314 A 
HETATM    8  O1  UNL     1      61.861 -25.202 -30.107  1.00  0.00    -0.262 OA
HETATM    9  C9  UNL     1      62.310 -27.447 -30.471  1.00  0.00     0.314 A 
HETATM   10  O2  UNL     1      62.717 -27.515 -29.284  1.00  0.00    -0.262 OA
HETATM   11  N3  UNL     1      62.300 -28.501 -31.311  1.00  0.00    -0.317 N 
ATOM     12  H3  UNL     1      62.637 -29.405 -30.984  1.00  0.00     0.169 HD
HETATM   13  C10 UNL     1      61.856 -28.381 -32.565  1.00  0.00     0.062 A 
HETATM   14  C11 UNL     1      61.826 -29.434 -33.465  1.00  0.00     0.039 A 
ENDROOT
BRANCH   1  15
HETATM   15  C3  UNL     1      61.349 -30.452 -35.665  1.00  0.00     0.041 C 
BRANCH  15  16
HETATM   16  C2  UNL     1      61.626 -31.762 -35.052  1.00  0.00     0.048 C 
BRANCH  16  17
HETATM   17  C1  UNL     1      60.627 -32.836 -35.095  1.00  0.00     0.283 C 
BRANCH  17  18
HETATM   18  N1  UNL     1      59.493 -32.466 -34.202  1.00  0.00    -0.065 N 
ATOM     19  H13 UNL     1      58.767 -33.182 -34.175  1.00  0.00     0.275 HD
ATOM     20  H12 UNL     1      59.749 -32.489 -33.215  1.00  0.00     0.275 HD
ATOM     21  H11 UNL     1      59.133 -31.556 -34.490  1.00  0.00     0.275 HD
ENDBRANCH  17  18
BRANCH  17  22
HETATM   22  C12 UNL     1      61.063 -34.144 -34.624  1.00  0.00     0.204 C 
HETATM   23  O3  UNL     1      62.217 -34.340 -34.206  1.00  0.00    -0.646 OA
HETATM   24  O4  UNL     1      60.201 -35.223 -34.627  1.00  0.00    -0.646 OA
ENDBRANCH  17  22
ENDBRANCH  16  17
ENDBRANCH  15  16
ENDBRANCH   1  15
TORSDOF 5
ENDMDL
