MODEL 2
REMARK VINA RESULT: -8.226930289      0.982      1.110
REMARK  5 active torsions:
REMARK  status: ('A' for Active; 'I' for Inactive)
REMARK    1  A    between atoms: N1_1  and  C1_5 
REMARK    2  A    between atoms: C1_5  and  C2_6 
REMARK    3  A    between atoms: C1_5  and  C12_22 
REMARK    4  A    between atoms: C2_6  and  C3_7 
REMARK    5  A    between atoms: C3_7  and  C4_8 
ROOT
HETATM    1  C4  UNL     1      60.459 -28.381 -36.573  1.00  0.00    -0.056 A 
HETATM    2  C5  UNL     1      61.678 -27.910 -36.203  1.00  0.00     0.009 A 
HETATM    3  C6  UNL     1      61.913 -26.541 -36.200  1.00  0.00     0.032 A 
HETATM    4  C7  UNL     1      60.924 -25.662 -36.568  1.00  0.00     0.062 A 
HETATM    5  N2  UNL     1      61.187 -24.326 -36.554  1.00  0.00    -0.317 N 
ATOM      6  H2  UNL     1      62.111 -24.000 -36.272  1.00  0.00     0.169 HD
HETATM    7  C8  UNL     1      60.250 -23.427 -36.906  1.00  0.00     0.314 A 
HETATM    8  O1  UNL     1      60.488 -22.179 -36.896  1.00  0.00    -0.262 OA
HETATM    9  C9  UNL     1      58.996 -23.908 -37.287  1.00  0.00     0.314 A 
HETATM   10  O2  UNL     1      58.142 -23.044 -37.610  1.00  0.00    -0.262 OA
HETATM   11  N3  UNL     1      58.746 -25.233 -37.297  1.00  0.00    -0.317 N 
ATOM     12  H3  UNL     1      57.825 -25.567 -37.578  1.00  0.00     0.169 HD
HETATM   13  C10 UNL     1      59.685 -26.116 -36.946  1.00  0.00     0.062 A 
HETATM   14  C11 UNL     1      59.477 -27.486 -36.941  1.00  0.00     0.039 A 
ENDROOT
BRANCH   1  15
HETATM   15  C3  UNL     1      60.179 -29.829 -36.598  1.00  0.00     0.041 C 
BRANCH  15  16
HETATM   16  C2  UNL     1      61.219 -30.704 -36.035  1.00  0.00     0.048 C 
BRANCH  16  17
HETATM   17  C1  UNL     1      61.031 -31.350 -34.731  1.00  0.00     0.283 C 
BRANCH  17  18
HETATM   18  N1  UNL     1      62.011 -32.466 -34.607  1.00  0.00    -0.065 N 
ATOM     19  H13 UNL     1      62.008 -33.081 -35.421  1.00  0.00     0.275 HD
ATOM     20  H12 UNL     1      62.977 -32.147 -34.675  1.00  0.00     0.275 HD
ATOM     21  H11 UNL     1      61.826 -32.968 -33.738  1.00  0.00     0.275 HD
ENDBRANCH  17  18
BRANCH  17  22
HETATM   22  C12 UNL     1      59.731 -31.966 -34.495  1.00  0.00     0.204 C 
HETATM   23  O3  UNL     1      58.674 -31.315 -34.570  1.00  0.00    -0.646 OA
HETATM   24  O4  UNL     1      59.627 -33.305 -34.177  1.00  0.00    -0.646 OA
ENDBRANCH  17  22
ENDBRANCH  16  17
ENDBRANCH  15  16
ENDBRANCH   1  15
TORSDOF 5
ENDMDL
