MODEL 3
REMARK VINA RESULT: -7.903973302      1.556      1.747
REMARK  5 active torsions:
REMARK  status: ('A' for Active; 'I' for Inactive)
REMARK    1  A    between atoms: N1_1  and  C1_5 
REMARK    2  A    between atoms: C1_5  and  C2_6 
REMARK    3  A    between atoms: C1_5  and  C12_22 
REMARK    4  A    between atoms: C2_6  and  C3_7 
REMARK    5  A    between atoms: C3_7  and  C4_8 
ROOT
HETATM    1  C4  UNL     1      60.403 -28.418 -36.721  1.00  0.00    -0.056 A 
HETATM    2  C5  UNL     1      61.652 -28.034 -36.349  1.00  0.00     0.009 A 
HETATM    3  C6  UNL     1      61.959 -26.681 -36.274  1.00  0.00     0.032 A 
HETATM    4  C7  UNL     1      61.012 -25.733 -36.572  1.00  0.00     0.062 A 
HETATM    5  N2  UNL     1      61.345 -24.414 -36.488  1.00  0.00    -0.317 N 
ATOM      6  H2  UNL     1      62.290 -24.154 -36.207  1.00  0.00     0.169 HD
HETATM    7  C8  UNL     1      60.452 -23.450 -36.771  1.00  0.00     0.314 A 
HETATM    8  O1  UNL     1      60.756 -22.219 -36.695  1.00  0.00    -0.262 OA
HETATM    9  C9  UNL     1      59.167 -23.842 -37.153  1.00  0.00     0.314 A 
HETATM   10  O2  UNL     1      58.356 -22.918 -37.410  1.00  0.00    -0.262 OA
HETATM   11  N3  UNL     1      58.848 -25.150 -37.233  1.00  0.00    -0.317 N 
ATOM     12  H3  UNL     1      57.906 -25.419 -37.514  1.00  0.00     0.169 HD
HETATM   13  C10 UNL     1      59.744 -26.099 -36.951  1.00  0.00     0.062 A 
HETATM   14  C11 UNL     1      59.464 -27.454 -37.018  1.00  0.00     0.039 A 
ENDROOT
BRANCH   1  15
HETATM   15  C3  UNL     1      60.046 -29.847 -36.822  1.00  0.00     0.041 C 
BRANCH  15  16
HETATM   16  C2  UNL     1      60.791 -30.768 -35.949  1.00  0.00     0.048 C 
BRANCH  16  17
HETATM   17  C1  UNL     1      60.298 -31.092 -34.606  1.00  0.00     0.283 C 
BRANCH  17  18
HETATM   18  N1  UNL     1      58.818 -31.255 -34.669  1.00  0.00    -0.065 N 
ATOM     19  H13 UNL     1      58.371 -31.113 -33.764  1.00  0.00     0.275 HD
ATOM     20  H12 UNL     1      58.362 -30.494 -35.173  1.00  0.00     0.275 HD
ATOM     21  H11 UNL     1      58.608 -32.169 -35.069  1.00  0.00     0.275 HD
ENDBRANCH  17  18
BRANCH  17  22
HETATM   22  C12 UNL     1      60.521 -30.086 -33.574  1.00  0.00     0.204 C 
HETATM   23  O3  UNL     1      61.403 -30.219 -32.709  1.00  0.00    -0.646 OA
HETATM   24  O4  UNL     1      59.752 -28.941 -33.522  1.00  0.00    -0.646 OA
ENDBRANCH  17  22
ENDBRANCH  16  17
ENDBRANCH  15  16
ENDBRANCH   1  15
TORSDOF 5
ENDMDL
