MODEL 8
REMARK VINA RESULT: -7.488772543      3.953      4.761
REMARK  5 active torsions:
REMARK  status: ('A' for Active; 'I' for Inactive)
REMARK    1  A    between atoms: N1_1  and  C1_5 
REMARK    2  A    between atoms: C1_5  and  C2_6 
REMARK    3  A    between atoms: C1_5  and  C12_22 
REMARK    4  A    between atoms: C2_6  and  C3_7 
REMARK    5  A    between atoms: C3_7  and  C4_8 
ROOT
HETATM    1  C4  UNL     1      61.133 -28.136 -35.227  1.00  0.00    -0.056 A 
HETATM    2  C5  UNL     1      59.994 -27.532 -34.797  1.00  0.00     0.009 A 
HETATM    3  C6  UNL     1      60.012 -26.793 -33.622  1.00  0.00     0.032 A 
HETATM    4  C7  UNL     1      61.169 -26.667 -32.893  1.00  0.00     0.062 A 
HETATM    5  N2  UNL     1      61.152 -25.934 -31.745  1.00  0.00    -0.317 N 
ATOM      6  H2  UNL     1      60.284 -25.491 -31.446  1.00  0.00     0.169 HD
HETATM    7  C8  UNL     1      62.261 -25.782 -30.998  1.00  0.00     0.314 A 
HETATM    8  O1  UNL     1      62.253 -25.100 -29.927  1.00  0.00    -0.262 OA
HETATM    9  C9  UNL     1      63.433 -26.401 -31.438  1.00  0.00     0.314 A 
HETATM   10  O2  UNL     1      64.451 -26.241 -30.719  1.00  0.00    -0.262 OA
HETATM   11  N3  UNL     1      63.438 -27.124 -32.576  1.00  0.00    -0.317 N 
ATOM     12  H3  UNL     1      64.302 -27.570 -32.882  1.00  0.00     0.169 HD
HETATM   13  C10 UNL     1      62.330 -27.268 -33.308  1.00  0.00     0.062 A 
HETATM   14  C11 UNL     1      62.286 -28.001 -34.484  1.00  0.00     0.039 A 
ENDROOT
BRANCH   1  15
HETATM   15  C3  UNL     1      61.147 -28.939 -36.465  1.00  0.00     0.041 C 
BRANCH  15  16
HETATM   16  C2  UNL     1      60.497 -30.258 -36.394  1.00  0.00     0.048 C 
BRANCH  16  17
HETATM   17  C1  UNL     1      60.843 -31.208 -35.330  1.00  0.00     0.283 C 
BRANCH  17  18
HETATM   18  N1  UNL     1      61.561 -32.363 -35.938  1.00  0.00    -0.065 N 
ATOM     19  H13 UNL     1      61.669 -32.269 -36.947  1.00  0.00     0.275 HD
ATOM     20  H12 UNL     1      62.550 -32.382 -35.691  1.00  0.00     0.275 HD
ATOM     21  H11 UNL     1      61.077 -33.222 -35.676  1.00  0.00     0.275 HD
ENDBRANCH  17  18
BRANCH  17  22
HETATM   22  C12 UNL     1      59.727 -31.800 -34.603  1.00  0.00     0.204 C 
HETATM   23  O3  UNL     1      58.611 -31.254 -34.556  1.00  0.00    -0.646 OA
HETATM   24  O4  UNL     1      59.872 -33.000 -33.936  1.00  0.00    -0.646 OA
ENDBRANCH  17  22
ENDBRANCH  16  17
ENDBRANCH  15  16
ENDBRANCH   1  15
TORSDOF 5
ENDMDL
