MODEL 6
REMARK VINA RESULT: -7.574310706      4.786      5.713
REMARK  5 active torsions:
REMARK  status: ('A' for Active; 'I' for Inactive)
REMARK    1  A    between atoms: N1_1  and  C1_5 
REMARK    2  A    between atoms: C1_5  and  C2_6 
REMARK    3  A    between atoms: C1_5  and  C12_22 
REMARK    4  A    between atoms: C2_6  and  C3_7 
REMARK    5  A    between atoms: C3_7  and  C4_8 
ROOT
HETATM    1  C4  UNL     1      63.070 -29.913 -33.421  1.00  0.00    -0.056 A 
HETATM    2  C5  UNL     1      64.211 -30.186 -32.736  1.00  0.00     0.009 A 
HETATM    3  C6  UNL     1      64.579 -29.381 -31.666  1.00  0.00     0.032 A 
HETATM    4  C7  UNL     1      63.798 -28.314 -31.295  1.00  0.00     0.062 A 
HETATM    5  N2  UNL     1      64.186 -27.544 -30.240  1.00  0.00    -0.317 N 
ATOM      6  H2  UNL     1      65.048 -27.772 -29.745  1.00  0.00     0.169 HD
HETATM    7  C8  UNL     1      63.454 -26.489 -29.841  1.00  0.00     0.314 A 
HETATM    8  O1  UNL     1      63.811 -25.766 -28.858  1.00  0.00    -0.262 OA
HETATM    9  C9  UNL     1      62.280 -26.206 -30.542  1.00  0.00     0.314 A 
HETATM   10  O2  UNL     1      61.619 -25.214 -30.144  1.00  0.00    -0.262 OA
HETATM   11  N3  UNL     1      61.906 -26.974 -31.584  1.00  0.00    -0.317 N 
ATOM     12  H3  UNL     1      61.046 -26.754 -32.085  1.00  0.00     0.169 HD
HETATM   13  C10 UNL     1      62.641 -28.019 -31.973  1.00  0.00     0.062 A 
HETATM   14  C11 UNL     1      62.298 -28.838 -33.037  1.00  0.00     0.039 A 
ENDROOT
BRANCH   1  15
HETATM   15  C3  UNL     1      62.656 -30.741 -34.570  1.00  0.00     0.041 C 
BRANCH  15  16
HETATM   16  C2  UNL     1      61.630 -30.164 -35.453  1.00  0.00     0.048 C 
BRANCH  16  17
HETATM   17  C1  UNL     1      60.384 -30.889 -35.728  1.00  0.00     0.283 C 
BRANCH  17  18
HETATM   18  N1  UNL     1      59.431 -29.959 -36.398  1.00  0.00    -0.065 N 
ATOM     19  H13 UNL     1      59.120 -29.208 -35.782  1.00  0.00     0.275 HD
ATOM     20  H12 UNL     1      59.882 -29.381 -37.107  1.00  0.00     0.275 HD
ATOM     21  H11 UNL     1      58.654 -30.503 -36.774  1.00  0.00     0.275 HD
ENDBRANCH  17  18
BRANCH  17  22
HETATM   22  C12 UNL     1      59.660 -31.396 -34.569  1.00  0.00     0.204 C 
HETATM   23  O3  UNL     1      59.071 -30.637 -33.780  1.00  0.00    -0.646 OA
HETATM   24  O4  UNL     1      59.602 -32.750 -34.306  1.00  0.00    -0.646 OA
ENDBRANCH  17  22
ENDBRANCH  16  17
ENDBRANCH  15  16
ENDBRANCH   1  15
TORSDOF 5
ENDMDL
