MODEL 5
REMARK VINA RESULT: -5.894485117      3.676      6.740
REMARK  6 active torsions:
REMARK  status: ('A' for Active; 'I' for Inactive)
REMARK    1  A    between atoms: N1_2  and  C3_4 
REMARK    2  A    between atoms: C3_4  and  C4_5 
REMARK    3  A    between atoms: C7_10  and  C8_11 
REMARK    4  A    between atoms: C8_11  and  C9_12 
REMARK    5  A    between atoms: C9_12  and  C10_13 
REMARK    6  A    between atoms: C10_13  and  O1_14 
ROOT
HETATM    1  C4  UNL     1     -20.534   3.685   4.527  1.00  0.00    -0.002 A 
HETATM    2  C5  UNL     1     -20.707   4.510   3.440  1.00  0.00     0.098 A 
HETATM    3  N2  UNL     1     -21.043   5.760   3.882  1.00  0.00    -0.364 N 
ATOM      4  H2  UNL     1     -21.229   6.568   3.287  1.00  0.00     0.165 HD
HETATM    5  C6  UNL     1     -21.089   5.756   5.236  1.00  0.00     0.049 A 
HETATM    6  C7  UNL     1     -21.380   6.755   6.162  1.00  0.00    -0.030 A 
HETATM    7  C11 UNL     1     -21.351   6.448   7.506  1.00  0.00     0.009 A 
HETATM    8  C12 UNL     1     -21.040   5.175   7.943  1.00  0.00     0.002 A 
HETATM    9  C13 UNL     1     -20.760   4.221   6.993  1.00  0.00     0.014 A 
HETATM   10  C14 UNL     1     -20.777   4.482   5.622  1.00  0.00     0.001 A 
ENDROOT
BRANCH   6  11
HETATM   11  C8  UNL     1     -21.711   8.121   5.674  1.00  0.00     0.043 C 
BRANCH  11  12
HETATM   12  C9  UNL     1     -21.285   9.136   6.703  1.00  0.00     0.031 C 
BRANCH  12  13
HETATM   13  C10 UNL     1     -21.676  10.544   6.292  1.00  0.00     0.164 C 
BRANCH  13  14
HETATM   14  O1  UNL     1     -21.468  10.676   4.928  1.00  0.00    -0.401 OA
ATOM     15  H1  UNL     1     -22.307  10.829   4.509  1.00  0.00     0.209 HD
ENDBRANCH  13  14
ENDBRANCH  12  13
ENDBRANCH  11  12
ENDBRANCH   6  11
BRANCH   1  16
HETATM   16  C3  UNL     1     -20.166   2.260   4.504  1.00  0.00     0.312 C 
BRANCH  16  17
HETATM   17  N1  UNL     1     -18.848   2.014   3.996  1.00  0.00     0.084 N 
HETATM   18  C1  UNL     1     -18.779   0.679   3.376  1.00  0.00     0.309 C 
HETATM   19  C2  UNL     1     -17.938   1.952   5.127  1.00  0.00     0.309 C 
ENDBRANCH  16  17
ENDBRANCH   1  16
TORSDOF 6
ENDMDL
