MODEL 2
REMARK VINA RESULT: -5.959162272      4.164      7.213
REMARK  6 active torsions:
REMARK  status: ('A' for Active; 'I' for Inactive)
REMARK    1  A    between atoms: N1_2  and  C3_4 
REMARK    2  A    between atoms: C3_4  and  C4_5 
REMARK    3  A    between atoms: C7_10  and  C8_11 
REMARK    4  A    between atoms: C8_11  and  C9_12 
REMARK    5  A    between atoms: C9_12  and  C10_13 
REMARK    6  A    between atoms: C10_13  and  O1_14 
ROOT
HETATM    1  C4  UNL     1     -21.200   5.785   5.258  1.00  0.00    -0.002 A 
HETATM    2  C5  UNL     1     -21.064   6.709   4.248  1.00  0.00     0.098 A 
HETATM    3  N2  UNL     1     -21.069   7.965   4.791  1.00  0.00    -0.364 N 
ATOM      4  H2  UNL     1     -20.983   8.836   4.267  1.00  0.00     0.165 HD
HETATM    5  C6  UNL     1     -21.205   7.867   6.136  1.00  0.00     0.049 A 
HETATM    6  C7  UNL     1     -21.269   8.831   7.138  1.00  0.00    -0.030 A 
HETATM    7  C11 UNL     1     -21.416   8.424   8.448  1.00  0.00     0.009 A 
HETATM    8  C12 UNL     1     -21.501   7.086   8.775  1.00  0.00     0.002 A 
HETATM    9  C13 UNL     1     -21.434   6.169   7.752  1.00  0.00     0.014 A 
HETATM   10  C14 UNL     1     -21.285   6.531   6.413  1.00  0.00     0.001 A 
ENDROOT
BRANCH   6  11
HETATM   11  C8  UNL     1     -21.174  10.269   6.767  1.00  0.00     0.043 C 
BRANCH  11  12
HETATM   12  C9  UNL     1     -22.550  10.794   6.445  1.00  0.00     0.031 C 
BRANCH  12  13
HETATM   13  C10 UNL     1     -22.679  11.156   4.977  1.00  0.00     0.164 C 
BRANCH  13  14
HETATM   14  O1  UNL     1     -21.433  11.028   4.383  1.00  0.00    -0.401 OA
ATOM     15  H1  UNL     1     -21.363  11.673   3.689  1.00  0.00     0.209 HD
ENDBRANCH  13  14
ENDBRANCH  12  13
ENDBRANCH  11  12
ENDBRANCH   6  11
BRANCH   1  16
HETATM   16  C3  UNL     1     -21.241   4.322   5.117  1.00  0.00     0.312 C 
BRANCH  16  17
HETATM   17  N1  UNL     1     -20.348   3.815   4.117  1.00  0.00     0.084 N 
HETATM   18  C1  UNL     1     -21.107   3.150   3.042  1.00  0.00     0.309 C 
HETATM   19  C2  UNL     1     -19.551   2.762   4.722  1.00  0.00     0.309 C 
ENDBRANCH  16  17
ENDBRANCH   1  16
TORSDOF 6
ENDMDL
