MODEL 4
REMARK VINA RESULT: -5.946360611      2.821      6.051
REMARK  6 active torsions:
REMARK  status: ('A' for Active; 'I' for Inactive)
REMARK    1  A    between atoms: N1_2  and  C3_4 
REMARK    2  A    between atoms: C3_4  and  C4_5 
REMARK    3  A    between atoms: C7_10  and  C8_11 
REMARK    4  A    between atoms: C8_11  and  C9_12 
REMARK    5  A    between atoms: C9_12  and  C10_13 
REMARK    6  A    between atoms: C10_13  and  O1_14 
ROOT
HETATM    1  C4  UNL     1     -18.801   2.720   4.983  1.00  0.00    -0.002 A 
HETATM    2  C5  UNL     1     -18.542   3.105   6.278  1.00  0.00     0.098 A 
HETATM    3  N2  UNL     1     -19.538   3.945   6.698  1.00  0.00    -0.364 N 
ATOM      4  H2  UNL     1     -19.595   4.379   7.619  1.00  0.00     0.165 HD
HETATM    5  C6  UNL     1     -20.435   4.108   5.696  1.00  0.00     0.049 A 
HETATM    6  C7  UNL     1     -21.609   4.851   5.609  1.00  0.00    -0.030 A 
HETATM    7  C11 UNL     1     -22.329   4.826   4.432  1.00  0.00     0.009 A 
HETATM    8  C12 UNL     1     -21.905   4.081   3.350  1.00  0.00     0.002 A 
HETATM    9  C13 UNL     1     -20.740   3.363   3.482  1.00  0.00     0.014 A 
HETATM   10  C14 UNL     1     -19.977   3.356   4.650  1.00  0.00     0.001 A 
ENDROOT
BRANCH   6  11
HETATM   11  C8  UNL     1     -22.051   5.648   6.785  1.00  0.00     0.043 C 
BRANCH  11  12
HETATM   12  C9  UNL     1     -21.290   6.948   6.824  1.00  0.00     0.031 C 
BRANCH  12  13
HETATM   13  C10 UNL     1     -21.746   7.894   5.729  1.00  0.00     0.164 C 
BRANCH  13  14
HETATM   14  O1  UNL     1     -20.675   8.133   4.882  1.00  0.00    -0.401 OA
ATOM     15  H1  UNL     1     -21.012   8.292   4.008  1.00  0.00     0.209 HD
ENDBRANCH  13  14
ENDBRANCH  12  13
ENDBRANCH  11  12
ENDBRANCH   6  11
BRANCH   1  16
HETATM   16  C3  UNL     1     -17.988   1.821   4.149  1.00  0.00     0.312 C 
BRANCH  16  17
HETATM   17  N1  UNL     1     -18.719   0.703   3.628  1.00  0.00     0.084 N 
HETATM   18  C1  UNL     1     -18.007  -0.555   3.919  1.00  0.00     0.309 C 
HETATM   19  C2  UNL     1     -18.721   0.807   2.179  1.00  0.00     0.309 C 
ENDBRANCH  16  17
ENDBRANCH   1  16
TORSDOF 6
ENDMDL
