MODEL 3
REMARK VINA RESULT: -9.841040047      1.167      1.207
REMARK  6 active torsions:
REMARK  status: ('A' for Active; 'I' for Inactive)
REMARK    1  A    between atoms: O1_2  and  C2_3 
REMARK    2  A    between atoms: C5_6  and  N1_7 
REMARK       I    between atoms: N1_7  and  C6_9 
REMARK    3  A    between atoms: C6_9  and  C7_11 
REMARK    4  A    between atoms: C7_11  and  N2_13 
REMARK    5  A    between atoms: N2_13  and  C9_15 
REMARK    6  A    between atoms: N5_23  and  C13_24 
ROOT
HETATM    1  C9  UNL     1      81.799  49.543  37.744  1.00  0.00     0.683 A 
HETATM    2  N3  UNL     1      81.025  49.505  36.657  1.00  0.00    -0.174 N 
ATOM      3  H3  UNL     1      80.039  49.753  36.720  1.00  0.00     0.186 HD
HETATM    4  C10 UNL     1      81.562  49.134  35.462  1.00  0.00     0.155 A 
HETATM    5  C11 UNL     1      82.909  48.799  35.413  1.00  0.00     0.095 A 
HETATM    6  C12 UNL     1      83.147  48.474  34.079  1.00  0.00     0.128 A 
HETATM    7  N4  UNL     1      81.992  48.629  33.444  1.00  0.00    -0.307 N 
ATOM      8  H4  UNL     1      81.866  48.458  32.446  1.00  0.00     0.186 HD
HETATM    9  N5  UNL     1      81.025  49.029  34.248  1.00  0.00    -0.271 N 
HETATM   10  C18 UNL     1      83.716  48.838  36.518  1.00  0.00     0.275 A 
HETATM   11  O3  UNL     1      84.967  48.525  36.439  1.00  0.00    -0.267 OA
HETATM   12  N6  UNL     1      83.148  49.210  37.660  1.00  0.00    -0.155 N 
ATOM     13  H6  UNL     1      83.720  49.254  38.504  1.00  0.00     0.187 HD
ENDROOT
BRANCH   1  14
HETATM   14  N2  UNL     1      81.279  49.694  39.003  1.00  0.00    -0.213 N 
ATOM     15  H2  UNL     1      80.763  50.566  39.130  1.00  0.00     0.178 HD
BRANCH  14  16
HETATM   16  C7  UNL     1      81.312  48.871  40.181  1.00  0.00     0.188 C 
HETATM   17  C8  UNL     1      80.568  47.639  40.275  1.00  0.00     0.043 C 
BRANCH  16  18
HETATM   18  C6  UNL     1      80.711  49.965  41.145  1.00  0.00     0.245 C 
HETATM   19  N1  UNL     1      79.800  49.438  42.036  1.00  0.00    -0.325 N 
ATOM     20  H1  UNL     1      79.702  48.422  42.028  1.00  0.00     0.169 HD
HETATM   21  O2  UNL     1      81.014  51.149  41.054  1.00  0.00    -0.271 OA
BRANCH  19  22
HETATM   22  C5  UNL     1      78.993  50.123  42.947  1.00  0.00     0.035 A 
HETATM   23  C4  UNL     1      78.003  50.972  42.528  1.00  0.00     0.032 A 
HETATM   24  C3  UNL     1      77.378  51.817  43.437  1.00  0.00     0.039 A 
HETATM   25  C2  UNL     1      77.703  51.856  44.774  1.00  0.00     0.068 A 
HETATM   26  C20 UNL     1      78.704  50.994  45.198  1.00  0.00     0.039 A 
HETATM   27  C19 UNL     1      79.337  50.147  44.302  1.00  0.00     0.032 A 
BRANCH  25  28
HETATM   28  O1  UNL     1      77.036  52.732  45.592  1.00  0.00    -0.356 OA
HETATM   29  C1  UNL     1      77.712  53.841  46.123  1.00  0.00     0.210 C 
ENDBRANCH  25  28
ENDBRANCH  19  22
ENDBRANCH  16  18
ENDBRANCH  14  16
ENDBRANCH   1  14
BRANCH   9  30
HETATM   30  C13 UNL     1      79.645  49.423  33.871  1.00  0.00     0.110 C 
HETATM   31  C14 UNL     1      79.752  49.666  32.365  1.00  0.00     0.027 C 
HETATM   32  C15 UNL     1      78.735  48.780  31.690  1.00  0.00     0.002 C 
HETATM   33  C16 UNL     1      78.466  47.667  32.650  1.00  0.00     0.002 C 
HETATM   34  C17 UNL     1      78.805  48.191  34.012  1.00  0.00     0.027 C 
ENDBRANCH   9  30
TORSDOF 6
ENDMDL
