MODEL 1
REMARK VINA RESULT: -9.863197061      0.000      0.000
REMARK  6 active torsions:
REMARK  status: ('A' for Active; 'I' for Inactive)
REMARK    1  A    between atoms: O1_2  and  C2_3 
REMARK    2  A    between atoms: C5_6  and  N1_7 
REMARK       I    between atoms: N1_7  and  C6_9 
REMARK    3  A    between atoms: C6_9  and  C7_11 
REMARK    4  A    between atoms: C7_11  and  N2_13 
REMARK    5  A    between atoms: N2_13  and  C9_15 
REMARK    6  A    between atoms: N5_23  and  C13_24 
ROOT
HETATM    1  C9  UNL     1      80.899  50.104  37.675  1.00  0.00     0.683 A 
HETATM    2  N3  UNL     1      80.404  49.913  36.449  1.00  0.00    -0.174 N 
ATOM      3  H3  UNL     1      79.425  50.117  36.255  1.00  0.00     0.186 HD
HETATM    4  C10 UNL     1      81.216  49.445  35.462  1.00  0.00     0.155 A 
HETATM    5  C11 UNL     1      82.544  49.175  35.763  1.00  0.00     0.095 A 
HETATM    6  C12 UNL     1      83.097  48.723  34.567  1.00  0.00     0.128 A 
HETATM    7  N4  UNL     1      82.120  48.753  33.669  1.00  0.00    -0.307 N 
ATOM      8  H4  UNL     1      82.236  48.472  32.695  1.00  0.00     0.186 HD
HETATM    9  N5  UNL     1      80.982  49.187  34.177  1.00  0.00    -0.271 N 
HETATM   10  C18 UNL     1      83.067  49.369  37.014  1.00  0.00     0.275 A 
HETATM   11  O3  UNL     1      84.309  49.112  37.262  1.00  0.00    -0.267 OA
HETATM   12  N6  UNL     1      82.237  49.831  37.943  1.00  0.00    -0.155 N 
ATOM     13  H6  UNL     1      82.593  49.993  38.886  1.00  0.00     0.187 HD
ENDROOT
BRANCH   1  14
HETATM   14  N2  UNL     1      80.094  50.360  38.754  1.00  0.00    -0.213 N 
ATOM     15  H2  UNL     1      80.217  51.296  39.141  1.00  0.00     0.178 HD
BRANCH  14  16
HETATM   16  C7  UNL     1      79.110  49.576  39.449  1.00  0.00     0.188 C 
HETATM   17  C8  UNL     1      77.714  49.598  39.080  1.00  0.00     0.043 C 
BRANCH  16  18
HETATM   18  C6  UNL     1      79.331  50.265  40.850  1.00  0.00     0.245 C 
HETATM   19  N1  UNL     1      78.348  49.936  41.759  1.00  0.00    -0.325 N 
ATOM     20  H1  UNL     1      77.675  49.232  41.455  1.00  0.00     0.169 HD
HETATM   21  O2  UNL     1      80.262  51.036  41.056  1.00  0.00    -0.271 OA
BRANCH  19  22
HETATM   22  C5  UNL     1      78.161  50.446  43.046  1.00  0.00     0.035 A 
HETATM   23  C4  UNL     1      77.382  51.551  43.269  1.00  0.00     0.032 A 
HETATM   24  C3  UNL     1      77.402  52.178  44.509  1.00  0.00     0.039 A 
HETATM   25  C2  UNL     1      78.181  51.746  45.559  1.00  0.00     0.068 A 
HETATM   26  C20 UNL     1      78.967  50.626  45.331  1.00  0.00     0.039 A 
HETATM   27  C19 UNL     1      78.959  49.992  44.100  1.00  0.00     0.032 A 
BRANCH  25  28
HETATM   28  O1  UNL     1      78.140  52.438  46.742  1.00  0.00    -0.356 OA
HETATM   29  C1  UNL     1      78.172  53.841  46.730  1.00  0.00     0.210 C 
ENDBRANCH  25  28
ENDBRANCH  19  22
ENDBRANCH  16  18
ENDBRANCH  14  16
ENDBRANCH   1  14
BRANCH   9  30
HETATM   30  C13 UNL     1      79.720  49.469  33.448  1.00  0.00     0.110 C 
HETATM   31  C14 UNL     1      80.160  49.480  31.983  1.00  0.00     0.027 C 
HETATM   32  C15 UNL     1      79.317  48.466  31.250  1.00  0.00     0.002 C 
HETATM   33  C16 UNL     1      78.842  47.506  32.293  1.00  0.00     0.002 C 
HETATM   34  C17 UNL     1      78.869  48.246  33.595  1.00  0.00     0.027 C 
ENDBRANCH   9  30
TORSDOF 6
ENDMDL
