MODEL 2
REMARK VINA RESULT: -9.862807785      1.413      1.689
REMARK  6 active torsions:
REMARK  status: ('A' for Active; 'I' for Inactive)
REMARK    1  A    between atoms: O1_2  and  C2_3 
REMARK    2  A    between atoms: C5_6  and  N1_7 
REMARK       I    between atoms: N1_7  and  C6_9 
REMARK    3  A    between atoms: C6_9  and  C7_11 
REMARK    4  A    between atoms: C7_11  and  N2_13 
REMARK    5  A    between atoms: N2_13  and  C9_15 
REMARK    6  A    between atoms: N5_23  and  C13_24 
ROOT
HETATM    1  C9  UNL     1      81.936  49.560  37.674  1.00  0.00     0.683 A 
HETATM    2  N3  UNL     1      81.133  49.535  36.608  1.00  0.00    -0.174 N 
ATOM      3  H3  UNL     1      80.152  49.799  36.698  1.00  0.00     0.186 HD
HETATM    4  C10 UNL     1      81.631  49.153  35.400  1.00  0.00     0.155 A 
HETATM    5  C11 UNL     1      82.970  48.795  35.315  1.00  0.00     0.095 A 
HETATM    6  C12 UNL     1      83.166  48.464  33.976  1.00  0.00     0.128 A 
HETATM    7  N4  UNL     1      81.997  48.639  33.372  1.00  0.00    -0.307 N 
ATOM      8  H4  UNL     1      81.842  48.469  32.378  1.00  0.00     0.186 HD
HETATM    9  N5  UNL     1      81.060  49.056  34.201  1.00  0.00    -0.271 N 
HETATM   10  C18 UNL     1      83.807  48.821  36.398  1.00  0.00     0.275 A 
HETATM   11  O3  UNL     1      85.050  48.486  36.286  1.00  0.00    -0.267 OA
HETATM   12  N6  UNL     1      83.276  49.204  37.554  1.00  0.00    -0.155 N 
ATOM     13  H6  UNL     1      83.871  49.239  38.383  1.00  0.00     0.187 HD
ENDROOT
BRANCH   1  14
HETATM   14  N2  UNL     1      81.452  49.722  38.946  1.00  0.00    -0.213 N 
ATOM     15  H2  UNL     1      80.948  50.598  39.083  1.00  0.00     0.178 HD
BRANCH  14  16
HETATM   16  C7  UNL     1      81.511  48.904  40.127  1.00  0.00     0.188 C 
HETATM   17  C8  UNL     1      80.755  47.680  40.249  1.00  0.00     0.043 C 
BRANCH  16  18
HETATM   18  C6  UNL     1      80.952  50.009  41.103  1.00  0.00     0.245 C 
HETATM   19  N1  UNL     1      80.118  49.485  42.069  1.00  0.00    -0.325 N 
ATOM     20  H1  UNL     1      80.045  48.467  42.093  1.00  0.00     0.169 HD
HETATM   21  O2  UNL     1      81.218  51.197  40.961  1.00  0.00    -0.271 OA
BRANCH  19  22
HETATM   22  C5  UNL     1      79.360  50.175  43.017  1.00  0.00     0.035 A 
HETATM   23  C4  UNL     1      79.494  49.926  44.358  1.00  0.00     0.032 A 
HETATM   24  C3  UNL     1      78.572  50.445  45.258  1.00  0.00     0.039 A 
HETATM   25  C2  UNL     1      77.498  51.218  44.875  1.00  0.00     0.068 A 
HETATM   26  C20 UNL     1      77.366  51.470  43.518  1.00  0.00     0.039 A 
HETATM   27  C19 UNL     1      78.277  50.958  42.608  1.00  0.00     0.032 A 
BRANCH  25  28
HETATM   28  O1  UNL     1      76.636  51.676  45.838  1.00  0.00    -0.356 OA
HETATM   29  C1  UNL     1      76.297  50.850  46.920  1.00  0.00     0.210 C 
ENDBRANCH  25  28
ENDBRANCH  19  22
ENDBRANCH  16  18
ENDBRANCH  14  16
ENDBRANCH   1  14
BRANCH   9  30
HETATM   30  C13 UNL     1      79.677  49.473  33.861  1.00  0.00     0.110 C 
HETATM   31  C14 UNL     1      79.736  49.666  32.344  1.00  0.00     0.027 C 
HETATM   32  C15 UNL     1      78.673  48.786  31.734  1.00  0.00     0.002 C 
HETATM   33  C16 UNL     1      78.412  47.711  32.739  1.00  0.00     0.002 C 
HETATM   34  C17 UNL     1      78.812  48.269  34.071  1.00  0.00     0.027 C 
ENDBRANCH   9  30
TORSDOF 6
ENDMDL
