MODEL 11
REMARK VINA RESULT: -10.558393766      3.336     10.909
REMARK  14 active torsions:
REMARK  status: ('A' for Active; 'I' for Inactive)
REMARK    1  A    between atoms: C2_2  and  N1_5 
REMARK       I    between atoms: N1_5  and  C5_7 
REMARK    2  A    between atoms: C5_7  and  C6_9 
REMARK    3  A    between atoms: N2_18  and  C15_19 
REMARK    4  A    between atoms: C15_19  and  C16_20 
REMARK    5  A    between atoms: C16_20  and  O2_21 
REMARK    6  A    between atoms: C16_20  and  C17_23 
REMARK    7  A    between atoms: C17_23  and  C18_24 
REMARK    8  A    between atoms: C17_23  and  N3_31 
REMARK    9  A    between atoms: C18_24  and  C19_25 
REMARK       I    between atoms: N3_31  and  C25_33 
REMARK   10  A    between atoms: C25_33  and  C26_35 
REMARK   11  A    between atoms: C26_35  and  C27_36 
REMARK   12  A    between atoms: C26_35  and  N5_40 
REMARK   13  A    between atoms: C27_36  and  C28_37 
REMARK       I    between atoms: N5_40  and  C29_42 
REMARK   14  A    between atoms: C29_42  and  C30_44 
ROOT
HETATM    1  C17 UNL     1      14.781  -6.968  -9.992  1.00  0.00     0.115 C 
ENDROOT
BRANCH   1   2
HETATM    2  C16 UNL     1      13.839  -5.824  -9.818  1.00  0.00     0.169 C 
BRANCH   2   3
HETATM    3  C15 UNL     1      12.705  -5.908  -8.899  1.00  0.00     0.307 C 
BRANCH   3   4
HETATM    4  N2  UNL     1      12.201  -7.227  -8.573  1.00  0.00     0.105 N 
HETATM    5  C6  UNL     1      11.632  -7.302  -7.261  1.00  0.00     0.314 C 
HETATM    6  C7  UNL     1      10.603  -8.439  -7.226  1.00  0.00     0.050 C 
HETATM    7  C8  UNL     1       9.321  -7.838  -7.764  1.00  0.00    -0.006 C 
HETATM    8  C9  UNL     1       8.407  -8.903  -8.292  1.00  0.00     0.005 C 
HETATM    9  C13 UNL     1       9.761  -6.935  -8.906  1.00  0.00     0.018 C 
HETATM   10  C10 UNL     1       7.065  -8.261  -8.638  1.00  0.00     0.000 C 
HETATM   11  C11 UNL     1       7.359  -6.913  -9.244  1.00  0.00     0.000 C 
HETATM   12  C12 UNL     1       8.704  -7.028  -9.971  1.00  0.00     0.007 C 
HETATM   13  C14 UNL     1      11.058  -7.452  -9.497  1.00  0.00     0.278 C 
BRANCH   5  14
HETATM   14  C5  UNL     1      12.533  -7.577  -6.142  1.00  0.00     0.252 C 
HETATM   15  N1  UNL     1      12.100  -7.269  -4.821  1.00  0.00    -0.351 N 
ATOM     16  H1  UNL     1      11.169  -6.869  -4.703  1.00  0.00     0.163 HD
HETATM   17  O1  UNL     1      13.653  -8.065  -6.307  1.00  0.00    -0.271 OA
BRANCH  15  18
HETATM   18  C2  UNL     1      12.889  -7.486  -3.649  1.00  0.00     0.022 C 
HETATM   19  C1  UNL     1      13.058  -8.946  -3.295  1.00  0.00     0.037 C 
HETATM   20  C3  UNL     1      14.262  -6.849  -3.781  1.00  0.00     0.037 C 
HETATM   21  C4  UNL     1      12.211  -6.819  -2.473  1.00  0.00     0.037 C 
ENDBRANCH  15  18
ENDBRANCH   5  14
ENDBRANCH   3   4
ENDBRANCH   2   3
BRANCH   2  22
HETATM   22  O2  UNL     1      14.593  -4.659  -9.787  1.00  0.00    -0.392 OA
ATOM     23  H2  UNL     1      15.534  -4.750  -9.872  1.00  0.00     0.210 HD
ENDBRANCH   2  22
ENDBRANCH   1   2
BRANCH   1  24
HETATM   24  C18 UNL     1      15.810  -7.087  -8.902  1.00  0.00     0.036 C 
BRANCH  24  25
HETATM   25  C19 UNL     1      16.579  -8.343  -9.024  1.00  0.00     0.010 C 
HETATM   26  C20 UNL     1      17.340  -8.601  -7.725  1.00  0.00    -0.026 C 
HETATM   27  C21 UNL     1      18.461  -7.964  -7.501  1.00  0.00    -0.030 C 
HETATM   28  C22 UNL     1      19.015  -7.006  -8.460  1.00  0.00     0.027 C 
HETATM   29  C23 UNL     1      18.640  -7.210  -9.883  1.00  0.00     0.004 C 
HETATM   30  C24 UNL     1      17.639  -8.303 -10.103  1.00  0.00     0.009 C 
ENDBRANCH  24  25
ENDBRANCH   1  24
BRANCH   1  31
HETATM   31  N3  UNL     1      15.286  -7.020 -11.346  1.00  0.00    -0.352 N 
HETATM   32  C25 UNL     1      14.793  -7.784 -12.398  1.00  0.00     0.241 C 
HETATM   33  O3  UNL     1      13.830  -8.533 -12.264  1.00  0.00    -0.271 OA
ATOM     34  H3  UNL     1      16.093  -6.431 -11.553  1.00  0.00     0.163 HD
BRANCH  32  35
HETATM   35  C26 UNL     1      15.443  -7.703 -13.736  1.00  0.00     0.185 C 
BRANCH  35  36
HETATM   36  C27 UNL     1      14.575  -8.080 -14.886  1.00  0.00     0.134 C 
BRANCH  36  37
HETATM   37  C28 UNL     1      14.829  -9.390 -15.483  1.00  0.00     0.233 C 
HETATM   38  N4  UNL     1      15.410  -9.539 -16.793  1.00  0.00    -0.062 NA
HETATM   39  O4  UNL     1      14.541 -10.436 -14.851  1.00  0.00    -0.277 OA
ENDBRANCH  36  37
ENDBRANCH  35  36
BRANCH  35  40
HETATM   40  N5  UNL     1      16.671  -8.442 -13.784  1.00  0.00    -0.342 N 
HETATM   41  C29 UNL     1      17.968  -7.915 -13.567  1.00  0.00     0.268 C 
HETATM   42  O5  UNL     1      18.012  -6.677 -13.310  1.00  0.00    -0.266 OA
ATOM     43  H5  UNL     1      16.605  -9.439 -13.992  1.00  0.00     0.163 HD
BRANCH  41  44
HETATM   44  C30 UNL     1      19.201  -8.696 -13.626  1.00  0.00     0.097 A 
HETATM   45  C31 UNL     1      20.322  -8.323 -13.087  1.00  0.00     0.013 A 
HETATM   46  C32 UNL     1      21.606  -9.076 -13.116  1.00  0.00     0.070 A 
HETATM   47  C33 UNL     1      21.510 -10.327 -13.870  1.00  0.00    -0.028 A 
HETATM   48  C34 UNL     1      22.626 -11.122 -14.009  1.00  0.00     0.010 A 
HETATM   49  C38 UNL     1      20.342 -10.761 -14.459  1.00  0.00     0.039 A 
HETATM   50  C35 UNL     1      22.610 -12.310 -14.703  1.00  0.00     0.001 A 
HETATM   51  C36 UNL     1      21.433 -12.748 -15.296  1.00  0.00     0.002 A 
HETATM   52  C37 UNL     1      20.320 -11.947 -15.153  1.00  0.00     0.030 A 
HETATM   53  N6  UNL     1      19.181  -9.946 -14.339  1.00  0.00    -0.352 N 
ATOM     54  H6  UNL     1      18.311 -10.258 -14.771  1.00  0.00     0.166 HD
ENDBRANCH  41  44
ENDBRANCH  35  40
ENDBRANCH  32  35
ENDBRANCH   1  31
TORSDOF 14
ENDMDL
