MODEL 3
REMARK VINA RESULT: -10.788456390      1.265      2.064
REMARK  14 active torsions:
REMARK  status: ('A' for Active; 'I' for Inactive)
REMARK    1  A    between atoms: C2_2  and  N1_5 
REMARK       I    between atoms: N1_5  and  C5_7 
REMARK    2  A    between atoms: C5_7  and  C6_9 
REMARK    3  A    between atoms: N2_18  and  C15_19 
REMARK    4  A    between atoms: C15_19  and  C16_20 
REMARK    5  A    between atoms: C16_20  and  O2_21 
REMARK    6  A    between atoms: C16_20  and  C17_23 
REMARK    7  A    between atoms: C17_23  and  C18_24 
REMARK    8  A    between atoms: C17_23  and  N3_31 
REMARK    9  A    between atoms: C18_24  and  C19_25 
REMARK       I    between atoms: N3_31  and  C25_33 
REMARK   10  A    between atoms: C25_33  and  C26_35 
REMARK   11  A    between atoms: C26_35  and  C27_36 
REMARK   12  A    between atoms: C26_35  and  N5_40 
REMARK   13  A    between atoms: C27_36  and  C28_37 
REMARK       I    between atoms: N5_40  and  C29_42 
REMARK   14  A    between atoms: C29_42  and  C30_44 
ROOT
HETATM    1  C17 UNL     1      14.147  -7.127  -7.544  1.00  0.00     0.115 C 
ENDROOT
BRANCH   1   2
HETATM    2  C16 UNL     1      15.353  -7.225  -8.416  1.00  0.00     0.169 C 
BRANCH   2   3
HETATM    3  C15 UNL     1      15.285  -7.847  -9.737  1.00  0.00     0.307 C 
BRANCH   3   4
HETATM    4  N2  UNL     1      15.891  -7.138 -10.846  1.00  0.00     0.105 N 
HETATM    5  C6  UNL     1      17.091  -7.758 -11.321  1.00  0.00     0.314 C 
HETATM    6  C7  UNL     1      17.304  -7.376 -12.792  1.00  0.00     0.050 C 
HETATM    7  C8  UNL     1      16.465  -8.356 -13.586  1.00  0.00    -0.006 C 
HETATM    8  C9  UNL     1      16.135  -7.806 -14.942  1.00  0.00     0.005 C 
HETATM    9  C13 UNL     1      15.185  -8.520 -12.781  1.00  0.00     0.018 C 
HETATM   10  C10 UNL     1      15.461  -8.907 -15.759  1.00  0.00     0.000 C 
HETATM   11  C11 UNL     1      14.554  -9.664 -14.824  1.00  0.00     0.000 C 
HETATM   12  C12 UNL     1      14.061  -8.668 -13.768  1.00  0.00     0.007 C 
HETATM   13  C14 UNL     1      14.926  -7.265 -11.970  1.00  0.00     0.278 C 
BRANCH   5  14
HETATM   14  C5  UNL     1      18.348  -7.408 -10.658  1.00  0.00     0.252 C 
HETATM   15  N1  UNL     1      19.575  -7.715 -11.309  1.00  0.00    -0.351 N 
ATOM     16  H1  UNL     1      19.533  -8.167 -12.223  1.00  0.00     0.163 HD
HETATM   17  O1  UNL     1      18.375  -6.858  -9.554  1.00  0.00    -0.271 OA
BRANCH  15  18
HETATM   18  C2  UNL     1      20.864  -7.429 -10.762  1.00  0.00     0.022 C 
HETATM   19  C1  UNL     1      21.063  -5.973 -10.410  1.00  0.00     0.037 C 
HETATM   20  C3  UNL     1      21.144  -8.275  -9.532  1.00  0.00     0.037 C 
HETATM   21  C4  UNL     1      21.920  -7.787 -11.785  1.00  0.00     0.037 C 
ENDBRANCH  15  18
ENDBRANCH   5  14
ENDBRANCH   3   4
ENDBRANCH   2   3
BRANCH   2  22
HETATM   22  O2  UNL     1      16.043  -6.024  -8.317  1.00  0.00    -0.392 OA
ATOM     23  H2  UNL     1      16.160  -5.663  -7.447  1.00  0.00     0.210 HD
ENDBRANCH   2  22
ENDBRANCH   1   2
BRANCH   1  24
HETATM   24  C18 UNL     1      14.290  -7.820  -6.217  1.00  0.00     0.036 C 
BRANCH  24  25
HETATM   25  C19 UNL     1      13.668  -7.034  -5.131  1.00  0.00     0.010 C 
HETATM   26  C20 UNL     1      14.124  -7.584  -3.781  1.00  0.00    -0.026 C 
HETATM   27  C21 UNL     1      13.554  -8.659  -3.299  1.00  0.00    -0.030 C 
HETATM   28  C22 UNL     1      12.484  -9.358  -4.015  1.00  0.00     0.027 C 
HETATM   29  C23 UNL     1      11.670  -8.534  -4.946  1.00  0.00     0.004 C 
HETATM   30  C24 UNL     1      12.157  -7.126  -5.105  1.00  0.00     0.009 C 
ENDBRANCH  24  25
ENDBRANCH   1  24
BRANCH   1  31
HETATM   31  N3  UNL     1      12.945  -7.431  -8.289  1.00  0.00    -0.352 N 
HETATM   32  C25 UNL     1      12.417  -8.689  -8.553  1.00  0.00     0.241 C 
HETATM   33  O3  UNL     1      12.957  -9.719  -8.160  1.00  0.00    -0.271 OA
ATOM     34  H3  UNL     1      12.427  -6.635  -8.662  1.00  0.00     0.163 HD
BRANCH  32  35
HETATM   35  C26 UNL     1      11.156  -8.810  -9.338  1.00  0.00     0.185 C 
BRANCH  35  36
HETATM   36  C27 UNL     1      10.936  -7.743 -10.353  1.00  0.00     0.134 C 
BRANCH  36  37
HETATM   37  C28 UNL     1      10.066  -6.640  -9.949  1.00  0.00     0.233 C 
HETATM   38  N4  UNL     1       8.659  -6.615 -10.260  1.00  0.00    -0.062 NA
HETATM   39  O4  UNL     1      10.537  -5.669  -9.307  1.00  0.00    -0.277 OA
ENDBRANCH  36  37
ENDBRANCH  35  36
BRANCH  35  40
HETATM   40  N5  UNL     1      10.004  -8.930  -8.492  1.00  0.00    -0.342 N 
HETATM   41  C29 UNL     1       8.822  -9.650  -8.792  1.00  0.00     0.268 C 
HETATM   42  O5  UNL     1       8.814 -10.231  -9.917  1.00  0.00    -0.266 OA
ATOM     43  H5  UNL     1      10.040  -8.452  -7.591  1.00  0.00     0.163 HD
BRANCH  41  44
HETATM   44  C30 UNL     1       7.664  -9.750  -7.908  1.00  0.00     0.097 A 
HETATM   45  C31 UNL     1       6.477 -10.097  -8.304  1.00  0.00     0.013 A 
HETATM   46  C32 UNL     1       5.263 -10.214  -7.450  1.00  0.00     0.070 A 
HETATM   47  C33 UNL     1       5.519  -9.855  -6.053  1.00  0.00    -0.028 A 
HETATM   48  C34 UNL     1       4.485  -9.888  -5.145  1.00  0.00     0.010 A 
HETATM   49  C38 UNL     1       6.762  -9.481  -5.590  1.00  0.00     0.039 A 
HETATM   50  C35 UNL     1       4.651  -9.565  -3.818  1.00  0.00     0.001 A 
HETATM   51  C36 UNL     1       5.903  -9.188  -3.351  1.00  0.00     0.002 A 
HETATM   52  C37 UNL     1       6.934  -9.158  -4.265  1.00  0.00     0.030 A 
HETATM   53  N6  UNL     1       7.841  -9.426  -6.516  1.00  0.00    -0.352 N 
ATOM     54  H6  UNL     1       8.765  -9.150  -6.185  1.00  0.00     0.166 HD
ENDBRANCH  41  44
ENDBRANCH  35  40
ENDBRANCH  32  35
ENDBRANCH   1  31
TORSDOF 14
ENDMDL
