MODEL 1
REMARK VINA RESULT: -11.011923887      0.000      0.000
REMARK  14 active torsions:
REMARK  status: ('A' for Active; 'I' for Inactive)
REMARK    1  A    between atoms: C2_2  and  N1_5 
REMARK       I    between atoms: N1_5  and  C5_7 
REMARK    2  A    between atoms: C5_7  and  C6_9 
REMARK    3  A    between atoms: N2_18  and  C15_19 
REMARK    4  A    between atoms: C15_19  and  C16_20 
REMARK    5  A    between atoms: C16_20  and  O2_21 
REMARK    6  A    between atoms: C16_20  and  C17_23 
REMARK    7  A    between atoms: C17_23  and  C18_24 
REMARK    8  A    between atoms: C17_23  and  N3_31 
REMARK    9  A    between atoms: C18_24  and  C19_25 
REMARK       I    between atoms: N3_31  and  C25_33 
REMARK   10  A    between atoms: C25_33  and  C26_35 
REMARK   11  A    between atoms: C26_35  and  C27_36 
REMARK   12  A    between atoms: C26_35  and  N5_40 
REMARK   13  A    between atoms: C27_36  and  C28_37 
REMARK       I    between atoms: N5_40  and  C29_42 
REMARK   14  A    between atoms: C29_42  and  C30_44 
ROOT
HETATM    1  C17 UNL     1      12.962  -8.152  -8.209  1.00  0.00     0.115 C 
ENDROOT
BRANCH   1   2
HETATM    2  C16 UNL     1      13.870  -8.704  -9.255  1.00  0.00     0.169 C 
BRANCH   2   3
HETATM    3  C15 UNL     1      15.287  -8.346  -9.295  1.00  0.00     0.307 C 
BRANCH   3   4
HETATM    4  N2  UNL     1      15.728  -7.463 -10.355  1.00  0.00     0.105 N 
HETATM    5  C6  UNL     1      16.945  -7.892 -10.975  1.00  0.00     0.314 C 
HETATM    6  C7  UNL     1      17.002  -7.339 -12.405  1.00  0.00     0.050 C 
HETATM    7  C8  UNL     1      16.211  -8.319 -13.246  1.00  0.00    -0.006 C 
HETATM    8  C9  UNL     1      15.721  -7.672 -14.507  1.00  0.00     0.005 C 
HETATM    9  C13 UNL     1      15.021  -8.707 -12.381  1.00  0.00     0.018 C 
HETATM   10  C10 UNL     1      15.104  -8.750 -15.396  1.00  0.00     0.000 C 
HETATM   11  C11 UNL     1      14.355  -9.696 -14.493  1.00  0.00     0.000 C 
HETATM   12  C12 UNL     1      13.845  -8.877 -13.302  1.00  0.00     0.007 C 
HETATM   13  C14 UNL     1      14.697  -7.580 -11.421  1.00  0.00     0.278 C 
BRANCH   5  14
HETATM   14  C5  UNL     1      18.206  -7.476 -10.361  1.00  0.00     0.252 C 
HETATM   15  N1  UNL     1      19.411  -7.618 -11.105  1.00  0.00    -0.351 N 
ATOM     16  H1  UNL     1      19.350  -8.005 -12.047  1.00  0.00     0.163 HD
HETATM   17  O1  UNL     1      18.257  -7.006  -9.221  1.00  0.00    -0.271 OA
BRANCH  15  18
HETATM   18  C2  UNL     1      20.703  -7.253 -10.614  1.00  0.00     0.022 C 
HETATM   19  C1  UNL     1      20.838  -5.780 -10.304  1.00  0.00     0.037 C 
HETATM   20  C3  UNL     1      21.071  -8.052  -9.375  1.00  0.00     0.037 C 
HETATM   21  C4  UNL     1      21.737  -7.582 -11.667  1.00  0.00     0.037 C 
ENDBRANCH  15  18
ENDBRANCH   5  14
ENDBRANCH   3   4
ENDBRANCH   2   3
BRANCH   2  22
HETATM   22  O2  UNL     1      13.551 -10.044  -9.425  1.00  0.00    -0.392 OA
ATOM     23  H2  UNL     1      12.653 -10.300  -9.255  1.00  0.00     0.210 HD
ENDBRANCH   2  22
ENDBRANCH   1   2
BRANCH   1  24
HETATM   24  C18 UNL     1      13.505  -8.248  -6.810  1.00  0.00     0.036 C 
BRANCH  24  25
HETATM   25  C19 UNL     1      13.154  -7.054  -6.013  1.00  0.00     0.010 C 
HETATM   26  C20 UNL     1      14.247  -6.796  -4.977  1.00  0.00    -0.026 C 
HETATM   27  C21 UNL     1      14.264  -7.499  -3.874  1.00  0.00    -0.030 C 
HETATM   28  C22 UNL     1      13.265  -8.532  -3.595  1.00  0.00     0.027 C 
HETATM   29  C23 UNL     1      11.944  -8.362  -4.254  1.00  0.00     0.004 C 
HETATM   30  C24 UNL     1      11.880  -7.214  -5.213  1.00  0.00     0.009 C 
ENDBRANCH  24  25
ENDBRANCH   1  24
BRANCH   1  31
HETATM   31  N3  UNL     1      11.609  -8.630  -8.394  1.00  0.00    -0.352 N 
HETATM   32  C25 UNL     1      10.509  -7.894  -8.819  1.00  0.00     0.241 C 
HETATM   33  O3  UNL     1      10.589  -6.698  -9.086  1.00  0.00    -0.271 OA
ATOM     34  H3  UNL     1      11.443  -9.616  -8.192  1.00  0.00     0.163 HD
BRANCH  32  35
HETATM   35  C26 UNL     1       9.184  -8.561  -8.959  1.00  0.00     0.185 C 
BRANCH  35  36
HETATM   36  C27 UNL     1       8.367  -8.110 -10.120  1.00  0.00     0.134 C 
BRANCH  36  37
HETATM   37  C28 UNL     1       8.254  -9.052 -11.233  1.00  0.00     0.233 C 
HETATM   38  N4  UNL     1       9.279  -9.183 -12.237  1.00  0.00    -0.062 NA
HETATM   39  O4  UNL     1       7.239  -9.783 -11.337  1.00  0.00    -0.277 OA
ENDBRANCH  36  37
ENDBRANCH  35  36
BRANCH  35  40
HETATM   40  N5  UNL     1       8.411  -8.482  -7.754  1.00  0.00    -0.342 N 
HETATM   41  C29 UNL     1       7.634  -9.526  -7.195  1.00  0.00     0.268 C 
HETATM   42  O5  UNL     1       7.645 -10.614  -7.840  1.00  0.00    -0.266 OA
ATOM     43  H5  UNL     1       8.422  -7.593  -7.254  1.00  0.00     0.163 HD
BRANCH  41  44
HETATM   44  C30 UNL     1       6.854  -9.412  -5.964  1.00  0.00     0.097 A 
HETATM   45  C31 UNL     1       5.563  -9.277  -5.935  1.00  0.00     0.013 A 
HETATM   46  C32 UNL     1       4.718  -9.156  -4.714  1.00  0.00     0.070 A 
HETATM   47  C33 UNL     1       5.506  -9.169  -3.480  1.00  0.00    -0.028 A 
HETATM   48  C34 UNL     1       4.866  -9.037  -2.267  1.00  0.00     0.010 A 
HETATM   49  C38 UNL     1       6.877  -9.309  -3.465  1.00  0.00     0.039 A 
HETATM   50  C35 UNL     1       5.541  -9.041  -1.068  1.00  0.00     0.001 A 
HETATM   51  C36 UNL     1       6.922  -9.183  -1.053  1.00  0.00     0.002 A 
HETATM   52  C37 UNL     1       7.555  -9.314  -2.270  1.00  0.00     0.030 A 
HETATM   53  N6  UNL     1       7.558  -9.431  -4.709  1.00  0.00    -0.352 N 
ATOM     54  H6  UNL     1       8.572  -9.535  -4.710  1.00  0.00     0.166 HD
ENDBRANCH  41  44
ENDBRANCH  35  40
ENDBRANCH  32  35
ENDBRANCH   1  31
TORSDOF 14
ENDMDL
