MODEL 2
REMARK VINA RESULT: -8.450735548      3.842      4.470
REMARK  12 active torsions:
REMARK  status: ('A' for Active; 'I' for Inactive)
REMARK    1  A    between atoms: N1_1  and  C1_5 
REMARK    2  A    between atoms: C1_5  and  C2_6 
REMARK    3  A    between atoms: C5_9  and  C6_10 
REMARK    4  A    between atoms: C6_10  and  C7_11 
REMARK    5  A    between atoms: C7_11  and  C8_12 
REMARK    6  A    between atoms: C7_11  and  C18_29 
REMARK    7  A    between atoms: C8_12  and  P1_13 
REMARK    8  A    between atoms: P1_13  and  C9_16 
REMARK    9  A    between atoms: C9_16  and  N2_17 
REMARK   10  A    between atoms: C9_16  and  C10_21 
REMARK   11  A    between atoms: C10_21  and  C11_22 
REMARK   12  A    between atoms: C11_22  and  C12_23 
ROOT
HETATM    1  C8  UNL     1      14.089  41.509  -4.140  1.00  0.00     0.125 C 
ENDROOT
BRANCH   1   2
HETATM    2  C7  UNL     1      14.705  40.767  -3.031  1.00  0.00     0.120 C 
BRANCH   2   3
HETATM    3  C6  UNL     1      14.025  39.665  -2.348  1.00  0.00     0.000 C 
BRANCH   3   4
HETATM    4  C5  UNL     1      13.924  39.563  -0.917  1.00  0.00    -0.039 A 
HETATM    5  C4  UNL     1      14.475  40.555  -0.094  1.00  0.00     0.011 A 
HETATM    6  C3  UNL     1      14.436  40.460   1.281  1.00  0.00     0.009 A 
HETATM    7  C2  UNL     1      13.845  39.369   1.876  1.00  0.00    -0.033 A 
HETATM    8  C20 UNL     1      13.296  38.376   1.099  1.00  0.00     0.009 A 
HETATM    9  C19 UNL     1      13.349  38.498  -0.271  1.00  0.00     0.011 A 
BRANCH   7  10
HETATM   10  C1  UNL     1      13.801  39.258   3.378  1.00  0.00     0.268 C 
BRANCH  10  11
HETATM   11  N1  UNL     1      15.079  38.909   3.915  1.00  0.00    -0.075 N 
ATOM     12  H13 UNL     1      15.403  38.011   3.553  1.00  0.00     0.274 HD
ATOM     13  H12 UNL     1      15.817  39.506   3.541  1.00  0.00     0.274 HD
ATOM     14  H11 UNL     1      15.071  38.920   4.934  1.00  0.00     0.274 HD
ENDBRANCH  10  11
ENDBRANCH   7  10
ENDBRANCH   3   4
ENDBRANCH   2   3
BRANCH   2  15
HETATM   15  C18 UNL     1      16.052  40.218  -3.462  1.00  0.00     0.181 C 
HETATM   16  O3  UNL     1      17.069  40.401  -2.782  1.00  0.00    -0.647 OA
HETATM   17  O4  UNL     1      16.114  39.506  -4.637  1.00  0.00    -0.647 OA
ENDBRANCH   2  15
ENDBRANCH   1   2
BRANCH   1  18
HETATM   18  P1  UNL     1      13.882  43.256  -3.944  1.00  0.00     0.138 P 
HETATM   19  O1  UNL     1      14.247  44.060  -5.159  1.00  0.00    -0.666 OA
HETATM   20  O2  UNL     1      14.793  43.794  -2.618  1.00  0.00    -0.666 OA
BRANCH  18  21
HETATM   21  C9  UNL     1      12.128  43.691  -3.608  1.00  0.00     0.274 C 
BRANCH  21  22
HETATM   22  N2  UNL     1      11.482  44.220  -4.770  1.00  0.00    -0.066 N 
ATOM     23  H23 UNL     1      12.019  44.986  -5.178  1.00  0.00     0.275 HD
ATOM     24  H22 UNL     1      11.524  43.564  -5.550  1.00  0.00     0.275 HD
ATOM     25  H21 UNL     1      10.522  44.503  -4.573  1.00  0.00     0.275 HD
ENDBRANCH  21  22
BRANCH  21  26
HETATM   26  C10 UNL     1      11.373  42.513  -3.073  1.00  0.00     0.048 C 
BRANCH  26  27
HETATM   27  C11 UNL     1      11.638  42.439  -1.587  1.00  0.00     0.041 C 
BRANCH  27  28
HETATM   28  C12 UNL     1      10.928  41.335  -0.931  1.00  0.00    -0.058 A 
HETATM   29  C13 UNL     1      10.739  41.231   0.434  1.00  0.00     0.007 A 
HETATM   30  C14 UNL     1      10.067  40.176   0.986  1.00  0.00     0.001 A 
HETATM   31  C15 UNL     1       9.548  39.166   0.205  1.00  0.00     0.000 A 
HETATM   32  C16 UNL     1       9.724  39.245  -1.162  1.00  0.00     0.001 A 
HETATM   33  C17 UNL     1      10.402  40.315  -1.703  1.00  0.00     0.007 A 
ENDBRANCH  27  28
ENDBRANCH  26  27
ENDBRANCH  21  26
ENDBRANCH  18  21
ENDBRANCH   1  18
TORSDOF 12
ENDMDL
