MODEL 3
REMARK VINA RESULT: -8.334937520      3.876      7.275
REMARK  12 active torsions:
REMARK  status: ('A' for Active; 'I' for Inactive)
REMARK    1  A    between atoms: N1_1  and  C1_5 
REMARK    2  A    between atoms: C1_5  and  C2_6 
REMARK    3  A    between atoms: C5_9  and  C6_10 
REMARK    4  A    between atoms: C6_10  and  C7_11 
REMARK    5  A    between atoms: C7_11  and  C8_12 
REMARK    6  A    between atoms: C7_11  and  C18_29 
REMARK    7  A    between atoms: C8_12  and  P1_13 
REMARK    8  A    between atoms: P1_13  and  C9_16 
REMARK    9  A    between atoms: C9_16  and  N2_17 
REMARK   10  A    between atoms: C9_16  and  C10_21 
REMARK   11  A    between atoms: C10_21  and  C11_22 
REMARK   12  A    between atoms: C11_22  and  C12_23 
ROOT
HETATM    1  C8  UNL     1      12.438  42.904  -2.338  1.00  0.00     0.125 C 
ENDROOT
BRANCH   1   2
HETATM    2  C7  UNL     1      11.593  41.730  -2.075  1.00  0.00     0.120 C 
BRANCH   2   3
HETATM    3  C6  UNL     1      11.131  41.377  -0.731  1.00  0.00     0.000 C 
BRANCH   3   4
HETATM    4  C5  UNL     1      11.242  40.055  -0.178  1.00  0.00    -0.039 A 
HETATM    5  C4  UNL     1      11.406  38.945  -1.019  1.00  0.00     0.011 A 
HETATM    6  C3  UNL     1      11.467  37.661  -0.521  1.00  0.00     0.009 A 
HETATM    7  C2  UNL     1      11.366  37.447   0.835  1.00  0.00    -0.033 A 
HETATM    8  C20 UNL     1      11.204  38.512   1.690  1.00  0.00     0.009 A 
HETATM    9  C19 UNL     1      11.147  39.782   1.163  1.00  0.00     0.011 A 
BRANCH   7  10
HETATM   10  C1  UNL     1      11.431  36.046   1.386  1.00  0.00     0.268 C 
BRANCH  10  11
HETATM   11  N1  UNL     1      10.796  35.110   0.511  1.00  0.00    -0.075 N 
ATOM     12  H13 UNL     1       9.952  35.503   0.093  1.00  0.00     0.274 HD
ATOM     13  H12 UNL     1      11.340  34.964  -0.339  1.00  0.00     0.274 HD
ATOM     14  H11 UNL     1      10.602  34.228   0.986  1.00  0.00     0.274 HD
ENDBRANCH  10  11
ENDBRANCH   7  10
ENDBRANCH   3   4
ENDBRANCH   2   3
BRANCH   2  15
HETATM   15  C18 UNL     1      10.347  41.787  -2.940  1.00  0.00     0.181 C 
HETATM   16  O3  UNL     1       9.582  42.758  -2.903  1.00  0.00    -0.647 OA
HETATM   17  O4  UNL     1      10.089  40.723  -3.772  1.00  0.00    -0.647 OA
ENDBRANCH   2  15
ENDBRANCH   1   2
BRANCH   1  18
HETATM   18  P1  UNL     1      13.927  42.653  -3.260  1.00  0.00     0.138 P 
HETATM   19  O1  UNL     1      14.397  43.866  -4.013  1.00  0.00    -0.666 OA
HETATM   20  O2  UNL     1      13.718  41.365  -4.344  1.00  0.00    -0.666 OA
BRANCH  18  21
HETATM   21  C9  UNL     1      15.333  42.215  -2.162  1.00  0.00     0.274 C 
BRANCH  21  22
HETATM   22  N2  UNL     1      15.584  43.233  -1.189  1.00  0.00    -0.066 N 
ATOM     23  H23 UNL     1      16.565  43.250  -0.913  1.00  0.00     0.275 HD
ATOM     24  H22 UNL     1      15.518  44.164  -1.600  1.00  0.00     0.275 HD
ATOM     25  H21 UNL     1      14.971  43.140  -0.379  1.00  0.00     0.275 HD
ENDBRANCH  21  22
BRANCH  21  26
HETATM   26  C10 UNL     1      15.106  40.891  -1.496  1.00  0.00     0.048 C 
BRANCH  26  27
HETATM   27  C11 UNL     1      14.802  41.160  -0.041  1.00  0.00     0.041 C 
BRANCH  27  28
HETATM   28  C12 UNL     1      14.817  39.945   0.783  1.00  0.00    -0.058 A 
HETATM   29  C13 UNL     1      14.731  39.937   2.162  1.00  0.00     0.007 A 
HETATM   30  C14 UNL     1      14.751  38.772   2.874  1.00  0.00     0.001 A 
HETATM   31  C15 UNL     1      14.858  37.547   2.249  1.00  0.00     0.000 A 
HETATM   32  C16 UNL     1      14.946  37.528   0.872  1.00  0.00     0.001 A 
HETATM   33  C17 UNL     1      14.924  38.712   0.167  1.00  0.00     0.007 A 
ENDBRANCH  27  28
ENDBRANCH  26  27
ENDBRANCH  21  26
ENDBRANCH  18  21
ENDBRANCH   1  18
TORSDOF 12
ENDMDL
