MODEL 5
REMARK VINA RESULT: -8.194092369      3.123      9.260
REMARK  12 active torsions:
REMARK  status: ('A' for Active; 'I' for Inactive)
REMARK    1  A    between atoms: N1_1  and  C1_5 
REMARK    2  A    between atoms: C1_5  and  C2_6 
REMARK    3  A    between atoms: C5_9  and  C6_10 
REMARK    4  A    between atoms: C6_10  and  C7_11 
REMARK    5  A    between atoms: C7_11  and  C8_12 
REMARK    6  A    between atoms: C7_11  and  C18_29 
REMARK    7  A    between atoms: C8_12  and  P1_13 
REMARK    8  A    between atoms: P1_13  and  C9_16 
REMARK    9  A    between atoms: C9_16  and  N2_17 
REMARK   10  A    between atoms: C9_16  and  C10_21 
REMARK   11  A    between atoms: C10_21  and  C11_22 
REMARK   12  A    between atoms: C11_22  and  C12_23 
ROOT
HETATM    1  C8  UNL     1       8.604  41.417  -4.287  1.00  0.00     0.125 C 
ENDROOT
BRANCH   1   2
HETATM    2  C7  UNL     1       7.295  40.952  -3.807  1.00  0.00     0.120 C 
BRANCH   2   3
HETATM    3  C6  UNL     1       6.042  41.303  -4.477  1.00  0.00     0.000 C 
BRANCH   3   4
HETATM    4  C5  UNL     1       4.800  41.504  -3.779  1.00  0.00    -0.039 A 
HETATM    5  C4  UNL     1       4.796  41.978  -2.460  1.00  0.00     0.011 A 
HETATM    6  C3  UNL     1       3.625  42.136  -1.750  1.00  0.00     0.009 A 
HETATM    7  C2  UNL     1       2.420  41.824  -2.338  1.00  0.00    -0.033 A 
HETATM    8  C20 UNL     1       2.387  41.355  -3.631  1.00  0.00     0.009 A 
HETATM    9  C19 UNL     1       3.572  41.209  -4.315  1.00  0.00     0.011 A 
BRANCH   7  10
HETATM   10  C1  UNL     1       1.136  41.992  -1.568  1.00  0.00     0.268 C 
BRANCH  10  11
HETATM   11  N1  UNL     1       0.049  41.323  -2.211  1.00  0.00    -0.075 N 
ATOM     12  H13 UNL     1      -0.455  40.719  -1.561  1.00  0.00     0.274 HD
ATOM     13  H12 UNL     1      -0.705  41.970  -2.441  1.00  0.00     0.274 HD
ATOM     14  H11 UNL     1       0.362  40.807  -3.033  1.00  0.00     0.274 HD
ENDBRANCH  10  11
ENDBRANCH   7  10
ENDBRANCH   3   4
ENDBRANCH   2   3
BRANCH   2  15
HETATM   15  C18 UNL     1       7.294  39.440  -3.690  1.00  0.00     0.181 C 
HETATM   16  O3  UNL     1       8.030  38.856  -2.885  1.00  0.00    -0.647 OA
HETATM   17  O4  UNL     1       6.448  38.729  -4.508  1.00  0.00    -0.647 OA
ENDBRANCH   2  15
ENDBRANCH   1   2
BRANCH   1  18
HETATM   18  P1  UNL     1       9.369  42.757  -3.421  1.00  0.00     0.138 P 
HETATM   19  O1  UNL     1      10.012  42.364  -2.121  1.00  0.00    -0.666 OA
HETATM   20  O2  UNL     1       8.226  43.978  -3.136  1.00  0.00    -0.666 OA
BRANCH  18  21
HETATM   21  C9  UNL     1      10.728  43.506  -4.405  1.00  0.00     0.274 C 
BRANCH  21  22
HETATM   22  N2  UNL     1      10.229  44.414  -5.392  1.00  0.00    -0.066 N 
ATOM     23  H23 UNL     1      10.990  44.871  -5.894  1.00  0.00     0.275 HD
ATOM     24  H22 UNL     1       9.800  43.916  -6.172  1.00  0.00     0.275 HD
ATOM     25  H21 UNL     1       9.588  45.096  -4.988  1.00  0.00     0.275 HD
ENDBRANCH  21  22
BRANCH  21  26
HETATM   26  C10 UNL     1      11.726  44.186  -3.517  1.00  0.00     0.048 C 
BRANCH  26  27
HETATM   27  C11 UNL     1      13.082  43.593  -3.818  1.00  0.00     0.041 C 
BRANCH  27  28
HETATM   28  C12 UNL     1      13.749  43.052  -2.627  1.00  0.00    -0.058 A 
HETATM   29  C13 UNL     1      13.283  41.980  -1.891  1.00  0.00     0.007 A 
HETATM   30  C14 UNL     1      13.951  41.521  -0.791  1.00  0.00     0.001 A 
HETATM   31  C15 UNL     1      15.122  42.109  -0.363  1.00  0.00     0.000 A 
HETATM   32  C16 UNL     1      15.610  43.182  -1.081  1.00  0.00     0.001 A 
HETATM   33  C17 UNL     1      14.925  43.632  -2.189  1.00  0.00     0.007 A 
ENDBRANCH  27  28
ENDBRANCH  26  27
ENDBRANCH  21  26
ENDBRANCH  18  21
ENDBRANCH   1  18
TORSDOF 12
ENDMDL
