MODEL 1
REMARK VINA RESULT: -8.457606381      0.000      0.000
REMARK  12 active torsions:
REMARK  status: ('A' for Active; 'I' for Inactive)
REMARK    1  A    between atoms: N1_1  and  C1_5 
REMARK    2  A    between atoms: C1_5  and  C2_6 
REMARK    3  A    between atoms: C5_9  and  C6_10 
REMARK    4  A    between atoms: C6_10  and  C7_11 
REMARK    5  A    between atoms: C7_11  and  C8_12 
REMARK    6  A    between atoms: C7_11  and  C18_29 
REMARK    7  A    between atoms: C8_12  and  P1_13 
REMARK    8  A    between atoms: P1_13  and  C9_16 
REMARK    9  A    between atoms: C9_16  and  N2_17 
REMARK   10  A    between atoms: C9_16  and  C10_21 
REMARK   11  A    between atoms: C10_21  and  C11_22 
REMARK   12  A    between atoms: C11_22  and  C12_23 
ROOT
HETATM    1  C8  UNL     1      12.038  42.915  -3.094  1.00  0.00     0.125 C 
ENDROOT
BRANCH   1   2
HETATM    2  C7  UNL     1      13.185  42.709  -2.198  1.00  0.00     0.120 C 
BRANCH   2   3
HETATM    3  C6  UNL     1      13.716  41.379  -1.895  1.00  0.00     0.000 C 
BRANCH   3   4
HETATM    4  C5  UNL     1      13.792  40.843  -0.562  1.00  0.00    -0.039 A 
HETATM    5  C4  UNL     1      14.888  41.137   0.260  1.00  0.00     0.011 A 
HETATM    6  C3  UNL     1      15.013  40.599   1.524  1.00  0.00     0.009 A 
HETATM    7  C2  UNL     1      14.042  39.749   2.004  1.00  0.00    -0.033 A 
HETATM    8  C20 UNL     1      12.953  39.438   1.224  1.00  0.00     0.009 A 
HETATM    9  C19 UNL     1      12.857  39.990  -0.033  1.00  0.00     0.011 A 
BRANCH   7  10
HETATM   10  C1  UNL     1      14.172  39.157   3.383  1.00  0.00     0.268 C 
BRANCH  10  11
HETATM   11  N1  UNL     1      13.508  39.961   4.362  1.00  0.00    -0.075 N 
ATOM     12  H13 UNL     1      14.166  40.553   4.868  1.00  0.00     0.274 HD
ATOM     13  H12 UNL     1      12.943  40.689   3.926  1.00  0.00     0.274 HD
ATOM     14  H11 UNL     1      12.953  39.389   4.999  1.00  0.00     0.274 HD
ENDBRANCH  10  11
ENDBRANCH   7  10
ENDBRANCH   3   4
ENDBRANCH   2   3
BRANCH   2  15
HETATM   15  C18 UNL     1      14.367  43.529  -2.677  1.00  0.00     0.181 C 
HETATM   16  O3  UNL     1      14.517  43.806  -3.874  1.00  0.00    -0.647 OA
HETATM   17  O4  UNL     1      15.276  43.962  -1.740  1.00  0.00    -0.647 OA
ENDBRANCH   2  15
ENDBRANCH   1   2
BRANCH   1  18
HETATM   18  P1  UNL     1      10.599  41.920  -2.828  1.00  0.00     0.138 P 
HETATM   19  O1  UNL     1      10.299  41.645  -1.381  1.00  0.00    -0.666 OA
HETATM   20  O2  UNL     1      10.759  40.450  -3.659  1.00  0.00    -0.666 OA
BRANCH  18  21
HETATM   21  C9  UNL     1       9.084  42.742  -3.468  1.00  0.00     0.274 C 
BRANCH  21  22
HETATM   22  N2  UNL     1       9.074  42.794  -4.898  1.00  0.00    -0.066 N 
ATOM     23  H23 UNL     1       8.845  43.729  -5.234  1.00  0.00     0.275 HD
ATOM     24  H22 UNL     1      10.016  42.713  -5.279  1.00  0.00     0.275 HD
ATOM     25  H21 UNL     1       8.449  42.093  -5.296  1.00  0.00     0.275 HD
ENDBRANCH  21  22
BRANCH  21  26
HETATM   26  C10 UNL     1       7.848  42.070  -2.953  1.00  0.00     0.048 C 
BRANCH  26  27
HETATM   27  C11 UNL     1       6.866  41.983  -4.098  1.00  0.00     0.041 C 
BRANCH  27  28
HETATM   28  C12 UNL     1       5.470  41.895  -3.653  1.00  0.00    -0.058 A 
HETATM   29  C13 UNL     1       4.419  41.498  -4.458  1.00  0.00     0.007 A 
HETATM   30  C14 UNL     1       3.139  41.436  -3.984  1.00  0.00     0.001 A 
HETATM   31  C15 UNL     1       2.836  41.767  -2.681  1.00  0.00     0.000 A 
HETATM   32  C16 UNL     1       3.868  42.167  -1.856  1.00  0.00     0.001 A 
HETATM   33  C17 UNL     1       5.154  42.225  -2.348  1.00  0.00     0.007 A 
ENDBRANCH  27  28
ENDBRANCH  26  27
ENDBRANCH  21  26
ENDBRANCH  18  21
ENDBRANCH   1  18
TORSDOF 12
ENDMDL
