MODEL 7
REMARK VINA RESULT: -8.952172481      1.351      3.560
REMARK  12 active torsions:
REMARK  status: ('A' for Active; 'I' for Inactive)
REMARK    1  A    between atoms: N1_1  and  S1_4 
REMARK    2  A    between atoms: S1_4  and  C1_7 
REMARK    3  A    between atoms: C4_12  and  S2_13 
REMARK    4  A    between atoms: S2_13  and  C5_16 
REMARK    5  A    between atoms: C5_16  and  C6_17 
REMARK    6  A    between atoms: C6_17  and  O5_18 
REMARK    7  A    between atoms: C7_20  and  N2_21 
REMARK    8  A    between atoms: N2_21  and  C8_23 
REMARK    9  A    between atoms: C8_23  and  C9_24 
REMARK   10  A    between atoms: C8_23  and  C15_30 
REMARK   11  A    between atoms: C15_30  and  O6_31 
REMARK   12  A    between atoms: C15_30  and  C16_33 
ROOT
HETATM    1  C1  UNL     1      25.209   9.589  13.979  1.00  0.00     0.161 A 
HETATM    2  C2  UNL     1      24.330   9.191  14.952  1.00  0.00     0.182 A 
HETATM    3  F1  UNL     1      23.506  10.096  15.506  1.00  0.00    -0.201 F 
HETATM    4  C3  UNL     1      24.339   7.876  15.312  1.00  0.00     0.180 A 
HETATM    5  F2  UNL     1      23.463   7.504  16.272  1.00  0.00    -0.201 F 
HETATM    6  C4  UNL     1      25.203   6.924  14.733  1.00  0.00     0.130 A 
HETATM    7  C7  UNL     1      26.076   7.351  13.761  1.00  0.00     0.098 A 
HETATM    8  C22 UNL     1      26.081   8.689  13.377  1.00  0.00     0.171 A 
HETATM    9  F3  UNL     1      26.908   9.067  12.397  1.00  0.00    -0.202 F 
ENDROOT
BRANCH   7  10
HETATM   10  N2  UNL     1      26.949   6.457  13.136  1.00  0.00    -0.353 N 
ATOM     11  H2  UNL     1      27.739   6.140  13.698  1.00  0.00     0.166 HD
BRANCH  10  12
HETATM   12  C8  UNL     1      26.878   5.940  11.837  1.00  0.00     0.053 C 
BRANCH  12  13
HETATM   13  C9  UNL     1      27.832   6.361  10.788  1.00  0.00    -0.011 A 
HETATM   14  C10 UNL     1      27.600   7.262   9.785  1.00  0.00     0.013 A 
HETATM   15  C11 UNL     1      28.535   7.612   8.813  1.00  0.00     0.001 A 
HETATM   16  C12 UNL     1      29.781   7.037   8.832  1.00  0.00     0.000 A 
HETATM   17  C13 UNL     1      30.070   6.129   9.811  1.00  0.00     0.001 A 
HETATM   18  C14 UNL     1      29.130   5.805  10.752  1.00  0.00     0.013 A 
ENDBRANCH  12  13
BRANCH  12  19
HETATM   19  C15 UNL     1      25.500   5.738  11.282  1.00  0.00     0.201 C 
BRANCH  19  20
HETATM   20  O6  UNL     1      24.959   6.948  10.852  1.00  0.00    -0.385 OA
ATOM     21  H6  UNL     1      24.490   7.376  11.559  1.00  0.00     0.211 HD
ENDBRANCH  19  20
BRANCH  19  22
HETATM   22  C16 UNL     1      25.200   4.681  10.370  1.00  0.00    -0.024 A 
HETATM   23  C17 UNL     1      24.101   3.878  10.732  1.00  0.00     0.010 A 
HETATM   24  C18 UNL     1      23.682   2.838   9.935  1.00  0.00     0.001 A 
HETATM   25  C19 UNL     1      24.312   2.538   8.759  1.00  0.00     0.000 A 
HETATM   26  C20 UNL     1      25.377   3.293   8.378  1.00  0.00     0.001 A 
HETATM   27  C21 UNL     1      25.791   4.343   9.193  1.00  0.00     0.010 A 
ENDBRANCH  19  22
ENDBRANCH  12  19
ENDBRANCH  10  12
ENDBRANCH   7  10
BRANCH   6  28
HETATM   28  S2  UNL     1      25.015   5.307  15.235  1.00  0.00     0.182 S 
HETATM   29  O3  UNL     1      24.621   5.309  16.738  1.00  0.00    -0.222 OA
HETATM   30  O4  UNL     1      26.156   4.398  15.171  1.00  0.00    -0.222 OA
BRANCH  28  31
HETATM   31  C5  UNL     1      23.536   4.667  14.439  1.00  0.00     0.172 C 
BRANCH  31  32
HETATM   32  C6  UNL     1      22.688   3.964  15.507  1.00  0.00     0.179 C 
BRANCH  32  33
HETATM   33  O5  UNL     1      21.677   4.801  15.944  1.00  0.00    -0.400 OA
ATOM     34  H5  UNL     1      21.582   5.538  15.354  1.00  0.00     0.209 HD
ENDBRANCH  32  33
ENDBRANCH  31  32
ENDBRANCH  28  31
ENDBRANCH   6  28
BRANCH   1  35
HETATM   35  S1  UNL     1      25.284  11.263  13.434  1.00  0.00     0.263 S 
HETATM   36  O1  UNL     1      24.221  12.043  14.149  1.00  0.00    -0.201 OA
HETATM   37  O2  UNL     1      26.652  11.777  13.694  1.00  0.00    -0.201 OA
BRANCH  35  38
HETATM   38  N1  UNL     1      24.907  11.245  11.743  1.00  0.00    -0.324 N 
ATOM     39  H12 UNL     1      25.095  12.009  11.094  1.00  0.00     0.169 HD
ATOM     40  H11 UNL     1      24.472  10.350  11.519  1.00  0.00     0.169 HD
ENDBRANCH  35  38
ENDBRANCH   1  35
TORSDOF 12
ENDMDL
