MODEL 2
REMARK VINA RESULT: -9.142751973      3.442      7.799
REMARK  12 active torsions:
REMARK  status: ('A' for Active; 'I' for Inactive)
REMARK    1  A    between atoms: N1_1  and  S1_4 
REMARK    2  A    between atoms: S1_4  and  C1_7 
REMARK    3  A    between atoms: C4_12  and  S2_13 
REMARK    4  A    between atoms: S2_13  and  C5_16 
REMARK    5  A    between atoms: C5_16  and  C6_17 
REMARK    6  A    between atoms: C6_17  and  O5_18 
REMARK    7  A    between atoms: C7_20  and  N2_21 
REMARK    8  A    between atoms: N2_21  and  C8_23 
REMARK    9  A    between atoms: C8_23  and  C9_24 
REMARK   10  A    between atoms: C8_23  and  C15_30 
REMARK   11  A    between atoms: C15_30  and  O6_31 
REMARK   12  A    between atoms: C15_30  and  C16_33 
ROOT
HETATM    1  C1  UNL     1      25.312   3.968   9.805  1.00  0.00     0.161 A 
HETATM    2  C2  UNL     1      26.124   4.210   8.728  1.00  0.00     0.182 A 
HETATM    3  F1  UNL     1      25.834   3.646   7.543  1.00  0.00    -0.201 F 
HETATM    4  C3  UNL     1      27.201   5.024   8.919  1.00  0.00     0.180 A 
HETATM    5  F2  UNL     1      27.987   5.253   7.843  1.00  0.00    -0.201 F 
HETATM    6  C4  UNL     1      27.508   5.617  10.161  1.00  0.00     0.130 A 
HETATM    7  C7  UNL     1      26.679   5.355  11.225  1.00  0.00     0.098 A 
HETATM    8  C22 UNL     1      25.573   4.528  11.050  1.00  0.00     0.171 A 
HETATM    9  F3  UNL     1      24.757   4.327  12.091  1.00  0.00    -0.202 F 
ENDROOT
BRANCH   7  10
HETATM   10  N2  UNL     1      26.918   5.922  12.479  1.00  0.00    -0.353 N 
ATOM     11  H2  UNL     1      27.813   5.689  12.909  1.00  0.00     0.166 HD
BRANCH  10  12
HETATM   12  C8  UNL     1      26.086   6.768  13.222  1.00  0.00     0.053 C 
BRANCH  12  13
HETATM   13  C9  UNL     1      26.156   8.238  13.075  1.00  0.00    -0.011 A 
HETATM   14  C10 UNL     1      27.288   8.999  12.978  1.00  0.00     0.013 A 
HETATM   15  C11 UNL     1      27.294  10.386  12.854  1.00  0.00     0.001 A 
HETATM   16  C12 UNL     1      26.103  11.069  12.822  1.00  0.00     0.000 A 
HETATM   17  C13 UNL     1      24.938  10.362  12.915  1.00  0.00     0.001 A 
HETATM   18  C14 UNL     1      24.965   8.998  13.037  1.00  0.00     0.013 A 
ENDBRANCH  12  13
BRANCH  12  19
HETATM   19  C15 UNL     1      25.838   6.366  14.645  1.00  0.00     0.201 C 
BRANCH  19  20
HETATM   20  O6  UNL     1      26.336   7.326  15.523  1.00  0.00    -0.385 OA
ATOM     21  H6  UNL     1      26.191   7.065  16.425  1.00  0.00     0.211 HD
ENDBRANCH  19  20
BRANCH  19  22
HETATM   22  C16 UNL     1      24.572   5.870  15.080  1.00  0.00    -0.024 A 
HETATM   23  C17 UNL     1      24.484   4.467  15.175  1.00  0.00     0.010 A 
HETATM   24  C18 UNL     1      23.333   3.850  15.605  1.00  0.00     0.001 A 
HETATM   25  C19 UNL     1      22.224   4.569  15.959  1.00  0.00     0.000 A 
HETATM   26  C20 UNL     1      22.274   5.925  15.880  1.00  0.00     0.001 A 
HETATM   27  C21 UNL     1      23.445   6.538  15.444  1.00  0.00     0.010 A 
ENDBRANCH  19  22
ENDBRANCH  12  19
ENDBRANCH  10  12
ENDBRANCH   7  10
BRANCH   6  28
HETATM   28  S2  UNL     1      28.838   6.682  10.197  1.00  0.00     0.182 S 
HETATM   29  O3  UNL     1      29.937   6.117   9.256  1.00  0.00    -0.222 OA
HETATM   30  O4  UNL     1      29.538   6.913  11.458  1.00  0.00    -0.222 OA
BRANCH  28  31
HETATM   31  C5  UNL     1      28.338   8.192   9.361  1.00  0.00     0.172 C 
BRANCH  31  32
HETATM   32  C6  UNL     1      29.377   9.276   9.676  1.00  0.00     0.179 C 
BRANCH  32  33
HETATM   33  O5  UNL     1      30.627   8.884   9.232  1.00  0.00    -0.400 OA
ATOM     34  H5  UNL     1      31.299   9.437   9.612  1.00  0.00     0.209 HD
ENDBRANCH  32  33
ENDBRANCH  31  32
ENDBRANCH  28  31
ENDBRANCH   6  28
BRANCH   1  35
HETATM   35  S1  UNL     1      23.893   2.931   9.674  1.00  0.00     0.263 S 
HETATM   36  O1  UNL     1      23.545   2.784   8.223  1.00  0.00    -0.201 OA
HETATM   37  O2  UNL     1      24.199   1.636  10.330  1.00  0.00    -0.201 OA
BRANCH  35  38
HETATM   38  N1  UNL     1      22.599   3.771  10.464  1.00  0.00    -0.324 N 
ATOM     39  H12 UNL     1      21.772   3.328  10.864  1.00  0.00     0.169 HD
ATOM     40  H11 UNL     1      22.811   4.769  10.458  1.00  0.00     0.169 HD
ENDBRANCH  35  38
ENDBRANCH   1  35
TORSDOF 12
ENDMDL
