MODEL 3
REMARK VINA RESULT: -9.134956551      3.327      7.707
REMARK  12 active torsions:
REMARK  status: ('A' for Active; 'I' for Inactive)
REMARK    1  A    between atoms: N1_1  and  S1_4 
REMARK    2  A    between atoms: S1_4  and  C1_7 
REMARK    3  A    between atoms: C4_12  and  S2_13 
REMARK    4  A    between atoms: S2_13  and  C5_16 
REMARK    5  A    between atoms: C5_16  and  C6_17 
REMARK    6  A    between atoms: C6_17  and  O5_18 
REMARK    7  A    between atoms: C7_20  and  N2_21 
REMARK    8  A    between atoms: N2_21  and  C8_23 
REMARK    9  A    between atoms: C8_23  and  C9_24 
REMARK   10  A    between atoms: C8_23  and  C15_30 
REMARK   11  A    between atoms: C15_30  and  O6_31 
REMARK   12  A    between atoms: C15_30  and  C16_33 
ROOT
HETATM    1  C1  UNL     1      25.180   4.197   9.958  1.00  0.00     0.161 A 
HETATM    2  C2  UNL     1      26.058   4.416   8.929  1.00  0.00     0.182 A 
HETATM    3  F1  UNL     1      25.797   3.898   7.718  1.00  0.00    -0.201 F 
HETATM    4  C3  UNL     1      27.169   5.162   9.193  1.00  0.00     0.180 A 
HETATM    5  F2  UNL     1      28.020   5.369   8.164  1.00  0.00    -0.201 F 
HETATM    6  C4  UNL     1      27.445   5.707  10.464  1.00  0.00     0.130 A 
HETATM    7  C7  UNL     1      26.549   5.470  11.479  1.00  0.00     0.098 A 
HETATM    8  C22 UNL     1      25.409   4.713  11.229  1.00  0.00     0.171 A 
HETATM    9  F3  UNL     1      24.531   4.537  12.222  1.00  0.00    -0.202 F 
ENDROOT
BRANCH   7  10
HETATM   10  N2  UNL     1      26.757   5.994  12.758  1.00  0.00    -0.353 N 
ATOM     11  H2  UNL     1      27.573   5.640  13.257  1.00  0.00     0.166 HD
BRANCH  10  12
HETATM   12  C8  UNL     1      25.988   6.942  13.442  1.00  0.00     0.053 C 
BRANCH  12  13
HETATM   13  C9  UNL     1      26.184   8.392  13.228  1.00  0.00    -0.011 A 
HETATM   14  C10 UNL     1      27.348   9.092  13.383  1.00  0.00     0.013 A 
HETATM   15  C11 UNL     1      27.473  10.465  13.179  1.00  0.00     0.001 A 
HETATM   16  C12 UNL     1      26.375  11.196  12.796  1.00  0.00     0.000 A 
HETATM   17  C13 UNL     1      25.184  10.550  12.625  1.00  0.00     0.001 A 
HETATM   18  C14 UNL     1      25.093   9.199  12.833  1.00  0.00     0.013 A 
ENDBRANCH  12  13
BRANCH  12  19
HETATM   19  C15 UNL     1      25.682   6.632  14.877  1.00  0.00     0.201 C 
BRANCH  19  20
HETATM   20  O6  UNL     1      25.755   7.784  15.657  1.00  0.00    -0.385 OA
ATOM     21  H6  UNL     1      25.968   7.567  16.558  1.00  0.00     0.211 HD
ENDBRANCH  19  20
BRANCH  19  22
HETATM   22  C16 UNL     1      24.572   5.818  15.254  1.00  0.00    -0.024 A 
HETATM   23  C17 UNL     1      23.357   6.512  15.426  1.00  0.00     0.010 A 
HETATM   24  C18 UNL     1      22.199   5.852  15.764  1.00  0.00     0.001 A 
HETATM   25  C19 UNL     1      22.174   4.498  15.950  1.00  0.00     0.000 A 
HETATM   26  C20 UNL     1      23.328   3.796  15.793  1.00  0.00     0.001 A 
HETATM   27  C21 UNL     1      24.494   4.475  15.449  1.00  0.00     0.010 A 
ENDBRANCH  19  22
ENDBRANCH  12  19
ENDBRANCH  10  12
ENDBRANCH   7  10
BRANCH   6  28
HETATM   28  S2  UNL     1      28.830   6.692  10.594  1.00  0.00     0.182 S 
HETATM   29  O3  UNL     1      29.959   6.056   9.737  1.00  0.00    -0.222 OA
HETATM   30  O4  UNL     1      29.449   6.892  11.901  1.00  0.00    -0.222 OA
BRANCH  28  31
HETATM   31  C5  UNL     1      28.483   8.223   9.717  1.00  0.00     0.172 C 
BRANCH  31  32
HETATM   32  C6  UNL     1      29.797   8.729   9.108  1.00  0.00     0.179 C 
BRANCH  32  33
HETATM   33  O5  UNL     1      30.790   8.761  10.070  1.00  0.00    -0.400 OA
ATOM     34  H5  UNL     1      30.635   8.092  10.726  1.00  0.00     0.209 HD
ENDBRANCH  32  33
ENDBRANCH  31  32
ENDBRANCH  28  31
ENDBRANCH   6  28
BRANCH   1  35
HETATM   35  S1  UNL     1      23.713   3.248   9.731  1.00  0.00     0.263 S 
HETATM   36  O1  UNL     1      23.743   2.091  10.684  1.00  0.00    -0.201 OA
HETATM   37  O2  UNL     1      22.545   4.139   9.939  1.00  0.00    -0.201 OA
BRANCH  35  38
HETATM   38  N1  UNL     1      23.777   2.628   8.114  1.00  0.00    -0.324 N 
ATOM     39  H12 UNL     1      23.835   1.639   7.869  1.00  0.00     0.169 HD
ATOM     40  H11 UNL     1      23.748   3.415   7.465  1.00  0.00     0.169 HD
ENDBRANCH  35  38
ENDBRANCH   1  35
TORSDOF 12
ENDMDL
