MODEL 4
REMARK VINA RESULT: -9.079915563      1.131      1.387
REMARK  12 active torsions:
REMARK  status: ('A' for Active; 'I' for Inactive)
REMARK    1  A    between atoms: N1_1  and  S1_4 
REMARK    2  A    between atoms: S1_4  and  C1_7 
REMARK    3  A    between atoms: C4_12  and  S2_13 
REMARK    4  A    between atoms: S2_13  and  C5_16 
REMARK    5  A    between atoms: C5_16  and  C6_17 
REMARK    6  A    between atoms: C6_17  and  O5_18 
REMARK    7  A    between atoms: C7_20  and  N2_21 
REMARK    8  A    between atoms: N2_21  and  C8_23 
REMARK    9  A    between atoms: C8_23  and  C9_24 
REMARK   10  A    between atoms: C8_23  and  C15_30 
REMARK   11  A    between atoms: C15_30  and  O6_31 
REMARK   12  A    between atoms: C15_30  and  C16_33 
ROOT
HETATM    1  C1  UNL     1      25.635  10.156  12.631  1.00  0.00     0.161 A 
HETATM    2  C2  UNL     1      25.788  10.034  13.987  1.00  0.00     0.182 A 
HETATM    3  F1  UNL     1      26.103  11.119  14.715  1.00  0.00    -0.201 F 
HETATM    4  C3  UNL     1      25.609   8.799  14.535  1.00  0.00     0.180 A 
HETATM    5  F2  UNL     1      25.762   8.701  15.874  1.00  0.00    -0.201 F 
HETATM    6  C4  UNL     1      25.279   7.659  13.773  1.00  0.00     0.130 A 
HETATM    7  C7  UNL     1      25.134   7.809  12.415  1.00  0.00     0.098 A 
HETATM    8  C22 UNL     1      25.310   9.062  11.837  1.00  0.00     0.171 A 
HETATM    9  F3  UNL     1      25.117   9.188  10.519  1.00  0.00    -0.202 F 
ENDROOT
BRANCH   7  10
HETATM   10  N2  UNL     1      24.794   6.722  11.605  1.00  0.00    -0.353 N 
ATOM     11  H2  UNL     1      23.805   6.472  11.588  1.00  0.00     0.166 HD
BRANCH  10  12
HETATM   12  C8  UNL     1      25.636   5.933  10.813  1.00  0.00     0.053 C 
BRANCH  12  13
HETATM   13  C9  UNL     1      25.156   4.681  10.189  1.00  0.00    -0.011 A 
HETATM   14  C10 UNL     1      24.215   3.825  10.691  1.00  0.00     0.013 A 
HETATM   15  C11 UNL     1      23.809   2.649  10.064  1.00  0.00     0.001 A 
HETATM   16  C12 UNL     1      24.367   2.294   8.860  1.00  0.00     0.000 A 
HETATM   17  C13 UNL     1      25.313   3.112   8.309  1.00  0.00     0.001 A 
HETATM   18  C14 UNL     1      25.691   4.261   8.951  1.00  0.00     0.013 A 
ENDBRANCH  12  13
BRANCH  12  19
HETATM   19  C15 UNL     1      27.055   5.808  11.281  1.00  0.00     0.201 C 
BRANCH  19  20
HETATM   20  O6  UNL     1      27.269   4.568  11.880  1.00  0.00    -0.385 OA
ATOM     21  H6  UNL     1      28.188   4.451  12.090  1.00  0.00     0.211 HD
ENDBRANCH  19  20
BRANCH  19  22
HETATM   22  C16 UNL     1      28.159   6.186  10.458  1.00  0.00    -0.024 A 
HETATM   23  C17 UNL     1      27.828   7.007   9.361  1.00  0.00     0.010 A 
HETATM   24  C18 UNL     1      28.794   7.468   8.498  1.00  0.00     0.001 A 
HETATM   25  C19 UNL     1      30.114   7.151   8.663  1.00  0.00     0.000 A 
HETATM   26  C20 UNL     1      30.469   6.360   9.711  1.00  0.00     0.001 A 
HETATM   27  C21 UNL     1      29.482   5.900  10.578  1.00  0.00     0.010 A 
ENDBRANCH  19  22
ENDBRANCH  12  19
ENDBRANCH  10  12
ENDBRANCH   7  10
BRANCH   6  28
HETATM   28  S2  UNL     1      25.001   6.213  14.633  1.00  0.00     0.182 S 
HETATM   29  O3  UNL     1      26.058   6.113  15.766  1.00  0.00    -0.222 OA
HETATM   30  O4  UNL     1      25.106   4.934  13.937  1.00  0.00    -0.222 OA
BRANCH  28  31
HETATM   31  C5  UNL     1      23.464   6.418  15.542  1.00  0.00     0.172 C 
BRANCH  31  32
HETATM   32  C6  UNL     1      23.262   5.175  16.418  1.00  0.00     0.179 C 
BRANCH  32  33
HETATM   33  O5  UNL     1      24.078   5.238  17.533  1.00  0.00    -0.400 OA
ATOM     34  H5  UNL     1      23.567   5.458  18.303  1.00  0.00     0.209 HD
ENDBRANCH  32  33
ENDBRANCH  31  32
ENDBRANCH  28  31
ENDBRANCH   6  28
BRANCH   1  35
HETATM   35  S1  UNL     1      25.841  11.705  11.815  1.00  0.00     0.263 S 
HETATM   36  O1  UNL     1      26.777  12.548  12.628  1.00  0.00    -0.201 OA
HETATM   37  O2  UNL     1      26.340  11.446  10.442  1.00  0.00    -0.201 OA
BRANCH  35  38
HETATM   38  N1  UNL     1      24.284  12.465  11.809  1.00  0.00    -0.324 N 
ATOM     39  H12 UNL     1      23.429  12.050  12.178  1.00  0.00     0.169 HD
ATOM     40  H11 UNL     1      24.377  13.386  11.379  1.00  0.00     0.169 HD
ENDBRANCH  35  38
ENDBRANCH   1  35
TORSDOF 12
ENDMDL
