MODEL 16
REMARK VINA RESULT: -8.543044167      3.227      7.531
REMARK  12 active torsions:
REMARK  status: ('A' for Active; 'I' for Inactive)
REMARK    1  A    between atoms: N1_1  and  S1_4 
REMARK    2  A    between atoms: S1_4  and  C1_7 
REMARK    3  A    between atoms: C4_12  and  S2_13 
REMARK    4  A    between atoms: S2_13  and  C5_16 
REMARK    5  A    between atoms: C5_16  and  C6_17 
REMARK    6  A    between atoms: C6_17  and  O5_18 
REMARK    7  A    between atoms: C7_20  and  N2_21 
REMARK    8  A    between atoms: N2_21  and  C8_23 
REMARK    9  A    between atoms: C8_23  and  C9_24 
REMARK   10  A    between atoms: C8_23  and  C15_30 
REMARK   11  A    between atoms: C15_30  and  O6_31 
REMARK   12  A    between atoms: C15_30  and  C16_33 
ROOT
HETATM    1  C1  UNL     1      25.224   4.421   9.745  1.00  0.00     0.161 A 
HETATM    2  C2  UNL     1      26.187   4.492   8.774  1.00  0.00     0.182 A 
HETATM    3  F1  UNL     1      26.102   3.689   7.700  1.00  0.00    -0.201 F 
HETATM    4  C3  UNL     1      27.198   5.390   8.951  1.00  0.00     0.180 A 
HETATM    5  F2  UNL     1      28.136   5.447   7.980  1.00  0.00    -0.201 F 
HETATM    6  C4  UNL     1      27.290   6.234  10.077  1.00  0.00     0.130 A 
HETATM    7  C7  UNL     1      26.312   6.139  11.037  1.00  0.00     0.098 A 
HETATM    8  C22 UNL     1      25.270   5.231  10.874  1.00  0.00     0.171 A 
HETATM    9  F3  UNL     1      24.307   5.193  11.801  1.00  0.00    -0.202 F 
ENDROOT
BRANCH   7  10
HETATM   10  N2  UNL     1      26.335   6.957  12.170  1.00  0.00    -0.353 N 
ATOM     11  H2  UNL     1      27.045   6.731  12.867  1.00  0.00     0.166 HD
BRANCH  10  12
HETATM   12  C8  UNL     1      25.510   8.047  12.472  1.00  0.00     0.053 C 
BRANCH  12  13
HETATM   13  C9  UNL     1      25.935   9.435  12.192  1.00  0.00    -0.011 A 
HETATM   14  C10 UNL     1      25.760  10.126  11.025  1.00  0.00     0.013 A 
HETATM   15  C11 UNL     1      26.193  11.433  10.812  1.00  0.00     0.001 A 
HETATM   16  C12 UNL     1      26.843  12.103  11.819  1.00  0.00     0.000 A 
HETATM   17  C13 UNL     1      27.047  11.464  13.008  1.00  0.00     0.001 A 
HETATM   18  C14 UNL     1      26.610  10.179  13.186  1.00  0.00     0.013 A 
ENDBRANCH  12  13
BRANCH  12  19
HETATM   19  C15 UNL     1      24.737   7.953  13.753  1.00  0.00     0.201 C 
BRANCH  19  20
HETATM   20  O6  UNL     1      23.460   8.491  13.599  1.00  0.00    -0.385 OA
ATOM     21  H6  UNL     1      23.303   8.730  12.693  1.00  0.00     0.211 HD
ENDBRANCH  19  20
BRANCH  19  22
HETATM   22  C16 UNL     1      24.707   6.757  14.533  1.00  0.00    -0.024 A 
HETATM   23  C17 UNL     1      23.418   6.284  14.846  1.00  0.00     0.010 A 
HETATM   24  C18 UNL     1      23.237   5.129  15.570  1.00  0.00     0.001 A 
HETATM   25  C19 UNL     1      24.297   4.390  16.017  1.00  0.00     0.000 A 
HETATM   26  C20 UNL     1      25.556   4.817  15.732  1.00  0.00     0.001 A 
HETATM   27  C21 UNL     1      25.726   5.988  14.998  1.00  0.00     0.010 A 
ENDBRANCH  19  22
ENDBRANCH  12  19
ENDBRANCH  10  12
ENDBRANCH   7  10
BRANCH   6  28
HETATM   28  S2  UNL     1      28.568   7.361  10.091  1.00  0.00     0.182 S 
HETATM   29  O3  UNL     1      28.799   7.814  11.559  1.00  0.00    -0.222 OA
HETATM   30  O4  UNL     1      28.428   8.613   9.353  1.00  0.00    -0.222 OA
BRANCH  28  31
HETATM   31  C5  UNL     1      30.078   6.463   9.712  1.00  0.00     0.172 C 
BRANCH  31  32
HETATM   32  C6  UNL     1      30.501   5.693  10.970  1.00  0.00     0.179 C 
BRANCH  32  33
HETATM   33  O5  UNL     1      31.411   6.434  11.702  1.00  0.00    -0.400 OA
ATOM     34  H5  UNL     1      31.959   5.860  12.223  1.00  0.00     0.209 HD
ENDBRANCH  32  33
ENDBRANCH  31  32
ENDBRANCH  28  31
ENDBRANCH   6  28
BRANCH   1  35
HETATM   35  S1  UNL     1      23.871   3.297   9.621  1.00  0.00     0.263 S 
HETATM   36  O1  UNL     1      24.102   2.168  10.580  1.00  0.00    -0.201 OA
HETATM   37  O2  UNL     1      22.619   4.043   9.896  1.00  0.00    -0.201 OA
BRANCH  35  38
HETATM   38  N1  UNL     1      23.910   2.663   8.009  1.00  0.00    -0.324 N 
ATOM     39  H12 UNL     1      24.315   1.765   7.743  1.00  0.00     0.169 HD
ATOM     40  H11 UNL     1      23.464   3.337   7.386  1.00  0.00     0.169 HD
ENDBRANCH  35  38
ENDBRANCH   1  35
TORSDOF 12
ENDMDL
