MODEL 1
REMARK VINA RESULT: -9.280287338      0.000      0.000
REMARK  12 active torsions:
REMARK  status: ('A' for Active; 'I' for Inactive)
REMARK    1  A    between atoms: N1_1  and  S1_4 
REMARK    2  A    between atoms: S1_4  and  C1_7 
REMARK    3  A    between atoms: C4_12  and  S2_13 
REMARK    4  A    between atoms: S2_13  and  C5_16 
REMARK    5  A    between atoms: C5_16  and  C6_17 
REMARK    6  A    between atoms: C6_17  and  O5_18 
REMARK    7  A    between atoms: C7_20  and  N2_21 
REMARK    8  A    between atoms: N2_21  and  C8_23 
REMARK    9  A    between atoms: C8_23  and  C9_24 
REMARK   10  A    between atoms: C8_23  and  C15_30 
REMARK   11  A    between atoms: C15_30  and  O6_31 
REMARK   12  A    between atoms: C15_30  and  C16_33 
ROOT
HETATM    1  C1  UNL     1      24.893   9.798  13.315  1.00  0.00     0.161 A 
HETATM    2  C2  UNL     1      24.776   9.575  14.662  1.00  0.00     0.182 A 
HETATM    3  F1  UNL     1      24.771  10.621  15.506  1.00  0.00    -0.201 F 
HETATM    4  C3  UNL     1      24.669   8.282  15.082  1.00  0.00     0.180 A 
HETATM    5  F2  UNL     1      24.553   8.084  16.414  1.00  0.00    -0.201 F 
HETATM    6  C4  UNL     1      24.675   7.183  14.198  1.00  0.00     0.130 A 
HETATM    7  C7  UNL     1      24.796   7.436  12.853  1.00  0.00     0.098 A 
HETATM    8  C22 UNL     1      24.904   8.748  12.404  1.00  0.00     0.171 A 
HETATM    9  F3  UNL     1      24.973   8.967  11.087  1.00  0.00    -0.202 F 
ENDROOT
BRANCH   7  10
HETATM   10  N2  UNL     1      24.794   6.392  11.923  1.00  0.00    -0.353 N 
ATOM     11  H2  UNL     1      23.935   5.845  11.870  1.00  0.00     0.166 HD
BRANCH  10  12
HETATM   12  C8  UNL     1      25.820   6.002  11.055  1.00  0.00     0.053 C 
BRANCH  12  13
HETATM   13  C9  UNL     1      25.592   4.991  10.000  1.00  0.00    -0.011 A 
HETATM   14  C10 UNL     1      26.430   4.688   8.962  1.00  0.00     0.013 A 
HETATM   15  C11 UNL     1      26.159   3.731   7.987  1.00  0.00     0.001 A 
HETATM   16  C12 UNL     1      24.982   3.025   8.039  1.00  0.00     0.000 A 
HETATM   17  C13 UNL     1      24.105   3.285   9.053  1.00  0.00     0.001 A 
HETATM   18  C14 UNL     1      24.400   4.232   9.997  1.00  0.00     0.013 A 
ENDBRANCH  12  13
BRANCH  12  19
HETATM   19  C15 UNL     1      27.184   5.868  11.663  1.00  0.00     0.201 C 
BRANCH  19  20
HETATM   20  O6  UNL     1      27.401   4.565  12.106  1.00  0.00    -0.385 OA
ATOM     21  H6  UNL     1      28.320   4.426  12.304  1.00  0.00     0.211 HD
ENDBRANCH  19  20
BRANCH  19  22
HETATM   22  C16 UNL     1      28.348   6.405  11.034  1.00  0.00    -0.024 A 
HETATM   23  C17 UNL     1      28.179   7.680  10.459  1.00  0.00     0.010 A 
HETATM   24  C18 UNL     1      29.222   8.329   9.841  1.00  0.00     0.001 A 
HETATM   25  C19 UNL     1      30.466   7.768   9.757  1.00  0.00     0.000 A 
HETATM   26  C20 UNL     1      30.665   6.538  10.301  1.00  0.00     0.001 A 
HETATM   27  C21 UNL     1      29.602   5.891  10.924  1.00  0.00     0.010 A 
ENDBRANCH  19  22
ENDBRANCH  12  19
ENDBRANCH  10  12
ENDBRANCH   7  10
BRANCH   6  28
HETATM   28  S2  UNL     1      24.438   5.642  14.887  1.00  0.00     0.182 S 
HETATM   29  O3  UNL     1      25.343   5.528  16.144  1.00  0.00    -0.222 OA
HETATM   30  O4  UNL     1      24.764   4.450  14.108  1.00  0.00    -0.222 OA
BRANCH  28  31
HETATM   31  C5  UNL     1      22.783   5.617  15.587  1.00  0.00     0.172 C 
BRANCH  31  32
HETATM   32  C6  UNL     1      22.372   4.152  15.781  1.00  0.00     0.179 C 
BRANCH  32  33
HETATM   33  O5  UNL     1      21.231   4.073  16.558  1.00  0.00    -0.400 OA
ATOM     34  H5  UNL     1      20.654   3.395  16.228  1.00  0.00     0.209 HD
ENDBRANCH  32  33
ENDBRANCH  31  32
ENDBRANCH  28  31
ENDBRANCH   6  28
BRANCH   1  35
HETATM   35  S1  UNL     1      25.037  11.428  12.660  1.00  0.00     0.263 S 
HETATM   36  O1  UNL     1      25.872  12.245  13.600  1.00  0.00    -0.201 OA
HETATM   37  O2  UNL     1      25.620  11.335  11.300  1.00  0.00    -0.201 OA
BRANCH  35  38
HETATM   38  N1  UNL     1      23.435  12.089  12.637  1.00  0.00    -0.324 N 
ATOM     39  H12 UNL     1      22.806  12.129  13.440  1.00  0.00     0.169 HD
ATOM     40  H11 UNL     1      23.238  12.424  11.694  1.00  0.00     0.169 HD
ENDBRANCH  35  38
ENDBRANCH   1  35
TORSDOF 12
ENDMDL
