MODEL 6
REMARK VINA RESULT: -7.798556922      1.743      5.391
REMARK  9 active torsions:
REMARK  status: ('A' for Active; 'I' for Inactive)
REMARK    1  A    between atoms: N1_1  and  S1_4 
REMARK    2  A    between atoms: S1_4  and  C1_7 
REMARK    3  A    between atoms: C4_12  and  S2_13 
REMARK    4  A    between atoms: S2_13  and  C5_16 
REMARK    5  A    between atoms: C5_16  and  C6_17 
REMARK    6  A    between atoms: C6_17  and  O5_18 
REMARK    7  A    between atoms: C7_20  and  N2_21 
REMARK    8  A    between atoms: N2_21  and  C8_23 
REMARK    9  A    between atoms: C8_23  and  C9_24 
ROOT
HETATM    1  C1  UNL     1      -3.295  17.552  -4.796  1.00  0.00     0.161 A 
HETATM    2  C2  UNL     1      -1.955  17.831  -4.687  1.00  0.00     0.182 A 
HETATM    3  F1  UNL     1      -1.021  16.833  -4.741  1.00  0.00    -0.201 F 
HETATM    4  C3  UNL     1      -1.596  19.145  -4.525  1.00  0.00     0.180 A 
HETATM    5  F2  UNL     1      -0.268  19.440  -4.416  1.00  0.00    -0.201 F 
HETATM    6  C4  UNL     1      -2.509  20.195  -4.466  1.00  0.00     0.130 A 
HETATM    7  C7  UNL     1      -3.842  19.905  -4.574  1.00  0.00     0.094 A 
HETATM    8  C15 UNL     1      -4.221  18.564  -4.740  1.00  0.00     0.170 A 
HETATM    9  F3  UNL     1      -5.530  18.245  -4.852  1.00  0.00    -0.202 F 
ENDROOT
BRANCH   7  10
HETATM   10  N2  UNL     1      -4.866  20.893  -4.501  1.00  0.00    -0.382 N 
ATOM     11  H2  UNL     1      -5.056  21.361  -3.614  1.00  0.00     0.160 HD
BRANCH  10  12
HETATM   12  C8  UNL     1      -5.627  21.234  -5.659  1.00  0.00     0.158 C 
BRANCH  12  13
HETATM   13  C9  UNL     1      -6.311  22.556  -5.530  1.00  0.00    -0.041 A 
HETATM   14  C10 UNL     1      -5.998  23.628  -6.339  1.00  0.00     0.009 A 
HETATM   15  C11 UNL     1      -6.632  24.855  -6.222  1.00  0.00     0.001 A 
HETATM   16  C12 UNL     1      -7.615  25.049  -5.275  1.00  0.00     0.000 A 
HETATM   17  C13 UNL     1      -7.937  23.985  -4.460  1.00  0.00     0.001 A 
HETATM   18  C14 UNL     1      -7.300  22.767  -4.584  1.00  0.00     0.009 A 
ENDBRANCH  12  13
ENDBRANCH  10  12
ENDBRANCH   7  10
BRANCH   6  19
HETATM   19  S2  UNL     1      -1.908  21.818  -4.285  1.00  0.00     0.182 S 
HETATM   20  O3  UNL     1      -3.046  22.794  -4.568  1.00  0.00    -0.222 OA
HETATM   21  O4  UNL     1      -0.710  22.125  -5.089  1.00  0.00    -0.222 OA
BRANCH  19  22
HETATM   22  C5  UNL     1      -1.521  22.092  -2.547  1.00  0.00     0.172 C 
BRANCH  22  23
HETATM   23  C6  UNL     1      -1.573  23.587  -2.297  1.00  0.00     0.179 C 
BRANCH  23  24
HETATM   24  O5  UNL     1      -0.803  24.197  -3.281  1.00  0.00    -0.400 OA
ATOM     25  H5  UNL     1      -0.445  24.994  -2.906  1.00  0.00     0.209 HD
ENDBRANCH  23  24
ENDBRANCH  22  23
ENDBRANCH  19  22
ENDBRANCH   6  19
BRANCH   1  26
HETATM   26  S1  UNL     1      -3.776  15.867  -5.005  1.00  0.00     0.263 S 
HETATM   27  O1  UNL     1      -4.405  15.424  -3.724  1.00  0.00    -0.201 OA
HETATM   28  O2  UNL     1      -2.508  15.075  -5.189  1.00  0.00    -0.201 OA
BRANCH  26  29
HETATM   29  N1  UNL     1      -4.859  15.677  -6.312  1.00  0.00    -0.324 N 
ATOM     30  H12 UNL     1      -5.864  15.540  -6.199  1.00  0.00     0.169 HD
ATOM     31  H11 UNL     1      -4.366  15.719  -7.203  1.00  0.00     0.169 HD
ENDBRANCH  26  29
ENDBRANCH   1  26
TORSDOF 9
ENDMDL
