MODEL 7
REMARK VINA RESULT: -7.737006516      2.177      5.102
REMARK  9 active torsions:
REMARK  status: ('A' for Active; 'I' for Inactive)
REMARK    1  A    between atoms: N1_1  and  S1_4 
REMARK    2  A    between atoms: S1_4  and  C1_7 
REMARK    3  A    between atoms: C4_12  and  S2_13 
REMARK    4  A    between atoms: S2_13  and  C5_16 
REMARK    5  A    between atoms: C5_16  and  C6_17 
REMARK    6  A    between atoms: C6_17  and  O5_18 
REMARK    7  A    between atoms: C7_20  and  N2_21 
REMARK    8  A    between atoms: N2_21  and  C8_23 
REMARK    9  A    between atoms: C8_23  and  C9_24 
ROOT
HETATM    1  C1  UNL     1      -4.396  16.594  -5.769  1.00  0.00     0.161 A 
HETATM    2  C2  UNL     1      -3.244  16.715  -5.034  1.00  0.00     0.182 A 
HETATM    3  F1  UNL     1      -2.433  15.636  -4.811  1.00  0.00    -0.201 F 
HETATM    4  C3  UNL     1      -2.940  17.958  -4.537  1.00  0.00     0.180 A 
HETATM    5  F2  UNL     1      -1.798  18.097  -3.804  1.00  0.00    -0.201 F 
HETATM    6  C4  UNL     1      -3.732  19.086  -4.737  1.00  0.00     0.130 A 
HETATM    7  C7  UNL     1      -4.881  18.953  -5.471  1.00  0.00     0.094 A 
HETATM    8  C15 UNL     1      -5.200  17.687  -5.984  1.00  0.00     0.170 A 
HETATM    9  F3  UNL     1      -6.326  17.522  -6.714  1.00  0.00    -0.202 F 
ENDROOT
BRANCH   7  10
HETATM   10  N2  UNL     1      -5.780  20.030  -5.718  1.00  0.00    -0.382 N 
ATOM     11  H2  UNL     1      -5.571  20.706  -6.452  1.00  0.00     0.160 HD
BRANCH  10  12
HETATM   12  C8  UNL     1      -6.971  20.169  -4.944  1.00  0.00     0.158 C 
BRANCH  12  13
HETATM   13  C9  UNL     1      -7.357  21.598  -4.733  1.00  0.00    -0.041 A 
HETATM   14  C10 UNL     1      -8.100  22.005  -3.645  1.00  0.00     0.009 A 
HETATM   15  C11 UNL     1      -8.458  23.330  -3.446  1.00  0.00     0.001 A 
HETATM   16  C12 UNL     1      -8.075  24.302  -4.345  1.00  0.00     0.000 A 
HETATM   17  C13 UNL     1      -7.331  23.907  -5.436  1.00  0.00     0.001 A 
HETATM   18  C14 UNL     1      -6.980  22.586  -5.626  1.00  0.00     0.009 A 
ENDBRANCH  12  13
ENDBRANCH  10  12
ENDBRANCH   7  10
BRANCH   6  19
HETATM   19  S2  UNL     1      -3.209  20.606  -4.071  1.00  0.00     0.182 S 
HETATM   20  O3  UNL     1      -3.658  21.728  -5.003  1.00  0.00    -0.222 OA
HETATM   21  O4  UNL     1      -1.768  20.685  -3.773  1.00  0.00    -0.222 OA
BRANCH  19  22
HETATM   22  C5  UNL     1      -4.130  20.908  -2.552  1.00  0.00     0.172 C 
BRANCH  22  23
HETATM   23  C6  UNL     1      -3.136  20.899  -1.405  1.00  0.00     0.179 C 
BRANCH  23  24
HETATM   24  O5  UNL     1      -2.824  19.569  -1.141  1.00  0.00    -0.400 OA
ATOM     25  H5  UNL     1      -2.387  19.544  -0.297  1.00  0.00     0.209 HD
ENDBRANCH  23  24
ENDBRANCH  22  23
ENDBRANCH  19  22
ENDBRANCH   6  19
BRANCH   1  26
HETATM   26  S1  UNL     1      -4.803  15.004  -6.417  1.00  0.00     0.263 S 
HETATM   27  O1  UNL     1      -3.769  14.046  -5.919  1.00  0.00    -0.201 OA
HETATM   28  O2  UNL     1      -4.656  15.097  -7.912  1.00  0.00    -0.201 OA
BRANCH  26  29
HETATM   29  N1  UNL     1      -6.368  14.510  -5.944  1.00  0.00    -0.324 N 
ATOM     30  H12 UNL     1      -6.550  13.719  -5.325  1.00  0.00     0.169 HD
ATOM     31  H11 UNL     1      -7.080  15.108  -6.362  1.00  0.00     0.169 HD
ENDBRANCH  26  29
ENDBRANCH   1  26
TORSDOF 9
ENDMDL
