MODEL 4
REMARK VINA RESULT: -7.884008836      1.826      4.854
REMARK  9 active torsions:
REMARK  status: ('A' for Active; 'I' for Inactive)
REMARK    1  A    between atoms: N1_1  and  S1_4 
REMARK    2  A    between atoms: S1_4  and  C1_7 
REMARK    3  A    between atoms: C4_12  and  S2_13 
REMARK    4  A    between atoms: S2_13  and  C5_16 
REMARK    5  A    between atoms: C5_16  and  C6_17 
REMARK    6  A    between atoms: C6_17  and  O5_18 
REMARK    7  A    between atoms: C7_20  and  N2_21 
REMARK    8  A    between atoms: N2_21  and  C8_23 
REMARK    9  A    between atoms: C8_23  and  C9_24 
ROOT
HETATM    1  C1  UNL     1      -3.763  17.069  -5.341  1.00  0.00     0.161 A 
HETATM    2  C2  UNL     1      -2.501  16.802  -4.872  1.00  0.00     0.182 A 
HETATM    3  F1  UNL     1      -2.018  15.523  -4.836  1.00  0.00    -0.201 F 
HETATM    4  C3  UNL     1      -1.748  17.868  -4.445  1.00  0.00     0.180 A 
HETATM    5  F2  UNL     1      -0.491  17.621  -3.977  1.00  0.00    -0.201 F 
HETATM    6  C4  UNL     1      -2.195  19.187  -4.463  1.00  0.00     0.130 A 
HETATM    7  C7  UNL     1      -3.456  19.440  -4.931  1.00  0.00     0.094 A 
HETATM    8  C15 UNL     1      -4.234  18.358  -5.370  1.00  0.00     0.170 A 
HETATM    9  F3  UNL     1      -5.483  18.575  -5.840  1.00  0.00    -0.202 F 
ENDROOT
BRANCH   7  10
HETATM   10  N2  UNL     1      -4.028  20.745  -4.971  1.00  0.00    -0.382 N 
ATOM     11  H2  UNL     1      -3.751  21.397  -5.705  1.00  0.00     0.160 HD
BRANCH  10  12
HETATM   12  C8  UNL     1      -4.985  21.146  -3.991  1.00  0.00     0.158 C 
BRANCH  12  13
HETATM   13  C9  UNL     1      -6.339  21.388  -4.574  1.00  0.00    -0.041 A 
HETATM   14  C10 UNL     1      -7.495  20.991  -3.936  1.00  0.00     0.009 A 
HETATM   15  C11 UNL     1      -8.753  21.216  -4.474  1.00  0.00     0.001 A 
HETATM   16  C12 UNL     1      -8.893  21.855  -5.687  1.00  0.00     0.000 A 
HETATM   17  C13 UNL     1      -7.744  22.257  -6.335  1.00  0.00     0.001 A 
HETATM   18  C14 UNL     1      -6.496  22.029  -5.791  1.00  0.00     0.009 A 
ENDBRANCH  12  13
ENDBRANCH  10  12
ENDBRANCH   7  10
BRANCH   6  19
HETATM   19  S2  UNL     1      -1.121  20.442  -3.917  1.00  0.00     0.182 S 
HETATM   20  O3  UNL     1      -1.226  21.625  -4.875  1.00  0.00    -0.222 OA
HETATM   21  O4  UNL     1       0.277  20.016  -3.722  1.00  0.00    -0.222 OA
BRANCH  19  22
HETATM   22  C5  UNL     1      -1.749  21.089  -2.357  1.00  0.00     0.172 C 
BRANCH  22  23
HETATM   23  C6  UNL     1      -1.752  19.949  -1.356  1.00  0.00     0.179 C 
BRANCH  23  24
HETATM   24  O5  UNL     1      -3.081  19.614  -1.115  1.00  0.00    -0.400 OA
ATOM     25  H5  UNL     1      -3.372  20.135  -0.376  1.00  0.00     0.209 HD
ENDBRANCH  23  24
ENDBRANCH  22  23
ENDBRANCH  19  22
ENDBRANCH   6  19
BRANCH   1  26
HETATM   26  S1  UNL     1      -4.745  15.711  -5.895  1.00  0.00     0.263 S 
HETATM   27  O1  UNL     1      -4.892  14.772  -4.741  1.00  0.00    -0.201 OA
HETATM   28  O2  UNL     1      -3.946  15.005  -6.958  1.00  0.00    -0.201 OA
BRANCH  26  29
HETATM   29  N1  UNL     1      -6.272  16.225  -6.460  1.00  0.00    -0.324 N 
ATOM     30  H12 UNL     1      -7.159  15.869  -6.100  1.00  0.00     0.169 HD
ATOM     31  H11 UNL     1      -6.172  16.925  -7.194  1.00  0.00     0.169 HD
ENDBRANCH  26  29
ENDBRANCH   1  26
TORSDOF 9
ENDMDL
