MODEL 17
REMARK VINA RESULT: -7.431016765      2.154      5.100
REMARK  9 active torsions:
REMARK  status: ('A' for Active; 'I' for Inactive)
REMARK    1  A    between atoms: N1_1  and  S1_4 
REMARK    2  A    between atoms: S1_4  and  C1_7 
REMARK    3  A    between atoms: C4_12  and  S2_13 
REMARK    4  A    between atoms: S2_13  and  C5_16 
REMARK    5  A    between atoms: C5_16  and  C6_17 
REMARK    6  A    between atoms: C6_17  and  O5_18 
REMARK    7  A    between atoms: C7_20  and  N2_21 
REMARK    8  A    between atoms: N2_21  and  C8_23 
REMARK    9  A    between atoms: C8_23  and  C9_24 
ROOT
HETATM    1  C1  UNL     1      -3.790  17.629  -5.022  1.00  0.00     0.161 A 
HETATM    2  C2  UNL     1      -2.722  18.285  -4.464  1.00  0.00     0.182 A 
HETATM    3  F1  UNL     1      -1.634  17.595  -4.003  1.00  0.00    -0.201 F 
HETATM    4  C3  UNL     1      -2.790  19.654  -4.389  1.00  0.00     0.180 A 
HETATM    5  F2  UNL     1      -1.736  20.322  -3.838  1.00  0.00    -0.201 F 
HETATM    6  C4  UNL     1      -3.874  20.400  -4.845  1.00  0.00     0.130 A 
HETATM    7  C7  UNL     1      -4.935  19.735  -5.399  1.00  0.00     0.094 A 
HETATM    8  C15 UNL     1      -4.875  18.336  -5.480  1.00  0.00     0.170 A 
HETATM    9  F3  UNL     1      -5.906  17.650  -6.023  1.00  0.00    -0.202 F 
ENDROOT
BRANCH   7  10
HETATM   10  N2  UNL     1      -6.107  20.392  -5.874  1.00  0.00    -0.382 N 
ATOM     11  H2  UNL     1      -6.048  21.017  -6.677  1.00  0.00     0.160 HD
BRANCH  10  12
HETATM   12  C8  UNL     1      -7.365  20.180  -5.232  1.00  0.00     0.158 C 
BRANCH  12  13
HETATM   13  C9  UNL     1      -7.765  21.325  -4.359  1.00  0.00    -0.041 A 
HETATM   14  C10 UNL     1      -7.802  21.223  -2.984  1.00  0.00     0.009 A 
HETATM   15  C11 UNL     1      -8.172  22.283  -2.172  1.00  0.00     0.001 A 
HETATM   16  C12 UNL     1      -8.522  23.498  -2.721  1.00  0.00     0.000 A 
HETATM   17  C13 UNL     1      -8.489  23.613  -4.094  1.00  0.00     0.001 A 
HETATM   18  C14 UNL     1      -8.119  22.551  -4.895  1.00  0.00     0.009 A 
ENDBRANCH  12  13
ENDBRANCH  10  12
ENDBRANCH   7  10
BRANCH   6  19
HETATM   19  S2  UNL     1      -3.812  22.134  -4.712  1.00  0.00     0.182 S 
HETATM   20  O3  UNL     1      -4.758  22.737  -5.747  1.00  0.00    -0.222 OA
HETATM   21  O4  UNL     1      -2.459  22.712  -4.804  1.00  0.00    -0.222 OA
BRANCH  19  22
HETATM   22  C5  UNL     1      -4.536  22.609  -3.132  1.00  0.00     0.172 C 
BRANCH  22  23
HETATM   23  C6  UNL     1      -3.419  22.636  -2.106  1.00  0.00     0.179 C 
BRANCH  23  24
HETATM   24  O5  UNL     1      -3.523  21.471  -1.353  1.00  0.00    -0.400 OA
ATOM     25  H5  UNL     1      -2.692  21.016  -1.422  1.00  0.00     0.209 HD
ENDBRANCH  23  24
ENDBRANCH  22  23
ENDBRANCH  19  22
ENDBRANCH   6  19
BRANCH   1  26
HETATM   26  S1  UNL     1      -3.720  15.869  -5.127  1.00  0.00     0.263 S 
HETATM   27  O1  UNL     1      -4.262  15.328  -3.844  1.00  0.00    -0.201 OA
HETATM   28  O2  UNL     1      -2.262  15.499  -5.198  1.00  0.00    -0.201 OA
BRANCH  26  29
HETATM   29  N1  UNL     1      -4.609  15.280  -6.460  1.00  0.00    -0.324 N 
ATOM     30  H12 UNL     1      -5.146  14.412  -6.444  1.00  0.00     0.169 HD
ATOM     31  H11 UNL     1      -4.527  15.908  -7.259  1.00  0.00     0.169 HD
ENDBRANCH  26  29
ENDBRANCH   1  26
TORSDOF 9
ENDMDL
