MODEL 1
REMARK VINA RESULT: -8.491005262      0.000      0.000
REMARK  9 active torsions:
REMARK  status: ('A' for Active; 'I' for Inactive)
REMARK    1  A    between atoms: N1_1  and  S1_4 
REMARK    2  A    between atoms: S1_4  and  C1_7 
REMARK    3  A    between atoms: C4_12  and  S2_13 
REMARK    4  A    between atoms: S2_13  and  C5_16 
REMARK    5  A    between atoms: C5_16  and  C6_17 
REMARK    6  A    between atoms: C6_17  and  O5_18 
REMARK    7  A    between atoms: C7_20  and  N2_21 
REMARK    8  A    between atoms: N2_21  and  C8_23 
REMARK    9  A    between atoms: C8_23  and  C9_24 
ROOT
HETATM    1  C1  UNL     1      -2.220  20.352  -4.118  1.00  0.00     0.161 A 
HETATM    2  C2  UNL     1      -1.301  19.351  -4.314  1.00  0.00     0.182 A 
HETATM    3  F1  UNL     1       0.042  19.609  -4.270  1.00  0.00    -0.201 F 
HETATM    4  C3  UNL     1      -1.784  18.089  -4.555  1.00  0.00     0.180 A 
HETATM    5  F2  UNL     1      -0.884  17.083  -4.752  1.00  0.00    -0.201 F 
HETATM    6  C4  UNL     1      -3.140  17.777  -4.608  1.00  0.00     0.130 A 
HETATM    7  C7  UNL     1      -4.048  18.783  -4.412  1.00  0.00     0.094 A 
HETATM    8  C15 UNL     1      -3.565  20.077  -4.166  1.00  0.00     0.170 A 
HETATM    9  F3  UNL     1      -4.435  21.092  -3.966  1.00  0.00    -0.202 F 
ENDROOT
BRANCH   7  10
HETATM   10  N2  UNL     1      -5.458  18.586  -4.471  1.00  0.00    -0.382 N 
ATOM     11  H2  UNL     1      -5.949  18.195  -3.667  1.00  0.00     0.160 HD
BRANCH  10  12
HETATM   12  C8  UNL     1      -6.188  18.933  -5.647  1.00  0.00     0.158 C 
BRANCH  12  13
HETATM   13  C9  UNL     1      -6.908  20.236  -5.514  1.00  0.00    -0.041 A 
HETATM   14  C10 UNL     1      -7.940  20.417  -4.618  1.00  0.00     0.009 A 
HETATM   15  C11 UNL     1      -8.609  21.625  -4.492  1.00  0.00     0.001 A 
HETATM   16  C12 UNL     1      -8.259  22.705  -5.273  1.00  0.00     0.000 A 
HETATM   17  C13 UNL     1      -7.229  22.536  -6.173  1.00  0.00     0.001 A 
HETATM   18  C14 UNL     1      -6.569  21.330  -6.291  1.00  0.00     0.009 A 
ENDBRANCH  12  13
ENDBRANCH  10  12
ENDBRANCH   7  10
BRANCH   6  19
HETATM   19  S2  UNL     1      -3.609  16.126  -4.894  1.00  0.00     0.182 S 
HETATM   20  O3  UNL     1      -4.505  15.668  -3.747  1.00  0.00    -0.222 OA
HETATM   21  O4  UNL     1      -2.486  15.196  -5.117  1.00  0.00    -0.222 OA
BRANCH  19  22
HETATM   22  C5  UNL     1      -4.689  16.082  -6.335  1.00  0.00     0.172 C 
BRANCH  22  23
HETATM   23  C6  UNL     1      -5.560  14.845  -6.217  1.00  0.00     0.179 C 
BRANCH  23  24
HETATM   24  O5  UNL     1      -4.761  13.826  -5.708  1.00  0.00    -0.400 OA
ATOM     25  H5  UNL     1      -4.389  14.140  -4.892  1.00  0.00     0.209 HD
ENDBRANCH  23  24
ENDBRANCH  22  23
ENDBRANCH  19  22
ENDBRANCH   6  19
BRANCH   1  26
HETATM   26  S1  UNL     1      -1.618  21.981  -3.807  1.00  0.00     0.263 S 
HETATM   27  O1  UNL     1      -0.792  22.380  -4.987  1.00  0.00    -0.201 OA
HETATM   28  O2  UNL     1      -0.698  21.882  -2.620  1.00  0.00    -0.201 OA
BRANCH  26  29
HETATM   29  N1  UNL     1      -2.893  23.088  -3.554  1.00  0.00    -0.324 N 
ATOM     30  H12 UNL     1      -3.135  23.833  -4.209  1.00  0.00     0.169 HD
ATOM     31  H11 UNL     1      -3.368  22.901  -2.672  1.00  0.00     0.169 HD
ENDBRANCH  26  29
ENDBRANCH   1  26
TORSDOF 9
ENDMDL
