MODEL 2
REMARK VINA RESULT: -7.939341002      2.879      3.884
REMARK  9 active torsions:
REMARK  status: ('A' for Active; 'I' for Inactive)
REMARK    1  A    between atoms: N1_1  and  S1_4 
REMARK    2  A    between atoms: S1_4  and  C1_7 
REMARK    3  A    between atoms: C4_12  and  S2_13 
REMARK    4  A    between atoms: S2_13  and  C5_16 
REMARK    5  A    between atoms: C5_16  and  C6_17 
REMARK    6  A    between atoms: C6_17  and  O5_18 
REMARK    7  A    between atoms: C7_20  and  N2_21 
REMARK    8  A    between atoms: N2_21  and  C8_23 
REMARK    9  A    between atoms: C8_23  and  C9_24 
ROOT
HETATM    1  C1  UNL     1      -3.356  21.000  -1.420  1.00  0.00     0.161 A 
HETATM    2  C2  UNL     1      -1.984  20.967  -1.382  1.00  0.00     0.182 A 
HETATM    3  F1  UNL     1      -1.290  21.642  -0.414  1.00  0.00    -0.201 F 
HETATM    4  C3  UNL     1      -1.343  20.233  -2.348  1.00  0.00     0.180 A 
HETATM    5  F2  UNL     1       0.020  20.189  -2.324  1.00  0.00    -0.201 F 
HETATM    6  C4  UNL     1      -2.005  19.530  -3.351  1.00  0.00     0.130 A 
HETATM    7  C7  UNL     1      -3.373  19.571  -3.381  1.00  0.00     0.094 A 
HETATM    8  C15 UNL     1      -4.038  20.319  -2.398  1.00  0.00     0.170 A 
HETATM    9  F3  UNL     1      -5.390  20.379  -2.398  1.00  0.00    -0.202 F 
ENDROOT
BRANCH   7  10
HETATM   10  N2  UNL     1      -4.154  18.914  -4.375  1.00  0.00    -0.382 N 
ATOM     11  H2  UNL     1      -4.569  18.004  -4.174  1.00  0.00     0.160 HD
BRANCH  10  12
HETATM   12  C8  UNL     1      -4.359  19.519  -5.651  1.00  0.00     0.158 C 
BRANCH  12  13
HETATM   13  C9  UNL     1      -5.645  20.276  -5.730  1.00  0.00    -0.041 A 
HETATM   14  C10 UNL     1      -6.841  19.737  -5.307  1.00  0.00     0.009 A 
HETATM   15  C11 UNL     1      -8.036  20.437  -5.377  1.00  0.00     0.001 A 
HETATM   16  C12 UNL     1      -8.068  21.720  -5.882  1.00  0.00     0.000 A 
HETATM   17  C13 UNL     1      -6.878  22.270  -6.308  1.00  0.00     0.001 A 
HETATM   18  C14 UNL     1      -5.694  21.564  -6.233  1.00  0.00     0.009 A 
ENDBRANCH  12  13
ENDBRANCH  10  12
ENDBRANCH   7  10
BRANCH   6  19
HETATM   19  S2  UNL     1      -1.064  18.617  -4.495  1.00  0.00     0.182 S 
HETATM   20  O3  UNL     1      -0.806  19.488  -5.721  1.00  0.00    -0.222 OA
HETATM   21  O4  UNL     1      -1.638  17.310  -4.862  1.00  0.00    -0.222 OA
BRANCH  19  22
HETATM   22  C5  UNL     1       0.576  18.351  -3.798  1.00  0.00     0.172 C 
BRANCH  22  23
HETATM   23  C6  UNL     1       1.005  16.942  -4.161  1.00  0.00     0.179 C 
BRANCH  23  24
HETATM   24  O5  UNL     1       2.072  16.609  -3.332  1.00  0.00    -0.400 OA
ATOM     25  H5  UNL     1       1.746  15.990  -2.689  1.00  0.00     0.209 HD
ENDBRANCH  23  24
ENDBRANCH  22  23
ENDBRANCH  19  22
ENDBRANCH   6  19
BRANCH   1  26
HETATM   26  S1  UNL     1      -4.198  21.939  -0.186  1.00  0.00     0.263 S 
HETATM   27  O1  UNL     1      -5.657  21.882  -0.505  1.00  0.00    -0.201 OA
HETATM   28  O2  UNL     1      -3.751  23.368  -0.351  1.00  0.00    -0.201 OA
BRANCH  26  29
HETATM   29  N1  UNL     1      -3.893  21.338   1.383  1.00  0.00    -0.324 N 
ATOM     30  H12 UNL     1      -3.196  21.732   2.015  1.00  0.00     0.169 HD
ATOM     31  H11 UNL     1      -4.497  20.543   1.592  1.00  0.00     0.169 HD
ENDBRANCH  26  29
ENDBRANCH   1  26
TORSDOF 9
ENDMDL
