MODEL 3
REMARK VINA RESULT: -7.885321058      1.700      5.248
REMARK  9 active torsions:
REMARK  status: ('A' for Active; 'I' for Inactive)
REMARK    1  A    between atoms: N1_1  and  S1_4 
REMARK    2  A    between atoms: S1_4  and  C1_7 
REMARK    3  A    between atoms: C4_12  and  S2_13 
REMARK    4  A    between atoms: S2_13  and  C5_16 
REMARK    5  A    between atoms: C5_16  and  C6_17 
REMARK    6  A    between atoms: C6_17  and  O5_18 
REMARK    7  A    between atoms: C7_20  and  N2_21 
REMARK    8  A    between atoms: N2_21  and  C8_23 
REMARK    9  A    between atoms: C8_23  and  C9_24 
ROOT
HETATM    1  C1  UNL     1      -3.143  17.384  -4.853  1.00  0.00     0.161 A 
HETATM    2  C2  UNL     1      -1.806  17.615  -4.654  1.00  0.00     0.182 A 
HETATM    3  F1  UNL     1      -0.914  16.580  -4.583  1.00  0.00    -0.201 F 
HETATM    4  C3  UNL     1      -1.403  18.922  -4.530  1.00  0.00     0.180 A 
HETATM    5  F2  UNL     1      -0.077  19.171  -4.331  1.00  0.00    -0.201 F 
HETATM    6  C4  UNL     1      -2.272  20.008  -4.595  1.00  0.00     0.130 A 
HETATM    7  C7  UNL     1      -3.605  19.765  -4.793  1.00  0.00     0.094 A 
HETATM    8  C15 UNL     1      -4.027  18.433  -4.921  1.00  0.00     0.170 A 
HETATM    9  F3  UNL     1      -5.336  18.159  -5.119  1.00  0.00    -0.202 F 
ENDROOT
BRANCH   7  10
HETATM   10  N2  UNL     1      -4.588  20.795  -4.850  1.00  0.00    -0.382 N 
ATOM     11  H2  UNL     1      -4.626  21.414  -5.659  1.00  0.00     0.160 HD
BRANCH  10  12
HETATM   12  C8  UNL     1      -5.519  20.966  -3.782  1.00  0.00     0.158 C 
BRANCH  12  13
HETATM   13  C9  UNL     1      -6.857  21.435  -4.255  1.00  0.00    -0.041 A 
HETATM   14  C10 UNL     1      -7.559  22.428  -3.606  1.00  0.00     0.009 A 
HETATM   15  C11 UNL     1      -8.800  22.866  -4.043  1.00  0.00     0.001 A 
HETATM   16  C12 UNL     1      -9.384  22.313  -5.162  1.00  0.00     0.000 A 
HETATM   17  C13 UNL     1      -8.692  21.318  -5.820  1.00  0.00     0.001 A 
HETATM   18  C14 UNL     1      -7.457  20.890  -5.377  1.00  0.00     0.009 A 
ENDBRANCH  12  13
ENDBRANCH  10  12
ENDBRANCH   7  10
BRANCH   6  19
HETATM   19  S2  UNL     1      -1.618  21.614  -4.450  1.00  0.00     0.182 S 
HETATM   20  O3  UNL     1      -2.682  22.616  -4.887  1.00  0.00    -0.222 OA
HETATM   21  O4  UNL     1      -0.341  21.826  -5.156  1.00  0.00    -0.222 OA
BRANCH  19  22
HETATM   22  C5  UNL     1      -1.376  21.973  -2.701  1.00  0.00     0.172 C 
BRANCH  22  23
HETATM   23  C6  UNL     1      -1.530  23.471  -2.515  1.00  0.00     0.179 C 
BRANCH  23  24
HETATM   24  O5  UNL     1      -0.728  24.089  -3.469  1.00  0.00    -0.400 OA
ATOM     25  H5  UNL     1      -0.885  23.650  -4.297  1.00  0.00     0.209 HD
ENDBRANCH  23  24
ENDBRANCH  22  23
ENDBRANCH  19  22
ENDBRANCH   6  19
BRANCH   1  26
HETATM   26  S1  UNL     1      -3.680  15.710  -5.015  1.00  0.00     0.263 S 
HETATM   27  O1  UNL     1      -4.363  15.339  -3.739  1.00  0.00    -0.201 OA
HETATM   28  O2  UNL     1      -2.436  14.868  -5.128  1.00  0.00    -0.201 OA
BRANCH  26  29
HETATM   29  N1  UNL     1      -4.727  15.508  -6.348  1.00  0.00    -0.324 N 
ATOM     30  H12 UNL     1      -5.387  14.735  -6.439  1.00  0.00     0.169 HD
ATOM     31  H11 UNL     1      -4.601  16.258  -7.028  1.00  0.00     0.169 HD
ENDBRANCH  26  29
ENDBRANCH   1  26
TORSDOF 9
ENDMDL
