MODEL 4
REMARK VINA RESULT: -7.652510947      3.305      6.559
REMARK  9 active torsions:
REMARK  status: ('A' for Active; 'I' for Inactive)
REMARK    1  A    between atoms: N1_1  and  S1_4 
REMARK    2  A    between atoms: S1_4  and  C1_7 
REMARK    3  A    between atoms: C4_12  and  S2_13 
REMARK    4  A    between atoms: S2_13  and  C5_16 
REMARK    5  A    between atoms: C5_16  and  C6_17 
REMARK    6  A    between atoms: C6_17  and  O5_18 
REMARK    7  A    between atoms: C7_20  and  N2_21 
REMARK    8  A    between atoms: N2_21  and  C8_23 
REMARK    9  A    between atoms: C8_23  and  C9_24 
ROOT
HETATM    1  C1  UNL     1      22.880  -0.793   4.582  1.00  0.00     0.161 A 
HETATM    2  C2  UNL     1      22.441  -1.560   5.632  1.00  0.00     0.182 A 
HETATM    3  F1  UNL     1      22.694  -1.195   6.926  1.00  0.00    -0.201 F 
HETATM    4  C3  UNL     1      21.741  -2.701   5.330  1.00  0.00     0.180 A 
HETATM    5  F2  UNL     1      21.296  -3.475   6.362  1.00  0.00    -0.201 F 
HETATM    6  C4  UNL     1      21.458  -3.114   4.031  1.00  0.00     0.130 A 
HETATM    7  C7  UNL     1      21.902  -2.342   2.991  1.00  0.00     0.094 A 
HETATM    8  C15 UNL     1      22.619  -1.173   3.289  1.00  0.00     0.170 A 
HETATM    9  F3  UNL     1      23.070  -0.388   2.285  1.00  0.00    -0.202 F 
ENDROOT
BRANCH   7  10
HETATM   10  N2  UNL     1      21.695  -2.679   1.622  1.00  0.00    -0.382 N 
ATOM     11  H2  UNL     1      20.828  -3.135   1.339  1.00  0.00     0.160 HD
BRANCH  10  12
HETATM   12  C8  UNL     1      22.692  -2.383   0.645  1.00  0.00     0.158 C 
BRANCH  12  13
HETATM   13  C9  UNL     1      22.133  -1.698  -0.559  1.00  0.00    -0.041 A 
HETATM   14  C10 UNL     1      21.319  -2.349  -1.463  1.00  0.00     0.009 A 
HETATM   15  C11 UNL     1      20.798  -1.716  -2.581  1.00  0.00     0.001 A 
HETATM   16  C12 UNL     1      21.080  -0.390  -2.831  1.00  0.00     0.000 A 
HETATM   17  C13 UNL     1      21.892   0.271  -1.935  1.00  0.00     0.001 A 
HETATM   18  C14 UNL     1      22.406  -0.368  -0.825  1.00  0.00     0.009 A 
ENDBRANCH  12  13
ENDBRANCH  10  12
ENDBRANCH   7  10
BRANCH   6  19
HETATM   19  S2  UNL     1      20.534  -4.570   3.797  1.00  0.00     0.182 S 
HETATM   20  O3  UNL     1      19.190  -4.201   3.175  1.00  0.00    -0.222 OA
HETATM   21  O4  UNL     1      20.370  -5.397   5.006  1.00  0.00    -0.222 OA
BRANCH  19  22
HETATM   22  C5  UNL     1      21.344  -5.560   2.528  1.00  0.00     0.172 C 
BRANCH  22  23
HETATM   23  C6  UNL     1      21.048  -7.018   2.826  1.00  0.00     0.179 C 
BRANCH  23  24
HETATM   24  O5  UNL     1      21.837  -7.384   3.912  1.00  0.00    -0.400 OA
ATOM     25  H5  UNL     1      21.252  -7.700   4.591  1.00  0.00     0.209 HD
ENDBRANCH  23  24
ENDBRANCH  22  23
ENDBRANCH  19  22
ENDBRANCH   6  19
BRANCH   1  26
HETATM   26  S1  UNL     1      23.782   0.678   4.951  1.00  0.00     0.263 S 
HETATM   27  O1  UNL     1      24.687   0.367   6.099  1.00  0.00    -0.201 OA
HETATM   28  O2  UNL     1      22.776   1.693   5.425  1.00  0.00    -0.201 OA
BRANCH  26  29
HETATM   29  N1  UNL     1      24.676   1.226   3.603  1.00  0.00    -0.324 N 
ATOM     30  H12 UNL     1      24.420   2.043   3.048  1.00  0.00     0.169 HD
ATOM     31  H11 UNL     1      25.486   0.630   3.436  1.00  0.00     0.169 HD
ENDBRANCH  26  29
ENDBRANCH   1  26
TORSDOF 9
ENDMDL
