MODEL 5
REMARK VINA RESULT: -7.586612144      3.265      5.926
REMARK  9 active torsions:
REMARK  status: ('A' for Active; 'I' for Inactive)
REMARK    1  A    between atoms: N1_1  and  S1_4 
REMARK    2  A    between atoms: S1_4  and  C1_7 
REMARK    3  A    between atoms: C4_12  and  S2_13 
REMARK    4  A    between atoms: S2_13  and  C5_16 
REMARK    5  A    between atoms: C5_16  and  C6_17 
REMARK    6  A    between atoms: C6_17  and  O5_18 
REMARK    7  A    between atoms: C7_20  and  N2_21 
REMARK    8  A    between atoms: N2_21  and  C8_23 
REMARK    9  A    between atoms: C8_23  and  C9_24 
ROOT
HETATM    1  C1  UNL     1      21.549  -3.035   3.542  1.00  0.00     0.161 A 
HETATM    2  C2  UNL     1      22.122  -2.317   4.562  1.00  0.00     0.182 A 
HETATM    3  F1  UNL     1      22.010  -2.727   5.862  1.00  0.00    -0.201 F 
HETATM    4  C3  UNL     1      22.807  -1.177   4.224  1.00  0.00     0.180 A 
HETATM    5  F2  UNL     1      23.383  -0.451   5.225  1.00  0.00    -0.201 F 
HETATM    6  C4  UNL     1      22.949  -0.719   2.916  1.00  0.00     0.130 A 
HETATM    7  C7  UNL     1      22.373  -1.442   1.907  1.00  0.00     0.094 A 
HETATM    8  C15 UNL     1      21.670  -2.609   2.242  1.00  0.00     0.170 A 
HETATM    9  F3  UNL     1      21.090  -3.347   1.268  1.00  0.00    -0.202 F 
ENDROOT
BRANCH   7  10
HETATM   10  N2  UNL     1      22.430  -1.056   0.537  1.00  0.00    -0.382 N 
ATOM     11  H2  UNL     1      23.266  -1.257  -0.012  1.00  0.00     0.160 HD
BRANCH  10  12
HETATM   12  C8  UNL     1      21.326  -0.388  -0.073  1.00  0.00     0.158 C 
BRANCH  12  13
HETATM   13  C9  UNL     1      21.586  -0.032  -1.501  1.00  0.00    -0.041 A 
HETATM   14  C10 UNL     1      22.417   1.008  -1.859  1.00  0.00     0.009 A 
HETATM   15  C11 UNL     1      22.661   1.340  -3.183  1.00  0.00     0.001 A 
HETATM   16  C12 UNL     1      22.069   0.628  -4.205  1.00  0.00     0.000 A 
HETATM   17  C13 UNL     1      21.236  -0.414  -3.859  1.00  0.00     0.001 A 
HETATM   18  C14 UNL     1      20.999  -0.736  -2.538  1.00  0.00     0.009 A 
ENDBRANCH  12  13
ENDBRANCH  10  12
ENDBRANCH   7  10
BRANCH   6  19
HETATM   19  S2  UNL     1      23.871   0.730   2.632  1.00  0.00     0.182 S 
HETATM   20  O3  UNL     1      24.646   0.566   1.328  1.00  0.00    -0.222 OA
HETATM   21  O4  UNL     1      24.750   1.130   3.746  1.00  0.00    -0.222 OA
BRANCH  19  22
HETATM   22  C5  UNL     1      22.724   2.076   2.290  1.00  0.00     0.172 C 
BRANCH  22  23
HETATM   23  C6  UNL     1      21.637   2.032   3.348  1.00  0.00     0.179 C 
BRANCH  23  24
HETATM   24  O5  UNL     1      22.220   2.407   4.554  1.00  0.00    -0.400 OA
ATOM     25  H5  UNL     1      21.514   2.588   5.164  1.00  0.00     0.209 HD
ENDBRANCH  23  24
ENDBRANCH  22  23
ENDBRANCH  19  22
ENDBRANCH   6  19
BRANCH   1  26
HETATM   26  S1  UNL     1      20.664  -4.504   3.958  1.00  0.00     0.263 S 
HETATM   27  O1  UNL     1      19.229  -4.267   3.615  1.00  0.00    -0.201 OA
HETATM   28  O2  UNL     1      20.756  -4.654   5.453  1.00  0.00    -0.201 OA
BRANCH  26  29
HETATM   29  N1  UNL     1      21.272  -5.865   3.126  1.00  0.00    -0.324 N 
ATOM     30  H12 UNL     1      20.810  -6.291   2.322  1.00  0.00     0.169 HD
ATOM     31  H11 UNL     1      22.147  -6.184   3.540  1.00  0.00     0.169 HD
ENDBRANCH  26  29
ENDBRANCH   1  26
TORSDOF 9
ENDMDL
