MODEL 19
REMARK VINA RESULT: -6.766054574      3.533      5.853
REMARK  9 active torsions:
REMARK  status: ('A' for Active; 'I' for Inactive)
REMARK    1  A    between atoms: N1_1  and  S1_4 
REMARK    2  A    between atoms: S1_4  and  C1_7 
REMARK    3  A    between atoms: C4_12  and  S2_13 
REMARK    4  A    between atoms: S2_13  and  C5_16 
REMARK    5  A    between atoms: C5_16  and  C6_17 
REMARK    6  A    between atoms: C6_17  and  O5_18 
REMARK    7  A    between atoms: C7_20  and  N2_21 
REMARK    8  A    between atoms: N2_21  and  C8_23 
REMARK    9  A    between atoms: C8_23  and  C9_24 
ROOT
HETATM    1  C1  UNL     1      21.378  -2.769   3.753  1.00  0.00     0.161 A 
HETATM    2  C2  UNL     1      21.899  -2.201   4.887  1.00  0.00     0.182 A 
HETATM    3  F1  UNL     1      21.920  -2.884   6.073  1.00  0.00    -0.201 F 
HETATM    4  C3  UNL     1      22.396  -0.926   4.783  1.00  0.00     0.180 A 
HETATM    5  F2  UNL     1      22.919  -0.345   5.901  1.00  0.00    -0.201 F 
HETATM    6  C4  UNL     1      22.398  -0.191   3.600  1.00  0.00     0.130 A 
HETATM    7  C7  UNL     1      21.874  -0.768   2.475  1.00  0.00     0.094 A 
HETATM    8  C15 UNL     1      21.363  -2.071   2.571  1.00  0.00     0.170 A 
HETATM    9  F3  UNL     1      20.840  -2.670   1.477  1.00  0.00    -0.202 F 
ENDROOT
BRANCH   7  10
HETATM   10  N2  UNL     1      21.798  -0.101   1.217  1.00  0.00    -0.382 N 
ATOM     11  H2  UNL     1      21.051   0.570   1.044  1.00  0.00     0.160 HD
BRANCH  10  12
HETATM   12  C8  UNL     1      22.762  -0.368   0.198  1.00  0.00     0.158 C 
BRANCH  12  13
HETATM   13  C9  UNL     1      22.177  -0.314  -1.175  1.00  0.00    -0.041 A 
HETATM   14  C10 UNL     1      21.318  -1.284  -1.647  1.00  0.00     0.009 A 
HETATM   15  C11 UNL     1      20.772  -1.236  -2.920  1.00  0.00     0.001 A 
HETATM   16  C12 UNL     1      21.077  -0.198  -3.775  1.00  0.00     0.000 A 
HETATM   17  C13 UNL     1      21.935   0.779  -3.315  1.00  0.00     0.001 A 
HETATM   18  C14 UNL     1      22.472   0.722  -2.045  1.00  0.00     0.009 A 
ENDBRANCH  12  13
ENDBRANCH  10  12
ENDBRANCH   7  10
BRANCH   6  19
HETATM   19  S2  UNL     1      23.088   1.407   3.608  1.00  0.00     0.182 S 
HETATM   20  O3  UNL     1      23.086   1.932   5.040  1.00  0.00    -0.222 OA
HETATM   21  O4  UNL     1      22.454   2.357   2.675  1.00  0.00    -0.222 OA
BRANCH  19  22
HETATM   22  C5  UNL     1      24.836   1.273   3.195  1.00  0.00     0.172 C 
BRANCH  22  23
HETATM   23  C6  UNL     1      25.211   2.500   2.386  1.00  0.00     0.179 C 
BRANCH  23  24
HETATM   24  O5  UNL     1      24.906   3.615   3.161  1.00  0.00    -0.400 OA
ATOM     25  H5  UNL     1      25.120   3.398   4.061  1.00  0.00     0.209 HD
ENDBRANCH  23  24
ENDBRANCH  22  23
ENDBRANCH  19  22
ENDBRANCH   6  19
BRANCH   1  26
HETATM   26  S1  UNL     1      20.734  -4.409   3.867  1.00  0.00     0.263 S 
HETATM   27  O1  UNL     1      19.295  -4.347   3.470  1.00  0.00    -0.201 OA
HETATM   28  O2  UNL     1      20.788  -4.792   5.323  1.00  0.00    -0.201 OA
BRANCH  26  29
HETATM   29  N1  UNL     1      21.595  -5.497   2.873  1.00  0.00    -0.324 N 
ATOM     30  H12 UNL     1      21.267  -5.810   1.959  1.00  0.00     0.169 HD
ATOM     31  H11 UNL     1      22.467  -5.783   3.316  1.00  0.00     0.169 HD
ENDBRANCH  26  29
ENDBRANCH   1  26
TORSDOF 9
ENDMDL
