MODEL 1
REMARK VINA RESULT: -7.733558175      0.000      0.000
REMARK  9 active torsions:
REMARK  status: ('A' for Active; 'I' for Inactive)
REMARK    1  A    between atoms: N1_1  and  S1_4 
REMARK    2  A    between atoms: S1_4  and  C1_7 
REMARK    3  A    between atoms: C4_12  and  S2_13 
REMARK    4  A    between atoms: S2_13  and  C5_16 
REMARK    5  A    between atoms: C5_16  and  C6_17 
REMARK    6  A    between atoms: C6_17  and  O5_18 
REMARK    7  A    between atoms: C7_20  and  N2_21 
REMARK    8  A    between atoms: N2_21  and  C8_23 
REMARK    9  A    between atoms: C8_23  and  C9_24 
ROOT
HETATM    1  C1  UNL     1      21.833  -0.456  -0.648  1.00  0.00     0.161 A 
HETATM    2  C2  UNL     1      22.339   0.739  -0.202  1.00  0.00     0.182 A 
HETATM    3  F1  UNL     1      22.246   1.872  -0.964  1.00  0.00    -0.201 F 
HETATM    4  C3  UNL     1      22.937   0.749   1.033  1.00  0.00     0.180 A 
HETATM    5  F2  UNL     1      23.445   1.929   1.492  1.00  0.00    -0.201 F 
HETATM    6  C4  UNL     1      23.054  -0.377   1.845  1.00  0.00     0.130 A 
HETATM    7  C7  UNL     1      22.547  -1.563   1.389  1.00  0.00     0.094 A 
HETATM    8  C15 UNL     1      21.933  -1.585   0.127  1.00  0.00     0.170 A 
HETATM    9  F3  UNL     1      21.421  -2.741  -0.351  1.00  0.00    -0.202 F 
ENDROOT
BRANCH   7  10
HETATM   10  N2  UNL     1      22.634  -2.783   2.120  1.00  0.00    -0.382 N 
ATOM     11  H2  UNL     1      23.450  -3.384   2.008  1.00  0.00     0.160 HD
BRANCH  10  12
HETATM   12  C8  UNL     1      21.586  -3.169   3.010  1.00  0.00     0.158 C 
BRANCH  12  13
HETATM   13  C9  UNL     1      21.210  -4.608   2.865  1.00  0.00    -0.041 A 
HETATM   14  C10 UNL     1      20.431  -5.261   3.797  1.00  0.00     0.009 A 
HETATM   15  C11 UNL     1      20.079  -6.596   3.665  1.00  0.00     0.001 A 
HETATM   16  C12 UNL     1      20.504  -7.329   2.578  1.00  0.00     0.000 A 
HETATM   17  C13 UNL     1      21.284  -6.687   1.639  1.00  0.00     0.001 A 
HETATM   18  C14 UNL     1      21.628  -5.358   1.779  1.00  0.00     0.009 A 
ENDBRANCH  12  13
ENDBRANCH  10  12
ENDBRANCH   7  10
BRANCH   6  19
HETATM   19  S2  UNL     1      23.813  -0.210   3.402  1.00  0.00     0.182 S 
HETATM   20  O3  UNL     1      24.977   0.768   3.276  1.00  0.00    -0.222 OA
HETATM   21  O4  UNL     1      24.230  -1.480   4.024  1.00  0.00    -0.222 OA
BRANCH  19  22
HETATM   22  C5  UNL     1      22.662   0.623   4.509  1.00  0.00     0.172 C 
BRANCH  22  23
HETATM   23  C6  UNL     1      22.929   0.115   5.914  1.00  0.00     0.179 C 
BRANCH  23  24
HETATM   24  O5  UNL     1      24.296   0.232   6.142  1.00  0.00    -0.400 OA
ATOM     25  H5  UNL     1      24.409   0.480   7.052  1.00  0.00     0.209 HD
ENDBRANCH  23  24
ENDBRANCH  22  23
ENDBRANCH  19  22
ENDBRANCH   6  19
BRANCH   1  26
HETATM   26  S1  UNL     1      21.059  -0.489  -2.235  1.00  0.00     0.263 S 
HETATM   27  O1  UNL     1      19.688   0.083  -2.070  1.00  0.00    -0.201 OA
HETATM   28  O2  UNL     1      20.907  -1.939  -2.610  1.00  0.00    -0.201 OA
BRANCH  26  29
HETATM   29  N1  UNL     1      21.953   0.394  -3.391  1.00  0.00    -0.324 N 
ATOM     30  H12 UNL     1      21.766   1.369  -3.627  1.00  0.00     0.169 HD
ATOM     31  H11 UNL     1      22.685  -0.182  -3.803  1.00  0.00     0.169 HD
ENDBRANCH  26  29
ENDBRANCH   1  26
TORSDOF 9
ENDMDL
