MODEL 2
REMARK VINA RESULT: -7.732907129      2.707      3.262
REMARK  9 active torsions:
REMARK  status: ('A' for Active; 'I' for Inactive)
REMARK    1  A    between atoms: N1_1  and  S1_4 
REMARK    2  A    between atoms: S1_4  and  C1_7 
REMARK    3  A    between atoms: C4_12  and  S2_13 
REMARK    4  A    between atoms: S2_13  and  C5_16 
REMARK    5  A    between atoms: C5_16  and  C6_17 
REMARK    6  A    between atoms: C6_17  and  O5_18 
REMARK    7  A    between atoms: C7_20  and  N2_21 
REMARK    8  A    between atoms: N2_21  and  C8_23 
REMARK    9  A    between atoms: C8_23  and  C9_24 
ROOT
HETATM    1  C1  UNL     1      21.081   1.818   2.162  1.00  0.00     0.161 A 
HETATM    2  C2  UNL     1      21.542   2.195   3.399  1.00  0.00     0.182 A 
HETATM    3  F1  UNL     1      21.327   3.459   3.876  1.00  0.00    -0.201 F 
HETATM    4  C3  UNL     1      22.222   1.256   4.132  1.00  0.00     0.180 A 
HETATM    5  F2  UNL     1      22.687   1.613   5.364  1.00  0.00    -0.201 F 
HETATM    6  C4  UNL     1      22.465  -0.043   3.690  1.00  0.00     0.130 A 
HETATM    7  C7  UNL     1      22.002  -0.407   2.455  1.00  0.00     0.094 A 
HETATM    8  C15 UNL     1      21.305   0.546   1.697  1.00  0.00     0.170 A 
HETATM    9  F3  UNL     1      20.833   0.217   0.473  1.00  0.00    -0.202 F 
ENDROOT
BRANCH   7  10
HETATM   10  N2  UNL     1      22.215  -1.698   1.889  1.00  0.00    -0.382 N 
ATOM     11  H2  UNL     1      23.164  -2.059   1.794  1.00  0.00     0.160 HD
BRANCH  10  12
HETATM   12  C8  UNL     1      21.108  -2.489   1.456  1.00  0.00     0.158 C 
BRANCH  12  13
HETATM   13  C9  UNL     1      21.097  -3.849   2.074  1.00  0.00    -0.041 A 
HETATM   14  C10 UNL     1      20.381  -4.131   3.218  1.00  0.00     0.009 A 
HETATM   15  C11 UNL     1      20.368  -5.393   3.793  1.00  0.00     0.001 A 
HETATM   16  C12 UNL     1      21.083  -6.427   3.229  1.00  0.00     0.000 A 
HETATM   17  C13 UNL     1      21.803  -6.158   2.084  1.00  0.00     0.001 A 
HETATM   18  C14 UNL     1      21.809  -4.899   1.519  1.00  0.00     0.009 A 
ENDBRANCH  12  13
ENDBRANCH  10  12
ENDBRANCH   7  10
BRANCH   6  19
HETATM   19  S2  UNL     1      23.318  -1.138   4.739  1.00  0.00     0.182 S 
HETATM   20  O3  UNL     1      24.090  -0.323   5.773  1.00  0.00    -0.222 OA
HETATM   21  O4  UNL     1      24.187  -2.106   4.045  1.00  0.00    -0.222 OA
BRANCH  19  22
HETATM   22  C5  UNL     1      22.109  -2.047   5.717  1.00  0.00     0.172 C 
BRANCH  22  23
HETATM   23  C6  UNL     1      22.585  -2.037   7.158  1.00  0.00     0.179 C 
BRANCH  23  24
HETATM   24  O5  UNL     1      21.838  -1.076   7.832  1.00  0.00    -0.400 OA
ATOM     25  H5  UNL     1      21.102  -1.523   8.235  1.00  0.00     0.209 HD
ENDBRANCH  23  24
ENDBRANCH  22  23
ENDBRANCH  19  22
ENDBRANCH   6  19
BRANCH   1  26
HETATM   26  S1  UNL     1      20.203   3.013   1.205  1.00  0.00     0.263 S 
HETATM   27  O1  UNL     1      19.880   2.377  -0.108  1.00  0.00    -0.201 OA
HETATM   28  O2  UNL     1      21.163   4.143   0.940  1.00  0.00    -0.201 OA
BRANCH  26  29
HETATM   29  N1  UNL     1      18.783   3.536   1.995  1.00  0.00    -0.324 N 
ATOM     30  H12 UNL     1      18.084   2.901   2.382  1.00  0.00     0.169 HD
ATOM     31  H11 UNL     1      18.735   4.554   2.023  1.00  0.00     0.169 HD
ENDBRANCH  26  29
ENDBRANCH   1  26
TORSDOF 9
ENDMDL
