MODEL 14
REMARK VINA RESULT: -8.548869094      2.674      7.940
REMARK  7 active torsions:
REMARK  status: ('A' for Active; 'I' for Inactive)
REMARK    1  A    between atoms: N1_2  and  C2_5 
REMARK    2  A    between atoms: C2_5  and  C3_6 
REMARK    3  A    between atoms: C7_10  and  C8_11 
REMARK    4  A    between atoms: C11_14  and  N2_15 
REMARK    5  A    between atoms: C17_22  and  N4_23 
REMARK       I    between atoms: N4_23  and  C18_25 
REMARK    6  A    between atoms: C18_25  and  C19_27 
REMARK    7  A    between atoms: C23_34  and  C24_35 
ROOT
HETATM    1  C8  UNL     1     -13.861 -25.856  -0.429  1.00  0.00    -0.024 A 
HETATM    2  C9  UNL     1     -14.778 -25.223   0.359  1.00  0.00     0.014 A 
HETATM    3  C10 UNL     1     -14.515 -25.108   1.703  1.00  0.00     0.032 A 
HETATM    4  C11 UNL     1     -13.374 -25.597   2.301  1.00  0.00     0.057 A 
HETATM    5  C17 UNL     1     -12.446 -26.237   1.509  1.00  0.00     0.062 A 
HETATM    6  C25 UNL     1     -12.696 -26.364   0.137  1.00  0.00     0.044 A 
ENDROOT
BRANCH   5   7
HETATM    7  N4  UNL     1     -11.285 -26.765   2.104  1.00  0.00    -0.324 N 
HETATM    8  C18 UNL     1     -10.372 -27.689   1.603  1.00  0.00     0.235 C 
HETATM    9  O1  UNL     1     -10.527 -28.174   0.471  1.00  0.00    -0.272 OA
ATOM     10  H4  UNL     1     -11.081 -26.418   3.042  1.00  0.00     0.169 HD
BRANCH   8  11
HETATM   11  C19 UNL     1      -9.181 -28.131   2.404  1.00  0.00     0.154 A 
HETATM   12  C20 UNL     1      -9.076 -29.575   2.368  1.00  0.00     0.083 A 
HETATM   13  N5  UNL     1      -8.028 -30.197   2.004  1.00  0.00    -0.336 N 
HETATM   14  C21 UNL     1      -6.839 -29.551   1.592  1.00  0.00     0.245 A 
ATOM     15  H5  UNL     1      -8.045 -31.217   2.011  1.00  0.00     0.168 HD
HETATM   16  O2  UNL     1      -5.804 -30.187   1.233  1.00  0.00    -0.268 OA
HETATM   17  C22 UNL     1      -6.887 -28.093   1.607  1.00  0.00     0.087 A 
HETATM   18  C23 UNL     1      -7.960 -27.442   1.980  1.00  0.00     0.049 A 
BRANCH  18  19
HETATM   19  C24 UNL     1      -7.896 -25.938   1.956  1.00  0.00     0.415 C 
HETATM   20  F1  UNL     1      -6.590 -25.558   2.126  1.00  0.00    -0.166 F 
HETATM   21  F2  UNL     1      -8.635 -25.391   2.985  1.00  0.00    -0.166 F 
HETATM   22  F3  UNL     1      -8.427 -25.465   0.776  1.00  0.00    -0.166 F 
ENDBRANCH  18  19
ENDBRANCH   8  11
ENDBRANCH   5   7
BRANCH   4  23
HETATM   23  N2  UNL     1     -13.146 -25.433   3.672  1.00  0.00    -0.376 N 
HETATM   24  C12 UNL     1     -11.806 -25.264   4.192  1.00  0.00     0.153 C 
HETATM   25  C13 UNL     1     -11.674 -23.837   4.771  1.00  0.00     0.291 C 
HETATM   26  N3  UNL     1     -12.933 -23.388   5.300  1.00  0.00     0.087 N 
HETATM   27  C14 UNL     1     -12.665 -22.417   6.344  1.00  0.00     0.310 C 
HETATM   28  C15 UNL     1     -13.751 -24.468   5.821  1.00  0.00     0.291 C 
HETATM   29  C16 UNL     1     -14.197 -25.400   4.700  1.00  0.00     0.153 C 
ENDBRANCH   4  23
BRANCH   1  30
HETATM   30  C7  UNL     1     -14.059 -26.019  -1.870  1.00  0.00    -0.025 A 
HETATM   31  C6  UNL     1     -15.299 -26.389  -2.353  1.00  0.00     0.012 A 
HETATM   32  C5  UNL     1     -15.482 -26.546  -3.710  1.00  0.00     0.001 A 
HETATM   33  C4  UNL     1     -14.439 -26.338  -4.624  1.00  0.00     0.009 A 
HETATM   34  C3  UNL     1     -13.207 -25.972  -4.152  1.00  0.00    -0.032 A 
HETATM   35  C26 UNL     1     -13.065 -25.825  -2.779  1.00  0.00     0.021 A 
BRANCH  34  36
HETATM   36  C2  UNL     1     -12.094 -25.746  -5.081  1.00  0.00     0.270 C 
BRANCH  36  37
HETATM   37  N1  UNL     1     -11.510 -24.444  -5.060  1.00  0.00    -0.075 N 
HETATM   38  C1  UNL     1     -12.166 -23.635  -6.093  1.00  0.00     0.267 C 
ATOM     39  H12 UNL     1     -10.495 -24.465  -5.160  1.00  0.00     0.277 HD
ATOM     40  H11 UNL     1     -11.546 -24.011  -4.137  1.00  0.00     0.277 HD
ENDBRANCH  36  37
ENDBRANCH  34  36
ENDBRANCH   1  30
TORSDOF 7
ENDMDL
