MODEL 1
REMARK VINA RESULT: -9.050918123      0.000      0.000
REMARK  7 active torsions:
REMARK  status: ('A' for Active; 'I' for Inactive)
REMARK    1  A    between atoms: N1_2  and  C2_5 
REMARK    2  A    between atoms: C2_5  and  C3_6 
REMARK    3  A    between atoms: C7_10  and  C8_11 
REMARK    4  A    between atoms: C11_14  and  N2_15 
REMARK    5  A    between atoms: C17_22  and  N4_23 
REMARK       I    between atoms: N4_23  and  C18_25 
REMARK    6  A    between atoms: C18_25  and  C19_27 
REMARK    7  A    between atoms: C23_34  and  C24_35 
ROOT
HETATM    1  C8  UNL     1     -12.334 -24.278   4.650  1.00  0.00    -0.024 A 
HETATM    2  C9  UNL     1     -11.081 -24.404   5.176  1.00  0.00     0.014 A 
HETATM    3  C10 UNL     1     -10.139 -25.103   4.459  1.00  0.00     0.032 A 
HETATM    4  C11 UNL     1     -10.390 -25.684   3.234  1.00  0.00     0.057 A 
HETATM    5  C17 UNL     1     -11.654 -25.559   2.700  1.00  0.00     0.062 A 
HETATM    6  C25 UNL     1     -12.627 -24.850   3.417  1.00  0.00     0.044 A 
ENDROOT
BRANCH   5   7
HETATM    7  N4  UNL     1     -11.938 -26.165   1.462  1.00  0.00    -0.324 N 
HETATM    8  C18 UNL     1     -11.982 -25.604   0.189  1.00  0.00     0.235 C 
HETATM    9  O1  UNL     1     -11.749 -24.395   0.026  1.00  0.00    -0.272 OA
ATOM     10  H4  UNL     1     -12.142 -27.164   1.503  1.00  0.00     0.169 HD
BRANCH   8  11
HETATM   11  C19 UNL     1     -12.309 -26.428  -1.023  1.00  0.00     0.154 A 
HETATM   12  C20 UNL     1     -13.640 -26.105  -1.490  1.00  0.00     0.083 A 
HETATM   13  N5  UNL     1     -13.902 -25.745  -2.681  1.00  0.00    -0.336 N 
HETATM   14  C21 UNL     1     -12.921 -25.619  -3.693  1.00  0.00     0.245 A 
ATOM     15  H5  UNL     1     -14.872 -25.538  -2.921  1.00  0.00     0.168 HD
HETATM   16  O2  UNL     1     -13.201 -25.259  -4.875  1.00  0.00    -0.268 OA
HETATM   17  C22 UNL     1     -11.558 -25.931  -3.279  1.00  0.00     0.087 A 
HETATM   18  C23 UNL     1     -11.277 -26.304  -2.055  1.00  0.00     0.049 A 
BRANCH  18  19
HETATM   19  C24 UNL     1      -9.836 -26.601  -1.740  1.00  0.00     0.415 C 
HETATM   20  F1  UNL     1      -9.201 -25.418  -1.460  1.00  0.00    -0.166 F 
HETATM   21  F2  UNL     1      -9.199 -27.179  -2.820  1.00  0.00    -0.166 F 
HETATM   22  F3  UNL     1      -9.758 -27.494  -0.695  1.00  0.00    -0.166 F 
ENDBRANCH  18  19
ENDBRANCH   8  11
ENDBRANCH   5   7
BRANCH   4  23
HETATM   23  N2  UNL     1      -9.388 -26.365   2.536  1.00  0.00    -0.376 N 
HETATM   24  C12 UNL     1      -8.433 -25.654   1.712  1.00  0.00     0.153 C 
HETATM   25  C13 UNL     1      -7.031 -25.792   2.346  1.00  0.00     0.291 C 
HETATM   26  N3  UNL     1      -6.905 -27.053   3.025  1.00  0.00     0.087 N 
HETATM   27  C14 UNL     1      -5.503 -27.424   3.036  1.00  0.00     0.310 C 
HETATM   28  C15 UNL     1      -7.696 -28.109   2.419  1.00  0.00     0.291 C 
HETATM   29  C16 UNL     1      -9.185 -27.822   2.565  1.00  0.00     0.153 C 
ENDBRANCH   4  23
BRANCH   1  30
HETATM   30  C7  UNL     1     -13.395 -23.548   5.345  1.00  0.00    -0.025 A 
HETATM   31  C6  UNL     1     -13.741 -22.278   4.926  1.00  0.00     0.012 A 
HETATM   32  C5  UNL     1     -14.738 -21.592   5.585  1.00  0.00     0.001 A 
HETATM   33  C4  UNL     1     -15.419 -22.147   6.678  1.00  0.00     0.009 A 
HETATM   34  C3  UNL     1     -15.081 -23.406   7.099  1.00  0.00    -0.032 A 
HETATM   35  C26 UNL     1     -14.072 -24.063   6.408  1.00  0.00     0.021 A 
BRANCH  34  36
HETATM   36  C2  UNL     1     -15.774 -24.018   8.238  1.00  0.00     0.270 C 
BRANCH  36  37
HETATM   37  N1  UNL     1     -17.016 -23.425   8.613  1.00  0.00    -0.075 N 
HETATM   38  C1  UNL     1     -17.290 -23.785  10.009  1.00  0.00     0.267 C 
ATOM     39  H12 UNL     1     -17.779 -23.676   7.984  1.00  0.00     0.277 HD
ATOM     40  H11 UNL     1     -17.035 -22.418   8.455  1.00  0.00     0.277 HD
ENDBRANCH  36  37
ENDBRANCH  34  36
ENDBRANCH   1  30
TORSDOF 7
ENDMDL
