MODEL 2
REMARK VINA RESULT: -9.037176207      3.368      8.170
REMARK  7 active torsions:
REMARK  status: ('A' for Active; 'I' for Inactive)
REMARK    1  A    between atoms: N1_2  and  C2_5 
REMARK    2  A    between atoms: C2_5  and  C3_6 
REMARK    3  A    between atoms: C7_10  and  C8_11 
REMARK    4  A    between atoms: C11_14  and  N2_15 
REMARK    5  A    between atoms: C17_22  and  N4_23 
REMARK       I    between atoms: N4_23  and  C18_25 
REMARK    6  A    between atoms: C18_25  and  C19_27 
REMARK    7  A    between atoms: C23_34  and  C24_35 
ROOT
HETATM    1  C8  UNL     1     -11.994 -26.767  -1.239  1.00  0.00    -0.024 A 
HETATM    2  C9  UNL     1     -10.775 -27.141  -1.726  1.00  0.00     0.014 A 
HETATM    3  C10 UNL     1      -9.716 -27.214  -0.852  1.00  0.00     0.032 A 
HETATM    4  C11 UNL     1      -9.819 -26.931   0.493  1.00  0.00     0.057 A 
HETATM    5  C17 UNL     1     -11.048 -26.552   0.989  1.00  0.00     0.062 A 
HETATM    6  C25 UNL     1     -12.138 -26.473   0.112  1.00  0.00     0.044 A 
ENDROOT
BRANCH   5   7
HETATM    7  N4  UNL     1     -11.168 -26.236   2.355  1.00  0.00    -0.324 N 
HETATM    8  C18 UNL     1     -11.168 -24.992   2.981  1.00  0.00     0.235 C 
HETATM    9  O1  UNL     1     -11.049 -23.953   2.313  1.00  0.00    -0.272 OA
ATOM     10  H4  UNL     1     -11.271 -27.036   2.979  1.00  0.00     0.169 HD
BRANCH   8  11
HETATM   11  C19 UNL     1     -11.309 -24.862   4.470  1.00  0.00     0.154 A 
HETATM   12  C20 UNL     1     -10.153 -24.181   5.013  1.00  0.00     0.083 A 
HETATM   13  N5  UNL     1     -10.224 -23.142   5.743  1.00  0.00    -0.336 N 
HETATM   14  C21 UNL     1     -11.444 -22.528   6.111  1.00  0.00     0.245 A 
ATOM     15  H5  UNL     1      -9.354 -22.730   6.082  1.00  0.00     0.168 HD
HETATM   16  O2  UNL     1     -11.495 -21.493   6.839  1.00  0.00    -0.268 OA
HETATM   17  C22 UNL     1     -12.645 -23.171   5.591  1.00  0.00     0.087 A 
HETATM   18  C23 UNL     1     -12.583 -24.242   4.839  1.00  0.00     0.049 A 
BRANCH  18  19
HETATM   19  C24 UNL     1     -13.887 -24.820   4.358  1.00  0.00     0.415 C 
HETATM   20  F1  UNL     1     -14.724 -24.957   5.435  1.00  0.00    -0.166 F 
HETATM   21  F2  UNL     1     -13.703 -26.069   3.801  1.00  0.00    -0.166 F 
HETATM   22  F3  UNL     1     -14.425 -24.013   3.380  1.00  0.00    -0.166 F 
ENDBRANCH  18  19
ENDBRANCH   8  11
ENDBRANCH   5   7
BRANCH   4  23
HETATM   23  N2  UNL     1      -8.714 -27.042   1.344  1.00  0.00    -0.376 N 
HETATM   24  C12 UNL     1      -8.379 -28.302   1.974  1.00  0.00     0.153 C 
HETATM   25  C13 UNL     1      -7.032 -28.801   1.402  1.00  0.00     0.291 C 
HETATM   26  N3  UNL     1      -6.188 -27.689   1.054  1.00  0.00     0.087 N 
HETATM   27  C14 UNL     1      -4.807 -28.123   1.144  1.00  0.00     0.310 C 
HETATM   28  C15 UNL     1      -6.402 -26.526   1.896  1.00  0.00     0.291 C 
HETATM   29  C16 UNL     1      -7.793 -25.944   1.674  1.00  0.00     0.153 C 
ENDBRANCH   4  23
BRANCH   1  30
HETATM   30  C7  UNL     1     -13.173 -26.667  -2.100  1.00  0.00    -0.025 A 
HETATM   31  C6  UNL     1     -14.370 -26.222  -1.573  1.00  0.00     0.012 A 
HETATM   32  C5  UNL     1     -15.479 -26.134  -2.386  1.00  0.00     0.001 A 
HETATM   33  C4  UNL     1     -15.432 -26.483  -3.743  1.00  0.00     0.009 A 
HETATM   34  C3  UNL     1     -14.248 -26.926  -4.271  1.00  0.00    -0.032 A 
HETATM   35  C26 UNL     1     -13.155 -27.001  -3.420  1.00  0.00     0.021 A 
BRANCH  34  36
HETATM   36  C2  UNL     1     -14.162 -27.300  -5.688  1.00  0.00     0.270 C 
BRANCH  36  37
HETATM   37  N1  UNL     1     -14.994 -26.565  -6.585  1.00  0.00    -0.075 N 
HETATM   38  C1  UNL     1     -15.800 -27.525  -7.347  1.00  0.00     0.267 C 
ATOM     39  H12 UNL     1     -14.464 -25.932  -7.184  1.00  0.00     0.277 HD
ATOM     40  H11 UNL     1     -15.561 -25.863  -6.111  1.00  0.00     0.277 HD
ENDBRANCH  36  37
ENDBRANCH  34  36
ENDBRANCH   1  30
TORSDOF 7
ENDMDL
