MODEL 3
REMARK VINA RESULT: -8.990302184      2.230      2.766
REMARK  7 active torsions:
REMARK  status: ('A' for Active; 'I' for Inactive)
REMARK    1  A    between atoms: N1_2  and  C2_5 
REMARK    2  A    between atoms: C2_5  and  C3_6 
REMARK    3  A    between atoms: C7_10  and  C8_11 
REMARK    4  A    between atoms: C11_14  and  N2_15 
REMARK    5  A    between atoms: C17_22  and  N4_23 
REMARK       I    between atoms: N4_23  and  C18_25 
REMARK    6  A    between atoms: C18_25  and  C19_27 
REMARK    7  A    between atoms: C23_34  and  C24_35 
ROOT
HETATM    1  C8  UNL     1     -10.474 -24.895   4.109  1.00  0.00    -0.024 A 
HETATM    2  C9  UNL     1      -9.290 -25.500   4.418  1.00  0.00     0.014 A 
HETATM    3  C10 UNL     1      -8.608 -26.151   3.418  1.00  0.00     0.032 A 
HETATM    4  C11 UNL     1      -9.054 -26.225   2.116  1.00  0.00     0.057 A 
HETATM    5  C17 UNL     1     -10.249 -25.616   1.800  1.00  0.00     0.062 A 
HETATM    6  C25 UNL     1     -10.958 -24.948   2.807  1.00  0.00     0.044 A 
ENDROOT
BRANCH   5   7
HETATM    7  N4  UNL     1     -10.733 -25.701   0.481  1.00  0.00    -0.324 N 
HETATM    8  C18 UNL     1     -11.035 -24.684  -0.421  1.00  0.00     0.235 C 
HETATM    9  O1  UNL     1     -10.883 -23.494  -0.100  1.00  0.00    -0.272 OA
ATOM     10  H4  UNL     1     -10.887 -26.648   0.134  1.00  0.00     0.169 HD
BRANCH   8  11
HETATM   11  C19 UNL     1     -11.548 -24.983  -1.800  1.00  0.00     0.154 A 
HETATM   12  C20 UNL     1     -10.441 -25.294  -2.678  1.00  0.00     0.083 A 
HETATM   13  N5  UNL     1     -10.366 -26.359  -3.369  1.00  0.00    -0.336 N 
HETATM   14  C21 UNL     1     -11.359 -27.367  -3.362  1.00  0.00     0.245 A 
ATOM     15  H5  UNL     1      -9.546 -26.494  -3.962  1.00  0.00     0.168 HD
HETATM   16  O2  UNL     1     -11.267 -28.421  -4.057  1.00  0.00    -0.268 OA
HETATM   17  C22 UNL     1     -12.501 -27.107  -2.492  1.00  0.00     0.087 A 
HETATM   18  C23 UNL     1     -12.588 -26.014  -1.777  1.00  0.00     0.049 A 
BRANCH  18  19
HETATM   19  C24 UNL     1     -13.812 -25.852  -0.915  1.00  0.00     0.415 C 
HETATM   20  F1  UNL     1     -14.893 -26.342  -1.601  1.00  0.00    -0.166 F 
HETATM   21  F2  UNL     1     -14.053 -24.522  -0.636  1.00  0.00    -0.166 F 
HETATM   22  F3  UNL     1     -13.625 -26.493   0.290  1.00  0.00    -0.166 F 
ENDBRANCH  18  19
ENDBRANCH   8  11
ENDBRANCH   5   7
BRANCH   4  23
HETATM   23  N2  UNL     1      -8.309 -26.882   1.130  1.00  0.00    -0.376 N 
HETATM   24  C12 UNL     1      -7.404 -26.153   0.266  1.00  0.00     0.153 C 
HETATM   25  C13 UNL     1      -5.956 -26.591   0.581  1.00  0.00     0.291 C 
HETATM   26  N3  UNL     1      -5.924 -27.966   1.001  1.00  0.00     0.087 N 
HETATM   27  C14 UNL     1      -4.620 -28.510   0.675  1.00  0.00     0.310 C 
HETATM   28  C15 UNL     1      -6.967 -28.772   0.394  1.00  0.00     0.291 C 
HETATM   29  C16 UNL     1      -8.344 -28.330   0.875  1.00  0.00     0.153 C 
ENDBRANCH   4  23
BRANCH   1  30
HETATM   30  C7  UNL     1     -11.262 -24.179   5.113  1.00  0.00    -0.025 A 
HETATM   31  C6  UNL     1     -10.719 -23.083   5.755  1.00  0.00     0.012 A 
HETATM   32  C5  UNL     1     -11.462 -22.413   6.703  1.00  0.00     0.001 A 
HETATM   33  C4  UNL     1     -12.765 -22.811   7.037  1.00  0.00     0.009 A 
HETATM   34  C3  UNL     1     -13.309 -23.897   6.404  1.00  0.00    -0.032 A 
HETATM   35  C26 UNL     1     -12.527 -24.543   5.457  1.00  0.00     0.021 A 
BRANCH  34  36
HETATM   36  C2  UNL     1     -14.669 -24.340   6.729  1.00  0.00     0.270 C 
BRANCH  36  37
HETATM   37  N1  UNL     1     -15.635 -23.310   6.935  1.00  0.00    -0.075 N 
HETATM   38  C1  UNL     1     -16.360 -23.608   8.175  1.00  0.00     0.267 C 
ATOM     39  H12 UNL     1     -16.256 -23.187   6.135  1.00  0.00     0.277 HD
ATOM     40  H11 UNL     1     -15.224 -22.378   6.933  1.00  0.00     0.277 HD
ENDBRANCH  36  37
ENDBRANCH  34  36
ENDBRANCH   1  30
TORSDOF 7
ENDMDL
