MODEL 2
REMARK VINA RESULT: -7.591546554      0.911      1.209
REMARK  8 active torsions:
REMARK  status: ('A' for Active; 'I' for Inactive)
REMARK    1  A    between atoms: O1_2  and  C2_3 
REMARK    2  A    between atoms: C4_5  and  N1_6 
REMARK    3  A    between atoms: N1_6  and  C5_8 
REMARK    4  A    between atoms: C11_17  and  O2_18 
REMARK    5  A    between atoms: O2_18  and  C12_19 
REMARK    6  A    between atoms: C12_19  and  C13_20 
REMARK    7  A    between atoms: C13_20  and  C14_21 
REMARK    8  A    between atoms: C14_21  and  N4_22 
ROOT
HETATM    1  C5  UNL     1       0.601   2.572  17.701  1.00  0.00     0.067 A 
HETATM    2  C6  UNL     1       1.232   3.666  17.206  1.00  0.00     0.087 A 
HETATM    3  C7  UNL     1       2.523   4.014  17.686  1.00  0.00     0.103 C 
HETATM    4  N2  UNL     1       3.566   4.301  18.088  1.00  0.00    -0.191 NA
HETATM    5  C8  UNL     1       0.615   4.440  16.232  1.00  0.00     0.113 A 
HETATM    6  N3  UNL     1      -0.606   4.133  15.761  1.00  0.00    -0.364 N 
ATOM      7  H3  UNL     1      -1.036   4.719  15.045  1.00  0.00     0.165 HD
HETATM    8  C9  UNL     1      -1.263   3.053  16.228  1.00  0.00     0.047 A 
HETATM    9  C10 UNL     1      -2.531   2.766  15.711  1.00  0.00     0.070 A 
HETATM   10  C11 UNL     1      -3.228   1.683  16.158  1.00  0.00     0.104 A 
HETATM   11  C20 UNL     1      -2.639   0.860  17.153  1.00  0.00     0.102 A 
HETATM   12  O3  UNL     1      -3.265  -0.175  17.602  1.00  0.00    -0.353 OA
HETATM   13  C21 UNL     1      -3.882  -1.214  18.061  1.00  0.00     0.210 C 
HETATM   14  C22 UNL     1      -1.363   1.182  17.647  1.00  0.00     0.055 A 
HETATM   15  C23 UNL     1      -0.670   2.273  17.192  1.00  0.00     0.022 A 
ENDROOT
BRANCH   1  16
HETATM   16  N1  UNL     1       1.151   1.719  18.697  1.00  0.00    -0.353 N 
ATOM     17  H1  UNL     1       1.252   2.096  19.640  1.00  0.00     0.166 HD
BRANCH  16  18
HETATM   18  C4  UNL     1       1.563   0.408  18.478  1.00  0.00     0.057 A 
HETATM   19  C3  UNL     1       1.976  -0.029  17.244  1.00  0.00     0.069 A 
HETATM   20  C2  UNL     1       2.388  -1.344  17.026  1.00  0.00     0.092 A 
HETATM   21  C26 UNL     1       2.375  -2.225  18.113  1.00  0.00     0.069 A 
HETATM   22  C25 UNL     1       1.965  -1.802  19.354  1.00  0.00     0.052 A 
HETATM   23 CL2  UNL     1       2.893  -3.891  17.864  1.00  0.00    -0.081 Cl
HETATM   24  C24 UNL     1       1.571  -0.504  19.507  1.00  0.00     0.062 A 
HETATM   25 CL1  UNL     1       1.057  -0.017  21.128  1.00  0.00    -0.082 Cl
BRANCH  20  26
HETATM   26  O1  UNL     1       2.806  -1.789  15.779  1.00  0.00    -0.354 OA
HETATM   27  C1  UNL     1       2.767  -0.865  14.708  1.00  0.00     0.210 C 
ENDBRANCH  20  26
ENDBRANCH  16  18
ENDBRANCH   1  16
BRANCH  10  28
HETATM   28  O2  UNL     1      -4.469   1.287  15.746  1.00  0.00    -0.348 OA
BRANCH  28  29
HETATM   29  C12 UNL     1      -4.900   0.583  14.660  1.00  0.00     0.177 C 
BRANCH  29  30
HETATM   30  C13 UNL     1      -3.874  -0.242  13.918  1.00  0.00     0.057 C 
BRANCH  30  31
HETATM   31  C14 UNL     1      -4.213  -1.694  14.248  1.00  0.00     0.274 C 
BRANCH  31  32
HETATM   32  N4  UNL     1      -3.157  -2.407  14.888  1.00  0.00     0.091 N 
HETATM   33  C15 UNL     1      -1.942  -1.623  14.724  1.00  0.00     0.302 C 
HETATM   34  C16 UNL     1      -0.739  -2.367  15.261  1.00  0.00     0.302 C 
HETATM   35  N5  UNL     1      -0.628  -3.676  14.666  1.00  0.00     0.087 N 
HETATM   36  C17 UNL     1      -0.588  -4.725  15.662  1.00  0.00     0.310 C 
HETATM   37  C18 UNL     1      -1.636  -3.881  13.669  1.00  0.00     0.302 C 
HETATM   38  C19 UNL     1      -3.003  -3.701  14.262  1.00  0.00     0.302 C 
ENDBRANCH  31  32
ENDBRANCH  30  31
ENDBRANCH  29  30
ENDBRANCH  28  29
ENDBRANCH  10  28
TORSDOF 8
ENDMDL
