MODEL 3
REMARK VINA RESULT: -7.291361870      3.116      7.533
REMARK  8 active torsions:
REMARK  status: ('A' for Active; 'I' for Inactive)
REMARK    1  A    between atoms: O1_2  and  C2_3 
REMARK    2  A    between atoms: C4_5  and  N1_6 
REMARK    3  A    between atoms: N1_6  and  C5_8 
REMARK    4  A    between atoms: C11_17  and  O2_18 
REMARK    5  A    between atoms: O2_18  and  C12_19 
REMARK    6  A    between atoms: C12_19  and  C13_20 
REMARK    7  A    between atoms: C13_20  and  C14_21 
REMARK    8  A    between atoms: C14_21  and  N4_22 
ROOT
HETATM    1  C5  UNL     1      -5.430  -1.752  15.258  1.00  0.00     0.067 A 
HETATM    2  C6  UNL     1      -6.419  -1.636  14.336  1.00  0.00     0.087 A 
HETATM    3  C7  UNL     1      -7.258  -2.748  14.058  1.00  0.00     0.103 C 
HETATM    4  N2  UNL     1      -7.929  -3.657  13.826  1.00  0.00    -0.191 NA
HETATM    5  C8  UNL     1      -6.606  -0.433  13.671  1.00  0.00     0.113 A 
HETATM    6  N3  UNL     1      -5.826   0.634  13.915  1.00  0.00    -0.364 N 
ATOM      7  H3  UNL     1      -5.986   1.507  13.411  1.00  0.00     0.165 HD
HETATM    8  C9  UNL     1      -4.834   0.557  14.823  1.00  0.00     0.047 A 
HETATM    9  C10 UNL     1      -4.044   1.690  15.051  1.00  0.00     0.070 A 
HETATM   10  C11 UNL     1      -3.031   1.652  15.962  1.00  0.00     0.104 A 
HETATM   11  C20 UNL     1      -2.800   0.443  16.670  1.00  0.00     0.102 A 
HETATM   12  O3  UNL     1      -1.852   0.366  17.541  1.00  0.00    -0.353 OA
HETATM   13  C21 UNL     1      -0.905   0.275  18.416  1.00  0.00     0.210 C 
HETATM   14  C22 UNL     1      -3.615  -0.673  16.413  1.00  0.00     0.055 A 
HETATM   15  C23 UNL     1      -4.631  -0.625  15.495  1.00  0.00     0.022 A 
ENDROOT
BRANCH   1  16
HETATM   16  N1  UNL     1      -5.160  -2.941  15.991  1.00  0.00    -0.353 N 
ATOM     17  H1  UNL     1      -5.578  -3.031  16.917  1.00  0.00     0.166 HD
BRANCH  16  18
HETATM   18  C4  UNL     1      -4.369  -3.990  15.535  1.00  0.00     0.057 A 
HETATM   19  C3  UNL     1      -3.118  -3.783  15.006  1.00  0.00     0.069 A 
HETATM   20  C2  UNL     1      -2.326  -4.836  14.550  1.00  0.00     0.092 A 
HETATM   21  C26 UNL     1      -2.840  -6.134  14.645  1.00  0.00     0.069 A 
HETATM   22  C25 UNL     1      -4.089  -6.357  15.172  1.00  0.00     0.052 A 
HETATM   23 CL2  UNL     1      -1.857  -7.482  14.076  1.00  0.00    -0.081 Cl
HETATM   24  C24 UNL     1      -4.819  -5.288  15.602  1.00  0.00     0.062 A 
HETATM   25 CL1  UNL     1      -6.418  -5.637  16.273  1.00  0.00    -0.082 Cl
BRANCH  20  26
HETATM   26  O1  UNL     1      -1.061  -4.630  14.014  1.00  0.00    -0.354 OA
HETATM   27  C1  UNL     1      -0.238  -3.660  14.635  1.00  0.00     0.210 C 
ENDBRANCH  20  26
ENDBRANCH  16  18
ENDBRANCH   1  16
BRANCH  10  28
HETATM   28  O2  UNL     1      -2.185   2.676  16.282  1.00  0.00    -0.348 OA
BRANCH  28  29
HETATM   29  C12 UNL     1      -1.872   3.845  15.653  1.00  0.00     0.177 C 
BRANCH  29  30
HETATM   30  C13 UNL     1      -0.426   4.281  15.679  1.00  0.00     0.057 C 
BRANCH  30  31
HETATM   31  C14 UNL     1       0.244   3.382  16.717  1.00  0.00     0.274 C 
BRANCH  31  32
HETATM   32  N4  UNL     1       0.971   4.091  17.718  1.00  0.00     0.091 N 
HETATM   33  C15 UNL     1       2.353   4.177  17.273  1.00  0.00     0.302 C 
HETATM   34  C16 UNL     1       3.229   4.801  18.337  1.00  0.00     0.302 C 
HETATM   35  N5  UNL     1       3.103   4.102  19.592  1.00  0.00     0.087 N 
HETATM   36  C17 UNL     1       2.718   4.985  20.671  1.00  0.00     0.310 C 
HETATM   37  C18 UNL     1       2.250   2.957  19.466  1.00  0.00     0.302 C 
HETATM   38  C19 UNL     1       0.894   3.368  18.968  1.00  0.00     0.302 C 
ENDBRANCH  31  32
ENDBRANCH  30  31
ENDBRANCH  29  30
ENDBRANCH  28  29
ENDBRANCH  10  28
TORSDOF 8
ENDMDL
