MODEL 1
REMARK VINA RESULT: -7.712095489      0.000      0.000
REMARK  8 active torsions:
REMARK  status: ('A' for Active; 'I' for Inactive)
REMARK    1  A    between atoms: O1_2  and  C2_3 
REMARK    2  A    between atoms: C4_5  and  N1_6 
REMARK    3  A    between atoms: N1_6  and  C5_8 
REMARK    4  A    between atoms: C11_17  and  O2_18 
REMARK    5  A    between atoms: O2_18  and  C12_19 
REMARK    6  A    between atoms: C12_19  and  C13_20 
REMARK    7  A    between atoms: C13_20  and  C14_21 
REMARK    8  A    between atoms: C14_21  and  N4_22 
ROOT
HETATM    1  C5  UNL     1      -0.163   2.911  17.071  1.00  0.00     0.067 A 
HETATM    2  C6  UNL     1       0.334   4.026  16.478  1.00  0.00     0.087 A 
HETATM    3  C7  UNL     1       1.603   4.530  16.872  1.00  0.00     0.103 C 
HETATM    4  N2  UNL     1       2.627   4.943  17.204  1.00  0.00    -0.191 NA
HETATM    5  C8  UNL     1      -0.398   4.668  15.489  1.00  0.00     0.113 A 
HETATM    6  N3  UNL     1      -1.601   4.212  15.098  1.00  0.00    -0.364 N 
ATOM      7  H3  UNL     1      -2.118   4.704  14.369  1.00  0.00     0.165 HD
HETATM    8  C9  UNL     1      -2.127   3.108  15.664  1.00  0.00     0.047 A 
HETATM    9  C10 UNL     1      -3.380   2.664  15.228  1.00  0.00     0.070 A 
HETATM   10  C11 UNL     1      -3.945   1.552  15.776  1.00  0.00     0.104 A 
HETATM   11  C20 UNL     1      -3.235   0.859  16.792  1.00  0.00     0.102 A 
HETATM   12  O3  UNL     1      -3.734  -0.199  17.335  1.00  0.00    -0.353 OA
HETATM   13  C21 UNL     1      -4.224  -1.259  17.888  1.00  0.00     0.210 C 
HETATM   14  C22 UNL     1      -1.978   1.336  17.202  1.00  0.00     0.055 A 
HETATM   15  C23 UNL     1      -1.418   2.457  16.645  1.00  0.00     0.022 A 
ENDROOT
BRANCH   1  16
HETATM   16  N1  UNL     1       0.512   2.185  18.092  1.00  0.00    -0.353 N 
ATOM     17  H1  UNL     1       0.609   2.631  19.004  1.00  0.00     0.166 HD
BRANCH  16  18
HETATM   18  C4  UNL     1       1.049   0.911  17.934  1.00  0.00     0.057 A 
HETATM   19  C3  UNL     1       1.344   0.393  16.698  1.00  0.00     0.069 A 
HETATM   20  C2  UNL     1       1.883  -0.884  16.542  1.00  0.00     0.092 A 
HETATM   21  C26 UNL     1       2.122  -1.640  17.694  1.00  0.00     0.069 A 
HETATM   22  C25 UNL     1       1.832  -1.136  18.938  1.00  0.00     0.052 A 
HETATM   23 CL2  UNL     1       2.804  -3.258  17.524  1.00  0.00    -0.081 Cl
HETATM   24  C24 UNL     1       1.306   0.120  19.029  1.00  0.00     0.062 A 
HETATM   25 CL1  UNL     1       0.955   0.718  20.657  1.00  0.00    -0.082 Cl
BRANCH  20  26
HETATM   26  O1  UNL     1       2.183  -1.411  15.293  1.00  0.00    -0.354 OA
HETATM   27  C1  UNL     1       3.110  -0.705  14.490  1.00  0.00     0.210 C 
ENDBRANCH  20  26
ENDBRANCH  16  18
ENDBRANCH   1  16
BRANCH  10  28
HETATM   28  O2  UNL     1      -5.157   1.009  15.451  1.00  0.00    -0.348 OA
BRANCH  28  29
HETATM   29  C12 UNL     1      -5.577   0.256  14.394  1.00  0.00     0.177 C 
BRANCH  29  30
HETATM   30  C13 UNL     1      -4.538  -0.579  13.683  1.00  0.00     0.057 C 
BRANCH  30  31
HETATM   31  C14 UNL     1      -4.696  -1.987  14.254  1.00  0.00     0.274 C 
BRANCH  31  32
HETATM   32  N4  UNL     1      -3.510  -2.777  14.190  1.00  0.00     0.091 N 
HETATM   33  C15 UNL     1      -3.576  -3.747  15.272  1.00  0.00     0.302 C 
HETATM   34  C16 UNL     1      -2.295  -4.546  15.363  1.00  0.00     0.302 C 
HETATM   35  N5  UNL     1      -1.147  -3.681  15.477  1.00  0.00     0.087 N 
HETATM   36  C17 UNL     1      -0.169  -3.935  14.441  1.00  0.00     0.310 C 
HETATM   37  C18 UNL     1      -1.540  -2.305  15.558  1.00  0.00     0.302 C 
HETATM   38  C19 UNL     1      -2.356  -1.923  14.356  1.00  0.00     0.302 C 
ENDBRANCH  31  32
ENDBRANCH  30  31
ENDBRANCH  29  30
ENDBRANCH  28  29
ENDBRANCH  10  28
TORSDOF 8
ENDMDL
