MODEL 4
REMARK VINA RESULT: -6.604641427      1.099      1.556
REMARK  7 active torsions:
REMARK  status: ('A' for Active; 'I' for Inactive)
REMARK    1  A    between atoms: C2_2  and  C3_3 
REMARK    2  A    between atoms: C3_3  and  C4_4 
REMARK    3  A    between atoms: C3_3  and  O1_6 
REMARK    4  A    between atoms: O1_6  and  C6_7 
REMARK    5  A    between atoms: C8_9  and  C9_10 
REMARK    6  A    between atoms: C11_14  and  N1_15 
REMARK    7  A    between atoms: C12_19  and  N2_20 
REMARK       I    between atoms: N2_20  and  C13_22 
ROOT
HETATM    1  C6  UNL     1      -1.638  90.038 132.788  1.00  0.00     0.170 C 
HETATM    2  C7  UNL     1      -0.380  90.089 132.007  1.00  0.00     0.021 C 
HETATM    3  C8  UNL     1       0.089  89.142 131.225  1.00  0.00     0.019 C 
HETATM    4  C10 UNL     1      -0.656  87.869 131.058  1.00  0.00     0.080 C 
HETATM    5  C11 UNL     1      -1.223  87.570 132.454  1.00  0.00     0.213 C 
HETATM    6  C12 UNL     1      -2.274  88.674 132.653  1.00  0.00     0.147 C 
ENDROOT
BRANCH   1   7
HETATM    7  O1  UNL     1      -2.505  90.966 132.281  1.00  0.00    -0.375 OA
BRANCH   7   8
HETATM    8  C3  UNL     1      -2.037  92.214 132.055  1.00  0.00     0.121 C 
BRANCH   8   9
HETATM    9  C2  UNL     1      -2.092  93.017 133.325  1.00  0.00     0.027 C 
HETATM   10  C1  UNL     1      -0.706  93.373 133.851  1.00  0.00     0.007 C 
ENDBRANCH   8   9
BRANCH   8  11
HETATM   11  C4  UNL     1      -2.667  92.945 130.899  1.00  0.00     0.027 C 
HETATM   12  C5  UNL     1      -1.631  93.389 129.878  1.00  0.00     0.007 C 
ENDBRANCH   8  11
ENDBRANCH   7   8
ENDBRANCH   1   7
BRANCH   6  13
HETATM   13  N2  UNL     1      -3.120  88.335 133.776  1.00  0.00    -0.352 N 
HETATM   14  C13 UNL     1      -4.465  87.932 133.567  1.00  0.00     0.214 C 
HETATM   15  C14 UNL     1      -5.360  87.578 134.689  1.00  0.00     0.117 C 
HETATM   16  O4  UNL     1      -4.917  87.873 132.395  1.00  0.00    -0.274 OA
ATOM     17  H2  UNL     1      -2.747  88.385 134.724  1.00  0.00     0.163 HD
ENDBRANCH   6  13
BRANCH   3  18
HETATM   18  C9  UNL     1       1.339  89.308 130.507  1.00  0.00     0.205 C 
HETATM   19  O2  UNL     1       2.174  88.379 130.509  1.00  0.00    -0.644 OA
HETATM   20  O3  UNL     1       1.652  90.464 129.812  1.00  0.00    -0.644 OA
ENDBRANCH   3  18
BRANCH   5  21
HETATM   21  N1  UNL     1      -1.925  86.324 132.364  1.00  0.00    -0.073 N 
ATOM     22  H13 UNL     1      -2.527  86.262 131.542  1.00  0.00     0.274 HD
ATOM     23  H12 UNL     1      -1.317  85.536 132.139  1.00  0.00     0.274 HD
ATOM     24  H11 UNL     1      -2.431  86.202 133.241  1.00  0.00     0.274 HD
ENDBRANCH   5  21
TORSDOF 7
ENDMDL
