MODEL 3
REMARK VINA RESULT: -6.722226498      0.930      1.618
REMARK  7 active torsions:
REMARK  status: ('A' for Active; 'I' for Inactive)
REMARK    1  A    between atoms: C2_2  and  C3_3 
REMARK    2  A    between atoms: C3_3  and  C4_4 
REMARK    3  A    between atoms: C3_3  and  O1_6 
REMARK    4  A    between atoms: O1_6  and  C6_7 
REMARK    5  A    between atoms: C8_9  and  C9_10 
REMARK    6  A    between atoms: C11_14  and  N1_15 
REMARK    7  A    between atoms: C12_19  and  N2_20 
REMARK       I    between atoms: N2_20  and  C13_22 
ROOT
HETATM    1  C6  UNL     1      -1.635  89.925 132.800  1.00  0.00     0.170 C 
HETATM    2  C7  UNL     1      -0.359  89.930 132.046  1.00  0.00     0.021 C 
HETATM    3  C8  UNL     1       0.123  88.940 131.326  1.00  0.00     0.019 C 
HETATM    4  C10 UNL     1      -0.625  87.664 131.209  1.00  0.00     0.080 C 
HETATM    5  C11 UNL     1      -1.225  87.441 132.606  1.00  0.00     0.213 C 
HETATM    6  C12 UNL     1      -2.275  88.559 132.723  1.00  0.00     0.147 C 
ENDROOT
BRANCH   1   7
HETATM    7  O1  UNL     1      -2.485  90.828 132.225  1.00  0.00    -0.375 OA
BRANCH   7   8
HETATM    8  C3  UNL     1      -2.608  92.042 132.807  1.00  0.00     0.121 C 
BRANCH   8   9
HETATM    9  C2  UNL     1      -2.217  93.118 131.831  1.00  0.00     0.027 C 
HETATM   10  C1  UNL     1      -2.533  92.740 130.389  1.00  0.00     0.007 C 
ENDBRANCH   8   9
BRANCH   8  11
HETATM   11  C4  UNL     1      -1.909  92.203 134.131  1.00  0.00     0.027 C 
HETATM   12  C5  UNL     1      -0.659  93.061 134.012  1.00  0.00     0.007 C 
ENDBRANCH   8  11
ENDBRANCH   7   8
ENDBRANCH   1   7
BRANCH   6  13
HETATM   13  N2  UNL     1      -3.147  88.283 133.842  1.00  0.00    -0.352 N 
HETATM   14  C13 UNL     1      -4.557  88.345 133.687  1.00  0.00     0.214 C 
HETATM   15  C14 UNL     1      -5.482  88.069 134.807  1.00  0.00     0.117 C 
HETATM   16  O4  UNL     1      -5.043  88.642 132.565  1.00  0.00    -0.274 OA
ATOM     17  H2  UNL     1      -2.747  88.042 134.749  1.00  0.00     0.163 HD
ENDBRANCH   6  13
BRANCH   3  18
HETATM   18  C9  UNL     1       1.390  89.063 130.630  1.00  0.00     0.205 C 
HETATM   19  O2  UNL     1       1.745  90.180 130.197  1.00  0.00    -0.644 OA
HETATM   20  O3  UNL     1       2.234  87.985 130.421  1.00  0.00    -0.644 OA
ENDBRANCH   3  18
BRANCH   5  21
HETATM   21  N1  UNL     1      -1.932  86.195 132.566  1.00  0.00    -0.073 N 
ATOM     22  H13 UNL     1      -2.866  86.277 132.164  1.00  0.00     0.274 HD
ATOM     23  H12 UNL     1      -1.553  85.541 131.880  1.00  0.00     0.274 HD
ATOM     24  H11 UNL     1      -1.935  85.823 133.515  1.00  0.00     0.274 HD
ENDBRANCH   5  21
TORSDOF 7
ENDMDL
