MODEL 13
REMARK VINA RESULT: -6.100289760      1.855      4.662
REMARK  7 active torsions:
REMARK  status: ('A' for Active; 'I' for Inactive)
REMARK    1  A    between atoms: C2_2  and  C3_3 
REMARK    2  A    between atoms: C3_3  and  C4_4 
REMARK    3  A    between atoms: C3_3  and  O1_6 
REMARK    4  A    between atoms: O1_6  and  C6_7 
REMARK    5  A    between atoms: C8_9  and  C9_10 
REMARK    6  A    between atoms: C11_14  and  N1_15 
REMARK    7  A    between atoms: C12_19  and  N2_20 
REMARK       I    between atoms: N2_20  and  C13_22 
ROOT
HETATM    1  C6  UNL     1      -2.275  89.805 132.492  1.00  0.00     0.170 C 
HETATM    2  C7  UNL     1      -3.192  89.395 133.580  1.00  0.00     0.021 C 
HETATM    3  C8  UNL     1      -3.140  88.270 134.260  1.00  0.00     0.019 C 
HETATM    4  C10 UNL     1      -2.089  87.264 133.966  1.00  0.00     0.080 C 
HETATM    5  C11 UNL     1      -1.937  87.303 132.438  1.00  0.00     0.213 C 
HETATM    6  C12 UNL     1      -1.312  88.684 132.179  1.00  0.00     0.147 C 
ENDROOT
BRANCH   1   7
HETATM    7  O1  UNL     1      -1.551  90.885 132.914  1.00  0.00    -0.375 OA
BRANCH   7   8
HETATM    8  C3  UNL     1      -1.746  92.065 132.283  1.00  0.00     0.121 C 
BRANCH   8   9
HETATM    9  C2  UNL     1      -1.206  93.189 133.124  1.00  0.00     0.027 C 
HETATM   10  C1  UNL     1      -0.409  92.690 134.323  1.00  0.00     0.007 C 
ENDBRANCH   8   9
BRANCH   8  11
HETATM   11  C4  UNL     1      -3.154  92.332 131.823  1.00  0.00     0.027 C 
HETATM   12  C5  UNL     1      -4.016  92.903 132.940  1.00  0.00     0.007 C 
ENDBRANCH   8  11
ENDBRANCH   7   8
ENDBRANCH   1   7
BRANCH   6  13
HETATM   13  N2  UNL     1      -0.808  88.737 130.825  1.00  0.00    -0.352 N 
HETATM   14  C13 UNL     1       0.471  89.290 130.553  1.00  0.00     0.214 C 
HETATM   15  C14 UNL     1       1.019  89.362 129.183  1.00  0.00     0.117 C 
HETATM   16  O4  UNL     1       1.165  89.735 131.503  1.00  0.00    -0.274 OA
ATOM     17  H2  UNL     1      -1.376  88.374 130.059  1.00  0.00     0.163 HD
ENDBRANCH   6  13
BRANCH   3  18
HETATM   18  C9  UNL     1      -4.098  87.978 135.309  1.00  0.00     0.205 C 
HETATM   19  O2  UNL     1      -5.146  87.360 135.027  1.00  0.00    -0.644 OA
HETATM   20  O3  UNL     1      -3.901  88.359 136.627  1.00  0.00    -0.644 OA
ENDBRANCH   3  18
BRANCH   5  21
HETATM   21  N1  UNL     1      -0.956  86.319 132.088  1.00  0.00    -0.073 N 
ATOM     22  H13 UNL     1      -0.722  85.694 132.859  1.00  0.00     0.274 HD
ATOM     23  H12 UNL     1      -1.312  85.608 131.448  1.00  0.00     0.274 HD
ATOM     24  H11 UNL     1      -0.148  86.821 131.718  1.00  0.00     0.274 HD
ENDBRANCH   5  21
TORSDOF 7
ENDMDL
