MODEL 12
REMARK VINA RESULT: -6.359090941      1.172      1.635
REMARK  7 active torsions:
REMARK  status: ('A' for Active; 'I' for Inactive)
REMARK    1  A    between atoms: C2_2  and  C3_3 
REMARK    2  A    between atoms: C3_3  and  C4_4 
REMARK    3  A    between atoms: C3_3  and  O1_6 
REMARK    4  A    between atoms: O1_6  and  C6_7 
REMARK    5  A    between atoms: C8_9  and  C9_10 
REMARK    6  A    between atoms: C11_14  and  N1_15 
REMARK    7  A    between atoms: C12_19  and  N2_20 
REMARK       I    between atoms: N2_20  and  C13_22 
ROOT
HETATM    1  C6  UNL     1      -1.987  90.576 133.299  1.00  0.00     0.170 C 
HETATM    2  C7  UNL     1      -0.806  90.740 132.420  1.00  0.00     0.021 C 
HETATM    3  C8  UNL     1      -0.410  89.904 131.484  1.00  0.00     0.019 C 
HETATM    4  C10 UNL     1      -1.168  88.655 131.225  1.00  0.00     0.080 C 
HETATM    5  C11 UNL     1      -1.605  88.175 132.618  1.00  0.00     0.213 C 
HETATM    6  C12 UNL     1      -2.633  89.234 133.051  1.00  0.00     0.147 C 
ENDROOT
BRANCH   1   7
HETATM    7  O1  UNL     1      -2.896  91.551 132.995  1.00  0.00    -0.375 OA
BRANCH   7   8
HETATM    8  C3  UNL     1      -3.836  91.274 132.064  1.00  0.00     0.121 C 
BRANCH   8   9
HETATM    9  C2  UNL     1      -3.489  91.956 130.769  1.00  0.00     0.027 C 
HETATM   10  C1  UNL     1      -3.509  91.000 129.582  1.00  0.00     0.007 C 
ENDBRANCH   8   9
BRANCH   8  11
HETATM   11  C4  UNL     1      -5.259  91.542 132.477  1.00  0.00     0.027 C 
HETATM   12  C5  UNL     1      -5.476  93.000 132.851  1.00  0.00     0.007 C 
ENDBRANCH   8  11
ENDBRANCH   7   8
ENDBRANCH   1   7
BRANCH   6  13
HETATM   13  N2  UNL     1      -3.373  88.746 134.193  1.00  0.00    -0.352 N 
HETATM   14  C13 UNL     1      -4.659  88.170 134.025  1.00  0.00     0.214 C 
HETATM   15  C14 UNL     1      -5.446  87.661 135.168  1.00  0.00     0.117 C 
HETATM   16  O4  UNL     1      -5.152  88.087 132.871  1.00  0.00    -0.274 OA
ATOM     17  H2  UNL     1      -2.967  88.816 135.127  1.00  0.00     0.163 HD
ENDBRANCH   6  13
BRANCH   3  18
HETATM   18  C9  UNL     1       0.769  90.173 130.683  1.00  0.00     0.205 C 
HETATM   19  O2  UNL     1       0.691  90.977 129.730  1.00  0.00    -0.644 OA
HETATM   20  O3  UNL     1       1.992  89.572 130.930  1.00  0.00    -0.644 OA
ENDBRANCH   3  18
BRANCH   5  21
HETATM   21  N1  UNL     1      -2.314  86.943 132.435  1.00  0.00    -0.073 N 
ATOM     22  H13 UNL     1      -2.291  86.607 131.472  1.00  0.00     0.274 HD
ATOM     23  H12 UNL     1      -1.845  86.144 132.862  1.00  0.00     0.274 HD
ATOM     24  H11 UNL     1      -3.260  87.087 132.787  1.00  0.00     0.274 HD
ENDBRANCH   5  21
TORSDOF 7
ENDMDL
