MODEL 2
REMARK VINA RESULT: -6.992917750      0.507      1.585
REMARK  7 active torsions:
REMARK  status: ('A' for Active; 'I' for Inactive)
REMARK    1  A    between atoms: C2_2  and  C3_3 
REMARK    2  A    between atoms: C3_3  and  C4_4 
REMARK    3  A    between atoms: C3_3  and  O1_6 
REMARK    4  A    between atoms: O1_6  and  C6_7 
REMARK    5  A    between atoms: C8_9  and  C9_10 
REMARK    6  A    between atoms: C11_14  and  N1_15 
REMARK    7  A    between atoms: C12_19  and  N2_20 
REMARK       I    between atoms: N2_20  and  C13_22 
ROOT
HETATM    1  C6  UNL     1      -1.657  89.821 132.951  1.00  0.00     0.170 C 
HETATM    2  C7  UNL     1      -0.395  89.872 132.176  1.00  0.00     0.021 C 
HETATM    3  C8  UNL     1       0.063  88.936 131.372  1.00  0.00     0.019 C 
HETATM    4  C10 UNL     1      -0.702  87.680 131.171  1.00  0.00     0.080 C 
HETATM    5  C11 UNL     1      -1.279  87.356 132.557  1.00  0.00     0.213 C 
HETATM    6  C12 UNL     1      -2.314  88.472 132.780  1.00  0.00     0.147 C 
ENDROOT
BRANCH   1   7
HETATM    7  O1  UNL     1      -2.506  90.775 132.464  1.00  0.00    -0.375 OA
BRANCH   7   8
HETATM    8  C3  UNL     1      -3.057  91.642 133.343  1.00  0.00     0.121 C 
BRANCH   8   9
HETATM    9  C2  UNL     1      -3.993  92.574 132.623  1.00  0.00     0.027 C 
HETATM   10  C1  UNL     1      -5.458  92.212 132.838  1.00  0.00     0.007 C 
ENDBRANCH   8   9
BRANCH   8  11
HETATM   11  C4  UNL     1      -2.085  92.386 134.219  1.00  0.00     0.027 C 
HETATM   12  C5  UNL     1      -1.394  93.514 133.469  1.00  0.00     0.007 C 
ENDBRANCH   8  11
ENDBRANCH   7   8
ENDBRANCH   1   7
BRANCH   6  13
HETATM   13  N2  UNL     1      -3.169  88.119 133.891  1.00  0.00    -0.352 N 
HETATM   14  C13 UNL     1      -4.580  88.238 133.779  1.00  0.00     0.214 C 
HETATM   15  C14 UNL     1      -5.487  87.887 134.892  1.00  0.00     0.117 C 
HETATM   16  O4  UNL     1      -5.080  88.655 132.703  1.00  0.00    -0.274 OA
ATOM     17  H2  UNL     1      -2.756  87.781 134.761  1.00  0.00     0.163 HD
ENDBRANCH   6  13
BRANCH   3  18
HETATM   18  C9  UNL     1       1.318  89.100 130.663  1.00  0.00     0.205 C 
HETATM   19  O2  UNL     1       1.659  90.238 130.277  1.00  0.00    -0.644 OA
HETATM   20  O3  UNL     1       2.165  88.038 130.392  1.00  0.00    -0.644 OA
ENDBRANCH   3  18
BRANCH   5  21
HETATM   21  N1  UNL     1      -2.002  86.124 132.434  1.00  0.00    -0.073 N 
ATOM     22  H13 UNL     1      -2.437  86.005 131.519  1.00  0.00     0.274 HD
ATOM     23  H12 UNL     1      -1.394  85.305 132.396  1.00  0.00     0.274 HD
ATOM     24  H11 UNL     1      -2.670  86.092 133.203  1.00  0.00     0.274 HD
ENDBRANCH   5  21
TORSDOF 7
ENDMDL
