MODEL 7
REMARK VINA RESULT: -6.473034495      2.061      4.898
REMARK  7 active torsions:
REMARK  status: ('A' for Active; 'I' for Inactive)
REMARK    1  A    between atoms: C2_2  and  C3_3 
REMARK    2  A    between atoms: C3_3  and  C4_4 
REMARK    3  A    between atoms: C3_3  and  O1_6 
REMARK    4  A    between atoms: O1_6  and  C6_7 
REMARK    5  A    between atoms: C8_9  and  C9_10 
REMARK    6  A    between atoms: C11_14  and  N1_15 
REMARK    7  A    between atoms: C12_19  and  N2_20 
REMARK       I    between atoms: N2_20  and  C13_22 
ROOT
HETATM    1  C6  UNL     1      -1.653  90.000 132.040  1.00  0.00     0.170 C 
HETATM    2  C7  UNL     1      -2.539  89.693 133.187  1.00  0.00     0.021 C 
HETATM    3  C8  UNL     1      -2.518  88.597 133.915  1.00  0.00     0.019 C 
HETATM    4  C10 UNL     1      -1.541  87.519 133.619  1.00  0.00     0.080 C 
HETATM    5  C11 UNL     1      -1.462  87.483 132.086  1.00  0.00     0.213 C 
HETATM    6  C12 UNL     1      -0.772  88.812 131.735  1.00  0.00     0.147 C 
ENDROOT
BRANCH   1   7
HETATM    7  O1  UNL     1      -0.850  91.053 132.378  1.00  0.00    -0.375 OA
BRANCH   7   8
HETATM    8  C3  UNL     1      -1.380  92.296 132.331  1.00  0.00     0.121 C 
BRANCH   8   9
HETATM    9  C2  UNL     1      -1.125  92.909 130.981  1.00  0.00     0.027 C 
HETATM   10  C1  UNL     1      -2.410  93.158 130.200  1.00  0.00     0.007 C 
ENDBRANCH   8   9
BRANCH   8  11
HETATM   11  C4  UNL     1      -0.979  93.217 133.452  1.00  0.00     0.027 C 
HETATM   12  C5  UNL     1      -0.328  92.462 134.601  1.00  0.00     0.007 C 
ENDBRANCH   8  11
ENDBRANCH   7   8
ENDBRANCH   1   7
BRANCH   6  13
HETATM   13  N2  UNL     1      -0.332  88.777 130.358  1.00  0.00    -0.352 N 
HETATM   14  C13 UNL     1       0.976  89.204 130.009  1.00  0.00     0.214 C 
HETATM   15  C14 UNL     1       1.461  89.183 128.613  1.00  0.00     0.117 C 
HETATM   16  O4  UNL     1       1.752  89.615 130.909  1.00  0.00    -0.274 OA
ATOM     17  H2  UNL     1      -0.967  88.442 129.632  1.00  0.00     0.163 HD
ENDBRANCH   6  13
BRANCH   3  18
HETATM   18  C9  UNL     1      -3.439  88.408 135.019  1.00  0.00     0.205 C 
HETATM   19  O2  UNL     1      -3.225  88.992 136.102  1.00  0.00    -0.644 OA
HETATM   20  O3  UNL     1      -4.561  87.601 134.925  1.00  0.00    -0.644 OA
ENDBRANCH   3  18
BRANCH   5  21
HETATM   21  N1  UNL     1      -0.556  86.428 131.737  1.00  0.00    -0.073 N 
ATOM     22  H13 UNL     1      -0.982  85.503 131.782  1.00  0.00     0.274 HD
ATOM     23  H12 UNL     1      -0.321  86.414 130.744  1.00  0.00     0.274 HD
ATOM     24  H11 UNL     1       0.261  86.524 132.340  1.00  0.00     0.274 HD
ENDBRANCH   5  21
TORSDOF 7
ENDMDL
