MODEL 5
REMARK VINA RESULT: -6.541205451      1.564      4.883
REMARK  7 active torsions:
REMARK  status: ('A' for Active; 'I' for Inactive)
REMARK    1  A    between atoms: C2_2  and  C3_3 
REMARK    2  A    between atoms: C3_3  and  C4_4 
REMARK    3  A    between atoms: C3_3  and  O1_6 
REMARK    4  A    between atoms: O1_6  and  C6_7 
REMARK    5  A    between atoms: C8_9  and  C9_10 
REMARK    6  A    between atoms: C11_14  and  N1_15 
REMARK    7  A    between atoms: C12_19  and  N2_20 
REMARK       I    between atoms: N2_20  and  C13_22 
ROOT
HETATM    1  C6  UNL     1      -2.790  89.151 131.535  1.00  0.00     0.170 C 
HETATM    2  C7  UNL     1      -3.821  88.857 132.559  1.00  0.00     0.021 C 
HETATM    3  C8  UNL     1      -3.638  88.191 133.678  1.00  0.00     0.019 C 
HETATM    4  C10 UNL     1      -2.299  87.648 134.018  1.00  0.00     0.080 C 
HETATM    5  C11 UNL     1      -1.729  87.164 132.676  1.00  0.00     0.213 C 
HETATM    6  C12 UNL     1      -1.492  88.470 131.899  1.00  0.00     0.147 C 
ENDROOT
BRANCH   1   7
HETATM    7  O1  UNL     1      -2.573  90.500 131.508  1.00  0.00    -0.375 OA
BRANCH   7   8
HETATM    8  C3  UNL     1      -3.021  91.236 132.550  1.00  0.00     0.121 C 
BRANCH   8   9
HETATM    9  C2  UNL     1      -4.007  92.262 132.064  1.00  0.00     0.027 C 
HETATM   10  C1  UNL     1      -5.291  92.272 132.884  1.00  0.00     0.007 C 
ENDBRANCH   8   9
BRANCH   8  11
HETATM   11  C4  UNL     1      -1.955  91.847 133.420  1.00  0.00     0.027 C 
HETATM   12  C5  UNL     1      -2.021  91.326 134.848  1.00  0.00     0.007 C 
ENDBRANCH   8  11
ENDBRANCH   7   8
ENDBRANCH   1   7
BRANCH   6  13
HETATM   13  N2  UNL     1      -0.657  88.201 130.751  1.00  0.00    -0.352 N 
HETATM   14  C13 UNL     1       0.515  88.969 130.517  1.00  0.00     0.214 C 
HETATM   15  C14 UNL     1       1.393  88.724 129.354  1.00  0.00     0.117 C 
HETATM   16  O4  UNL     1       0.821  89.887 131.320  1.00  0.00    -0.274 OA
ATOM     17  H2  UNL     1      -0.911  87.454 130.103  1.00  0.00     0.163 HD
ENDBRANCH   6  13
BRANCH   3  18
HETATM   18  C9  UNL     1      -4.729  87.966 134.608  1.00  0.00     0.205 C 
HETATM   19  O2  UNL     1      -4.502  87.994 135.836  1.00  0.00    -0.644 OA
HETATM   20  O3  UNL     1      -6.026  87.718 134.189  1.00  0.00    -0.644 OA
ENDBRANCH   3  18
BRANCH   5  21
HETATM   21  N1  UNL     1      -0.444  86.591 132.947  1.00  0.00    -0.073 N 
ATOM     22  H13 UNL     1      -0.409  85.585 132.777  1.00  0.00     0.274 HD
ATOM     23  H12 UNL     1       0.267  86.862 132.268  1.00  0.00     0.274 HD
ATOM     24  H11 UNL     1      -0.200  86.843 133.905  1.00  0.00     0.274 HD
ENDBRANCH   5  21
TORSDOF 7
ENDMDL
