MODEL 10
REMARK VINA RESULT: -8.477392450      4.440      8.091
REMARK  7 active torsions:
REMARK  status: ('A' for Active; 'I' for Inactive)
REMARK    1  A    between atoms: C9_11  and  C10_12 
REMARK    2  A    between atoms: C10_12  and  C11_13 
REMARK       I    between atoms: C11_13  and  N2_15 
REMARK    3  A    between atoms: N2_15  and  C12_17 
REMARK    4  A    between atoms: C12_17  and  C13_18 
REMARK    5  A    between atoms: C12_17  and  C20_25 
REMARK    6  A    between atoms: C13_18  and  C14_19 
REMARK       I    between atoms: C20_25  and  N3_27 
REMARK    7  A    between atoms: N3_27  and  C22_29 
ROOT
HETATM    1  C12 UNL     1      12.870  25.164  -4.505  1.00  0.00     0.181 C 
ENDROOT
BRANCH   1   2
HETATM    2  N2  UNL     1      14.094  25.701  -3.878  1.00  0.00    -0.347 N 
HETATM    3  C11 UNL     1      15.008  24.894  -3.154  1.00  0.00     0.222 C 
HETATM    4  O1  UNL     1      14.739  23.657  -3.079  1.00  0.00    -0.273 OA
ATOM      5  H2  UNL     1      14.292  26.698  -3.969  1.00  0.00     0.163 HD
BRANCH   3   6
HETATM    6  C10 UNL     1      16.228  25.475  -2.519  1.00  0.00     0.144 C 
BRANCH   6   7
HETATM    7  C9  UNL     1      17.325  24.476  -2.485  1.00  0.00    -0.015 A 
HETATM    8  C2  UNL     1      18.269  24.155  -3.410  1.00  0.00     0.013 A 
HETATM    9  C1  UNL     1      18.429  24.726  -4.763  1.00  0.00     0.068 C 
HETATM   10  N1  UNL     1      19.070  23.189  -2.909  1.00  0.00    -0.359 N 
HETATM   11  C3  UNL     1      18.679  22.855  -1.667  1.00  0.00     0.043 A 
ATOM     12  H1  UNL     1      19.859  22.773  -3.403  1.00  0.00     0.166 HD
HETATM   13  C4  UNL     1      19.158  21.942  -0.754  1.00  0.00     0.030 A 
HETATM   14  C8  UNL     1      17.591  23.644  -1.380  1.00  0.00    -0.001 A 
HETATM   15  C5  UNL     1      18.499  21.856   0.459  1.00  0.00     0.002 A 
HETATM   16  C6  UNL     1      17.401  22.646   0.758  1.00  0.00     0.001 A 
HETATM   17  C7  UNL     1      16.926  23.559  -0.161  1.00  0.00     0.014 A 
ENDBRANCH   6   7
ENDBRANCH   3   6
ENDBRANCH   1   2
BRANCH   1  18
HETATM   18  C13 UNL     1      11.746  26.144  -4.382  1.00  0.00     0.073 C 
BRANCH  18  19
HETATM   19  C14 UNL     1      10.826  25.848  -3.286  1.00  0.00    -0.056 A 
HETATM   20  C15 UNL     1       9.561  25.381  -3.535  1.00  0.00     0.007 A 
HETATM   21  C16 UNL     1       8.686  25.074  -2.484  1.00  0.00     0.001 A 
HETATM   22  C17 UNL     1       9.080  25.236  -1.183  1.00  0.00     0.000 A 
HETATM   23  C18 UNL     1      10.354  25.707  -0.922  1.00  0.00     0.001 A 
HETATM   24  C19 UNL     1      11.206  26.006  -1.981  1.00  0.00     0.007 A 
ENDBRANCH  18  19
ENDBRANCH   1  18
BRANCH   1  25
HETATM   25  C20 UNL     1      13.197  24.785  -5.899  1.00  0.00     0.247 C 
HETATM   26  O2  UNL     1      14.267  25.192  -6.404  1.00  0.00    -0.271 OA
HETATM   27  N3  UNL     1      12.335  23.976  -6.659  1.00  0.00    -0.321 N 
HETATM   28  C21 UNL     1      12.749  23.646  -8.035  1.00  0.00     0.159 C 
BRANCH  27  29
HETATM   29  C22 UNL     1      11.097  23.436  -6.249  1.00  0.00     0.036 A 
HETATM   30  C23 UNL     1      11.149  22.480  -5.235  1.00  0.00     0.029 A 
HETATM   31  C24 UNL     1       9.990  21.888  -4.783  1.00  0.00     0.002 A 
HETATM   32  C25 UNL     1       8.759  22.217  -5.308  1.00  0.00     0.000 A 
HETATM   33  C26 UNL     1       8.703  23.158  -6.304  1.00  0.00     0.002 A 
HETATM   34  C27 UNL     1       9.868  23.761  -6.767  1.00  0.00     0.029 A 
ENDBRANCH  27  29
ENDBRANCH   1  25
TORSDOF 7
ENDMDL
