MODEL 14
REMARK VINA RESULT: -8.262468240      2.880      4.685
REMARK  7 active torsions:
REMARK  status: ('A' for Active; 'I' for Inactive)
REMARK    1  A    between atoms: C9_11  and  C10_12 
REMARK    2  A    between atoms: C10_12  and  C11_13 
REMARK       I    between atoms: C11_13  and  N2_15 
REMARK    3  A    between atoms: N2_15  and  C12_17 
REMARK    4  A    between atoms: C12_17  and  C13_18 
REMARK    5  A    between atoms: C12_17  and  C20_25 
REMARK    6  A    between atoms: C13_18  and  C14_19 
REMARK       I    between atoms: C20_25  and  N3_27 
REMARK    7  A    between atoms: N3_27  and  C22_29 
ROOT
HETATM    1  C12 UNL     1      13.736  26.372  -1.221  1.00  0.00     0.181 C 
ENDROOT
BRANCH   1   2
HETATM    2  N2  UNL     1      13.477  26.032   0.193  1.00  0.00    -0.347 N 
HETATM    3  C11 UNL     1      14.270  26.522   1.262  1.00  0.00     0.222 C 
HETATM    4  O1  UNL     1      15.223  27.299   0.953  1.00  0.00    -0.273 OA
ATOM      5  H2  UNL     1      12.692  25.418   0.411  1.00  0.00     0.163 HD
BRANCH   3   6
HETATM    6  C10 UNL     1      13.988  26.144   2.678  1.00  0.00     0.144 C 
BRANCH   6   7
HETATM    7  C9  UNL     1      15.252  25.877   3.409  1.00  0.00    -0.015 A 
HETATM    8  C2  UNL     1      16.052  24.778   3.435  1.00  0.00     0.013 A 
HETATM    9  C1  UNL     1      15.839  23.496   2.731  1.00  0.00     0.068 C 
HETATM   10  N1  UNL     1      17.111  25.021   4.237  1.00  0.00    -0.359 N 
HETATM   11  C3  UNL     1      17.035  26.259   4.752  1.00  0.00     0.043 A 
ATOM     12  H1  UNL     1      17.863  24.357   4.426  1.00  0.00     0.166 HD
HETATM   13  C4  UNL     1      17.850  26.964   5.609  1.00  0.00     0.030 A 
HETATM   14  C8  UNL     1      15.882  26.814   4.250  1.00  0.00    -0.001 A 
HETATM   15  C5  UNL     1      17.459  28.249   5.940  1.00  0.00     0.002 A 
HETATM   16  C6  UNL     1      16.300  28.818   5.440  1.00  0.00     0.001 A 
HETATM   17  C7  UNL     1      15.486  28.106   4.582  1.00  0.00     0.014 A 
ENDBRANCH   6   7
ENDBRANCH   3   6
ENDBRANCH   1   2
BRANCH   1  18
HETATM   18  C13 UNL     1      14.595  25.327  -1.860  1.00  0.00     0.073 C 
BRANCH  18  19
HETATM   19  C14 UNL     1      14.882  25.586  -3.269  1.00  0.00    -0.056 A 
HETATM   20  C15 UNL     1      14.101  25.044  -4.258  1.00  0.00     0.007 A 
HETATM   21  C16 UNL     1      14.360  25.310  -5.609  1.00  0.00     0.001 A 
HETATM   22  C17 UNL     1      15.404  26.119  -5.969  1.00  0.00     0.000 A 
HETATM   23  C18 UNL     1      16.199  26.669  -4.979  1.00  0.00     0.001 A 
HETATM   24  C19 UNL     1      15.922  26.391  -3.643  1.00  0.00     0.007 A 
ENDBRANCH  18  19
ENDBRANCH   1  18
BRANCH   1  25
HETATM   25  C20 UNL     1      12.430  26.579  -1.889  1.00  0.00     0.247 C 
HETATM   26  O2  UNL     1      11.489  25.791  -1.643  1.00  0.00    -0.271 OA
HETATM   27  N3  UNL     1      12.228  27.642  -2.786  1.00  0.00    -0.321 N 
HETATM   28  C21 UNL     1      10.892  27.771  -3.397  1.00  0.00     0.159 C 
BRANCH  27  29
HETATM   29  C22 UNL     1      13.173  28.614  -3.176  1.00  0.00     0.036 A 
HETATM   30  C23 UNL     1      13.264  28.868  -4.545  1.00  0.00     0.029 A 
HETATM   31  C24 UNL     1      14.171  29.792  -5.018  1.00  0.00     0.002 A 
HETATM   32  C25 UNL     1      15.004  30.486  -4.167  1.00  0.00     0.000 A 
HETATM   33  C26 UNL     1      14.916  30.241  -2.821  1.00  0.00     0.002 A 
HETATM   34  C27 UNL     1      14.003  29.310  -2.334  1.00  0.00     0.029 A 
ENDBRANCH  27  29
ENDBRANCH   1  25
TORSDOF 7
ENDMDL
