MODEL 1
REMARK VINA RESULT: -10.944060649      0.000      0.000
REMARK  7 active torsions:
REMARK  status: ('A' for Active; 'I' for Inactive)
REMARK    1  A    between atoms: C9_11  and  C10_12 
REMARK    2  A    between atoms: C10_12  and  C11_13 
REMARK       I    between atoms: C11_13  and  N2_15 
REMARK    3  A    between atoms: N2_15  and  C12_17 
REMARK    4  A    between atoms: C12_17  and  C13_18 
REMARK    5  A    between atoms: C12_17  and  C20_25 
REMARK    6  A    between atoms: C13_18  and  C14_19 
REMARK       I    between atoms: C20_25  and  N3_27 
REMARK    7  A    between atoms: N3_27  and  C22_29 
ROOT
HETATM    1  C12 UNL     1      16.143  24.590  -1.313  1.00  0.00     0.181 C 
ENDROOT
BRANCH   1   2
HETATM    2  N2  UNL     1      15.194  24.918  -0.230  1.00  0.00    -0.347 N 
HETATM    3  C11 UNL     1      15.092  26.213   0.339  1.00  0.00     0.222 C 
HETATM    4  O1  UNL     1      15.851  27.108  -0.142  1.00  0.00    -0.273 OA
ATOM      5  H2  UNL     1      14.585  24.181   0.125  1.00  0.00     0.163 HD
BRANCH   3   6
HETATM    6  C10 UNL     1      14.132  26.505   1.444  1.00  0.00     0.144 C 
BRANCH   6   7
HETATM    7  C9  UNL     1      14.830  26.513   2.754  1.00  0.00    -0.015 A 
HETATM    8  C2  UNL     1      15.294  25.493   3.524  1.00  0.00     0.013 A 
HETATM    9  C1  UNL     1      15.187  24.044   3.254  1.00  0.00     0.068 C 
HETATM   10  N1  UNL     1      15.881  26.004   4.628  1.00  0.00    -0.359 N 
HETATM   11  C3  UNL     1      15.818  27.346   4.614  1.00  0.00     0.043 A 
ATOM     12  H1  UNL     1      16.313  25.449   5.369  1.00  0.00     0.166 HD
HETATM   13  C4  UNL     1      16.259  28.309   5.494  1.00  0.00     0.030 A 
HETATM   14  C8  UNL     1      15.165  27.688   3.454  1.00  0.00    -0.001 A 
HETATM   15  C5  UNL     1      16.019  29.629   5.159  1.00  0.00     0.002 A 
HETATM   16  C6  UNL     1      15.362  29.985   3.993  1.00  0.00     0.001 A 
HETATM   17  C7  UNL     1      14.921  29.015   3.115  1.00  0.00     0.014 A 
ENDBRANCH   6   7
ENDBRANCH   3   6
ENDBRANCH   1   2
BRANCH   1  18
HETATM   18  C13 UNL     1      16.320  23.108  -1.421  1.00  0.00     0.073 C 
BRANCH  18  19
HETATM   19  C14 UNL     1      17.470  22.598  -0.678  1.00  0.00    -0.056 A 
HETATM   20  C15 UNL     1      17.328  22.124   0.601  1.00  0.00     0.007 A 
HETATM   21  C16 UNL     1      18.426  21.613   1.306  1.00  0.00     0.001 A 
HETATM   22  C17 UNL     1      19.667  21.579   0.729  1.00  0.00     0.000 A 
HETATM   23  C18 UNL     1      19.820  22.056  -0.560  1.00  0.00     0.001 A 
HETATM   24  C19 UNL     1      18.715  22.558  -1.242  1.00  0.00     0.007 A 
ENDBRANCH  18  19
ENDBRANCH   1  18
BRANCH   1  25
HETATM   25  C20 UNL     1      15.664  25.239  -2.555  1.00  0.00     0.247 C 
HETATM   26  O2  UNL     1      14.432  25.314  -2.766  1.00  0.00    -0.271 OA
HETATM   27  N3  UNL     1      16.562  25.773  -3.495  1.00  0.00    -0.321 N 
HETATM   28  C21 UNL     1      15.990  26.405  -4.699  1.00  0.00     0.159 C 
BRANCH  27  29
HETATM   29  C22 UNL     1      17.971  25.772  -3.418  1.00  0.00     0.036 A 
HETATM   30  C23 UNL     1      18.628  24.822  -4.201  1.00  0.00     0.029 A 
HETATM   31  C24 UNL     1      20.003  24.739  -4.176  1.00  0.00     0.002 A 
HETATM   32  C25 UNL     1      20.764  25.579  -3.392  1.00  0.00     0.000 A 
HETATM   33  C26 UNL     1      20.122  26.515  -2.623  1.00  0.00     0.002 A 
HETATM   34  C27 UNL     1      18.733  26.607  -2.641  1.00  0.00     0.029 A 
ENDBRANCH  27  29
ENDBRANCH   1  25
TORSDOF 7
ENDMDL
