MODEL 11
REMARK VINA RESULT: -8.414363773      2.376      4.967
REMARK  7 active torsions:
REMARK  status: ('A' for Active; 'I' for Inactive)
REMARK    1  A    between atoms: C9_11  and  C10_12 
REMARK    2  A    between atoms: C10_12  and  C11_13 
REMARK       I    between atoms: C11_13  and  N2_15 
REMARK    3  A    between atoms: N2_15  and  C12_17 
REMARK    4  A    between atoms: C12_17  and  C13_18 
REMARK    5  A    between atoms: C12_17  and  C20_25 
REMARK    6  A    between atoms: C13_18  and  C14_19 
REMARK       I    between atoms: C20_25  and  N3_27 
REMARK    7  A    between atoms: N3_27  and  C22_29 
ROOT
HETATM    1  C12 UNL     1      14.565  26.135  -1.230  1.00  0.00     0.181 C 
ENDROOT
BRANCH   1   2
HETATM    2  N2  UNL     1      14.106  25.946   0.161  1.00  0.00    -0.347 N 
HETATM    3  C11 UNL     1      14.509  26.790   1.227  1.00  0.00     0.222 C 
HETATM    4  O1  UNL     1      15.283  27.751   0.932  1.00  0.00    -0.273 OA
ATOM      5  H2  UNL     1      13.470  25.175   0.365  1.00  0.00     0.163 HD
BRANCH   3   6
HETATM    6  C10 UNL     1      14.037  26.559   2.625  1.00  0.00     0.144 C 
BRANCH   6   7
HETATM    7  C9  UNL     1      15.190  26.373   3.541  1.00  0.00    -0.015 A 
HETATM    8  C2  UNL     1      15.960  25.282   3.795  1.00  0.00     0.013 A 
HETATM    9  C1  UNL     1      15.817  23.928   3.219  1.00  0.00     0.068 C 
HETATM   10  N1  UNL     1      16.910  25.611   4.698  1.00  0.00    -0.359 N 
HETATM   11  C3  UNL     1      16.790  26.901   5.055  1.00  0.00     0.043 A 
ATOM     12  H1  UNL     1      17.619  24.971   5.058  1.00  0.00     0.166 HD
HETATM   13  C4  UNL     1      17.499  27.696   5.926  1.00  0.00     0.030 A 
HETATM   14  C8  UNL     1      15.722  27.399   4.346  1.00  0.00    -0.001 A 
HETATM   15  C5  UNL     1      17.092  29.012   6.055  1.00  0.00     0.002 A 
HETATM   16  C6  UNL     1      16.018  29.524   5.347  1.00  0.00     0.001 A 
HETATM   17  C7  UNL     1      15.311  28.721   4.475  1.00  0.00     0.014 A 
ENDBRANCH   6   7
ENDBRANCH   3   6
ENDBRANCH   1   2
BRANCH   1  18
HETATM   18  C13 UNL     1      14.904  27.571  -1.478  1.00  0.00     0.073 C 
BRANCH  18  19
HETATM   19  C14 UNL     1      14.254  28.132  -2.661  1.00  0.00    -0.056 A 
HETATM   20  C15 UNL     1      14.946  28.931  -3.533  1.00  0.00     0.007 A 
HETATM   21  C16 UNL     1      14.330  29.450  -4.680  1.00  0.00     0.001 A 
HETATM   22  C17 UNL     1      13.018  29.168  -4.951  1.00  0.00     0.000 A 
HETATM   23  C18 UNL     1      12.311  28.363  -4.076  1.00  0.00     0.001 A 
HETATM   24  C19 UNL     1      12.943  27.858  -2.943  1.00  0.00     0.007 A 
ENDBRANCH  18  19
ENDBRANCH   1  18
BRANCH   1  25
HETATM   25  C20 UNL     1      15.682  25.194  -1.476  1.00  0.00     0.247 C 
HETATM   26  O2  UNL     1      16.392  24.829  -0.512  1.00  0.00    -0.271 OA
HETATM   27  N3  UNL     1      15.955  24.702  -2.764  1.00  0.00    -0.321 N 
HETATM   28  C21 UNL     1      17.083  23.764  -2.909  1.00  0.00     0.159 C 
BRANCH  27  29
HETATM   29  C22 UNL     1      15.261  25.009  -3.954  1.00  0.00     0.036 A 
HETATM   30  C23 UNL     1      15.965  25.754  -4.901  1.00  0.00     0.029 A 
HETATM   31  C24 UNL     1      15.361  26.113  -6.086  1.00  0.00     0.002 A 
HETATM   32  C25 UNL     1      14.061  25.753  -6.372  1.00  0.00     0.000 A 
HETATM   33  C26 UNL     1      13.367  25.019  -5.445  1.00  0.00     0.002 A 
HETATM   34  C27 UNL     1      13.969  24.652  -4.245  1.00  0.00     0.029 A 
ENDBRANCH  27  29
ENDBRANCH   1  25
TORSDOF 7
ENDMDL
