MODEL 7
REMARK VINA RESULT: -4.939953536      3.175      4.164
REMARK  0 active torsions:
REMARK  status: ('A' for Active; 'I' for Inactive)
ROOT
HETATM    1  N1  UNL     1     -17.596 -34.293 -29.167  1.00  0.00    -0.056 NA
HETATM    2  C1  UNL     1     -17.378 -35.468 -28.360  1.00  0.00     0.237 A 
HETATM    3  N2  UNL     1     -17.537 -36.743 -28.752  1.00  0.00    -0.322 N 
ATOM      4  H2  UNL     1     -17.836 -37.034 -29.683  1.00  0.00     0.169 HD
HETATM    5  C2  UNL     1     -17.245 -37.581 -27.741  1.00  0.00     0.070 A 
HETATM    6  C3  UNL     1     -17.229 -38.963 -27.563  1.00  0.00     0.056 A 
HETATM    7  C4  UNL     1     -16.869 -39.530 -26.362  1.00  0.00     0.036 A 
HETATM    8 CL1  UNL     1     -16.864 -41.268 -26.185  1.00  0.00    -0.084 Cl
HETATM    9  C5  UNL     1     -16.516 -38.717 -25.307  1.00  0.00     0.026 A 
HETATM   10  C6  UNL     1     -16.532 -37.339 -25.484  1.00  0.00     0.041 A 
HETATM   11  C7  UNL     1     -16.893 -36.751 -26.693  1.00  0.00     0.105 A 
HETATM   12  O1  UNL     1     -16.988 -35.512 -27.111  1.00  0.00    -0.280 OA
ENDROOT
TORSDOF 0
ENDMDL
