MODEL 6
REMARK VINA RESULT: -4.955353351      1.916      2.452
REMARK  0 active torsions:
REMARK  status: ('A' for Active; 'I' for Inactive)
ROOT
HETATM    1  N1  UNL     1     -16.479 -39.864 -24.522  1.00  0.00    -0.056 NA
HETATM    2  C1  UNL     1     -16.736 -38.778 -25.435  1.00  0.00     0.237 A 
HETATM    3  N2  UNL     1     -16.437 -37.484 -25.236  1.00  0.00    -0.322 N 
ATOM      4  H2  UNL     1     -15.985 -37.111 -24.400  1.00  0.00     0.169 HD
HETATM    5  C2  UNL     1     -16.818 -36.749 -26.295  1.00  0.00     0.070 A 
HETATM    6  C3  UNL     1     -16.768 -35.401 -26.645  1.00  0.00     0.056 A 
HETATM    7  C4  UNL     1     -17.261 -34.951 -27.849  1.00  0.00     0.036 A 
HETATM    8 CL1  UNL     1     -17.178 -33.252 -28.245  1.00  0.00    -0.084 Cl
HETATM    9  C5  UNL     1     -17.818 -35.850 -28.733  1.00  0.00     0.026 A 
HETATM   10  C6  UNL     1     -17.868 -37.194 -28.383  1.00  0.00     0.041 A 
HETATM   11  C7  UNL     1     -17.373 -37.664 -27.171  1.00  0.00     0.105 A 
HETATM   12  O1  UNL     1     -17.300 -38.849 -26.614  1.00  0.00    -0.280 OA
ENDROOT
TORSDOF 0
ENDMDL
