MODEL 5
REMARK VINA RESULT: -5.032621202      3.164      4.292
REMARK  0 active torsions:
REMARK  status: ('A' for Active; 'I' for Inactive)
ROOT
HETATM    1  N1  UNL     1     -17.187 -33.985 -28.356  1.00  0.00    -0.056 NA
HETATM    2  C1  UNL     1     -17.257 -35.408 -28.133  1.00  0.00     0.237 A 
HETATM    3  N2  UNL     1     -17.495 -36.348 -29.062  1.00  0.00    -0.322 N 
ATOM      4  H2  UNL     1     -17.658 -36.162 -30.052  1.00  0.00     0.169 HD
HETATM    5  C2  UNL     1     -17.489 -37.570 -28.501  1.00  0.00     0.070 A 
HETATM    6  C3  UNL     1     -17.670 -38.876 -28.951  1.00  0.00     0.056 A 
HETATM    7  C4  UNL     1     -17.598 -39.950 -28.093  1.00  0.00     0.036 A 
HETATM    8 CL1  UNL     1     -17.833 -41.570 -28.702  1.00  0.00    -0.084 Cl
HETATM    9  C5  UNL     1     -17.341 -39.734 -26.756  1.00  0.00     0.026 A 
HETATM   10  C6  UNL     1     -17.161 -38.432 -26.308  1.00  0.00     0.041 A 
HETATM   11  C7  UNL     1     -17.230 -37.336 -27.163  1.00  0.00     0.105 A 
HETATM   12  O1  UNL     1     -17.101 -36.042 -26.998  1.00  0.00    -0.280 OA
ENDROOT
TORSDOF 0
ENDMDL
