MODEL 11
REMARK VINA RESULT: -4.862895721      1.992      2.645
REMARK  0 active torsions:
REMARK  status: ('A' for Active; 'I' for Inactive)
ROOT
HETATM    1  N1  UNL     1     -18.123 -42.422 -30.785  1.00  0.00    -0.056 NA
HETATM    2  C1  UNL     1     -17.914 -41.380 -29.810  1.00  0.00     0.237 A 
HETATM    3  N2  UNL     1     -17.895 -40.058 -30.050  1.00  0.00    -0.322 N 
ATOM      4  H2  UNL     1     -18.027 -39.630 -30.967  1.00  0.00     0.169 HD
HETATM    5  C2  UNL     1     -17.675 -39.381 -28.909  1.00  0.00     0.070 A 
HETATM    6  C3  UNL     1     -17.555 -38.040 -28.552  1.00  0.00     0.056 A 
HETATM    7  C4  UNL     1     -17.324 -37.659 -27.250  1.00  0.00     0.036 A 
HETATM    8 CL1  UNL     1     -17.180 -35.965 -26.849  1.00  0.00    -0.084 Cl
HETATM    9  C5  UNL     1     -17.206 -38.623 -26.272  1.00  0.00     0.026 A 
HETATM   10  C6  UNL     1     -17.325 -39.960 -26.629  1.00  0.00     0.041 A 
HETATM   11  C7  UNL     1     -17.560 -40.361 -27.940  1.00  0.00     0.105 A 
HETATM   12  O1  UNL     1     -17.709 -41.525 -28.525  1.00  0.00    -0.280 OA
ENDROOT
TORSDOF 0
ENDMDL
