MODEL 4
REMARK VINA RESULT: -5.083540163      5.266      6.446
REMARK  0 active torsions:
REMARK  status: ('A' for Active; 'I' for Inactive)
ROOT
HETATM    1  N1  UNL     1     -13.739 -30.753 -23.815  1.00  0.00    -0.056 NA
HETATM    2  C1  UNL     1     -14.124 -32.105 -24.135  1.00  0.00     0.237 A 
HETATM    3  N2  UNL     1     -14.840 -32.497 -25.202  1.00  0.00    -0.322 N 
ATOM      4  H2  UNL     1     -15.201 -31.872 -25.924  1.00  0.00     0.169 HD
HETATM    5  C2  UNL     1     -15.012 -33.830 -25.183  1.00  0.00     0.070 A 
HETATM    6  C3  UNL     1     -15.647 -34.766 -25.997  1.00  0.00     0.056 A 
HETATM    7  C4  UNL     1     -15.641 -36.108 -25.692  1.00  0.00     0.036 A 
HETATM    8 CL1  UNL     1     -16.450 -37.246 -26.742  1.00  0.00    -0.084 Cl
HETATM    9  C5  UNL     1     -14.995 -36.542 -24.554  1.00  0.00     0.026 A 
HETATM   10  C6  UNL     1     -14.364 -35.609 -23.742  1.00  0.00     0.041 A 
HETATM   11  C7  UNL     1     -14.360 -34.249 -24.038  1.00  0.00     0.105 A 
HETATM   12  O1  UNL     1     -13.852 -33.190 -23.455  1.00  0.00    -0.280 OA
ENDROOT
TORSDOF 0
ENDMDL
