MODEL 1
REMARK VINA RESULT: -8.868193965      0.000      0.000
REMARK  9 active torsions:
REMARK  status: ('A' for Active; 'I' for Inactive)
REMARK    1  A    between atoms: C4_11  and  C5_12 
REMARK    2  A    between atoms: C5_12  and  N4_13 
REMARK    3  A    between atoms: N4_13  and  C6_15 
REMARK    4  A    between atoms: C9_18  and  C10_19 
REMARK       I    between atoms: C10_19  and  N5_21 
REMARK    5  A    between atoms: N5_21  and  C11_23 
REMARK    6  A    between atoms: C11_23  and  C12_24 
REMARK    7  A    between atoms: C11_23  and  C15_29 
REMARK    8  A    between atoms: C12_24  and  C13_25 
REMARK    9  A    between atoms: C13_25  and  C14_26 
ROOT
HETATM    1  N4  UNL     1      21.706  14.736  42.587  1.00  0.00    -0.388 N 
ATOM      2  H4  UNL     1      21.403  14.614  41.620  1.00  0.00     0.159 HD
ENDROOT
BRANCH   1   3
HETATM    3  C5  UNL     1      22.399  13.657  43.199  1.00  0.00     0.154 C 
BRANCH   3   4
HETATM    4  C4  UNL     1      23.819  13.462  42.820  1.00  0.00     0.222 C 
HETATM    5  N3  UNL     1      24.032  12.123  42.223  1.00  0.00    -0.048 N 
HETATM    6  C3  UNL     1      25.167  12.337  41.332  1.00  0.00     0.344 C 
ATOM      7  H32 UNL     1      23.208  11.721  41.773  1.00  0.00     0.279 HD
ATOM      8  H31 UNL     1      24.158  11.370  42.899  1.00  0.00     0.279 HD
HETATM    9  C2  UNL     1      25.413  11.283  40.376  1.00  0.00     0.262 C 
HETATM   10  C19 UNL     1      26.328  12.570  42.204  1.00  0.00     0.120 C 
HETATM   11  N2  UNL     1      26.697  10.727  40.194  1.00  0.00    -0.299 N 
HETATM   12  O1  UNL     1      24.476  10.792  39.636  1.00  0.00    -0.270 OA
HETATM   13  C1  UNL     1      27.682  11.027  40.968  1.00  0.00     0.196 C 
ATOM     14  H2  UNL     1      26.849  10.069  39.429  1.00  0.00     0.171 HD
HETATM   15  N1  UNL     1      28.983  10.449  40.771  1.00  0.00    -0.063 NA
HETATM   16  N7  UNL     1      27.431  11.979  41.985  1.00  0.00    -0.318 N 
ATOM     17  H7  UNL     1      28.211  12.213  42.601  1.00  0.00     0.169 HD
HETATM   18  N6  UNL     1      26.159  13.521  43.267  1.00  0.00    -0.375 N 
HETATM   19  C18 UNL     1      24.849  13.611  43.877  1.00  0.00     0.155 C 
ATOM     20  H6  UNL     1      26.930  14.110  43.579  1.00  0.00     0.160 HD
ENDBRANCH   3   4
ENDBRANCH   1   3
BRANCH   1  21
HETATM   21  C6  UNL     1      21.398  15.986  43.230  1.00  0.00     0.028 A 
HETATM   22  C7  UNL     1      20.222  16.166  43.922  1.00  0.00     0.030 A 
HETATM   23  C8  UNL     1      19.980  17.383  44.525  1.00  0.00     0.019 A 
HETATM   24  C9  UNL     1      20.868  18.429  44.465  1.00  0.00     0.032 A 
HETATM   25  C16 UNL     1      22.032  18.235  43.773  1.00  0.00     0.019 A 
HETATM   26  C17 UNL     1      22.295  17.022  43.159  1.00  0.00     0.030 A 
BRANCH  24  27
HETATM   27  C10 UNL     1      20.598  19.691  45.111  1.00  0.00     0.252 C 
HETATM   28  O2  UNL     1      21.466  20.377  45.714  1.00  0.00    -0.268 OA
HETATM   29  N5  UNL     1      19.288  20.203  45.074  1.00  0.00    -0.342 N 
ATOM     30  H5  UNL     1      18.563  19.670  44.593  1.00  0.00     0.163 HD
BRANCH  29  31
HETATM   31  C11 UNL     1      18.924  21.502  45.714  1.00  0.00     0.186 C 
BRANCH  31  32
HETATM   32  C12 UNL     1      18.936  22.486  44.596  1.00  0.00     0.046 C 
BRANCH  32  33
HETATM   33  C13 UNL     1      17.656  22.573  43.851  1.00  0.00     0.116 C 
BRANCH  33  34
HETATM   34  C14 UNL     1      17.154  23.959  43.813  1.00  0.00     0.172 C 
HETATM   35  O3  UNL     1      17.370  24.776  44.757  1.00  0.00    -0.648 OA
HETATM   36  O4  UNL     1      16.427  24.390  42.706  1.00  0.00    -0.648 OA
ENDBRANCH  33  34
ENDBRANCH  32  33
ENDBRANCH  31  32
BRANCH  31  37
HETATM   37  C15 UNL     1      17.703  21.254  46.442  1.00  0.00     0.196 C 
HETATM   38  O5  UNL     1      17.107  20.159  46.391  1.00  0.00    -0.646 OA
HETATM   39  O6  UNL     1      17.142  22.238  47.246  1.00  0.00    -0.646 OA
ENDBRANCH  31  37
ENDBRANCH  29  31
ENDBRANCH  24  27
ENDBRANCH   1  21
TORSDOF 9
ENDMDL
