MODEL 2
REMARK VINA RESULT: -8.859525794      0.125      1.011
REMARK  9 active torsions:
REMARK  status: ('A' for Active; 'I' for Inactive)
REMARK    1  A    between atoms: C4_11  and  C5_12 
REMARK    2  A    between atoms: C5_12  and  N4_13 
REMARK    3  A    between atoms: N4_13  and  C6_15 
REMARK    4  A    between atoms: C9_18  and  C10_19 
REMARK       I    between atoms: C10_19  and  N5_21 
REMARK    5  A    between atoms: N5_21  and  C11_23 
REMARK    6  A    between atoms: C11_23  and  C12_24 
REMARK    7  A    between atoms: C11_23  and  C15_29 
REMARK    8  A    between atoms: C12_24  and  C13_25 
REMARK    9  A    between atoms: C13_25  and  C14_26 
ROOT
HETATM    1  N4  UNL     1      21.813  14.843  42.517  1.00  0.00    -0.388 N 
ATOM      2  H4  UNL     1      21.506  14.737  41.550  1.00  0.00     0.159 HD
ENDROOT
BRANCH   1   3
HETATM    3  C5  UNL     1      22.466  13.736  43.124  1.00  0.00     0.154 C 
BRANCH   3   4
HETATM    4  C4  UNL     1      23.888  13.511  42.771  1.00  0.00     0.222 C 
HETATM    5  N3  UNL     1      24.083  12.167  42.178  1.00  0.00    -0.048 N 
HETATM    6  C3  UNL     1      25.238  12.357  41.307  1.00  0.00     0.344 C 
ATOM      7  H32 UNL     1      23.260  11.782  41.714  1.00  0.00     0.279 HD
ATOM      8  H31 UNL     1      24.181  11.413  42.857  1.00  0.00     0.279 HD
HETATM    9  C2  UNL     1      25.479  11.297  40.356  1.00  0.00     0.262 C 
HETATM   10  C19 UNL     1      26.388  12.566  42.200  1.00  0.00     0.120 C 
HETATM   11  N2  UNL     1      26.754  10.714  40.198  1.00  0.00    -0.299 N 
HETATM   12  O1  UNL     1      24.546  10.825  39.600  1.00  0.00    -0.270 OA
HETATM   13  C1  UNL     1      27.731  10.994  40.989  1.00  0.00     0.196 C 
ATOM     14  H2  UNL     1      26.906  10.052  39.436  1.00  0.00     0.171 HD
HETATM   15  N1  UNL     1      29.024  10.388  40.816  1.00  0.00    -0.063 NA
HETATM   16  N7  UNL     1      27.483  11.951  42.000  1.00  0.00    -0.318 N 
ATOM     17  H7  UNL     1      28.256  12.169  42.630  1.00  0.00     0.169 HD
HETATM   18  N6  UNL     1      26.220  13.522  43.259  1.00  0.00    -0.375 N 
HETATM   19  C18 UNL     1      24.902  13.639  43.846  1.00  0.00     0.155 C 
ATOM     20  H6  UNL     1      26.998  14.094  43.585  1.00  0.00     0.160 HD
ENDBRANCH   3   4
ENDBRANCH   1   3
BRANCH   1  21
HETATM   21  C6  UNL     1      21.553  16.101  43.166  1.00  0.00     0.028 A 
HETATM   22  C7  UNL     1      22.457  17.137  43.108  1.00  0.00     0.030 A 
HETATM   23  C8  UNL     1      22.155  18.325  43.741  1.00  0.00     0.019 A 
HETATM   24  C9  UNL     1      20.984  18.519  44.431  1.00  0.00     0.032 A 
HETATM   25  C16 UNL     1      20.095  17.480  44.481  1.00  0.00     0.019 A 
HETATM   26  C17 UNL     1      20.379  16.278  43.852  1.00  0.00     0.030 A 
BRANCH  24  27
HETATM   27  C10 UNL     1      20.685  19.773  45.080  1.00  0.00     0.252 C 
HETATM   28  O2  UNL     1      21.535  20.472  45.694  1.00  0.00    -0.268 OA
HETATM   29  N5  UNL     1      19.367  20.262  45.032  1.00  0.00    -0.342 N 
ATOM     30  H5  UNL     1      18.656  19.718  44.542  1.00  0.00     0.163 HD
BRANCH  29  31
HETATM   31  C11 UNL     1      18.973  21.551  45.674  1.00  0.00     0.186 C 
BRANCH  31  32
HETATM   32  C12 UNL     1      18.946  22.533  44.555  1.00  0.00     0.046 C 
BRANCH  32  33
HETATM   33  C13 UNL     1      17.658  22.581  43.820  1.00  0.00     0.116 C 
BRANCH  33  34
HETATM   34  C14 UNL     1      17.106  23.949  43.800  1.00  0.00     0.172 C 
HETATM   35  O3  UNL     1      17.259  24.747  44.771  1.00  0.00    -0.648 OA
HETATM   36  O4  UNL     1      16.402  24.382  42.678  1.00  0.00    -0.648 OA
ENDBRANCH  33  34
ENDBRANCH  32  33
ENDBRANCH  31  32
BRANCH  31  37
HETATM   37  C15 UNL     1      17.767  21.271  46.415  1.00  0.00     0.196 C 
HETATM   38  O5  UNL     1      17.323  22.049  47.284  1.00  0.00    -0.646 OA
HETATM   39  O6  UNL     1      17.039  20.112  46.178  1.00  0.00    -0.646 OA
ENDBRANCH  31  37
ENDBRANCH  29  31
ENDBRANCH  24  27
ENDBRANCH   1  21
TORSDOF 9
ENDMDL
