MODEL 6
REMARK VINA RESULT: -8.673313383      1.452      2.571
REMARK  9 active torsions:
REMARK  status: ('A' for Active; 'I' for Inactive)
REMARK    1  A    between atoms: C4_11  and  C5_12 
REMARK    2  A    between atoms: C5_12  and  N4_13 
REMARK    3  A    between atoms: N4_13  and  C6_15 
REMARK    4  A    between atoms: C9_18  and  C10_19 
REMARK       I    between atoms: C10_19  and  N5_21 
REMARK    5  A    between atoms: N5_21  and  C11_23 
REMARK    6  A    between atoms: C11_23  and  C12_24 
REMARK    7  A    between atoms: C11_23  and  C15_29 
REMARK    8  A    between atoms: C12_24  and  C13_25 
REMARK    9  A    between atoms: C13_25  and  C14_26 
ROOT
HETATM    1  N4  UNL     1      21.803  14.765  42.464  1.00  0.00    -0.388 N 
ATOM      2  H4  UNL     1      21.319  14.566  41.588  1.00  0.00     0.159 HD
ENDROOT
BRANCH   1   3
HETATM    3  C5  UNL     1      22.464  13.686  43.109  1.00  0.00     0.154 C 
BRANCH   3   4
HETATM    4  C4  UNL     1      23.889  13.462  42.767  1.00  0.00     0.222 C 
HETATM    5  N3  UNL     1      24.090  12.120  42.172  1.00  0.00    -0.048 N 
HETATM    6  C3  UNL     1      25.252  12.312  41.312  1.00  0.00     0.344 C 
ATOM      7  H32 UNL     1      23.270  11.736  41.701  1.00  0.00     0.279 HD
ATOM      8  H31 UNL     1      24.183  11.364  42.850  1.00  0.00     0.279 HD
HETATM    9  C2  UNL     1      25.501  11.255  40.360  1.00  0.00     0.262 C 
HETATM   10  C19 UNL     1      26.394  12.519  42.214  1.00  0.00     0.120 C 
HETATM   11  N2  UNL     1      26.777  10.672  40.211  1.00  0.00    -0.299 N 
HETATM   12  O1  UNL     1      24.574  10.785  39.595  1.00  0.00    -0.270 OA
HETATM   13  C1  UNL     1      27.748  10.951  41.011  1.00  0.00     0.196 C 
ATOM     14  H2  UNL     1      26.936  10.013  39.448  1.00  0.00     0.171 HD
HETATM   15  N1  UNL     1      29.042  10.346  40.846  1.00  0.00    -0.063 NA
HETATM   16  N7  UNL     1      27.491  11.905  42.022  1.00  0.00    -0.318 N 
ATOM     17  H7  UNL     1      28.258  12.122  42.659  1.00  0.00     0.169 HD
HETATM   18  N6  UNL     1      26.217  13.472  43.275  1.00  0.00    -0.375 N 
HETATM   19  C18 UNL     1      24.894  13.588  43.851  1.00  0.00     0.155 C 
ATOM     20  H6  UNL     1      26.993  14.044  43.608  1.00  0.00     0.160 HD
ENDBRANCH   3   4
ENDBRANCH   1   3
BRANCH   1  21
HETATM   21  C6  UNL     1      21.765  16.118  42.954  1.00  0.00     0.028 A 
HETATM   22  C7  UNL     1      22.731  17.034  42.606  1.00  0.00     0.030 A 
HETATM   23  C8  UNL     1      22.643  18.319  43.099  1.00  0.00     0.019 A 
HETATM   24  C9  UNL     1      21.625  18.727  43.927  1.00  0.00     0.032 A 
HETATM   25  C16 UNL     1      20.673  17.805  44.264  1.00  0.00     0.019 A 
HETATM   26  C17 UNL     1      20.742  16.509  43.781  1.00  0.00     0.030 A 
BRANCH  24  27
HETATM   27  C10 UNL     1      21.548  20.080  44.424  1.00  0.00     0.252 C 
HETATM   28  O2  UNL     1      21.527  21.103  43.688  1.00  0.00    -0.268 OA
HETATM   29  N5  UNL     1      21.490  20.287  45.814  1.00  0.00    -0.342 N 
ATOM     30  H5  UNL     1      21.506  19.478  46.434  1.00  0.00     0.163 HD
BRANCH  29  31
HETATM   31  C11 UNL     1      21.407  21.653  46.411  1.00  0.00     0.186 C 
BRANCH  31  32
HETATM   32  C12 UNL     1      20.127  21.650  47.172  1.00  0.00     0.046 C 
BRANCH  32  33
HETATM   33  C13 UNL     1      19.038  22.429  46.530  1.00  0.00     0.116 C 
BRANCH  33  34
HETATM   34  C14 UNL     1      18.267  21.592  45.591  1.00  0.00     0.172 C 
HETATM   35  O3  UNL     1      18.264  20.328  45.667  1.00  0.00    -0.648 OA
HETATM   36  O4  UNL     1      17.514  22.207  44.594  1.00  0.00    -0.648 OA
ENDBRANCH  33  34
ENDBRANCH  32  33
ENDBRANCH  31  32
BRANCH  31  37
HETATM   37  C15 UNL     1      22.656  21.858  47.104  1.00  0.00     0.196 C 
HETATM   38  O5  UNL     1      22.745  21.800  48.348  1.00  0.00    -0.646 OA
HETATM   39  O6  UNL     1      23.824  22.125  46.402  1.00  0.00    -0.646 OA
ENDBRANCH  31  37
ENDBRANCH  29  31
ENDBRANCH  24  27
ENDBRANCH   1  21
TORSDOF 9
ENDMDL
