MODEL 17
REMARK VINA RESULT: -8.265772001      5.655      7.047
REMARK  9 active torsions:
REMARK  status: ('A' for Active; 'I' for Inactive)
REMARK    1  A    between atoms: C4_11  and  C5_12 
REMARK    2  A    between atoms: C5_12  and  N4_13 
REMARK    3  A    between atoms: N4_13  and  C6_15 
REMARK    4  A    between atoms: C9_18  and  C10_19 
REMARK       I    between atoms: C10_19  and  N5_21 
REMARK    5  A    between atoms: N5_21  and  C11_23 
REMARK    6  A    between atoms: C11_23  and  C12_24 
REMARK    7  A    between atoms: C11_23  and  C15_29 
REMARK    8  A    between atoms: C12_24  and  C13_25 
REMARK    9  A    between atoms: C13_25  and  C14_26 
ROOT
HETATM    1  N4  UNL     1      23.529  14.962  42.723  1.00  0.00    -0.388 N 
ATOM      2  H4  UNL     1      23.482  15.508  43.583  1.00  0.00     0.159 HD
ENDROOT
BRANCH   1   3
HETATM    3  C5  UNL     1      23.765  13.566  42.843  1.00  0.00     0.154 C 
BRANCH   3   4
HETATM    4  C4  UNL     1      25.048  13.048  42.313  1.00  0.00     0.222 C 
HETATM    5  N3  UNL     1      24.912  11.640  41.870  1.00  0.00    -0.048 N 
HETATM    6  C3  UNL     1      25.918  11.526  40.821  1.00  0.00     0.344 C 
ATOM      7  H32 UNL     1      23.969  11.372  41.587  1.00  0.00     0.279 HD
ATOM      8  H31 UNL     1      24.995  10.949  42.616  1.00  0.00     0.279 HD
HETATM    9  C2  UNL     1      25.813  10.353  39.985  1.00  0.00     0.262 C 
HETATM   10  C19 UNL     1      27.221  11.603  41.499  1.00  0.00     0.120 C 
HETATM   11  N2  UNL     1      26.927   9.530  39.713  1.00  0.00    -0.299 N 
HETATM   12  O1  UNL     1      24.700   9.992  39.442  1.00  0.00    -0.270 OA
HETATM   13  C1  UNL     1      28.057   9.699  40.309  1.00  0.00     0.196 C 
ATOM     14  H2  UNL     1      26.835   8.781  39.026  1.00  0.00     0.171 HD
HETATM   15  N1  UNL     1      29.181   8.850  40.022  1.00  0.00    -0.063 NA
HETATM   16  N7  UNL     1      28.147  10.779  41.218  1.00  0.00    -0.318 N 
ATOM     17  H7  UNL     1      29.041  10.910  41.693  1.00  0.00     0.169 HD
HETATM   18  N6  UNL     1      27.397  12.671  42.444  1.00  0.00    -0.375 N 
HETATM   19  C18 UNL     1      26.236  13.088  43.200  1.00  0.00     0.155 C 
ATOM     20  H6  UNL     1      28.304  13.117  42.576  1.00  0.00     0.160 HD
ENDBRANCH   3   4
ENDBRANCH   1   3
BRANCH   1  21
HETATM   21  C6  UNL     1      23.351  15.662  41.478  1.00  0.00     0.028 A 
HETATM   22  C7  UNL     1      22.395  15.275  40.567  1.00  0.00     0.030 A 
HETATM   23  C8  UNL     1      22.263  15.985  39.392  1.00  0.00     0.019 A 
HETATM   24  C9  UNL     1      23.049  17.069  39.090  1.00  0.00     0.032 A 
HETATM   25  C16 UNL     1      23.996  17.443  40.004  1.00  0.00     0.019 A 
HETATM   26  C17 UNL     1      24.146  16.743  41.191  1.00  0.00     0.030 A 
BRANCH  24  27
HETATM   27  C10 UNL     1      22.887  17.803  37.858  1.00  0.00     0.252 C 
HETATM   28  O2  UNL     1      21.792  17.926  37.246  1.00  0.00    -0.268 OA
HETATM   29  N5  UNL     1      24.012  18.429  37.291  1.00  0.00    -0.342 N 
ATOM     30  H5  UNL     1      24.913  18.347  37.763  1.00  0.00     0.163 HD
BRANCH  29  31
HETATM   31  C11 UNL     1      23.932  19.209  36.020  1.00  0.00     0.186 C 
BRANCH  31  32
HETATM   32  C12 UNL     1      24.657  20.477  36.314  1.00  0.00     0.046 C 
BRANCH  32  33
HETATM   33  C13 UNL     1      23.840  21.492  37.025  1.00  0.00     0.116 C 
BRANCH  33  34
HETATM   34  C14 UNL     1      24.388  21.773  38.365  1.00  0.00     0.172 C 
HETATM   35  O3  UNL     1      25.010  22.845  38.623  1.00  0.00    -0.648 OA
HETATM   36  O4  UNL     1      24.212  20.837  39.381  1.00  0.00    -0.648 OA
ENDBRANCH  33  34
ENDBRANCH  32  33
ENDBRANCH  31  32
BRANCH  31  37
HETATM   37  C15 UNL     1      24.414  18.328  34.984  1.00  0.00     0.196 C 
HETATM   38  O5  UNL     1      25.611  17.982  34.907  1.00  0.00    -0.646 OA
HETATM   39  O6  UNL     1      23.549  17.818  34.025  1.00  0.00    -0.646 OA
ENDBRANCH  31  37
ENDBRANCH  29  31
ENDBRANCH  24  27
ENDBRANCH   1  21
TORSDOF 9
ENDMDL
