MODEL 5
REMARK VINA RESULT: -8.025376361      3.462      7.616
REMARK  12 active torsions:
REMARK  status: ('A' for Active; 'I' for Inactive)
REMARK    1  A    between atoms: N5_13  and  C6_14 
REMARK    2  A    between atoms: C7_16  and  C8_17 
REMARK    3  A    between atoms: C8_17  and  O2_18 
REMARK    4  A    between atoms: O2_18  and  P1_19 
REMARK    5  A    between atoms: C9_23  and  O6_24 
REMARK    6  A    between atoms: C10_26  and  O7_27 
REMARK    7  A    between atoms: O7_27  and  C11_28 
REMARK    8  A    between atoms: C12_30  and  C13_31 
REMARK    9  A    between atoms: C13_31  and  O9_32 
REMARK   10  A    between atoms: O9_32  and  P2_33 
REMARK   11  A    between atoms: C14_37  and  O13_38 
REMARK   12  A    between atoms: C15_40  and  O14_41 
ROOT
HETATM    1  C6  UNL     1      58.083  12.175  29.488  1.00  0.00     0.262 C 
HETATM    2  O1  UNL     1      59.470  12.249  29.615  1.00  0.00    -0.353 OA
HETATM    3  C7  UNL     1      59.647  13.444  30.306  1.00  0.00     0.180 C 
HETATM    4  C9  UNL     1      58.641  13.374  31.446  1.00  0.00     0.182 C 
HETATM    5  C10 UNL     1      57.544  12.489  30.846  1.00  0.00     0.205 C 
ENDROOT
BRANCH   5   6
HETATM    6  O7  UNL     1      56.368  13.216  30.849  1.00  0.00    -0.346 OA
BRANCH   6   7
HETATM    7  C11 UNL     1      55.251  12.451  31.182  1.00  0.00     0.292 C 
HETATM    8  O8  UNL     1      55.557  11.391  31.999  1.00  0.00    -0.348 OA
HETATM    9  C12 UNL     1      54.711  11.363  33.068  1.00  0.00     0.180 C 
HETATM   10  C14 UNL     1      53.546  12.274  32.773  1.00  0.00     0.182 C 
HETATM   11  C15 UNL     1      54.158  13.261  31.804  1.00  0.00     0.204 C 
BRANCH   9  12
HETATM   12  C13 UNL     1      54.224   9.966  33.376  1.00  0.00     0.217 C 
BRANCH  12  13
HETATM   13  O9  UNL     1      55.065   9.074  32.779  1.00  0.00    -0.280 OA
BRANCH  13  14
HETATM   14  P2  UNL     1      54.754   7.492  33.133  1.00  0.00     0.422 P 
HETATM   15  O10 UNL     1      56.178   7.060  32.811  1.00  0.00    -0.617 OA
HETATM   16  O11 UNL     1      54.866   6.954  34.681  1.00  0.00    -0.617 OA
HETATM   17  O12 UNL     1      54.124   6.464  31.989  1.00  0.00    -0.617 OA
ENDBRANCH  13  14
ENDBRANCH  12  13
ENDBRANCH   9  12
BRANCH  10  18
HETATM   18  O13 UNL     1      53.036  12.886  33.895  1.00  0.00    -0.390 OA
ATOM     19  H13 UNL     1      52.830  13.804  33.761  1.00  0.00     0.210 HD
ENDBRANCH  10  18
BRANCH  11  20
HETATM   20  O14 UNL     1      54.638  14.352  32.527  1.00  0.00    -0.388 OA
ATOM     21  H14 UNL     1      54.117  14.541  33.298  1.00  0.00     0.210 HD
ENDBRANCH  11  20
ENDBRANCH   6   7
ENDBRANCH   5   6
BRANCH   1  22
HETATM   22  N5  UNL     1      57.688  10.886  28.982  1.00  0.00    -0.297 N 
HETATM   23  C3  UNL     1      58.362   9.743  29.176  1.00  0.00     0.142 A 
HETATM   24  N3  UNL     1      59.495   9.404  29.817  1.00  0.00    -0.336 N 
HETATM   25  C4  UNL     1      57.685   8.699  28.541  1.00  0.00     0.119 A 
HETATM   26  C2  UNL     1      59.972   8.142  29.864  1.00  0.00     0.183 A 
ATOM     27  H3  UNL     1      60.020  10.138  30.292  1.00  0.00     0.168 HD
HETATM   28  N2  UNL     1      59.320   7.155  29.257  1.00  0.00    -0.339 N 
HETATM   29  C1  UNL     1      58.168   7.411  28.586  1.00  0.00     0.148 A 
ATOM     30  H2  UNL     1      59.686   6.204  29.296  1.00  0.00     0.167 HD
HETATM   31  N1  UNL     1      57.465   6.350  27.934  1.00  0.00    -0.080 NA
HETATM   32  N4  UNL     1      56.605   9.252  27.976  1.00  0.00    -0.346 N 
HETATM   33  C5  UNL     1      56.610  10.570  28.242  1.00  0.00     0.188 A 
ATOM     34  H4  UNL     1      55.897   8.757  27.433  1.00  0.00     0.167 HD
ENDBRANCH   1  22
BRANCH   4  35
HETATM   35  O6  UNL     1      58.160  14.639  31.736  1.00  0.00    -0.390 OA
ATOM     36  H6  UNL     1      57.267  14.729  31.424  1.00  0.00     0.210 HD
ENDBRANCH   4  35
BRANCH   3  37
HETATM   37  C8  UNL     1      61.027  13.497  30.930  1.00  0.00     0.217 C 
BRANCH  37  38
HETATM   38  O2  UNL     1      60.889  13.163  32.249  1.00  0.00    -0.280 OA
BRANCH  38  39
HETATM   39  P1  UNL     1      62.093  12.125  32.655  1.00  0.00     0.422 P 
HETATM   40  O3  UNL     1      62.633  13.138  33.667  1.00  0.00    -0.617 OA
HETATM   41  O4  UNL     1      61.884  11.060  33.939  1.00  0.00    -0.617 OA
HETATM   42  O5  UNL     1      61.488  11.058  31.742  1.00  0.00    -0.617 OA
ENDBRANCH  38  39
ENDBRANCH  37  38
ENDBRANCH   3  37
TORSDOF 12
ENDMDL
