MODEL 10
REMARK VINA RESULT: -7.642903425      4.474      8.660
REMARK  12 active torsions:
REMARK  status: ('A' for Active; 'I' for Inactive)
REMARK    1  A    between atoms: N5_13  and  C6_14 
REMARK    2  A    between atoms: C7_16  and  C8_17 
REMARK    3  A    between atoms: C8_17  and  O2_18 
REMARK    4  A    between atoms: O2_18  and  P1_19 
REMARK    5  A    between atoms: C9_23  and  O6_24 
REMARK    6  A    between atoms: C10_26  and  O7_27 
REMARK    7  A    between atoms: O7_27  and  C11_28 
REMARK    8  A    between atoms: C12_30  and  C13_31 
REMARK    9  A    between atoms: C13_31  and  O9_32 
REMARK   10  A    between atoms: O9_32  and  P2_33 
REMARK   11  A    between atoms: C14_37  and  O13_38 
REMARK   12  A    between atoms: C15_40  and  O14_41 
ROOT
HETATM    1  C6  UNL     1      60.938  14.028  30.124  1.00  0.00     0.262 C 
HETATM    2  O1  UNL     1      62.315  14.024  29.901  1.00  0.00    -0.353 OA
HETATM    3  C7  UNL     1      62.829  13.966  31.192  1.00  0.00     0.180 C 
HETATM    4  C9  UNL     1      62.024  12.868  31.872  1.00  0.00     0.182 C 
HETATM    5  C10 UNL     1      60.694  12.938  31.115  1.00  0.00     0.205 C 
ENDROOT
BRANCH   5   6
HETATM    6  O7  UNL     1      59.698  13.204  32.037  1.00  0.00    -0.346 OA
BRANCH   6   7
HETATM    7  C11 UNL     1      58.419  12.918  31.560  1.00  0.00     0.292 C 
HETATM    8  O8  UNL     1      57.739  12.032  32.358  1.00  0.00    -0.348 OA
HETATM    9  C12 UNL     1      56.494  12.511  32.638  1.00  0.00     0.180 C 
HETATM   10  C14 UNL     1      56.199  13.644  31.687  1.00  0.00     0.182 C 
HETATM   11  C15 UNL     1      57.588  14.146  31.357  1.00  0.00     0.204 C 
BRANCH   9  12
HETATM   12  C13 UNL     1      55.431  11.442  32.530  1.00  0.00     0.217 C 
BRANCH  12  13
HETATM   13  O9  UNL     1      54.853  11.282  33.755  1.00  0.00    -0.280 OA
BRANCH  13  14
HETATM   14  P2  UNL     1      53.366  11.982  33.910  1.00  0.00     0.422 P 
HETATM   15  O10 UNL     1      53.514  12.143  35.416  1.00  0.00    -0.617 OA
HETATM   16  O11 UNL     1      53.186  13.600  33.684  1.00  0.00    -0.617 OA
HETATM   17  O12 UNL     1      51.996  11.058  34.088  1.00  0.00    -0.617 OA
ENDBRANCH  13  14
ENDBRANCH  12  13
ENDBRANCH   9  12
BRANCH  10  18
HETATM   18  O13 UNL     1      55.404  14.624  32.237  1.00  0.00    -0.390 OA
ATOM     19  H13 UNL     1      55.022  15.205  31.590  1.00  0.00     0.210 HD
ENDBRANCH  10  18
BRANCH  11  20
HETATM   20  O14 UNL     1      57.912  15.170  32.246  1.00  0.00    -0.388 OA
ATOM     21  H14 UNL     1      57.563  15.026  33.117  1.00  0.00     0.210 HD
ENDBRANCH  11  20
ENDBRANCH   6   7
ENDBRANCH   5   6
BRANCH   1  22
HETATM   22  N5  UNL     1      60.223  13.868  28.884  1.00  0.00    -0.297 N 
HETATM   23  C3  UNL     1      59.815  14.872  28.095  1.00  0.00     0.142 A 
HETATM   24  N3  UNL     1      59.897  16.215  28.144  1.00  0.00    -0.336 N 
HETATM   25  C4  UNL     1      59.158  14.343  26.981  1.00  0.00     0.119 A 
HETATM   26  C2  UNL     1      59.388  17.025  27.192  1.00  0.00     0.183 A 
ATOM     27  H3  UNL     1      60.368  16.642  28.942  1.00  0.00     0.168 HD
HETATM   28  N2  UNL     1      58.765  16.511  26.136  1.00  0.00    -0.339 N 
HETATM   29  C1  UNL     1      58.638  15.165  26.008  1.00  0.00     0.148 A 
ATOM     30  H2  UNL     1      58.383  17.129  25.420  1.00  0.00     0.167 HD
HETATM   31  N1  UNL     1      57.968  14.611  24.872  1.00  0.00    -0.080 NA
HETATM   32  N4  UNL     1      59.192  13.014  27.134  1.00  0.00    -0.346 N 
HETATM   33  C5  UNL     1      59.833  12.731  28.281  1.00  0.00     0.188 A 
ATOM     34  H4  UNL     1      58.796  12.330  26.488  1.00  0.00     0.167 HD
ENDBRANCH   1  22
BRANCH   4  35
HETATM   35  O6  UNL     1      61.852  13.163  33.213  1.00  0.00    -0.390 OA
ATOM     36  H6  UNL     1      61.366  12.467  33.642  1.00  0.00     0.210 HD
ENDBRANCH   4  35
BRANCH   3  37
HETATM   37  C8  UNL     1      64.274  13.511  31.169  1.00  0.00     0.217 C 
BRANCH  37  38
HETATM   38  O2  UNL     1      65.044  14.614  30.924  1.00  0.00    -0.280 OA
BRANCH  38  39
HETATM   39  P1  UNL     1      66.624  14.193  31.070  1.00  0.00     0.422 P 
HETATM   40  O3  UNL     1      66.935  15.557  31.692  1.00  0.00    -0.617 OA
HETATM   41  O4  UNL     1      67.177  13.495  32.496  1.00  0.00    -0.617 OA
HETATM   42  O5  UNL     1      66.301  12.785  30.570  1.00  0.00    -0.617 OA
ENDBRANCH  38  39
ENDBRANCH  37  38
ENDBRANCH   3  37
TORSDOF 12
ENDMDL
