MODEL 6
REMARK VINA RESULT: -7.857677916      3.940      6.157
REMARK  12 active torsions:
REMARK  status: ('A' for Active; 'I' for Inactive)
REMARK    1  A    between atoms: N5_13  and  C6_14 
REMARK    2  A    between atoms: C7_16  and  C8_17 
REMARK    3  A    between atoms: C8_17  and  O2_18 
REMARK    4  A    between atoms: O2_18  and  P1_19 
REMARK    5  A    between atoms: C9_23  and  O6_24 
REMARK    6  A    between atoms: C10_26  and  O7_27 
REMARK    7  A    between atoms: O7_27  and  C11_28 
REMARK    8  A    between atoms: C12_30  and  C13_31 
REMARK    9  A    between atoms: C13_31  and  O9_32 
REMARK   10  A    between atoms: O9_32  and  P2_33 
REMARK   11  A    between atoms: C14_37  and  O13_38 
REMARK   12  A    between atoms: C15_40  and  O14_41 
ROOT
HETATM    1  C6  UNL     1      54.788   7.751  30.939  1.00  0.00     0.262 C 
HETATM    2  O1  UNL     1      55.103   7.060  29.769  1.00  0.00    -0.353 OA
HETATM    3  C7  UNL     1      54.689   7.942  28.776  1.00  0.00     0.180 C 
HETATM    4  C9  UNL     1      55.254   9.288  29.206  1.00  0.00     0.182 C 
HETATM    5  C10 UNL     1      55.303   9.138  30.730  1.00  0.00     0.205 C 
ENDROOT
BRANCH   5   6
HETATM    6  O7  UNL     1      54.518  10.137  31.277  1.00  0.00    -0.346 OA
BRANCH   6   7
HETATM    7  C11 UNL     1      55.256  11.100  31.964  1.00  0.00     0.292 C 
HETATM    8  O8  UNL     1      56.584  11.100  31.618  1.00  0.00    -0.348 OA
HETATM    9  C12 UNL     1      56.993  12.367  31.325  1.00  0.00     0.180 C 
HETATM   10  C14 UNL     1      55.950  13.330  31.834  1.00  0.00     0.182 C 
HETATM   11  C15 UNL     1      54.698  12.479  31.805  1.00  0.00     0.204 C 
BRANCH   9  12
HETATM   12  C13 UNL     1      58.342  12.686  31.927  1.00  0.00     0.217 C 
BRANCH  12  13
HETATM   13  O9  UNL     1      59.213  11.693  31.586  1.00  0.00    -0.280 OA
BRANCH  13  14
HETATM   14  P2  UNL     1      60.764  11.933  32.096  1.00  0.00     0.422 P 
HETATM   15  O10 UNL     1      61.023  10.442  32.259  1.00  0.00    -0.617 OA
HETATM   16  O11 UNL     1      61.978  12.095  31.000  1.00  0.00    -0.617 OA
HETATM   17  O12 UNL     1      61.108  12.224  33.695  1.00  0.00    -0.617 OA
ENDBRANCH  13  14
ENDBRANCH  12  13
ENDBRANCH   9  12
BRANCH  10  18
HETATM   18  O13 UNL     1      55.832  14.463  31.062  1.00  0.00    -0.390 OA
ATOM     19  H13 UNL     1      54.930  14.707  30.888  1.00  0.00     0.210 HD
ENDBRANCH  10  18
BRANCH  11  20
HETATM   20  O14 UNL     1      54.063  12.667  30.578  1.00  0.00    -0.388 OA
ATOM     21  H14 UNL     1      54.033  13.579  30.315  1.00  0.00     0.210 HD
ENDBRANCH  11  20
ENDBRANCH   6   7
ENDBRANCH   5   6
BRANCH   1  22
HETATM   22  N5  UNL     1      55.344   7.084  32.088  1.00  0.00    -0.297 N 
HETATM   23  C3  UNL     1      56.506   6.415  32.102  1.00  0.00     0.142 A 
HETATM   24  N3  UNL     1      57.460   6.146  31.193  1.00  0.00    -0.336 N 
HETATM   25  C4  UNL     1      56.723   5.901  33.383  1.00  0.00     0.119 A 
HETATM   26  C2  UNL     1      58.569   5.428  31.471  1.00  0.00     0.183 A 
ATOM     27  H3  UNL     1      57.338   6.502  30.244  1.00  0.00     0.168 HD
HETATM   28  N2  UNL     1      58.766   4.943  32.692  1.00  0.00    -0.339 N 
HETATM   29  C1  UNL     1      57.852   5.169  33.671  1.00  0.00     0.148 A 
ATOM     30  H2  UNL     1      59.606   4.402  32.896  1.00  0.00     0.167 HD
HETATM   31  N1  UNL     1      58.064   4.649  34.986  1.00  0.00    -0.080 NA
HETATM   32  N4  UNL     1      55.669   6.282  34.114  1.00  0.00    -0.346 N 
HETATM   33  C5  UNL     1      54.840   6.994  33.332  1.00  0.00     0.188 A 
ATOM     34  H4  UNL     1      55.520   6.069  35.101  1.00  0.00     0.167 HD
ENDBRANCH   1  22
BRANCH   4  35
HETATM   35  O6  UNL     1      54.396  10.307  28.832  1.00  0.00    -0.390 OA
ATOM     36  H6  UNL     1      54.444  11.023  29.456  1.00  0.00     0.210 HD
ENDBRANCH   4  35
BRANCH   3  37
HETATM   37  C8  UNL     1      55.332   7.590  27.451  1.00  0.00     0.217 C 
BRANCH  37  38
HETATM   38  O2  UNL     1      56.613   8.069  27.481  1.00  0.00    -0.280 OA
BRANCH  38  39
HETATM   39  P1  UNL     1      57.648   6.811  27.274  1.00  0.00     0.422 P 
HETATM   40  O3  UNL     1      58.552   7.367  28.376  1.00  0.00    -0.617 OA
HETATM   41  O4  UNL     1      57.479   5.425  28.209  1.00  0.00    -0.617 OA
HETATM   42  O5  UNL     1      56.688   6.182  26.264  1.00  0.00    -0.617 OA
ENDBRANCH  38  39
ENDBRANCH  37  38
ENDBRANCH   3  37
TORSDOF 12
ENDMDL
