MODEL 4
REMARK VINA RESULT: -8.054593026      1.403      2.096
REMARK  12 active torsions:
REMARK  status: ('A' for Active; 'I' for Inactive)
REMARK    1  A    between atoms: N5_13  and  C6_14 
REMARK    2  A    between atoms: C7_16  and  C8_17 
REMARK    3  A    between atoms: C8_17  and  O2_18 
REMARK    4  A    between atoms: O2_18  and  P1_19 
REMARK    5  A    between atoms: C9_23  and  O6_24 
REMARK    6  A    between atoms: C10_26  and  O7_27 
REMARK    7  A    between atoms: O7_27  and  C11_28 
REMARK    8  A    between atoms: C12_30  and  C13_31 
REMARK    9  A    between atoms: C13_31  and  O9_32 
REMARK   10  A    between atoms: O9_32  and  P2_33 
REMARK   11  A    between atoms: C14_37  and  O13_38 
REMARK   12  A    between atoms: C15_40  and  O14_41 
ROOT
HETATM    1  C6  UNL     1      55.111  11.457  30.536  1.00  0.00     0.262 C 
HETATM    2  O1  UNL     1      54.857  10.179  30.038  1.00  0.00    -0.353 OA
HETATM    3  C7  UNL     1      55.627  10.148  28.880  1.00  0.00     0.180 C 
HETATM    4  C9  UNL     1      56.981  10.693  29.311  1.00  0.00     0.182 C 
HETATM    5  C10 UNL     1      56.594  11.620  30.467  1.00  0.00     0.205 C 
ENDROOT
BRANCH   5   6
HETATM    6  O7  UNL     1      57.023  12.896  30.146  1.00  0.00    -0.346 OA
BRANCH   6   7
HETATM    7  C11 UNL     1      58.215  13.249  30.776  1.00  0.00     0.292 C 
HETATM    8  O8  UNL     1      59.275  12.467  30.388  1.00  0.00    -0.348 OA
HETATM    9  C12 UNL     1      60.334  13.252  30.041  1.00  0.00     0.180 C 
HETATM   10  C14 UNL     1      60.076  14.647  30.551  1.00  0.00     0.182 C 
HETATM   11  C15 UNL     1      58.564  14.692  30.590  1.00  0.00     0.204 C 
BRANCH   9  12
HETATM   12  C13 UNL     1      61.641  12.724  30.589  1.00  0.00     0.217 C 
BRANCH  12  13
HETATM   13  O9  UNL     1      61.370  11.661  31.400  1.00  0.00    -0.280 OA
BRANCH  13  14
HETATM   14  P2  UNL     1      61.939  11.811  32.941  1.00  0.00     0.422 P 
HETATM   15  O10 UNL     1      60.588  12.261  33.479  1.00  0.00    -0.617 OA
HETATM   16  O11 UNL     1      61.978  10.504  33.939  1.00  0.00    -0.617 OA
HETATM   17  O12 UNL     1      62.673  13.210  33.455  1.00  0.00    -0.617 OA
ENDBRANCH  13  14
ENDBRANCH  12  13
ENDBRANCH   9  12
BRANCH  10  18
HETATM   18  O13 UNL     1      60.609  15.628  29.746  1.00  0.00    -0.390 OA
ATOM     19  H13 UNL     1      60.136  15.744  28.930  1.00  0.00     0.210 HD
ENDBRANCH  10  18
BRANCH  11  20
HETATM   20  O14 UNL     1      58.104  15.207  29.379  1.00  0.00    -0.388 OA
ATOM     21  H14 UNL     1      58.173  14.585  28.664  1.00  0.00     0.210 HD
ENDBRANCH  11  20
ENDBRANCH   6   7
ENDBRANCH   5   6
BRANCH   1  22
HETATM   22  N5  UNL     1      54.563  11.602  31.860  1.00  0.00    -0.297 N 
HETATM   23  C3  UNL     1      54.012  12.724  32.347  1.00  0.00     0.142 A 
HETATM   24  N3  UNL     1      53.791  13.961  31.866  1.00  0.00    -0.336 N 
HETATM   25  C4  UNL     1      53.590  12.496  33.659  1.00  0.00     0.119 A 
HETATM   26  C2  UNL     1      53.199  14.940  32.583  1.00  0.00     0.183 A 
ATOM     27  H3  UNL     1      54.086  14.169  30.912  1.00  0.00     0.168 HD
HETATM   28  N2  UNL     1      52.801  14.713  33.830  1.00  0.00    -0.339 N 
HETATM   29  C1  UNL     1      52.987  13.491  34.393  1.00  0.00     0.148 A 
ATOM     30  H2  UNL     1      52.355  15.457  34.366  1.00  0.00     0.167 HD
HETATM   31  N1  UNL     1      52.558  13.245  35.735  1.00  0.00    -0.080 NA
HETATM   32  N4  UNL     1      53.904  11.223  33.928  1.00  0.00    -0.346 N 
HETATM   33  C5  UNL     1      54.490  10.687  32.843  1.00  0.00     0.188 A 
ATOM     34  H4  UNL     1      53.727  10.739  34.809  1.00  0.00     0.167 HD
ENDBRANCH   1  22
BRANCH   4  35
HETATM   35  O6  UNL     1      57.562  11.402  28.275  1.00  0.00    -0.390 OA
ATOM     36  H6  UNL     1      57.343  12.324  28.345  1.00  0.00     0.210 HD
ENDBRANCH   4  35
BRANCH   3  37
HETATM   37  C8  UNL     1      55.845   8.720  28.424  1.00  0.00     0.217 C 
BRANCH  37  38
HETATM   38  O2  UNL     1      55.438   7.902  29.442  1.00  0.00    -0.280 OA
BRANCH  38  39
HETATM   39  P1  UNL     1      56.720   7.007  29.941  1.00  0.00     0.422 P 
HETATM   40  O3  UNL     1      56.533   7.524  31.368  1.00  0.00    -0.617 OA
HETATM   41  O4  UNL     1      56.476   5.457  30.545  1.00  0.00    -0.617 OA
HETATM   42  O5  UNL     1      56.835   6.387  28.547  1.00  0.00    -0.617 OA
ENDBRANCH  38  39
ENDBRANCH  37  38
ENDBRANCH   3  37
TORSDOF 12
ENDMDL
