MODEL 3
REMARK VINA RESULT: -8.225837014      1.270      2.017
REMARK  12 active torsions:
REMARK  status: ('A' for Active; 'I' for Inactive)
REMARK    1  A    between atoms: N5_13  and  C6_14 
REMARK    2  A    between atoms: C7_16  and  C8_17 
REMARK    3  A    between atoms: C8_17  and  O2_18 
REMARK    4  A    between atoms: O2_18  and  P1_19 
REMARK    5  A    between atoms: C9_23  and  O6_24 
REMARK    6  A    between atoms: C10_26  and  O7_27 
REMARK    7  A    between atoms: O7_27  and  C11_28 
REMARK    8  A    between atoms: C12_30  and  C13_31 
REMARK    9  A    between atoms: C13_31  and  O9_32 
REMARK   10  A    between atoms: O9_32  and  P2_33 
REMARK   11  A    between atoms: C14_37  and  O13_38 
REMARK   12  A    between atoms: C15_40  and  O14_41 
ROOT
HETATM    1  C6  UNL     1      54.256  10.959  31.248  1.00  0.00     0.262 C 
HETATM    2  O1  UNL     1      53.931   9.603  31.199  1.00  0.00    -0.353 OA
HETATM    3  C7  UNL     1      54.742   9.135  30.171  1.00  0.00     0.180 C 
HETATM    4  C9  UNL     1      56.114   9.721  30.474  1.00  0.00     0.182 C 
HETATM    5  C10 UNL     1      55.749  11.009  31.219  1.00  0.00     0.205 C 
ENDROOT
BRANCH   5   6
HETATM    6  O7  UNL     1      56.279  12.072  30.510  1.00  0.00    -0.346 OA
BRANCH   6   7
HETATM    7  C11 UNL     1      57.483  12.537  31.038  1.00  0.00     0.292 C 
HETATM    8  O8  UNL     1      58.552  12.310  30.207  1.00  0.00    -0.348 OA
HETATM    9  C12 UNL     1      59.276  13.455  30.051  1.00  0.00     0.180 C 
HETATM   10  C14 UNL     1      58.851  14.432  31.119  1.00  0.00     0.182 C 
HETATM   11  C15 UNL     1      57.433  13.986  31.406  1.00  0.00     0.204 C 
BRANCH   9  12
HETATM   12  C13 UNL     1      60.764  13.205  30.128  1.00  0.00     0.217 C 
BRANCH  12  13
HETATM   13  O9  UNL     1      61.212  13.634  31.343  1.00  0.00    -0.280 OA
BRANCH  13  14
HETATM   14  P2  UNL     1      61.789  12.440  32.324  1.00  0.00     0.422 P 
HETATM   15  O10 UNL     1      60.571  12.495  33.237  1.00  0.00    -0.617 OA
HETATM   16  O11 UNL     1      61.523  10.861  31.949  1.00  0.00    -0.617 OA
HETATM   17  O12 UNL     1      62.817  12.783  33.584  1.00  0.00    -0.617 OA
ENDBRANCH  13  14
ENDBRANCH  12  13
ENDBRANCH   9  12
BRANCH  10  18
HETATM   18  O13 UNL     1      58.916  15.745  30.713  1.00  0.00    -0.390 OA
ATOM     19  H13 UNL     1      58.414  16.334  31.264  1.00  0.00     0.210 HD
ENDBRANCH  10  18
BRANCH  11  20
HETATM   20  O14 UNL     1      56.566  14.719  30.596  1.00  0.00    -0.388 OA
ATOM     21  H14 UNL     1      57.022  15.236  29.943  1.00  0.00     0.210 HD
ENDBRANCH  11  20
ENDBRANCH   6   7
ENDBRANCH   5   6
BRANCH   1  22
HETATM   22  N5  UNL     1      53.667  11.579  32.406  1.00  0.00    -0.297 N 
HETATM   23  C3  UNL     1      53.493  12.899  32.569  1.00  0.00     0.142 A 
HETATM   24  N3  UNL     1      53.761  13.991  31.830  1.00  0.00    -0.336 N 
HETATM   25  C4  UNL     1      52.894  13.134  33.808  1.00  0.00     0.119 A 
HETATM   26  C2  UNL     1      53.478  15.248  32.235  1.00  0.00     0.183 A 
ATOM     27  H3  UNL     1      54.199  13.864  30.918  1.00  0.00     0.168 HD
HETATM   28  N2  UNL     1      52.907  15.460  33.416  1.00  0.00    -0.339 N 
HETATM   29  C1  UNL     1      52.604  14.413  34.225  1.00  0.00     0.148 A 
ATOM     30  H2  UNL     1      52.696  16.412  33.716  1.00  0.00     0.167 HD
HETATM   31  N1  UNL     1      51.990  14.640  35.496  1.00  0.00    -0.080 NA
HETATM   32  N4  UNL     1      52.721  11.929  34.365  1.00  0.00    -0.346 N 
HETATM   33  C5  UNL     1      53.187  10.995  33.519  1.00  0.00     0.188 A 
ATOM     34  H4  UNL     1      52.304  11.750  35.279  1.00  0.00     0.167 HD
ENDBRANCH   1  22
BRANCH   4  35
HETATM   35  O6  UNL     1      56.785   9.999  29.297  1.00  0.00    -0.390 OA
ATOM     36  H6  UNL     1      57.721  10.054  29.457  1.00  0.00     0.210 HD
ENDBRANCH   4  35
BRANCH   3  37
HETATM   37  C8  UNL     1      54.876   7.627  30.244  1.00  0.00     0.217 C 
BRANCH  37  38
HETATM   38  O2  UNL     1      54.804   7.276  31.564  1.00  0.00    -0.280 OA
BRANCH  38  39
HETATM   39  P1  UNL     1      56.083   6.310  31.919  1.00  0.00     0.422 P 
HETATM   40  O3  UNL     1      56.137   5.838  30.465  1.00  0.00    -0.617 OA
HETATM   41  O4  UNL     1      57.649   6.885  31.718  1.00  0.00    -0.617 OA
HETATM   42  O5  UNL     1      56.118   6.871  33.341  1.00  0.00    -0.617 OA
ENDBRANCH  38  39
ENDBRANCH  37  38
ENDBRANCH   3  37
TORSDOF 12
ENDMDL
