MODEL 1
REMARK VINA RESULT: -5.745029777      0.000      0.000
REMARK  0 active torsions:
REMARK  status: ('A' for Active; 'I' for Inactive)
ROOT
HETATM    1  C1  UNL     1      23.223  43.122 -11.320  1.00  0.00     0.025 C 
HETATM    2  C2  UNL     1      22.558  43.089  -9.948  1.00  0.00     0.112 A 
HETATM    3  C3  UNL     1      23.106  44.079  -9.042  1.00  0.00     0.079 A 
HETATM    4  N1  UNL     1      22.374  44.888  -8.378  1.00  0.00    -0.322 N 
ATOM      5  H1  UNL     1      22.852  45.550  -7.766  1.00  0.00     0.169 HD
HETATM    6  C4  UNL     1      20.962  44.950  -8.415  1.00  0.00     0.326 A 
HETATM    7  O1  UNL     1      20.279  45.769  -7.738  1.00  0.00    -0.247 OA
HETATM    8  N2  UNL     1      20.334  44.013  -9.279  1.00  0.00    -0.278 N 
ATOM      9  H2  UNL     1      19.317  43.996  -9.359  1.00  0.00     0.173 HD
HETATM   10  C5  UNL     1      21.112  43.107 -10.026  1.00  0.00     0.234 A 
HETATM   11  O2  UNL     1      20.458  42.294 -10.781  1.00  0.00    -0.272 OA
ENDROOT
TORSDOF 0
ENDMDL
