MODEL 2
REMARK VINA RESULT: -5.422044357      2.171      2.690
REMARK  0 active torsions:
REMARK  status: ('A' for Active; 'I' for Inactive)
ROOT
HETATM    1  C1  UNL     1      22.451  44.362  -8.898  1.00  0.00     0.025 C 
HETATM    2  C2  UNL     1      21.012  44.809  -8.657  1.00  0.00     0.112 A 
HETATM    3  C3  UNL     1      20.929  46.181  -8.196  1.00  0.00     0.079 A 
HETATM    4  N1  UNL     1      20.153  47.043  -8.731  1.00  0.00    -0.322 N 
ATOM      5  H1  UNL     1      20.164  47.984  -8.338  1.00  0.00     0.169 HD
HETATM    6  C4  UNL     1      19.281  46.811  -9.820  1.00  0.00     0.326 A 
HETATM    7  O1  UNL     1      18.531  47.698 -10.317  1.00  0.00    -0.247 OA
HETATM    8  N2  UNL     1      19.295  45.489 -10.341  1.00  0.00    -0.278 N 
ATOM      9  H2  UNL     1      18.693  45.245 -11.127  1.00  0.00     0.173 HD
HETATM   10  C5  UNL     1      20.139  44.514  -9.773  1.00  0.00     0.234 A 
HETATM   11  O2  UNL     1      20.085  43.344 -10.309  1.00  0.00    -0.272 OA
ENDROOT
TORSDOF 0
ENDMDL
