MODEL 16
REMARK VINA RESULT: -4.035668077      4.208      5.079
REMARK  0 active torsions:
REMARK  status: ('A' for Active; 'I' for Inactive)
ROOT
HETATM    1  C1  UNL     1      23.310  44.058  -9.596  1.00  0.00     0.025 C 
HETATM    2  C2  UNL     1      24.133  44.751 -10.677  1.00  0.00     0.112 A 
HETATM    3  C3  UNL     1      25.155  45.619 -10.124  1.00  0.00     0.079 A 
HETATM    4  N1  UNL     1      26.376  45.570 -10.494  1.00  0.00    -0.322 N 
ATOM      5  H1  UNL     1      27.022  46.220 -10.048  1.00  0.00     0.169 HD
HETATM    6  C4  UNL     1      26.914  44.696 -11.467  1.00  0.00     0.326 A 
HETATM    7  O1  UNL     1      28.132  44.684 -11.802  1.00  0.00    -0.247 OA
HETATM    8  N2  UNL     1      25.982  43.805 -12.066  1.00  0.00    -0.278 N 
ATOM      9  H2  UNL     1      26.295  43.143 -12.778  1.00  0.00     0.173 HD
HETATM   10  C5  UNL     1      24.628  43.833 -11.680  1.00  0.00     0.234 A 
HETATM   11  O2  UNL     1      23.857  42.991 -12.277  1.00  0.00    -0.272 OA
ENDROOT
TORSDOF 0
ENDMDL
