MODEL 3
REMARK VINA RESULT: -5.315025474      1.663      2.303
REMARK  0 active torsions:
REMARK  status: ('A' for Active; 'I' for Inactive)
ROOT
HETATM    1  C1  UNL     1      24.113  44.889 -10.074  1.00  0.00     0.025 C 
HETATM    2  C2  UNL     1      23.097  43.879  -9.549  1.00  0.00     0.112 A 
HETATM    3  C3  UNL     1      22.025  44.509  -8.803  1.00  0.00     0.079 A 
HETATM    4  N1  UNL     1      20.792  44.272  -9.033  1.00  0.00    -0.322 N 
ATOM      5  H1  UNL     1      20.109  44.764  -8.457  1.00  0.00     0.169 HD
HETATM    6  C4  UNL     1      20.286  43.390 -10.017  1.00  0.00     0.326 A 
HETATM    7  O1  UNL     1      19.054  43.187 -10.208  1.00  0.00    -0.247 OA
HETATM    8  N2  UNL     1      21.267  42.725 -10.800  1.00  0.00    -0.278 N 
ATOM      9  H2  UNL     1      20.980  42.072 -11.530  1.00  0.00     0.173 HD
HETATM   10  C5  UNL     1      22.637  42.964 -10.572  1.00  0.00     0.234 A 
HETATM   11  O2  UNL     1      23.453  42.316 -11.329  1.00  0.00    -0.272 OA
ENDROOT
TORSDOF 0
ENDMDL
