MODEL 3
REMARK VINA RESULT: -6.526601990      1.599      5.620
REMARK  4 active torsions:
REMARK  status: ('A' for Active; 'I' for Inactive)
REMARK    1  A    between atoms: N1_4  and  C4_5 
REMARK    2  A    between atoms: C6_7  and  O1_8 
REMARK    3  A    between atoms: C7_10  and  C8_11 
REMARK    4  A    between atoms: C8_11  and  O2_12 
ROOT
HETATM    1  C1  UNL     1      27.125  46.493 -10.142  1.00  0.00     0.056 C 
HETATM    2  C2  UNL     1      26.215  45.518 -10.801  1.00  0.00     0.022 A 
HETATM    3  C3  UNL     1      24.869  45.418 -10.478  1.00  0.00     0.110 A 
HETATM    4  N1  UNL     1      24.041  44.556 -11.054  1.00  0.00    -0.282 N 
HETATM    5  C9  UNL     1      24.538  43.737 -11.999  1.00  0.00     0.331 A 
HETATM    6  O4  UNL     1      23.809  42.896 -12.586  1.00  0.00    -0.246 OA
HETATM    7  N2  UNL     1      25.844  43.779 -12.366  1.00  0.00    -0.275 N 
ATOM      8  H2  UNL     1      26.192  43.146 -13.086  1.00  0.00     0.173 HD
HETATM    9  C10 UNL     1      26.693  44.668 -11.772  1.00  0.00     0.256 A 
HETATM   10  O5  UNL     1      27.911  44.675 -12.144  1.00  0.00    -0.267 OA
ENDROOT
BRANCH   4  11
HETATM   11  C4  UNL     1      22.665  44.466 -10.712  1.00  0.00     0.235 C 
HETATM   12  C5  UNL     1      22.213  43.099 -10.285  1.00  0.00     0.088 C 
HETATM   13  C6  UNL     1      20.993  43.435  -9.423  1.00  0.00     0.153 C 
HETATM   14  C7  UNL     1      20.972  44.927  -9.492  1.00  0.00     0.176 C 
HETATM   15  O3  UNL     1      22.340  45.234  -9.570  1.00  0.00    -0.356 OA
BRANCH  13  16
HETATM   16  O1  UNL     1      19.832  42.942  -9.995  1.00  0.00    -0.393 OA
ATOM     17  H1  UNL     1      19.819  43.107 -10.931  1.00  0.00     0.210 HD
ENDBRANCH  13  16
BRANCH  14  18
HETATM   18  C8  UNL     1      20.317  45.581  -8.307  1.00  0.00     0.198 C 
BRANCH  18  19
HETATM   19  O2  UNL     1      19.559  44.591  -7.658  1.00  0.00    -0.398 OA
ATOM     20  H2  UNL     1      20.114  43.825  -7.576  1.00  0.00     0.209 HD
ENDBRANCH  18  19
ENDBRANCH  14  18
ENDBRANCH   4  11
TORSDOF 4
ENDMDL
