MODEL 2
REMARK VINA RESULT: -6.660393062      1.575      5.821
REMARK  4 active torsions:
REMARK  status: ('A' for Active; 'I' for Inactive)
REMARK    1  A    between atoms: N1_4  and  C4_5 
REMARK    2  A    between atoms: C6_7  and  O1_8 
REMARK    3  A    between atoms: C7_10  and  C8_11 
REMARK    4  A    between atoms: C8_11  and  O2_12 
ROOT
HETATM    1  C1  UNL     1      26.503  46.940 -10.541  1.00  0.00     0.056 C 
HETATM    2  C2  UNL     1      25.649  45.776 -10.897  1.00  0.00     0.022 A 
HETATM    3  C3  UNL     1      24.461  45.492 -10.239  1.00  0.00     0.110 A 
HETATM    4  N1  UNL     1      23.685  44.459 -10.541  1.00  0.00    -0.282 N 
HETATM    5  C9  UNL     1      24.078  43.646 -11.540  1.00  0.00     0.331 A 
HETATM    6  O4  UNL     1      23.390  42.647 -11.879  1.00  0.00    -0.246 OA
HETATM    7  N2  UNL     1      25.228  43.861 -12.227  1.00  0.00    -0.275 N 
ATOM      8  H2  UNL     1      25.499  43.227 -12.978  1.00  0.00     0.173 HD
HETATM    9  C10 UNL     1      26.023  44.925 -11.913  1.00  0.00     0.256 A 
HETATM   10  O5  UNL     1      27.094  45.092 -12.581  1.00  0.00    -0.267 OA
ENDROOT
BRANCH   4  11
HETATM   11  C4  UNL     1      22.472  44.182  -9.858  1.00  0.00     0.235 C 
HETATM   12  C5  UNL     1      21.829  45.375  -9.212  1.00  0.00     0.088 C 
HETATM   13  C6  UNL     1      20.362  44.939  -9.152  1.00  0.00     0.153 C 
HETATM   14  C7  UNL     1      20.419  43.588  -9.787  1.00  0.00     0.176 C 
HETATM   15  O3  UNL     1      21.444  43.754 -10.732  1.00  0.00    -0.356 OA
BRANCH  13  16
HETATM   16  O1  UNL     1      19.941  44.800  -7.839  1.00  0.00    -0.393 OA
ATOM     17  H1  UNL     1      19.106  45.234  -7.704  1.00  0.00     0.210 HD
ENDBRANCH  13  16
BRANCH  14  18
HETATM   18  C8  UNL     1      19.128  43.164 -10.431  1.00  0.00     0.198 C 
BRANCH  18  19
HETATM   19  O2  UNL     1      18.541  44.319 -10.975  1.00  0.00    -0.398 OA
ATOM     20  H2  UNL     1      18.248  44.852 -10.245  1.00  0.00     0.209 HD
ENDBRANCH  18  19
ENDBRANCH  14  18
ENDBRANCH   4  11
TORSDOF 4
ENDMDL
