MODEL 4
REMARK VINA RESULT: -6.472991430      1.287      1.596
REMARK  4 active torsions:
REMARK  status: ('A' for Active; 'I' for Inactive)
REMARK    1  A    between atoms: N1_4  and  C4_5 
REMARK    2  A    between atoms: C6_7  and  O1_8 
REMARK    3  A    between atoms: C7_10  and  C8_11 
REMARK    4  A    between atoms: C8_11  and  O2_12 
ROOT
HETATM    1  C1  UNL     1      21.498  45.350  -8.522  1.00  0.00     0.056 C 
HETATM    2  C2  UNL     1      21.997  44.533  -9.660  1.00  0.00     0.022 A 
HETATM    3  C3  UNL     1      23.210  44.785 -10.285  1.00  0.00     0.110 A 
HETATM    4  N1  UNL     1      23.674  44.069 -11.301  1.00  0.00    -0.282 N 
HETATM    5  C9  UNL     1      22.921  43.045 -11.746  1.00  0.00     0.331 A 
HETATM    6  O4  UNL     1      23.300  42.324 -12.706  1.00  0.00    -0.246 OA
HETATM    7  N2  UNL     1      21.724  42.740 -11.184  1.00  0.00    -0.275 N 
ATOM      8  H2  UNL     1      21.177  41.958 -11.544  1.00  0.00     0.173 HD
HETATM    9  C10 UNL     1      21.252  43.479 -10.139  1.00  0.00     0.256 A 
HETATM   10  O5  UNL     1      20.124  43.161  -9.640  1.00  0.00    -0.267 OA
ENDROOT
BRANCH   4  11
HETATM   11  C4  UNL     1      24.918  44.339 -11.929  1.00  0.00     0.235 C 
HETATM   12  C5  UNL     1      25.149  45.783 -12.268  1.00  0.00     0.088 C 
HETATM   13  C6  UNL     1      26.678  45.850 -12.302  1.00  0.00     0.153 C 
HETATM   14  C7  UNL     1      27.053  44.445 -11.960  1.00  0.00     0.176 C 
HETATM   15  O3  UNL     1      26.020  44.074 -11.083  1.00  0.00    -0.356 OA
BRANCH  13  16
HETATM   16  O1  UNL     1      27.133  46.138 -13.578  1.00  0.00    -0.393 OA
ATOM     17  H1  UNL     1      27.694  46.905 -13.572  1.00  0.00     0.210 HD
ENDBRANCH  13  16
BRANCH  14  18
HETATM   18  C8  UNL     1      28.406  44.315 -11.318  1.00  0.00     0.198 C 
BRANCH  18  19
HETATM   19  O2  UNL     1      28.912  43.054 -11.678  1.00  0.00    -0.398 OA
ATOM     20  H2  UNL     1      29.593  43.202 -12.323  1.00  0.00     0.209 HD
ENDBRANCH  18  19
ENDBRANCH  14  18
ENDBRANCH   4  11
TORSDOF 4
ENDMDL
