MODEL 8
REMARK VINA RESULT: -5.450873526      2.280      3.882
REMARK  4 active torsions:
REMARK  status: ('A' for Active; 'I' for Inactive)
REMARK    1  A    between atoms: N1_4  and  C4_5 
REMARK    2  A    between atoms: C6_7  and  O1_8 
REMARK    3  A    between atoms: C7_10  and  C8_11 
REMARK    4  A    between atoms: C8_11  and  O2_12 
ROOT
HETATM    1  C1  UNL     1      23.414  44.166  -9.341  1.00  0.00     0.056 C 
HETATM    2  C2  UNL     1      24.297  44.744 -10.389  1.00  0.00     0.022 A 
HETATM    3  C3  UNL     1      24.998  45.927 -10.205  1.00  0.00     0.110 A 
HETATM    4  N1  UNL     1      25.790  46.460 -11.126  1.00  0.00    -0.282 N 
HETATM    5  C9  UNL     1      25.914  45.814 -12.301  1.00  0.00     0.331 A 
HETATM    6  O4  UNL     1      26.649  46.263 -13.220  1.00  0.00    -0.246 OA
HETATM    7  N2  UNL     1      25.258  44.653 -12.552  1.00  0.00    -0.275 N 
ATOM      8  H2  UNL     1      25.373  44.187 -13.452  1.00  0.00     0.173 HD
HETATM    9  C10 UNL     1      24.446  44.108 -11.601  1.00  0.00     0.256 A 
HETATM   10  O5  UNL     1      23.847  43.017 -11.875  1.00  0.00    -0.267 OA
ENDROOT
BRANCH   4  11
HETATM   11  C4  UNL     1      26.501  47.672 -10.923  1.00  0.00     0.235 C 
HETATM   12  C5  UNL     1      25.877  48.607  -9.928  1.00  0.00     0.088 C 
HETATM   13  C6  UNL     1      27.090  49.420  -9.467  1.00  0.00     0.153 C 
HETATM   14  C7  UNL     1      28.193  48.799 -10.260  1.00  0.00     0.176 C 
HETATM   15  O3  UNL     1      27.774  47.461 -10.343  1.00  0.00    -0.356 OA
BRANCH  13  16
HETATM   16  O1  UNL     1      26.964  50.749  -9.836  1.00  0.00    -0.393 OA
ATOM     17  H1  UNL     1      27.107  51.322  -9.092  1.00  0.00     0.210 HD
ENDBRANCH  13  16
BRANCH  14  18
HETATM   18  C8  UNL     1      29.548  48.923  -9.619  1.00  0.00     0.198 C 
BRANCH  18  19
HETATM   19  O2  UNL     1      29.696  50.266  -9.231  1.00  0.00    -0.398 OA
ATOM     20  H2  UNL     1      29.482  50.313  -8.307  1.00  0.00     0.209 HD
ENDBRANCH  18  19
ENDBRANCH  14  18
ENDBRANCH   4  11
TORSDOF 4
ENDMDL
