MODEL 5
REMARK VINA RESULT: -7.648265857      3.515      7.108
REMARK  9 active torsions:
REMARK  status: ('A' for Active; 'I' for Inactive)
REMARK    1  A    between atoms: N1_1  and  S1_4 
REMARK    2  A    between atoms: S1_4  and  C1_7 
REMARK    3  A    between atoms: C4_12  and  S2_13 
REMARK    4  A    between atoms: S2_13  and  C5_16 
REMARK    5  A    between atoms: C5_16  and  C6_17 
REMARK    6  A    between atoms: C6_17  and  O5_18 
REMARK    7  A    between atoms: C7_20  and  N2_21 
REMARK    8  A    between atoms: N2_21  and  C8_23 
REMARK    9  A    between atoms: C8_23  and  C9_24 
ROOT
HETATM    1  C1  UNL     1      -0.800   3.866  11.502  1.00  0.00     0.161 A 
HETATM    2  C2  UNL     1      -0.658   2.722  10.756  1.00  0.00     0.182 A 
HETATM    3  F1  UNL     1       0.424   2.545   9.937  1.00  0.00    -0.201 F 
HETATM    4  C3  UNL     1      -1.639   1.770  10.868  1.00  0.00     0.180 A 
HETATM    5  F2  UNL     1      -1.513   0.627  10.134  1.00  0.00    -0.201 F 
HETATM    6  C4  UNL     1      -2.757   1.903  11.687  1.00  0.00     0.130 A 
HETATM    7  C7  UNL     1      -2.890   3.049  12.426  1.00  0.00     0.094 A 
HETATM    8  C15 UNL     1      -1.892   4.029  12.319  1.00  0.00     0.170 A 
HETATM    9  F3  UNL     1      -1.992   5.171  13.036  1.00  0.00    -0.202 F 
ENDROOT
BRANCH   7  10
HETATM   10  N2  UNL     1      -4.003   3.306  13.277  1.00  0.00    -0.382 N 
ATOM     11  H2  UNL     1      -4.946   3.315  12.889  1.00  0.00     0.160 HD
BRANCH  10  12
HETATM   12  C8  UNL     1      -3.808   3.550  14.670  1.00  0.00     0.158 C 
BRANCH  12  13
HETATM   13  C9  UNL     1      -4.722   2.740  15.530  1.00  0.00    -0.041 A 
HETATM   14  C10 UNL     1      -6.010   3.142  15.816  1.00  0.00     0.009 A 
HETATM   15  C11 UNL     1      -6.861   2.392  16.613  1.00  0.00     0.001 A 
HETATM   16  C12 UNL     1      -6.441   1.197  17.157  1.00  0.00     0.000 A 
HETATM   17  C13 UNL     1      -5.155   0.784  16.877  1.00  0.00     0.001 A 
HETATM   18  C14 UNL     1      -4.316   1.538  16.083  1.00  0.00     0.009 A 
ENDBRANCH  12  13
ENDBRANCH  10  12
ENDBRANCH   7  10
BRANCH   6  19
HETATM   19  S2  UNL     1      -3.909   0.601  11.751  1.00  0.00     0.182 S 
HETATM   20  O3  UNL     1      -5.189   1.047  11.051  1.00  0.00    -0.222 OA
HETATM   21  O4  UNL     1      -4.178   0.080  13.104  1.00  0.00    -0.222 OA
BRANCH  19  22
HETATM   22  C5  UNL     1      -3.300  -0.749  10.725  1.00  0.00     0.172 C 
BRANCH  22  23
HETATM   23  C6  UNL     1      -3.341  -2.014  11.561  1.00  0.00     0.179 C 
BRANCH  23  24
HETATM   24  O5  UNL     1      -2.201  -2.750  11.251  1.00  0.00    -0.400 OA
ATOM     25  H5  UNL     1      -2.491  -3.579  10.889  1.00  0.00     0.209 HD
ENDBRANCH  23  24
ENDBRANCH  22  23
ENDBRANCH  19  22
ENDBRANCH   6  19
BRANCH   1  26
HETATM   26  S1  UNL     1       0.452   5.102  11.372  1.00  0.00     0.263 S 
HETATM   27  O1  UNL     1       0.090   6.200  12.319  1.00  0.00    -0.201 OA
HETATM   28  O2  UNL     1       0.366   5.658   9.975  1.00  0.00    -0.201 OA
BRANCH  26  29
HETATM   29  N1  UNL     1       1.999   4.474  11.730  1.00  0.00    -0.324 N 
ATOM     30  H12 UNL     1       2.722   4.997  12.226  1.00  0.00     0.169 HD
ATOM     31  H11 UNL     1       2.094   3.520  11.384  1.00  0.00     0.169 HD
ENDBRANCH  26  29
ENDBRANCH   1  26
TORSDOF 9
ENDMDL
