MODEL 20
REMARK VINA RESULT: -6.755565599      2.057      3.048
REMARK  9 active torsions:
REMARK  status: ('A' for Active; 'I' for Inactive)
REMARK    1  A    between atoms: N1_1  and  S1_4 
REMARK    2  A    between atoms: S1_4  and  C1_7 
REMARK    3  A    between atoms: C4_12  and  S2_13 
REMARK    4  A    between atoms: S2_13  and  C5_16 
REMARK    5  A    between atoms: C5_16  and  C6_17 
REMARK    6  A    between atoms: C6_17  and  O5_18 
REMARK    7  A    between atoms: C7_20  and  N2_21 
REMARK    8  A    between atoms: N2_21  and  C8_23 
REMARK    9  A    between atoms: C8_23  and  C9_24 
ROOT
HETATM    1  C1  UNL     1      -5.209   2.205  15.245  1.00  0.00     0.161 A 
HETATM    2  C2  UNL     1      -5.603   3.496  15.492  1.00  0.00     0.182 A 
HETATM    3  F1  UNL     1      -6.259   3.824  16.647  1.00  0.00    -0.201 F 
HETATM    4  C3  UNL     1      -5.312   4.438  14.537  1.00  0.00     0.180 A 
HETATM    5  F2  UNL     1      -5.696   5.727  14.766  1.00  0.00    -0.201 F 
HETATM    6  C4  UNL     1      -4.646   4.153  13.347  1.00  0.00     0.130 A 
HETATM    7  C7  UNL     1      -4.259   2.861  13.112  1.00  0.00     0.094 A 
HETATM    8  C15 UNL     1      -4.552   1.890  14.081  1.00  0.00     0.170 A 
HETATM    9  F3  UNL     1      -4.182   0.606  13.879  1.00  0.00    -0.202 F 
ENDROOT
BRANCH   7  10
HETATM   10  N2  UNL     1      -3.596   2.449  11.919  1.00  0.00    -0.382 N 
ATOM     11  H2  UNL     1      -4.040   2.603  11.014  1.00  0.00     0.160 HD
BRANCH  10  12
HETATM   12  C8  UNL     1      -2.316   1.821  11.984  1.00  0.00     0.158 C 
BRANCH  12  13
HETATM   13  C9  UNL     1      -1.258   2.597  11.268  1.00  0.00    -0.041 A 
HETATM   14  C10 UNL     1      -0.759   2.203  10.044  1.00  0.00     0.009 A 
HETATM   15  C11 UNL     1       0.222   2.921   9.378  1.00  0.00     0.001 A 
HETATM   16  C12 UNL     1       0.740   4.075   9.925  1.00  0.00     0.000 A 
HETATM   17  C13 UNL     1       0.248   4.480  11.148  1.00  0.00     0.001 A 
HETATM   18  C14 UNL     1      -0.728   3.758  11.804  1.00  0.00     0.009 A 
ENDBRANCH  12  13
ENDBRANCH  10  12
ENDBRANCH   7  10
BRANCH   6  19
HETATM   19  S2  UNL     1      -4.318   5.453  12.239  1.00  0.00     0.182 S 
HETATM   20  O3  UNL     1      -5.552   6.347  12.156  1.00  0.00    -0.222 OA
HETATM   21  O4  UNL     1      -3.860   5.026  10.905  1.00  0.00    -0.222 OA
BRANCH  19  22
HETATM   22  C5  UNL     1      -3.060   6.518  12.967  1.00  0.00     0.172 C 
BRANCH  22  23
HETATM   23  C6  UNL     1      -2.439   7.328  11.845  1.00  0.00     0.179 C 
BRANCH  23  24
HETATM   24  O5  UNL     1      -3.479   7.956  11.166  1.00  0.00    -0.400 OA
ATOM     25  H5  UNL     1      -3.089   8.604  10.591  1.00  0.00     0.209 HD
ENDBRANCH  23  24
ENDBRANCH  22  23
ENDBRANCH  19  22
ENDBRANCH   6  19
BRANCH   1  26
HETATM   26  S1  UNL     1      -5.575   0.980  16.462  1.00  0.00     0.263 S 
HETATM   27  O1  UNL     1      -4.831   1.353  17.703  1.00  0.00    -0.201 OA
HETATM   28  O2  UNL     1      -4.997  -0.316  15.957  1.00  0.00    -0.201 OA
BRANCH  26  29
HETATM   29  N1  UNL     1      -7.252   0.871  16.766  1.00  0.00    -0.324 N 
ATOM     30  H12 UNL     1      -7.650   0.707  17.690  1.00  0.00     0.169 HD
ATOM     31  H11 UNL     1      -7.786   0.993  15.906  1.00  0.00     0.169 HD
ENDBRANCH  26  29
ENDBRANCH   1  26
TORSDOF 9
ENDMDL
