MODEL 4
REMARK VINA RESULT: -7.680814450      3.536      5.682
REMARK  9 active torsions:
REMARK  status: ('A' for Active; 'I' for Inactive)
REMARK    1  A    between atoms: N1_1  and  S1_4 
REMARK    2  A    between atoms: S1_4  and  C1_7 
REMARK    3  A    between atoms: C4_12  and  S2_13 
REMARK    4  A    between atoms: S2_13  and  C5_16 
REMARK    5  A    between atoms: C5_16  and  C6_17 
REMARK    6  A    between atoms: C6_17  and  O5_18 
REMARK    7  A    between atoms: C7_20  and  N2_21 
REMARK    8  A    between atoms: N2_21  and  C8_23 
REMARK    9  A    between atoms: C8_23  and  C9_24 
ROOT
HETATM    1  C1  UNL     1      -2.728   1.193  11.386  1.00  0.00     0.161 A 
HETATM    2  C2  UNL     1      -1.784   1.965  10.756  1.00  0.00     0.182 A 
HETATM    3  F1  UNL     1      -0.955   1.429   9.808  1.00  0.00    -0.201 F 
HETATM    4  C3  UNL     1      -1.708   3.287  11.114  1.00  0.00     0.180 A 
HETATM    5  F2  UNL     1      -0.775   4.068  10.498  1.00  0.00    -0.201 F 
HETATM    6  C4  UNL     1      -2.529   3.877  12.072  1.00  0.00     0.130 A 
HETATM    7  C7  UNL     1      -3.467   3.098  12.694  1.00  0.00     0.094 A 
HETATM    8  C15 UNL     1      -3.553   1.745  12.335  1.00  0.00     0.170 A 
HETATM    9  F3  UNL     1      -4.470   0.949  12.931  1.00  0.00    -0.202 F 
ENDROOT
BRANCH   7  10
HETATM   10  N2  UNL     1      -4.343   3.587  13.707  1.00  0.00    -0.382 N 
ATOM     11  H2  UNL     1      -5.219   4.038  13.444  1.00  0.00     0.160 HD
BRANCH  10  12
HETATM   12  C8  UNL     1      -4.001   3.451  15.086  1.00  0.00     0.158 C 
BRANCH  12  13
HETATM   13  C9  UNL     1      -4.935   2.548  15.824  1.00  0.00    -0.041 A 
HETATM   14  C10 UNL     1      -6.212   2.936  16.172  1.00  0.00     0.009 A 
HETATM   15  C11 UNL     1      -7.081   2.100  16.856  1.00  0.00     0.001 A 
HETATM   16  C12 UNL     1      -6.692   0.828  17.216  1.00  0.00     0.000 A 
HETATM   17  C13 UNL     1      -5.418   0.427  16.873  1.00  0.00     0.001 A 
HETATM   18  C14 UNL     1      -4.560   1.267  16.192  1.00  0.00     0.009 A 
ENDBRANCH  12  13
ENDBRANCH  10  12
ENDBRANCH   7  10
BRANCH   6  19
HETATM   19  S2  UNL     1      -2.340   5.575  12.406  1.00  0.00     0.182 S 
HETATM   20  O3  UNL     1      -0.852   5.913  12.388  1.00  0.00    -0.222 OA
HETATM   21  O4  UNL     1      -2.993   6.036  13.645  1.00  0.00    -0.222 OA
BRANCH  19  22
HETATM   22  C5  UNL     1      -3.014   6.506  11.018  1.00  0.00     0.172 C 
BRANCH  22  23
HETATM   23  C6  UNL     1      -4.399   5.960  10.729  1.00  0.00     0.179 C 
BRANCH  23  24
HETATM   24  O5  UNL     1      -5.158   6.129  11.883  1.00  0.00    -0.400 OA
ATOM     25  H5  UNL     1      -6.029   5.795  11.699  1.00  0.00     0.209 HD
ENDBRANCH  23  24
ENDBRANCH  22  23
ENDBRANCH  19  22
ENDBRANCH   6  19
BRANCH   1  26
HETATM   26  S1  UNL     1      -2.841  -0.510  10.938  1.00  0.00     0.263 S 
HETATM   27  O1  UNL     1      -1.477  -1.100  11.096  1.00  0.00    -0.201 OA
HETATM   28  O2  UNL     1      -3.187  -0.548   9.473  1.00  0.00    -0.201 OA
BRANCH  26  29
HETATM   29  N1  UNL     1      -3.980  -1.342  11.899  1.00  0.00    -0.324 N 
ATOM     30  H12 UNL     1      -4.074  -1.211  12.907  1.00  0.00     0.169 HD
ATOM     31  H11 UNL     1      -4.542  -1.976  11.332  1.00  0.00     0.169 HD
ENDBRANCH  26  29
ENDBRANCH   1  26
TORSDOF 9
ENDMDL
