MODEL 2
REMARK VINA RESULT: -7.806562526      2.639      5.863
REMARK  9 active torsions:
REMARK  status: ('A' for Active; 'I' for Inactive)
REMARK    1  A    between atoms: N1_1  and  S1_4 
REMARK    2  A    between atoms: S1_4  and  C1_7 
REMARK    3  A    between atoms: C4_12  and  S2_13 
REMARK    4  A    between atoms: S2_13  and  C5_16 
REMARK    5  A    between atoms: C5_16  and  C6_17 
REMARK    6  A    between atoms: C6_17  and  O5_18 
REMARK    7  A    between atoms: C7_20  and  N2_21 
REMARK    8  A    between atoms: N2_21  and  C8_23 
REMARK    9  A    between atoms: C8_23  and  C9_24 
ROOT
HETATM    1  C1  UNL     1      -4.241   1.886  14.175  1.00  0.00     0.161 A 
HETATM    2  C2  UNL     1      -4.220   1.324  12.924  1.00  0.00     0.182 A 
HETATM    3  F1  UNL     1      -4.428  -0.018  12.750  1.00  0.00    -0.201 F 
HETATM    4  C3  UNL     1      -3.985   2.159  11.860  1.00  0.00     0.180 A 
HETATM    5  F2  UNL     1      -3.962   1.617  10.609  1.00  0.00    -0.201 F 
HETATM    6  C4  UNL     1      -3.770   3.529  11.986  1.00  0.00     0.130 A 
HETATM    7  C7  UNL     1      -3.791   4.079  13.240  1.00  0.00     0.094 A 
HETATM    8  C15 UNL     1      -4.031   3.233  14.334  1.00  0.00     0.170 A 
HETATM    9  F3  UNL     1      -4.060   3.746  15.585  1.00  0.00    -0.202 F 
ENDROOT
BRANCH   7  10
HETATM   10  N2  UNL     1      -3.558   5.462  13.491  1.00  0.00    -0.382 N 
ATOM     11  H2  UNL     1      -4.252   6.153  13.208  1.00  0.00     0.160 HD
BRANCH  10  12
HETATM   12  C8  UNL     1      -2.358   5.887  14.138  1.00  0.00     0.158 C 
BRANCH  12  13
HETATM   13  C9  UNL     1      -2.047   7.326  13.884  1.00  0.00    -0.041 A 
HETATM   14  C10 UNL     1      -2.129   7.885  12.626  1.00  0.00     0.009 A 
HETATM   15  C11 UNL     1      -1.842   9.220  12.388  1.00  0.00     0.001 A 
HETATM   16  C12 UNL     1      -1.457  10.050  13.420  1.00  0.00     0.000 A 
HETATM   17  C13 UNL     1      -1.371   9.502  14.682  1.00  0.00     0.001 A 
HETATM   18  C14 UNL     1      -1.659   8.172  14.909  1.00  0.00     0.009 A 
ENDBRANCH  12  13
ENDBRANCH  10  12
ENDBRANCH   7  10
BRANCH   6  19
HETATM   19  S2  UNL     1      -3.512   4.472  10.547  1.00  0.00     0.182 S 
HETATM   20  O3  UNL     1      -4.209   5.819  10.715  1.00  0.00    -0.222 OA
HETATM   21  O4  UNL     1      -3.906   3.804   9.293  1.00  0.00    -0.222 OA
BRANCH  19  22
HETATM   22  C5  UNL     1      -1.764   4.896  10.450  1.00  0.00     0.172 C 
BRANCH  22  23
HETATM   23  C6  UNL     1      -0.971   3.613  10.619  1.00  0.00     0.179 C 
BRANCH  23  24
HETATM   24  O5  UNL     1      -1.223   2.823   9.502  1.00  0.00    -0.400 OA
ATOM     25  H5  UNL     1      -0.475   2.908   8.923  1.00  0.00     0.209 HD
ENDBRANCH  23  24
ENDBRANCH  22  23
ENDBRANCH  19  22
ENDBRANCH   6  19
BRANCH   1  26
HETATM   26  S1  UNL     1      -4.542   0.827  15.555  1.00  0.00     0.263 S 
HETATM   27  O1  UNL     1      -3.362   0.940  16.465  1.00  0.00    -0.201 OA
HETATM   28  O2  UNL     1      -4.571  -0.580  15.020  1.00  0.00    -0.201 OA
BRANCH  26  29
HETATM   29  N1  UNL     1      -5.983   1.245  16.370  1.00  0.00    -0.324 N 
ATOM     30  H12 UNL     1      -6.916   1.031  16.017  1.00  0.00     0.169 HD
ATOM     31  H11 UNL     1      -5.779   1.731  17.243  1.00  0.00     0.169 HD
ENDBRANCH  26  29
ENDBRANCH   1  26
TORSDOF 9
ENDMDL
