MODEL 1
REMARK VINA RESULT: -10.118106742      0.000      0.000
REMARK  12 active torsions:
REMARK  status: ('A' for Active; 'I' for Inactive)
REMARK    1  A    between atoms: N1_2  and  C3_4 
REMARK    2  A    between atoms: C3_4  and  C4_5 
REMARK    3  A    between atoms: C5_6  and  C6_7 
REMARK    4  A    between atoms: C9_10  and  O1_11 
REMARK    5  A    between atoms: O1_11  and  C10_12 
REMARK    6  A    between atoms: C10_12  and  C11_13 
REMARK    7  A    between atoms: C11_13  and  C12_14 
REMARK    8  A    between atoms: C12_14  and  C13_15 
REMARK    9  A    between atoms: C14_17  and  N2_18 
REMARK   10  A    between atoms: C21_25  and  C22_26 
REMARK       I    between atoms: C22_26  and  N3_28 
REMARK   11  A    between atoms: N3_28  and  C23_30 
REMARK   12  A    between atoms: C32_44  and  C33_45 
ROOT
HETATM    1  C13 UNL     1     -18.000   0.449   4.283  1.00  0.00     0.020 A 
HETATM    2  S1  UNL     1     -17.284   1.901   3.673  1.00  0.00    -0.056 SA
HETATM    3  C14 UNL     1     -16.754   1.315   2.161  1.00  0.00     0.148 A 
HETATM    4  N5  UNL     1     -17.146   0.058   2.200  1.00  0.00    -0.330 N 
ATOM      5  H5  UNL     1     -16.959  -0.553   1.406  1.00  0.00     0.168 HD
HETATM    6  C32 UNL     1     -17.768  -0.411   3.237  1.00  0.00     0.125 A 
ENDROOT
BRANCH   3   7
HETATM    7  N2  UNL     1     -16.062   1.971   1.105  1.00  0.00    -0.357 N 
HETATM    8  C15 UNL     1     -15.616   1.232  -0.028  1.00  0.00     0.130 C 
HETATM    9  C16 UNL     1     -15.426   2.058  -1.259  1.00  0.00     0.059 C 
HETATM   10  C17 UNL     1     -16.233   3.291  -1.217  1.00  0.00    -0.048 A 
HETATM   11  C18 UNL     1     -16.809   3.752  -2.406  1.00  0.00     0.008 A 
HETATM   12  C30 UNL     1     -16.387   3.988  -0.043  1.00  0.00    -0.018 A 
HETATM   13  C19 UNL     1     -17.532   4.921  -2.370  1.00  0.00     0.002 A 
HETATM   14  C20 UNL     1     -17.673   5.607  -1.186  1.00  0.00     0.017 A 
HETATM   15  C21 UNL     1     -17.091   5.139   0.006  1.00  0.00     0.040 A 
HETATM   16  C31 UNL     1     -15.832   3.396   1.199  1.00  0.00     0.165 C 
BRANCH  15  17
HETATM   17  C22 UNL     1     -17.205   5.973   1.156  1.00  0.00     0.258 C 
HETATM   18  O2  UNL     1     -18.272   5.826   1.875  1.00  0.00    -0.267 OA
HETATM   19  N3  UNL     1     -16.320   6.955   1.632  1.00  0.00    -0.303 N 
ATOM     20  H3  UNL     1     -15.457   7.139   1.122  1.00  0.00     0.171 HD
BRANCH  19  21
HETATM   21  C23 UNL     1     -16.611   7.708   2.828  1.00  0.00     0.152 A 
HETATM   22  N4  UNL     1     -17.108   7.346   3.972  1.00  0.00    -0.335 N 
HETATM   23  C24 UNL     1     -17.283   8.215   4.925  1.00  0.00     0.051 A 
ATOM     24  H4  UNL     1     -17.364   6.371   4.124  1.00  0.00     0.168 HD
HETATM   25  C25 UNL     1     -17.805   7.958   6.203  1.00  0.00     0.031 A 
HETATM   26  C29 UNL     1     -16.927   9.512   4.675  1.00  0.00     0.035 A 
HETATM   27  C26 UNL     1     -17.945   8.937   7.126  1.00  0.00     0.002 A 
HETATM   28  C27 UNL     1     -17.591  10.232   6.882  1.00  0.00     0.002 A 
HETATM   29  C28 UNL     1     -17.077  10.521   5.643  1.00  0.00     0.021 A 
HETATM   30  S2  UNL     1     -16.355   9.401   3.066  1.00  0.00    -0.052 SA
ENDBRANCH  19  21
ENDBRANCH  15  17
ENDBRANCH   3   7
BRANCH   1  31
HETATM   31  C12 UNL     1     -18.698   0.239   5.588  1.00  0.00     0.051 C 
BRANCH  31  32
HETATM   32  C11 UNL     1     -20.130   0.664   5.555  1.00  0.00     0.032 C 
BRANCH  32  33
HETATM   33  C10 UNL     1     -21.035  -0.423   6.092  1.00  0.00     0.176 C 
BRANCH  33  34
HETATM   34  O1  UNL     1     -21.415  -0.308   7.399  1.00  0.00    -0.348 OA
BRANCH  34  35
HETATM   35  C9  UNL     1     -22.605  -0.056   8.008  1.00  0.00     0.107 A 
HETATM   36  C8  UNL     1     -23.757   0.326   7.386  1.00  0.00     0.041 A 
HETATM   37  C7  UNL     1     -24.900   0.551   8.113  1.00  0.00     0.023 A 
HETATM   38  C6  UNL     1     -24.951   0.408   9.481  1.00  0.00     0.020 A 
HETATM   39  C35 UNL     1     -23.774   0.019  10.094  1.00  0.00     0.065 A 
HETATM   40  C34 UNL     1     -22.620  -0.213   9.396  1.00  0.00     0.151 A 
HETATM   41  F1  UNL     1     -21.498  -0.594  10.070  1.00  0.00    -0.203 F 
BRANCH  38  42
HETATM   42  C5  UNL     1     -26.130   0.646  10.251  1.00  0.00    -0.065 C 
HETATM   43  C4  UNL     1     -27.120   0.871  10.899  1.00  0.00    -0.071 C 
BRANCH  43  44
HETATM   44  C3  UNL     1     -28.314   1.173  11.684  1.00  0.00     0.365 C 
BRANCH  44  45
HETATM   45  N1  UNL     1     -29.541   0.770  11.047  1.00  0.00     0.090 N 
HETATM   46  C1  UNL     1     -30.625   0.663  11.979  1.00  0.00     0.310 C 
HETATM   47  C2  UNL     1     -29.884   1.634   9.949  1.00  0.00     0.310 C 
ENDBRANCH  44  45
ENDBRANCH  43  44
ENDBRANCH  38  42
ENDBRANCH  34  35
ENDBRANCH  33  34
ENDBRANCH  32  33
ENDBRANCH  31  32
ENDBRANCH   1  31
BRANCH   6  48
HETATM   48  C33 UNL     1     -18.177  -1.844   3.303  1.00  0.00     0.228 C 
HETATM   49  O3  UNL     1     -17.337  -2.764   3.258  1.00  0.00    -0.643 OA
HETATM   50  O4  UNL     1     -19.521  -2.168   3.416  1.00  0.00    -0.643 OA
ENDBRANCH   6  48
TORSDOF 12
ENDMDL
