MODEL 2
REMARK VINA RESULT: -10.074498491      0.927      1.316
REMARK  12 active torsions:
REMARK  status: ('A' for Active; 'I' for Inactive)
REMARK    1  A    between atoms: N1_2  and  C3_4 
REMARK    2  A    between atoms: C3_4  and  C4_5 
REMARK    3  A    between atoms: C5_6  and  C6_7 
REMARK    4  A    between atoms: C9_10  and  O1_11 
REMARK    5  A    between atoms: O1_11  and  C10_12 
REMARK    6  A    between atoms: C10_12  and  C11_13 
REMARK    7  A    between atoms: C11_13  and  C12_14 
REMARK    8  A    between atoms: C12_14  and  C13_15 
REMARK    9  A    between atoms: C14_17  and  N2_18 
REMARK   10  A    between atoms: C21_25  and  C22_26 
REMARK       I    between atoms: C22_26  and  N3_28 
REMARK   11  A    between atoms: N3_28  and  C23_30 
REMARK   12  A    between atoms: C32_44  and  C33_45 
ROOT
HETATM    1  C13 UNL     1     -18.219   0.583   4.636  1.00  0.00     0.020 A 
HETATM    2  S1  UNL     1     -17.604   2.030   3.916  1.00  0.00    -0.056 SA
HETATM    3  C14 UNL     1     -16.906   1.349   2.516  1.00  0.00     0.148 A 
HETATM    4  N5  UNL     1     -17.175   0.068   2.671  1.00  0.00    -0.330 N 
ATOM      5  H5  UNL     1     -16.869  -0.599   1.964  1.00  0.00     0.168 HD
HETATM    6  C32 UNL     1     -17.825  -0.353   3.710  1.00  0.00     0.125 A 
ENDROOT
BRANCH   3   7
HETATM    7  N2  UNL     1     -16.203   1.960   1.441  1.00  0.00    -0.357 N 
HETATM    8  C15 UNL     1     -15.770   1.179   0.331  1.00  0.00     0.130 C 
HETATM    9  C16 UNL     1     -15.567   1.964  -0.924  1.00  0.00     0.059 C 
HETATM   10  C17 UNL     1     -16.351   3.212  -0.919  1.00  0.00    -0.048 A 
HETATM   11  C18 UNL     1     -16.920   3.647  -2.122  1.00  0.00     0.008 A 
HETATM   12  C30 UNL     1     -16.492   3.947   0.233  1.00  0.00    -0.018 A 
HETATM   13  C19 UNL     1     -17.621   4.830  -2.121  1.00  0.00     0.002 A 
HETATM   14  C20 UNL     1     -17.749   5.554  -0.959  1.00  0.00     0.017 A 
HETATM   15  C21 UNL     1     -17.175   5.112   0.247  1.00  0.00     0.040 A 
HETATM   16  C31 UNL     1     -15.947   3.383   1.492  1.00  0.00     0.165 C 
BRANCH  15  17
HETATM   17  C22 UNL     1     -17.274   5.981   1.371  1.00  0.00     0.258 C 
HETATM   18  O2  UNL     1     -18.317   5.838   2.125  1.00  0.00    -0.267 OA
HETATM   19  N3  UNL     1     -16.396   6.996   1.789  1.00  0.00    -0.303 N 
ATOM     20  H3  UNL     1     -15.551   7.179   1.249  1.00  0.00     0.171 HD
BRANCH  19  21
HETATM   21  C23 UNL     1     -16.668   7.784   2.967  1.00  0.00     0.152 A 
HETATM   22  N4  UNL     1     -17.173   7.461   4.118  1.00  0.00    -0.335 N 
HETATM   23  C24 UNL     1     -17.327   8.355   5.051  1.00  0.00     0.051 A 
ATOM     24  H4  UNL     1     -17.453   6.496   4.294  1.00  0.00     0.168 HD
HETATM   25  C25 UNL     1     -17.856   8.141   6.334  1.00  0.00     0.031 A 
HETATM   26  C29 UNL     1     -16.940   9.637   4.771  1.00  0.00     0.035 A 
HETATM   27  C26 UNL     1     -17.971   9.145   7.234  1.00  0.00     0.002 A 
HETATM   28  C27 UNL     1     -17.586  10.424   6.961  1.00  0.00     0.002 A 
HETATM   29  C28 UNL     1     -17.065  10.672   5.715  1.00  0.00     0.021 A 
HETATM   30  S2  UNL     1     -16.371   9.475   3.166  1.00  0.00    -0.052 SA
ENDBRANCH  19  21
ENDBRANCH  15  17
ENDBRANCH   3   7
BRANCH   1  31
HETATM   31  C12 UNL     1     -18.992   0.438   5.908  1.00  0.00     0.051 C 
BRANCH  31  32
HETATM   32  C11 UNL     1     -20.464   0.607   5.716  1.00  0.00     0.032 C 
BRANCH  32  33
HETATM   33  C10 UNL     1     -21.242  -0.337   6.605  1.00  0.00     0.176 C 
BRANCH  33  34
HETATM   34  O1  UNL     1     -21.619   0.148   7.826  1.00  0.00    -0.348 OA
BRANCH  34  35
HETATM   35  C9  UNL     1     -22.808   0.204   8.483  1.00  0.00     0.107 A 
HETATM   36  C8  UNL     1     -23.043  -0.237   9.753  1.00  0.00     0.041 A 
HETATM   37  C7  UNL     1     -24.293  -0.125  10.310  1.00  0.00     0.023 A 
HETATM   38  C6  UNL     1     -25.360   0.427   9.637  1.00  0.00     0.020 A 
HETATM   39  C35 UNL     1     -25.102   0.871   8.353  1.00  0.00     0.065 A 
HETATM   40  C34 UNL     1     -23.867   0.772   7.771  1.00  0.00     0.151 A 
HETATM   41  F1  UNL     1     -23.690   1.232   6.500  1.00  0.00    -0.203 F 
BRANCH  38  42
HETATM   42  C5  UNL     1     -26.666   0.544  10.201  1.00  0.00    -0.065 C 
HETATM   43  C4  UNL     1     -27.769   0.667  10.668  1.00  0.00    -0.071 C 
BRANCH  43  44
HETATM   44  C3  UNL     1     -29.107   0.844  11.228  1.00  0.00     0.365 C 
BRANCH  44  45
HETATM   45  N1  UNL     1     -29.115   1.505  12.507  1.00  0.00     0.090 N 
HETATM   46  C1  UNL     1     -29.110   2.933  12.377  1.00  0.00     0.310 C 
HETATM   47  C2  UNL     1     -30.205   1.063  13.334  1.00  0.00     0.310 C 
ENDBRANCH  44  45
ENDBRANCH  43  44
ENDBRANCH  38  42
ENDBRANCH  34  35
ENDBRANCH  33  34
ENDBRANCH  32  33
ENDBRANCH  31  32
ENDBRANCH   1  31
BRANCH   6  48
HETATM   48  C33 UNL     1     -18.096  -1.806   3.909  1.00  0.00     0.228 C 
HETATM   49  O3  UNL     1     -18.771  -2.217   4.872  1.00  0.00    -0.643 OA
HETATM   50  O4  UNL     1     -17.589  -2.727   3.004  1.00  0.00    -0.643 OA
ENDBRANCH   6  48
TORSDOF 12
ENDMDL
