MODEL 3
REMARK VINA RESULT: -9.905870716      5.305      9.491
REMARK  12 active torsions:
REMARK  status: ('A' for Active; 'I' for Inactive)
REMARK    1  A    between atoms: N1_2  and  C3_4 
REMARK    2  A    between atoms: C3_4  and  C4_5 
REMARK    3  A    between atoms: C5_6  and  C6_7 
REMARK    4  A    between atoms: C9_10  and  O1_11 
REMARK    5  A    between atoms: O1_11  and  C10_12 
REMARK    6  A    between atoms: C10_12  and  C11_13 
REMARK    7  A    between atoms: C11_13  and  C12_14 
REMARK    8  A    between atoms: C12_14  and  C13_15 
REMARK    9  A    between atoms: C14_17  and  N2_18 
REMARK   10  A    between atoms: C21_25  and  C22_26 
REMARK       I    between atoms: C22_26  and  N3_28 
REMARK   11  A    between atoms: N3_28  and  C23_30 
REMARK   12  A    between atoms: C32_44  and  C33_45 
ROOT
HETATM    1  C13 UNL     1     -17.307   7.737   4.028  1.00  0.00     0.020 A 
HETATM    2  S1  UNL     1     -16.438   8.345   2.662  1.00  0.00    -0.056 SA
HETATM    3  C14 UNL     1     -15.912   9.826   3.325  1.00  0.00     0.148 A 
HETATM    4  N5  UNL     1     -16.420   9.779   4.540  1.00  0.00    -0.330 N 
ATOM      5  H5  UNL     1     -16.262  10.554   5.182  1.00  0.00     0.168 HD
HETATM    6  C32 UNL     1     -17.120   8.759   4.928  1.00  0.00     0.125 A 
ENDROOT
BRANCH   3   7
HETATM    7  N2  UNL     1     -15.133  10.870   2.755  1.00  0.00    -0.357 N 
HETATM    8  C15 UNL     1     -15.453  12.233   3.023  1.00  0.00     0.130 C 
HETATM    9  C16 UNL     1     -14.304  13.173   2.857  1.00  0.00     0.059 C 
HETATM   10  C17 UNL     1     -13.010  12.481   2.997  1.00  0.00    -0.048 A 
HETATM   11  C18 UNL     1     -11.958  13.153   3.631  1.00  0.00     0.008 A 
HETATM   12  C30 UNL     1     -12.831  11.218   2.485  1.00  0.00    -0.018 A 
HETATM   13  C19 UNL     1     -10.743  12.518   3.728  1.00  0.00     0.002 A 
HETATM   14  C20 UNL     1     -10.582  11.255   3.207  1.00  0.00     0.017 A 
HETATM   15  C21 UNL     1     -11.642  10.585   2.570  1.00  0.00     0.040 A 
HETATM   16  C31 UNL     1     -14.010  10.524   1.911  1.00  0.00     0.165 C 
BRANCH  15  17
HETATM   17  C22 UNL     1     -11.349   9.325   1.973  1.00  0.00     0.258 C 
HETATM   18  O2  UNL     1     -11.118   9.326   0.699  1.00  0.00    -0.267 OA
HETATM   19  N3  UNL     1     -11.279   8.054   2.569  1.00  0.00    -0.303 N 
ATOM     20  H3  UNL     1     -11.453   7.962   3.569  1.00  0.00     0.171 HD
BRANCH  19  21
HETATM   21  C23 UNL     1     -10.967   6.879   1.793  1.00  0.00     0.152 A 
HETATM   22  N4  UNL     1     -11.679   6.190   0.953  1.00  0.00    -0.335 N 
HETATM   23  C24 UNL     1     -11.178   5.147   0.357  1.00  0.00     0.051 A 
ATOM     24  H4  UNL     1     -12.640   6.470   0.758  1.00  0.00     0.168 HD
HETATM   25  C25 UNL     1     -11.835   4.320  -0.570  1.00  0.00     0.031 A 
HETATM   26  C29 UNL     1      -9.886   4.808   0.649  1.00  0.00     0.035 A 
HETATM   27  C26 UNL     1     -11.220   3.256  -1.135  1.00  0.00     0.002 A 
HETATM   28  C27 UNL     1      -9.931   2.914  -0.848  1.00  0.00     0.002 A 
HETATM   29  C28 UNL     1      -9.258   3.699   0.055  1.00  0.00     0.021 A 
HETATM   30  S2  UNL     1      -9.464   6.025   1.775  1.00  0.00    -0.052 SA
ENDBRANCH  19  21
ENDBRANCH  15  17
ENDBRANCH   3   7
BRANCH   1  31
HETATM   31  C12 UNL     1     -18.026   6.433   4.162  1.00  0.00     0.051 C 
BRANCH  31  32
HETATM   32  C11 UNL     1     -18.200   5.729   2.856  1.00  0.00     0.032 C 
BRANCH  32  33
HETATM   33  C10 UNL     1     -17.037   4.803   2.575  1.00  0.00     0.176 C 
BRANCH  33  34
HETATM   34  O1  UNL     1     -16.784   3.842   3.513  1.00  0.00    -0.348 OA
BRANCH  34  35
HETATM   35  C9  UNL     1     -17.327   2.622   3.770  1.00  0.00     0.107 A 
HETATM   36  C8  UNL     1     -18.275   2.350   4.714  1.00  0.00     0.041 A 
HETATM   37  C7  UNL     1     -18.746   1.071   4.880  1.00  0.00     0.023 A 
HETATM   38  C6  UNL     1     -18.303   0.011   4.121  1.00  0.00     0.020 A 
HETATM   39  C35 UNL     1     -17.345   0.306   3.169  1.00  0.00     0.065 A 
HETATM   40  C34 UNL     1     -16.855   1.570   2.981  1.00  0.00     0.151 A 
HETATM   41  F1  UNL     1     -15.911   1.784   2.022  1.00  0.00    -0.203 F 
BRANCH  38  42
HETATM   42  C5  UNL     1     -18.779  -1.325   4.287  1.00  0.00    -0.065 C 
HETATM   43  C4  UNL     1     -19.186  -2.452   4.402  1.00  0.00    -0.071 C 
BRANCH  43  44
HETATM   44  C3  UNL     1     -19.687  -3.821   4.513  1.00  0.00     0.365 C 
BRANCH  44  45
HETATM   45  N1  UNL     1     -21.124  -3.908   4.537  1.00  0.00     0.090 N 
HETATM   46  C1  UNL     1     -21.580  -5.255   4.722  1.00  0.00     0.310 C 
HETATM   47  C2  UNL     1     -21.700  -3.026   5.516  1.00  0.00     0.310 C 
ENDBRANCH  44  45
ENDBRANCH  43  44
ENDBRANCH  38  42
ENDBRANCH  34  35
ENDBRANCH  33  34
ENDBRANCH  32  33
ENDBRANCH  31  32
ENDBRANCH   1  31
BRANCH   6  48
HETATM   48  C33 UNL     1     -17.732   8.720   6.288  1.00  0.00     0.228 C 
HETATM   49  O3  UNL     1     -17.427   7.839   7.114  1.00  0.00    -0.643 OA
HETATM   50  O4  UNL     1     -18.662   9.684   6.647  1.00  0.00    -0.643 OA
ENDBRANCH   6  48
TORSDOF 12
ENDMDL
