MODEL 1
REMARK VINA RESULT: -9.730253518      0.000      0.000
REMARK  2 active torsions:
REMARK  status: ('A' for Active; 'I' for Inactive)
REMARK    1  A    between atoms: C11_12  and  C12_13 
REMARK    2  A    between atoms: C12_13  and  C13_14 
ROOT
HETATM    1  C1  UNL     1     -22.703  51.781  -6.925  1.00  0.00     0.049 C 
HETATM    2  C2  UNL     1     -21.536  51.837  -6.029  1.00  0.00    -0.053 A 
HETATM    3  C3  UNL     1     -20.250  51.746  -6.518  1.00  0.00     0.008 A 
HETATM    4  C4  UNL     1     -19.177  51.804  -5.654  1.00  0.00     0.019 A 
HETATM    5  C5  UNL     1     -19.355  51.952  -4.308  1.00  0.00     0.049 A 
HETATM    6  C6  UNL     1     -18.331  52.017  -3.395  1.00  0.00     0.198 A 
HETATM    7  O1  UNL     1     -17.155  51.940  -3.782  1.00  0.00    -0.286 OA
HETATM    8  C7  UNL     1     -18.610  52.170  -2.048  1.00  0.00     0.049 A 
HETATM    9  C8  UNL     1     -17.596  52.237  -1.120  1.00  0.00     0.018 A 
HETATM   10  C9  UNL     1     -17.913  52.389   0.213  1.00  0.00     0.002 A 
HETATM   11  C10 UNL     1     -19.219  52.473   0.635  1.00  0.00     0.010 A 
HETATM   12  C11 UNL     1     -20.242  52.408  -0.282  1.00  0.00    -0.013 A 
HETATM   13  C14 UNL     1     -19.934  52.256  -1.615  1.00  0.00     0.097 A 
HETATM   14  O4  UNL     1     -20.863  52.188  -2.527  1.00  0.00    -0.308 OA
HETATM   15  C15 UNL     1     -20.637  52.045  -3.802  1.00  0.00     0.096 A 
HETATM   16  C16 UNL     1     -21.701  51.985  -4.675  1.00  0.00    -0.021 A 
HETATM   17  C17 UNL     1     -23.077  52.083  -4.128  1.00  0.00     0.052 C 
ENDROOT
BRANCH  12  18
HETATM   18  C12 UNL     1     -21.655  52.498   0.133  1.00  0.00     0.154 C 
BRANCH  18  19
HETATM   19  C13 UNL     1     -22.373  51.225   0.009  1.00  0.00     0.177 C 
HETATM   20  O2  UNL     1     -23.617  51.199  -0.063  1.00  0.00    -0.648 OA
HETATM   21  O3  UNL     1     -21.677  50.039  -0.028  1.00  0.00    -0.648 OA
ENDBRANCH  18  19
ENDBRANCH  12  18
TORSDOF 2
ENDMDL
