MODEL 3
REMARK VINA RESULT: -9.447351224      1.080      1.356
REMARK  2 active torsions:
REMARK  status: ('A' for Active; 'I' for Inactive)
REMARK    1  A    between atoms: C11_12  and  C12_13 
REMARK    2  A    between atoms: C12_13  and  C13_14 
ROOT
HETATM    1  C1  UNL     1     -22.852  51.664  -6.760  1.00  0.00     0.049 C 
HETATM    2  C2  UNL     1     -21.667  51.766  -5.892  1.00  0.00    -0.053 A 
HETATM    3  C3  UNL     1     -20.390  51.757  -6.414  1.00  0.00     0.008 A 
HETATM    4  C4  UNL     1     -19.301  51.857  -5.575  1.00  0.00     0.019 A 
HETATM    5  C5  UNL     1     -19.453  51.967  -4.223  1.00  0.00     0.049 A 
HETATM    6  C6  UNL     1     -18.411  52.071  -3.333  1.00  0.00     0.198 A 
HETATM    7  O1  UNL     1     -17.243  52.067  -3.750  1.00  0.00    -0.286 OA
HETATM    8  C7  UNL     1     -18.664  52.180  -1.977  1.00  0.00     0.049 A 
HETATM    9  C8  UNL     1     -17.632  52.285  -1.072  1.00  0.00     0.018 A 
HETATM   10  C9  UNL     1     -17.923  52.392   0.271  1.00  0.00     0.002 A 
HETATM   11  C10 UNL     1     -19.221  52.395   0.726  1.00  0.00     0.010 A 
HETATM   12  C11 UNL     1     -20.262  52.291  -0.167  1.00  0.00    -0.013 A 
HETATM   13  C14 UNL     1     -19.980  52.185  -1.510  1.00  0.00     0.097 A 
HETATM   14  O4  UNL     1     -20.926  52.083  -2.401  1.00  0.00    -0.308 OA
HETATM   15  C15 UNL     1     -20.725  51.979  -3.683  1.00  0.00     0.096 A 
HETATM   16  C16 UNL     1     -21.806  51.877  -4.531  1.00  0.00    -0.021 A 
HETATM   17  C17 UNL     1     -23.171  51.888  -3.950  1.00  0.00     0.052 C 
ENDROOT
BRANCH  12  18
HETATM   18  C12 UNL     1     -21.666  52.294   0.284  1.00  0.00     0.154 C 
BRANCH  18  19
HETATM   19  C13 UNL     1     -22.307  53.608   0.159  1.00  0.00     0.177 C 
HETATM   20  O2  UNL     1     -21.942  54.566   0.869  1.00  0.00    -0.648 OA
HETATM   21  O3  UNL     1     -23.324  53.797  -0.747  1.00  0.00    -0.648 OA
ENDBRANCH  18  19
ENDBRANCH  12  18
TORSDOF 2
ENDMDL
