MODEL 5
REMARK VINA RESULT: -8.949564422      2.855      5.619
REMARK  2 active torsions:
REMARK  status: ('A' for Active; 'I' for Inactive)
REMARK    1  A    between atoms: C11_12  and  C12_13 
REMARK    2  A    between atoms: C12_13  and  C13_14 
ROOT
HETATM    1  C1  UNL     1     -21.741  56.746   3.420  1.00  0.00     0.049 C 
HETATM    2  C2  UNL     1     -20.756  56.143   2.508  1.00  0.00    -0.053 A 
HETATM    3  C3  UNL     1     -19.400  56.285   2.718  1.00  0.00     0.008 A 
HETATM    4  C4  UNL     1     -18.502  55.706   1.847  1.00  0.00     0.019 A 
HETATM    5  C5  UNL     1     -18.924  54.984   0.767  1.00  0.00     0.049 A 
HETATM    6  C6  UNL     1     -18.083  54.382  -0.137  1.00  0.00     0.198 A 
HETATM    7  O1  UNL     1     -16.854  54.479   0.005  1.00  0.00    -0.286 OA
HETATM    8  C7  UNL     1     -18.603  53.669  -1.202  1.00  0.00     0.049 A 
HETATM    9  C8  UNL     1     -17.775  53.059  -2.117  1.00  0.00     0.018 A 
HETATM   10  C9  UNL     1     -18.330  52.357  -3.165  1.00  0.00     0.002 A 
HETATM   11  C10 UNL     1     -19.693  52.254  -3.317  1.00  0.00     0.010 A 
HETATM   12  C11 UNL     1     -20.533  52.858  -2.410  1.00  0.00    -0.013 A 
HETATM   13  C14 UNL     1     -19.986  53.560  -1.360  1.00  0.00     0.097 A 
HETATM   14  O4  UNL     1     -20.734  54.153  -0.472  1.00  0.00    -0.308 OA
HETATM   15  C15 UNL     1     -20.279  54.831   0.542  1.00  0.00     0.096 A 
HETATM   16  C16 UNL     1     -21.166  55.415   1.419  1.00  0.00    -0.021 A 
HETATM   17  C17 UNL     1     -22.620  55.252   1.174  1.00  0.00     0.052 C 
ENDROOT
BRANCH  12  18
HETATM   18  C12 UNL     1     -21.999  52.766  -2.539  1.00  0.00     0.154 C 
BRANCH  18  19
HETATM   19  C13 UNL     1     -22.545  51.507  -2.018  1.00  0.00     0.177 C 
HETATM   20  O2  UNL     1     -22.019  50.941  -1.040  1.00  0.00    -0.648 OA
HETATM   21  O3  UNL     1     -23.648  50.936  -2.608  1.00  0.00    -0.648 OA
ENDBRANCH  18  19
ENDBRANCH  12  18
TORSDOF 2
ENDMDL
