MODEL 2
REMARK VINA RESULT: -9.500304865      5.990      8.817
REMARK  2 active torsions:
REMARK  status: ('A' for Active; 'I' for Inactive)
REMARK    1  A    between atoms: C11_12  and  C12_13 
REMARK    2  A    between atoms: C12_13  and  C13_14 
ROOT
HETATM    1  C1  UNL     1     -22.950  57.416   6.793  1.00  0.00     0.049 C 
HETATM    2  C2  UNL     1     -21.755  57.289   5.942  1.00  0.00    -0.053 A 
HETATM    3  C3  UNL     1     -20.485  57.418   6.462  1.00  0.00     0.008 A 
HETATM    4  C4  UNL     1     -19.386  57.291   5.640  1.00  0.00     0.019 A 
HETATM    5  C5  UNL     1     -19.522  57.038   4.305  1.00  0.00     0.049 A 
HETATM    6  C6  UNL     1     -18.470  56.900   3.433  1.00  0.00     0.198 A 
HETATM    7  O1  UNL     1     -17.306  57.007   3.849  1.00  0.00    -0.286 OA
HETATM    8  C7  UNL     1     -18.707  56.642   2.094  1.00  0.00     0.049 A 
HETATM    9  C8  UNL     1     -17.664  56.502   1.207  1.00  0.00     0.018 A 
HETATM   10  C9  UNL     1     -17.939  56.245  -0.120  1.00  0.00     0.002 A 
HETATM   11  C10 UNL     1     -19.232  56.129  -0.575  1.00  0.00     0.010 A 
HETATM   12  C11 UNL     1     -20.283  56.267   0.301  1.00  0.00    -0.013 A 
HETATM   13  C14 UNL     1     -20.017  56.523   1.627  1.00  0.00     0.097 A 
HETATM   14  O4  UNL     1     -20.974  56.664   2.501  1.00  0.00    -0.308 OA
HETATM   15  C15 UNL     1     -20.788  56.906   3.767  1.00  0.00     0.096 A 
HETATM   16  C16 UNL     1     -21.879  57.035   4.599  1.00  0.00    -0.021 A 
HETATM   17  C17 UNL     1     -23.237  56.896   4.018  1.00  0.00     0.052 C 
ENDROOT
BRANCH  12  18
HETATM   18  C12 UNL     1     -21.682  56.146  -0.150  1.00  0.00     0.154 C 
BRANCH  18  19
HETATM   19  C13 UNL     1     -22.397  57.426  -0.158  1.00  0.00     0.177 C 
HETATM   20  O2  UNL     1     -23.638  57.464  -0.273  1.00  0.00    -0.648 OA
HETATM   21  O3  UNL     1     -21.702  58.607  -0.038  1.00  0.00    -0.648 OA
ENDBRANCH  18  19
ENDBRANCH  12  18
TORSDOF 2
ENDMDL
