MODEL 4
REMARK VINA RESULT: -8.954822542      3.907      4.900
REMARK  2 active torsions:
REMARK  status: ('A' for Active; 'I' for Inactive)
REMARK    1  A    between atoms: C11_12  and  C12_13 
REMARK    2  A    between atoms: C12_13  and  C13_14 
ROOT
HETATM    1  C1  UNL     1     -21.580  52.220  -3.452  1.00  0.00     0.049 C 
HETATM    2  C2  UNL     1     -20.627  52.852  -2.526  1.00  0.00    -0.053 A 
HETATM    3  C3  UNL     1     -19.265  52.756  -2.719  1.00  0.00     0.008 A 
HETATM    4  C4  UNL     1     -18.398  53.362  -1.836  1.00  0.00     0.019 A 
HETATM    5  C5  UNL     1     -18.856  54.066  -0.759  1.00  0.00     0.049 A 
HETATM    6  C6  UNL     1     -18.047  54.692   0.157  1.00  0.00     0.198 A 
HETATM    7  O1  UNL     1     -16.814  54.637   0.030  1.00  0.00    -0.286 OA
HETATM    8  C7  UNL     1     -18.605  55.385   1.218  1.00  0.00     0.049 A 
HETATM    9  C8  UNL     1     -17.808  56.018   2.144  1.00  0.00     0.018 A 
HETATM   10  C9  UNL     1     -18.400  56.698   3.188  1.00  0.00     0.002 A 
HETATM   11  C10 UNL     1     -19.768  56.756   3.323  1.00  0.00     0.010 A 
HETATM   12  C11 UNL     1     -20.575  56.127   2.404  1.00  0.00    -0.013 A 
HETATM   13  C14 UNL     1     -19.992  55.447   1.359  1.00  0.00     0.097 A 
HETATM   14  O4  UNL     1     -20.709  54.832   0.459  1.00  0.00    -0.308 OA
HETATM   15  C15 UNL     1     -20.218  54.173  -0.551  1.00  0.00     0.096 A 
HETATM   16  C16 UNL     1     -21.075  53.562  -1.440  1.00  0.00    -0.021 A 
HETATM   17  C17 UNL     1     -22.537  53.676  -1.213  1.00  0.00     0.052 C 
ENDROOT
BRANCH  12  18
HETATM   18  C12 UNL     1     -22.045  56.170   2.514  1.00  0.00     0.154 C 
BRANCH  18  19
HETATM   19  C13 UNL     1     -22.618  57.448   2.079  1.00  0.00     0.177 C 
HETATM   20  O2  UNL     1     -22.152  58.054   1.094  1.00  0.00    -0.648 OA
HETATM   21  O3  UNL     1     -23.683  57.995   2.756  1.00  0.00    -0.648 OA
ENDBRANCH  18  19
ENDBRANCH  12  18
TORSDOF 2
ENDMDL
