MODEL 10
REMARK VINA RESULT: -8.658863924      0.935      1.334
REMARK  2 active torsions:
REMARK  status: ('A' for Active; 'I' for Inactive)
REMARK    1  A    between atoms: C11_12  and  C12_13 
REMARK    2  A    between atoms: C12_13  and  C13_14 
ROOT
HETATM    1  C1  UNL     1     -24.208  52.024  -7.162  1.00  0.00     0.049 C 
HETATM    2  C2  UNL     1     -22.852  51.997  -6.588  1.00  0.00    -0.053 A 
HETATM    3  C3  UNL     1     -21.737  51.841  -7.384  1.00  0.00     0.008 A 
HETATM    4  C4  UNL     1     -20.481  51.823  -6.817  1.00  0.00     0.019 A 
HETATM    5  C5  UNL     1     -20.308  51.958  -5.469  1.00  0.00     0.049 A 
HETATM    6  C6  UNL     1     -19.086  51.949  -4.842  1.00  0.00     0.198 A 
HETATM    7  O1  UNL     1     -18.050  51.811  -5.511  1.00  0.00    -0.286 OA
HETATM    8  C7  UNL     1     -19.009  52.095  -3.468  1.00  0.00     0.049 A 
HETATM    9  C8  UNL     1     -17.792  52.088  -2.824  1.00  0.00     0.018 A 
HETATM   10  C9  UNL     1     -17.756  52.236  -1.454  1.00  0.00     0.002 A 
HETATM   11  C10 UNL     1     -18.908  52.388  -0.717  1.00  0.00     0.010 A 
HETATM   12  C11 UNL     1     -20.130  52.397  -1.348  1.00  0.00    -0.013 A 
HETATM   13  C14 UNL     1     -20.175  52.250  -2.716  1.00  0.00     0.097 A 
HETATM   14  O4  UNL     1     -21.305  52.250  -3.366  1.00  0.00    -0.308 OA
HETATM   15  C15 UNL     1     -21.414  52.116  -4.657  1.00  0.00     0.096 A 
HETATM   16  C16 UNL     1     -22.665  52.132  -5.235  1.00  0.00    -0.021 A 
HETATM   17  C17 UNL     1     -23.851  52.300  -4.361  1.00  0.00     0.052 C 
ENDROOT
BRANCH  12  18
HETATM   18  C12 UNL     1     -21.385  52.561  -0.592  1.00  0.00     0.154 C 
BRANCH  18  19
HETATM   19  C13 UNL     1     -22.159  51.319  -0.485  1.00  0.00     0.177 C 
HETATM   20  O2  UNL     1     -23.347  51.273  -0.859  1.00  0.00    -0.648 OA
HETATM   21  O3  UNL     1     -21.577  50.185   0.033  1.00  0.00    -0.648 OA
ENDBRANCH  18  19
ENDBRANCH  12  18
TORSDOF 2
ENDMDL
