MODEL 6
REMARK VINA RESULT: -8.876055253      1.611      1.927
REMARK  2 active torsions:
REMARK  status: ('A' for Active; 'I' for Inactive)
REMARK    1  A    between atoms: C11_12  and  C12_13 
REMARK    2  A    between atoms: C12_13  and  C13_14 
ROOT
HETATM    1  C1  UNL     1     -22.594  51.404  -6.760  1.00  0.00     0.049 C 
HETATM    2  C2  UNL     1     -21.602  51.655  -5.701  1.00  0.00    -0.053 A 
HETATM    3  C3  UNL     1     -20.249  51.553  -5.945  1.00  0.00     0.008 A 
HETATM    4  C4  UNL     1     -19.345  51.797  -4.933  1.00  0.00     0.019 A 
HETATM    5  C5  UNL     1     -19.758  52.142  -3.679  1.00  0.00     0.049 A 
HETATM    6  C6  UNL     1     -18.911  52.399  -2.629  1.00  0.00     0.198 A 
HETATM    7  O1  UNL     1     -17.684  52.321  -2.794  1.00  0.00    -0.286 OA
HETATM    8  C7  UNL     1     -19.424  52.744  -1.390  1.00  0.00     0.049 A 
HETATM    9  C8  UNL     1     -18.588  53.004  -0.328  1.00  0.00     0.018 A 
HETATM   10  C9  UNL     1     -19.136  53.344   0.891  1.00  0.00     0.002 A 
HETATM   11  C10 UNL     1     -20.498  53.429   1.067  1.00  0.00     0.010 A 
HETATM   12  C11 UNL     1     -21.343  53.172   0.014  1.00  0.00    -0.013 A 
HETATM   13  C14 UNL     1     -20.805  52.831  -1.206  1.00  0.00     0.097 A 
HETATM   14  O4  UNL     1     -21.559  52.576  -2.239  1.00  0.00    -0.308 OA
HETATM   15  C15 UNL     1     -21.111  52.249  -3.417  1.00  0.00     0.096 A 
HETATM   16  C16 UNL     1     -22.005  52.002  -4.436  1.00  0.00    -0.021 A 
HETATM   17  C17 UNL     1     -23.457  52.116  -4.152  1.00  0.00     0.052 C 
ENDROOT
BRANCH  12  18
HETATM   18  C12 UNL     1     -22.808  53.255   0.164  1.00  0.00     0.154 C 
BRANCH  18  19
HETATM   19  C13 UNL     1     -23.349  54.572  -0.190  1.00  0.00     0.177 C 
HETATM   20  O2  UNL     1     -24.566  54.723  -0.413  1.00  0.00    -0.648 OA
HETATM   21  O3  UNL     1     -22.513  55.660  -0.280  1.00  0.00    -0.648 OA
ENDBRANCH  18  19
ENDBRANCH  12  18
TORSDOF 2
ENDMDL
