MODEL 17
REMARK VINA RESULT: -8.883975297      3.468     12.081
REMARK  7 active torsions:
REMARK  status: ('A' for Active; 'I' for Inactive)
REMARK    1  A    between atoms: C2_2  and  C3_4 
REMARK    2  A    between atoms: C6_7  and  N1_8 
REMARK       I    between atoms: N2_11  and  C9_12 
REMARK    3  A    between atoms: C9_12  and  C10_14 
REMARK    4  A    between atoms: C10_14  and  N3_15 
REMARK    5  A    between atoms: C13_18  and  C14_19 
REMARK       I    between atoms: C14_19  and  N4_21 
REMARK    6  A    between atoms: N4_21  and  C15_23 
REMARK    7  A    between atoms: C18_26  and  O4_27 
ROOT
HETATM    1  N3  UNL     1      49.114  17.750   9.596  1.00  0.00     0.098 N 
HETATM    2  C11 UNL     1      47.907  17.579   8.876  1.00  0.00     0.274 C 
HETATM    3  C12 UNL     1      47.144  16.500   9.593  1.00  0.00     0.046 C 
HETATM    4  C13 UNL     1      48.063  15.944  10.627  1.00  0.00     0.108 C 
HETATM    5  C21 UNL     1      49.141  16.967  10.776  1.00  0.00     0.287 C 
ENDROOT
BRANCH   1   6
HETATM    6  C10 UNL     1      49.436  19.130   9.895  1.00  0.00     0.374 C 
BRANCH   6   7
HETATM    7  C9  UNL     1      49.043  20.083   8.841  1.00  0.00     0.248 C 
HETATM    8  N2  UNL     1      47.867  20.852   8.965  1.00  0.00    -0.348 N 
HETATM    9  C8  UNL     1      47.450  21.793   7.957  1.00  0.00     0.145 C 
HETATM   10  C22 UNL     1      47.039  20.706  10.137  1.00  0.00     0.145 C 
HETATM   11  C7  UNL     1      47.258  23.149   8.654  1.00  0.00     0.143 C 
HETATM   12  N1  UNL     1      46.534  23.004   9.894  1.00  0.00    -0.378 N 
HETATM   13  C23 UNL     1      47.104  22.066  10.840  1.00  0.00     0.143 C 
HETATM   14  O2  UNL     1      49.775  20.197   7.827  1.00  0.00    -0.271 OA
BRANCH  12  15
HETATM   15  C6  UNL     1      45.357  23.733  10.170  1.00  0.00     0.030 A 
HETATM   16  C5  UNL     1      44.989  24.817   9.419  1.00  0.00     0.030 A 
HETATM   17  C4  UNL     1      43.831  25.507   9.702  1.00  0.00     0.017 A 
HETATM   18  C3  UNL     1      42.967  25.170  10.740  1.00  0.00     0.009 A 
HETATM   19  C25 UNL     1      43.344  24.077  11.491  1.00  0.00     0.017 A 
HETATM   20  C24 UNL     1      44.501  23.380  11.218  1.00  0.00     0.030 A 
BRANCH  18  21
HETATM   21  C2  UNL     1      41.756  25.924  11.004  1.00  0.00     0.155 C 
HETATM   22  C1  UNL     1      40.530  25.646  10.238  1.00  0.00     0.096 C 
HETATM   23  O1  UNL     1      41.759  26.805  11.881  1.00  0.00    -0.293 OA
ENDBRANCH  18  21
ENDBRANCH  12  15
ENDBRANCH   6   7
ENDBRANCH   1   6
BRANCH   4  24
HETATM   24  C14 UNL     1      48.571  14.587  10.261  1.00  0.00     0.228 C 
HETATM   25  O3  UNL     1      48.356  13.663  11.072  1.00  0.00    -0.273 OA
HETATM   26  N4  UNL     1      49.262  14.320   9.078  1.00  0.00    -0.327 N 
ATOM     27  H4  UNL     1      49.407  15.121   8.465  1.00  0.00     0.169 HD
BRANCH  26  28
HETATM   28  C15 UNL     1      49.787  13.100   8.614  1.00  0.00     0.036 A 
HETATM   29  C16 UNL     1      51.098  12.963   8.271  1.00  0.00     0.032 A 
HETATM   30  C17 UNL     1      51.569  11.732   7.798  1.00  0.00     0.040 A 
HETATM   31  C18 UNL     1      50.770  10.625   7.654  1.00  0.00     0.087 A 
HETATM   32  C19 UNL     1      49.446  10.793   8.010  1.00  0.00     0.069 A 
HETATM   33 CL1  UNL     1      48.396   9.391   7.836  1.00  0.00    -0.081 Cl
HETATM   34  C20 UNL     1      48.957  11.982   8.475  1.00  0.00     0.056 A 
BRANCH  31  35
HETATM   35  O4  UNL     1      51.258   9.410   7.182  1.00  0.00    -0.359 OA
ATOM     36  H4  UNL     1      50.791   8.890   6.539  1.00  0.00     0.217 HD
ENDBRANCH  31  35
ENDBRANCH  26  28
ENDBRANCH   4  24
TORSDOF 7
ENDMDL
