MODEL 1
REMARK VINA RESULT: -9.741696487      0.000      0.000
REMARK  7 active torsions:
REMARK  status: ('A' for Active; 'I' for Inactive)
REMARK    1  A    between atoms: C2_2  and  C3_4 
REMARK    2  A    between atoms: C6_7  and  N1_8 
REMARK       I    between atoms: N2_11  and  C9_12 
REMARK    3  A    between atoms: C9_12  and  C10_14 
REMARK    4  A    between atoms: C10_14  and  N3_15 
REMARK    5  A    between atoms: C13_18  and  C14_19 
REMARK       I    between atoms: C14_19  and  N4_21 
REMARK    6  A    between atoms: N4_21  and  C15_23 
REMARK    7  A    between atoms: C18_26  and  O4_27 
ROOT
HETATM    1  N3  UNL     1      48.389  20.703   8.983  1.00  0.00     0.098 N 
HETATM    2  C11 UNL     1      48.989  20.958   7.726  1.00  0.00     0.274 C 
HETATM    3  C12 UNL     1      49.262  22.436   7.687  1.00  0.00     0.046 C 
HETATM    4  C13 UNL     1      48.613  23.021   8.895  1.00  0.00     0.108 C 
HETATM    5  C21 UNL     1      48.364  21.858   9.801  1.00  0.00     0.287 C 
ENDROOT
BRANCH   1   6
HETATM    6  C10 UNL     1      48.966  19.585   9.700  1.00  0.00     0.374 C 
BRANCH   6   7
HETATM    7  C9  UNL     1      47.979  18.599  10.175  1.00  0.00     0.248 C 
HETATM    8  N2  UNL     1      48.028  17.258   9.737  1.00  0.00    -0.348 N 
HETATM    9  C8  UNL     1      47.081  16.266  10.178  1.00  0.00     0.145 C 
HETATM   10  C22 UNL     1      49.057  16.848   8.813  1.00  0.00     0.145 C 
HETATM   11  C7  UNL     1      47.890  15.094  10.757  1.00  0.00     0.143 C 
HETATM   12  N1  UNL     1      49.000  14.749   9.902  1.00  0.00    -0.378 N 
HETATM   13  C23 UNL     1      49.906  15.836   9.589  1.00  0.00     0.143 C 
HETATM   14  O2  UNL     1      47.090  18.973  10.979  1.00  0.00    -0.271 OA
BRANCH  12  15
HETATM   15  C6  UNL     1      49.194  13.440   9.411  1.00  0.00     0.030 A 
HETATM   16  C5  UNL     1      48.377  12.404   9.780  1.00  0.00     0.030 A 
HETATM   17  C4  UNL     1      48.581  11.136   9.280  1.00  0.00     0.017 A 
HETATM   18  C3  UNL     1      49.600  10.815   8.388  1.00  0.00     0.009 A 
HETATM   19  C25 UNL     1      50.418  11.862   8.021  1.00  0.00     0.017 A 
HETATM   20  C24 UNL     1      50.224  13.134   8.516  1.00  0.00     0.030 A 
BRANCH  18  21
HETATM   21  C2  UNL     1      49.780   9.465   7.886  1.00  0.00     0.155 C 
HETATM   22  C1  UNL     1      48.610   8.607   7.639  1.00  0.00     0.096 C 
HETATM   23  O1  UNL     1      50.927   9.040   7.664  1.00  0.00    -0.293 OA
ENDBRANCH  18  21
ENDBRANCH  12  15
ENDBRANCH   6   7
ENDBRANCH   1   6
BRANCH   4  24
HETATM   24  C14 UNL     1      47.378  23.792   8.556  1.00  0.00     0.228 C 
HETATM   25  O3  UNL     1      47.509  24.758   7.777  1.00  0.00    -0.273 OA
HETATM   26  N4  UNL     1      46.117  23.481   9.065  1.00  0.00    -0.327 N 
ATOM     27  H4  UNL     1      46.084  22.683   9.699  1.00  0.00     0.169 HD
BRANCH  26  28
HETATM   28  C15 UNL     1      44.884  24.116   8.828  1.00  0.00     0.036 A 
HETATM   29  C16 UNL     1      44.037  24.450   9.841  1.00  0.00     0.032 A 
HETATM   30  C17 UNL     1      42.813  25.065   9.551  1.00  0.00     0.040 A 
HETATM   31  C18 UNL     1      42.402  25.361   8.275  1.00  0.00     0.087 A 
HETATM   32  C19 UNL     1      43.282  25.012   7.268  1.00  0.00     0.069 A 
HETATM   33 CL1  UNL     1      42.783  25.379   5.620  1.00  0.00    -0.081 Cl
HETATM   34  C20 UNL     1      44.483  24.411   7.519  1.00  0.00     0.056 A 
BRANCH  31  35
HETATM   35  O4  UNL     1      41.182  25.973   8.008  1.00  0.00    -0.359 OA
ATOM     36  H4  UNL     1      40.453  25.506   7.617  1.00  0.00     0.217 HD
ENDBRANCH  31  35
ENDBRANCH  26  28
ENDBRANCH   4  24
TORSDOF 7
ENDMDL
