MODEL 4
REMARK VINA RESULT: -9.261752970      3.956      5.317
REMARK  7 active torsions:
REMARK  status: ('A' for Active; 'I' for Inactive)
REMARK    1  A    between atoms: C2_2  and  C3_4 
REMARK    2  A    between atoms: C6_7  and  N1_8 
REMARK       I    between atoms: N2_11  and  C9_12 
REMARK    3  A    between atoms: C9_12  and  C10_14 
REMARK    4  A    between atoms: C10_14  and  N3_15 
REMARK    5  A    between atoms: C13_18  and  C14_19 
REMARK       I    between atoms: C14_19  and  N4_21 
REMARK    6  A    between atoms: N4_21  and  C15_23 
REMARK    7  A    between atoms: C18_26  and  O4_27 
ROOT
HETATM    1  N3  UNL     1      44.324  19.293  14.598  1.00  0.00     0.098 N 
HETATM    2  C11 UNL     1      45.206  19.642  15.649  1.00  0.00     0.274 C 
HETATM    3  C12 UNL     1      45.155  21.141  15.755  1.00  0.00     0.046 C 
HETATM    4  C13 UNL     1      44.357  21.623  14.592  1.00  0.00     0.108 C 
HETATM    5  C21 UNL     1      43.622  20.418  14.102  1.00  0.00     0.287 C 
ENDROOT
BRANCH   1   6
HETATM    6  C10 UNL     1      43.404  18.224  14.925  1.00  0.00     0.374 C 
BRANCH   6   7
HETATM    7  C9  UNL     1      44.052  16.919  15.153  1.00  0.00     0.248 C 
HETATM    8  N2  UNL     1      44.604  16.190  14.079  1.00  0.00    -0.348 N 
HETATM    9  C8  UNL     1      45.245  14.912  14.262  1.00  0.00     0.145 C 
HETATM   10  C22 UNL     1      44.534  16.726  12.742  1.00  0.00     0.145 C 
HETATM   11  C7  UNL     1      46.651  15.019  13.649  1.00  0.00     0.143 C 
HETATM   12  N1  UNL     1      46.614  15.666  12.359  1.00  0.00    -0.378 N 
HETATM   13  C23 UNL     1      45.991  16.974  12.337  1.00  0.00     0.143 C 
HETATM   14  O2  UNL     1      44.104  16.467  16.323  1.00  0.00    -0.271 OA
BRANCH  12  15
HETATM   15  C6  UNL     1      47.155  15.067  11.201  1.00  0.00     0.030 A 
HETATM   16  C5  UNL     1      47.792  13.856  11.246  1.00  0.00     0.030 A 
HETATM   17  C4  UNL     1      48.304  13.289  10.100  1.00  0.00     0.017 A 
HETATM   18  C3  UNL     1      48.218  13.880   8.843  1.00  0.00     0.009 A 
HETATM   19  C25 UNL     1      47.575  15.099   8.805  1.00  0.00     0.017 A 
HETATM   20  C24 UNL     1      47.060  15.677   9.946  1.00  0.00     0.030 A 
BRANCH  18  21
HETATM   21  C2  UNL     1      48.771  13.247   7.660  1.00  0.00     0.155 C 
HETATM   22  C1  UNL     1      49.003  11.794   7.639  1.00  0.00     0.096 C 
HETATM   23  O1  UNL     1      49.048  13.939   6.665  1.00  0.00    -0.293 OA
ENDBRANCH  18  21
ENDBRANCH  12  15
ENDBRANCH   6   7
ENDBRANCH   1   6
BRANCH   4  24
HETATM   24  C14 UNL     1      45.211  22.269  13.549  1.00  0.00     0.228 C 
HETATM   25  O3  UNL     1      46.152  22.985  13.950  1.00  0.00    -0.273 OA
HETATM   26  N4  UNL     1      45.002  22.108  12.179  1.00  0.00    -0.327 N 
ATOM     27  H4  UNL     1      44.213  21.515  11.923  1.00  0.00     0.169 HD
BRANCH  26  28
HETATM   28  C15 UNL     1      45.725  22.651  11.102  1.00  0.00     0.036 A 
HETATM   29  C16 UNL     1      46.931  22.148  10.717  1.00  0.00     0.032 A 
HETATM   30  C17 UNL     1      47.621  22.735   9.649  1.00  0.00     0.040 A 
HETATM   31  C18 UNL     1      47.145  23.813   8.946  1.00  0.00     0.087 A 
HETATM   32  C19 UNL     1      45.919  24.301   9.358  1.00  0.00     0.069 A 
HETATM   33 CL1  UNL     1      45.282  25.684   8.475  1.00  0.00    -0.081 Cl
HETATM   34  C20 UNL     1      45.223  23.750  10.396  1.00  0.00     0.056 A 
BRANCH  31  35
HETATM   35  O4  UNL     1      47.846  24.382   7.887  1.00  0.00    -0.359 OA
ATOM     36  H4  UNL     1      47.494  25.096   7.368  1.00  0.00     0.217 HD
ENDBRANCH  31  35
ENDBRANCH  26  28
ENDBRANCH   4  24
TORSDOF 7
ENDMDL
