MODEL 3
REMARK VINA RESULT: -9.291073612      4.713     10.318
REMARK  7 active torsions:
REMARK  status: ('A' for Active; 'I' for Inactive)
REMARK    1  A    between atoms: C2_2  and  C3_4 
REMARK    2  A    between atoms: C6_7  and  N1_8 
REMARK       I    between atoms: N2_11  and  C9_12 
REMARK    3  A    between atoms: C9_12  and  C10_14 
REMARK    4  A    between atoms: C10_14  and  N3_15 
REMARK    5  A    between atoms: C13_18  and  C14_19 
REMARK       I    between atoms: C14_19  and  N4_21 
REMARK    6  A    between atoms: N4_21  and  C15_23 
REMARK    7  A    between atoms: C18_26  and  O4_27 
ROOT
HETATM    1  N3  UNL     1      48.058   9.397   9.711  1.00  0.00     0.098 N 
HETATM    2  C11 UNL     1      48.275   8.656  10.898  1.00  0.00     0.274 C 
HETATM    3  C12 UNL     1      46.912   8.300  11.422  1.00  0.00     0.046 C 
HETATM    4  C13 UNL     1      45.926   9.039  10.583  1.00  0.00     0.108 C 
HETATM    5  C21 UNL     1      46.686   9.444   9.362  1.00  0.00     0.287 C 
ENDROOT
BRANCH   1   6
HETATM    6  C10 UNL     1      48.854   8.959   8.584  1.00  0.00     0.374 C 
BRANCH   6   7
HETATM    7  C9  UNL     1      49.917   9.904   8.194  1.00  0.00     0.248 C 
HETATM    8  N2  UNL     1      49.671  11.293   8.158  1.00  0.00    -0.348 N 
HETATM    9  C8  UNL     1      50.684  12.247   7.782  1.00  0.00     0.145 C 
HETATM   10  C22 UNL     1      48.365  11.795   8.507  1.00  0.00     0.145 C 
HETATM   11  C7  UNL     1      50.787  13.271   8.923  1.00  0.00     0.143 C 
HETATM   12  N1  UNL     1      49.481  13.695   9.368  1.00  0.00    -0.378 N 
HETATM   13  C23 UNL     1      48.587  12.629   9.773  1.00  0.00     0.143 C 
HETATM   14  O2  UNL     1      51.048   9.450   7.893  1.00  0.00    -0.271 OA
BRANCH  12  15
HETATM   15  C6  UNL     1      49.105  15.055   9.414  1.00  0.00     0.030 A 
HETATM   16  C5  UNL     1      49.877  15.995  10.043  1.00  0.00     0.030 A 
HETATM   17  C4  UNL     1      49.493  17.317  10.067  1.00  0.00     0.017 A 
HETATM   18  C3  UNL     1      48.328  17.792   9.472  1.00  0.00     0.009 A 
HETATM   19  C25 UNL     1      47.556  16.840   8.840  1.00  0.00     0.017 A 
HETATM   20  C24 UNL     1      47.929  15.513   8.811  1.00  0.00     0.030 A 
BRANCH  18  21
HETATM   21  C2  UNL     1      47.960  19.195   9.520  1.00  0.00     0.155 C 
HETATM   22  C1  UNL     1      48.444  20.122   8.484  1.00  0.00     0.096 C 
HETATM   23  O1  UNL     1      47.233  19.609  10.440  1.00  0.00    -0.293 OA
ENDBRANCH  18  21
ENDBRANCH  12  15
ENDBRANCH   6   7
ENDBRANCH   1   6
BRANCH   4  24
HETATM   24  C14 UNL     1      45.310  10.188  11.313  1.00  0.00     0.228 C 
HETATM   25  O3  UNL     1      44.071  10.163  11.467  1.00  0.00    -0.273 OA
HETATM   26  N4  UNL     1      46.046  11.261  11.815  1.00  0.00    -0.327 N 
ATOM     27  H4  UNL     1      47.051  11.219  11.649  1.00  0.00     0.169 HD
BRANCH  26  28
HETATM   28  C15 UNL     1      45.596  12.394  12.518  1.00  0.00     0.036 A 
HETATM   29  C16 UNL     1      44.773  12.293  13.598  1.00  0.00     0.032 A 
HETATM   30  C17 UNL     1      44.338  13.452  14.253  1.00  0.00     0.040 A 
HETATM   31  C18 UNL     1      44.701  14.717  13.865  1.00  0.00     0.087 A 
HETATM   32  C19 UNL     1      45.537  14.789  12.767  1.00  0.00     0.069 A 
HETATM   33 CL1  UNL     1      46.019  16.400  12.245  1.00  0.00    -0.081 Cl
HETATM   34  C20 UNL     1      45.977  13.677  12.107  1.00  0.00     0.056 A 
BRANCH  31  35
HETATM   35  O4  UNL     1      44.258  15.857  14.529  1.00  0.00    -0.359 OA
ATOM     36  H4  UNL     1      43.878  16.597  14.072  1.00  0.00     0.217 HD
ENDBRANCH  31  35
ENDBRANCH  26  28
ENDBRANCH   4  24
TORSDOF 7
ENDMDL
