MODEL 4
REMARK VINA RESULT: -9.144894656      5.067      8.553
REMARK  6 active torsions:
REMARK  status: ('A' for Active; 'I' for Inactive)
REMARK    1  A    between atoms: C2_2  and  C3_3 
REMARK    2  A    between atoms: C3_3  and  N1_4 
REMARK    3  A    between atoms: C3_3  and  C23_30 
REMARK       I    between atoms: N1_4  and  C4_6 
REMARK    4  A    between atoms: C4_6  and  C5_8 
REMARK    5  A    between atoms: N2_15  and  S1_16 
REMARK    6  A    between atoms: S1_16  and  C12_19 
ROOT
HETATM    1  C5  UNL     1      13.687  32.015   9.553  1.00  0.00     0.033 A 
HETATM    2  C6  UNL     1      14.789  32.841   9.328  1.00  0.00     0.019 A 
HETATM    3  C7  UNL     1      14.622  34.203   9.191  1.00  0.00     0.032 A 
HETATM    4  C8  UNL     1      13.381  34.788   9.270  1.00  0.00     0.060 A 
HETATM    5  C9  UNL     1      12.294  33.972   9.492  1.00  0.00    -0.006 A 
HETATM    6  C10 UNL     1      11.209  34.793   9.527  1.00  0.00     0.032 A 
HETATM    7  C11 UNL     1      11.677  36.081   9.323  1.00  0.00     0.111 A 
HETATM    8  N2  UNL     1      13.012  36.081   9.164  1.00  0.00    -0.246 N 
HETATM    9  C22 UNL     1      12.445  32.599   9.633  1.00  0.00     0.030 A 
ENDROOT
BRANCH   1  10
HETATM   10  C4  UNL     1      13.927  30.589   9.689  1.00  0.00     0.252 C 
HETATM   11  N1  UNL     1      15.147  30.075  10.192  1.00  0.00    -0.348 N 
ATOM     12  H1  UNL     1      15.885  30.721  10.470  1.00  0.00     0.163 HD
HETATM   13  O1  UNL     1      13.058  29.730   9.366  1.00  0.00    -0.268 OA
BRANCH  11  14
HETATM   14  C3  UNL     1      15.367  28.632  10.321  1.00  0.00     0.117 C 
BRANCH  14  15
HETATM   15  C2  UNL     1      16.790  28.309   9.930  1.00  0.00     0.025 C 
HETATM   16  C1  UNL     1      17.499  29.558   9.431  1.00  0.00     0.007 C 
ENDBRANCH  14  15
BRANCH  14  17
HETATM   17  C23 UNL     1      15.084  28.284  11.734  1.00  0.00    -0.035 A 
HETATM   18  C24 UNL     1      13.917  27.619  12.055  1.00  0.00     0.009 A 
HETATM   19  C25 UNL     1      13.612  27.278  13.346  1.00  0.00     0.001 A 
HETATM   20  C26 UNL     1      14.497  27.609  14.350  1.00  0.00     0.000 A 
HETATM   21  C27 UNL     1      15.659  28.266  14.063  1.00  0.00     0.001 A 
HETATM   22  C28 UNL     1      15.942  28.600  12.741  1.00  0.00     0.009 A 
ENDBRANCH  14  17
ENDBRANCH  11  14
ENDBRANCH   1  10
BRANCH   8  23
HETATM   23  S1  UNL     1      14.057  37.438   8.869  1.00  0.00     0.270 S 
HETATM   24  O2  UNL     1      14.551  38.016  10.166  1.00  0.00    -0.200 OA
HETATM   25  O3  UNL     1      13.193  38.516   8.252  1.00  0.00    -0.200 OA
BRANCH  23  26
HETATM   26  C12 UNL     1      15.339  37.076   7.766  1.00  0.00     0.091 A 
HETATM   27  C13 UNL     1      16.663  37.097   8.178  1.00  0.00     0.026 A 
HETATM   28  C14 UNL     1      17.732  36.837   7.365  1.00  0.00     0.002 A 
HETATM   29  C15 UNL     1      17.483  36.533   6.043  1.00  0.00     0.012 A 
HETATM   30  C16 UNL     1      16.188  36.497   5.571  1.00  0.00    -0.024 A 
HETATM   31  C17 UNL     1      15.936  36.188   4.245  1.00  0.00     0.012 A 
HETATM   32  C21 UNL     1      15.136  36.769   6.439  1.00  0.00    -0.003 A 
HETATM   33  C18 UNL     1      14.650  36.140   3.746  1.00  0.00     0.001 A 
HETATM   34  C19 UNL     1      13.617  36.406   4.602  1.00  0.00     0.001 A 
HETATM   35  C20 UNL     1      13.876  36.711   5.915  1.00  0.00     0.014 A 
ENDBRANCH  23  26
ENDBRANCH   8  23
TORSDOF 6
ENDMDL
