MODEL 2
REMARK VINA RESULT: -9.294236734      4.234     10.747
REMARK  6 active torsions:
REMARK  status: ('A' for Active; 'I' for Inactive)
REMARK    1  A    between atoms: C2_2  and  C3_3 
REMARK    2  A    between atoms: C3_3  and  N1_4 
REMARK    3  A    between atoms: C3_3  and  C23_30 
REMARK       I    between atoms: N1_4  and  C4_6 
REMARK    4  A    between atoms: C4_6  and  C5_8 
REMARK    5  A    between atoms: N2_15  and  S1_16 
REMARK    6  A    between atoms: S1_16  and  C12_19 
ROOT
HETATM    1  C5  UNL     1      15.514  34.115   8.921  1.00  0.00     0.033 A 
HETATM    2  C6  UNL     1      16.548  33.235   9.241  1.00  0.00     0.019 A 
HETATM    3  C7  UNL     1      16.268  31.932   9.594  1.00  0.00     0.032 A 
HETATM    4  C8  UNL     1      14.978  31.460   9.643  1.00  0.00     0.060 A 
HETATM    5  C9  UNL     1      13.958  32.330   9.327  1.00  0.00    -0.006 A 
HETATM    6  C10 UNL     1      12.804  31.619   9.453  1.00  0.00     0.032 A 
HETATM    7  C11 UNL     1      13.167  30.339   9.841  1.00  0.00     0.111 A 
HETATM    8  N2  UNL     1      14.501  30.238   9.960  1.00  0.00    -0.246 N 
HETATM    9  C22 UNL     1      14.223  33.645   8.969  1.00  0.00     0.030 A 
ENDROOT
BRANCH   1  10
HETATM   10  C4  UNL     1      15.872  35.475   8.557  1.00  0.00     0.252 C 
HETATM   11  N1  UNL     1      16.894  35.760   7.620  1.00  0.00    -0.348 N 
ATOM     12  H1  UNL     1      17.399  34.990   7.182  1.00  0.00     0.163 HD
HETATM   13  O1  UNL     1      15.288  36.479   9.058  1.00  0.00    -0.268 OA
BRANCH  11  14
HETATM   14  C3  UNL     1      17.239  37.140   7.267  1.00  0.00     0.117 C 
BRANCH  14  15
HETATM   15  C2  UNL     1      18.740  37.265   7.157  1.00  0.00     0.025 C 
HETATM   16  C1  UNL     1      19.128  38.692   6.801  1.00  0.00     0.007 C 
ENDBRANCH  14  15
BRANCH  14  17
HETATM   17  C23 UNL     1      16.559  37.432   5.982  1.00  0.00    -0.035 A 
HETATM   18  C24 UNL     1      16.756  36.600   4.898  1.00  0.00     0.009 A 
HETATM   19  C25 UNL     1      16.149  36.831   3.691  1.00  0.00     0.001 A 
HETATM   20  C26 UNL     1      15.320  37.925   3.560  1.00  0.00     0.000 A 
HETATM   21  C27 UNL     1      15.107  38.765   4.615  1.00  0.00     0.001 A 
HETATM   22  C28 UNL     1      15.738  38.505   5.829  1.00  0.00     0.009 A 
ENDBRANCH  14  17
ENDBRANCH  11  14
ENDBRANCH   1  10
BRANCH   8  23
HETATM   23  S1  UNL     1      15.435  28.851  10.434  1.00  0.00     0.270 S 
HETATM   24  O2  UNL     1      16.826  28.932   9.868  1.00  0.00    -0.200 OA
HETATM   25  O3  UNL     1      14.796  27.656   9.760  1.00  0.00    -0.200 OA
BRANCH  23  26
HETATM   26  C12 UNL     1      15.423  28.578  12.141  1.00  0.00     0.091 A 
HETATM   27  C13 UNL     1      16.445  29.053  12.948  1.00  0.00     0.026 A 
HETATM   28  C14 UNL     1      16.515  28.867  14.302  1.00  0.00     0.002 A 
HETATM   29  C15 UNL     1      15.502  28.160  14.913  1.00  0.00     0.012 A 
HETATM   30  C16 UNL     1      14.456  27.660  14.165  1.00  0.00    -0.024 A 
HETATM   31  C17 UNL     1      13.435  26.952  14.777  1.00  0.00     0.012 A 
HETATM   32  C21 UNL     1      14.431  27.876  12.792  1.00  0.00    -0.003 A 
HETATM   33  C18 UNL     1      12.374  26.445  14.056  1.00  0.00     0.001 A 
HETATM   34  C19 UNL     1      12.352  26.660  12.706  1.00  0.00     0.001 A 
HETATM   35  C20 UNL     1      13.367  27.363  12.107  1.00  0.00     0.014 A 
ENDBRANCH  23  26
ENDBRANCH   8  23
TORSDOF 6
ENDMDL
