MODEL 3
REMARK VINA RESULT: -9.188806569      5.116      8.567
REMARK  6 active torsions:
REMARK  status: ('A' for Active; 'I' for Inactive)
REMARK    1  A    between atoms: C2_2  and  C3_3 
REMARK    2  A    between atoms: C3_3  and  N1_4 
REMARK    3  A    between atoms: C3_3  and  C23_30 
REMARK       I    between atoms: N1_4  and  C4_6 
REMARK    4  A    between atoms: C4_6  and  C5_8 
REMARK    5  A    between atoms: N2_15  and  S1_16 
REMARK    6  A    between atoms: S1_16  and  C12_19 
ROOT
HETATM    1  C5  UNL     1      13.436  31.837   9.522  1.00  0.00     0.033 A 
HETATM    2  C6  UNL     1      14.484  32.655   9.095  1.00  0.00     0.019 A 
HETATM    3  C7  UNL     1      14.281  34.006   8.908  1.00  0.00     0.032 A 
HETATM    4  C8  UNL     1      13.055  34.588   9.131  1.00  0.00     0.060 A 
HETATM    5  C9  UNL     1      12.022  33.780   9.551  1.00  0.00    -0.006 A 
HETATM    6  C10 UNL     1      10.942  34.595   9.694  1.00  0.00     0.032 A 
HETATM    7  C11 UNL     1      11.359  35.872   9.354  1.00  0.00     0.111 A 
HETATM    8  N2  UNL     1      12.657  35.870   9.007  1.00  0.00    -0.246 N 
HETATM    9  C22 UNL     1      12.211  32.417   9.745  1.00  0.00     0.030 A 
ENDROOT
BRANCH   1  10
HETATM   10  C4  UNL     1      13.712  30.422   9.701  1.00  0.00     0.252 C 
HETATM   11  N1  UNL     1      14.954  29.954  10.195  1.00  0.00    -0.348 N 
ATOM     12  H1  UNL     1      15.682  30.626  10.435  1.00  0.00     0.163 HD
HETATM   13  O1  UNL     1      12.857  29.533   9.426  1.00  0.00    -0.268 OA
BRANCH  11  14
HETATM   14  C3  UNL     1      15.211  28.522  10.368  1.00  0.00     0.117 C 
BRANCH  14  15
HETATM   15  C2  UNL     1      16.646  28.225  10.001  1.00  0.00     0.025 C 
HETATM   16  C1  UNL     1      17.349  29.494   9.545  1.00  0.00     0.007 C 
ENDBRANCH  14  15
BRANCH  14  17
HETATM   17  C23 UNL     1      14.922  28.208  11.789  1.00  0.00    -0.035 A 
HETATM   18  C24 UNL     1      13.756  27.547  12.120  1.00  0.00     0.009 A 
HETATM   19  C25 UNL     1      13.447  27.237  13.418  1.00  0.00     0.001 A 
HETATM   20  C26 UNL     1      14.326  27.595  14.418  1.00  0.00     0.000 A 
HETATM   21  C27 UNL     1      15.486  28.250  14.120  1.00  0.00     0.001 A 
HETATM   22  C28 UNL     1      15.774  28.552  12.791  1.00  0.00     0.009 A 
ENDBRANCH  14  17
ENDBRANCH  11  14
ENDBRANCH   1  10
BRANCH   8  23
HETATM   23  S1  UNL     1      13.632  37.214   8.490  1.00  0.00     0.270 S 
HETATM   24  O2  UNL     1      14.522  37.682   9.608  1.00  0.00    -0.200 OA
HETATM   25  O3  UNL     1      12.677  38.359   8.232  1.00  0.00    -0.200 OA
BRANCH  23  26
HETATM   26  C12 UNL     1      14.502  36.896   7.030  1.00  0.00     0.091 A 
HETATM   27  C13 UNL     1      13.849  36.835   5.809  1.00  0.00     0.026 A 
HETATM   28  C14 UNL     1      14.463  36.575   4.614  1.00  0.00     0.002 A 
HETATM   29  C15 UNL     1      15.823  36.356   4.617  1.00  0.00     0.012 A 
HETATM   30  C16 UNL     1      16.531  36.402   5.800  1.00  0.00    -0.024 A 
HETATM   31  C17 UNL     1      17.899  36.187   5.805  1.00  0.00     0.012 A 
HETATM   32  C21 UNL     1      15.861  36.671   6.988  1.00  0.00    -0.003 A 
HETATM   33  C18 UNL     1      18.633  36.231   6.973  1.00  0.00     0.001 A 
HETATM   34  C19 UNL     1      17.971  36.497   8.139  1.00  0.00     0.001 A 
HETATM   35  C20 UNL     1      16.616  36.710   8.126  1.00  0.00     0.014 A 
ENDBRANCH  23  26
ENDBRANCH   8  23
TORSDOF 6
ENDMDL
