MODEL 9
REMARK VINA RESULT: -6.762582340      2.017      5.129
REMARK  5 active torsions:
REMARK  status: ('A' for Active; 'I' for Inactive)
REMARK    1  A    between atoms: N1_5  and  C4_6 
REMARK    2  A    between atoms: C5_8  and  C6_9 
REMARK    3  A    between atoms: C6_9  and  O3_10 
REMARK    4  A    between atoms: C7_12  and  O4_13 
REMARK    5  A    between atoms: C8_15  and  O5_16 
ROOT
HETATM    1  C4  UNL     1     -18.897  58.712 -35.245  1.00  0.00     0.263 C 
HETATM    2  O2  UNL     1     -17.590  58.957 -34.902  1.00  0.00    -0.353 OA
HETATM    3  C5  UNL     1     -17.415  60.230 -35.447  1.00  0.00     0.179 C 
HETATM    4  C7  UNL     1     -18.579  61.006 -34.885  1.00  0.00     0.182 C 
HETATM    5  C8  UNL     1     -19.614  59.916 -34.647  1.00  0.00     0.198 C 
ENDROOT
BRANCH   1   6
HETATM    6  N1  UNL     1     -19.422  57.471 -34.788  1.00  0.00    -0.280 N 
HETATM    7  C3  UNL     1     -19.016  56.854 -33.680  1.00  0.00     0.104 A 
HETATM    8  C2  UNL     1     -19.614  55.644 -33.347  1.00  0.00     0.092 A 
HETATM    9  C1  UNL     1     -20.597  55.088 -34.131  1.00  0.00     0.250 A 
HETATM   10  O1  UNL     1     -21.150  53.979 -33.832  1.00  0.00    -0.268 OA
HETATM   11  N2  UNL     1     -20.978  55.741 -35.239  1.00  0.00    -0.275 N 
HETATM   12  C9  UNL     1     -20.401  56.902 -35.553  1.00  0.00     0.331 A 
ATOM     13  H2  UNL     1     -21.706  55.351 -35.839  1.00  0.00     0.173 HD
HETATM   14  O6  UNL     1     -20.800  57.475 -36.613  1.00  0.00    -0.246 OA
ENDBRANCH   1   6
BRANCH   5  15
HETATM   15  O5  UNL     1     -20.769  60.117 -35.384  1.00  0.00    -0.388 OA
ATOM     16  H5  UNL     1     -21.482  60.235 -34.767  1.00  0.00     0.210 HD
ENDBRANCH   5  15
BRANCH   3  17
HETATM   17  C6  UNL     1     -16.086  60.834 -35.074  1.00  0.00     0.198 C 
BRANCH  17  18
HETATM   18  O3  UNL     1     -15.904  60.570 -33.699  1.00  0.00    -0.398 OA
ATOM     19  H3  UNL     1     -16.211  59.682 -33.556  1.00  0.00     0.209 HD
ENDBRANCH  17  18
ENDBRANCH   3  17
BRANCH   4  20
HETATM   20  O4  UNL     1     -19.094  61.834 -35.877  1.00  0.00    -0.390 OA
ATOM     21  H4  UNL     1     -19.217  62.705 -35.520  1.00  0.00     0.210 HD
ENDBRANCH   4  20
TORSDOF 5
ENDMDL
