MODEL 10
REMARK VINA RESULT: -6.713347699      2.216      5.333
REMARK  5 active torsions:
REMARK  status: ('A' for Active; 'I' for Inactive)
REMARK    1  A    between atoms: N1_5  and  C4_6 
REMARK    2  A    between atoms: C5_8  and  C6_9 
REMARK    3  A    between atoms: C6_9  and  O3_10 
REMARK    4  A    between atoms: C7_12  and  O4_13 
REMARK    5  A    between atoms: C8_15  and  O5_16 
ROOT
HETATM    1  C4  UNL     1     -18.530  59.200 -34.753  1.00  0.00     0.263 C 
HETATM    2  O2  UNL     1     -19.183  59.881 -35.750  1.00  0.00    -0.353 OA
HETATM    3  C5  UNL     1     -18.444  61.064 -35.781  1.00  0.00     0.179 C 
HETATM    4  C7  UNL     1     -17.023  60.576 -35.905  1.00  0.00     0.182 C 
HETATM    5  C8  UNL     1     -17.092  59.201 -35.256  1.00  0.00     0.198 C 
ENDROOT
BRANCH   1   6
HETATM    6  N1  UNL     1     -19.023  57.891 -34.487  1.00  0.00    -0.280 N 
HETATM    7  C3  UNL     1     -18.382  56.773 -34.820  1.00  0.00     0.104 A 
HETATM    8  C2  UNL     1     -18.976  55.557 -34.502  1.00  0.00     0.092 A 
HETATM    9  C1  UNL     1     -20.191  55.497 -33.861  1.00  0.00     0.250 A 
HETATM   10  O1  UNL     1     -20.742  54.386 -33.566  1.00  0.00    -0.268 OA
HETATM   11  N2  UNL     1     -20.805  56.647 -33.543  1.00  0.00    -0.275 N 
HETATM   12  C9  UNL     1     -20.229  57.810 -33.851  1.00  0.00     0.331 A 
ATOM     13  H2  UNL     1     -21.707  56.631 -33.067  1.00  0.00     0.173 HD
HETATM   14  O6  UNL     1     -20.855  58.866 -33.526  1.00  0.00    -0.246 OA
ENDBRANCH   1   6
BRANCH   5  15
HETATM   15  O5  UNL     1     -16.267  59.099 -34.150  1.00  0.00    -0.388 OA
ATOM     16  H5  UNL     1     -16.539  59.766 -33.531  1.00  0.00     0.210 HD
ENDBRANCH   5  15
BRANCH   3  17
HETATM   17  C6  UNL     1     -18.846  61.960 -36.924  1.00  0.00     0.198 C 
BRANCH  17  18
HETATM   18  O3  UNL     1     -19.138  61.108 -38.011  1.00  0.00    -0.398 OA
ATOM     19  H3  UNL     1     -18.872  60.236 -37.744  1.00  0.00     0.209 HD
ENDBRANCH  17  18
ENDBRANCH   3  17
BRANCH   4  20
HETATM   20  O4  UNL     1     -16.203  61.356 -35.096  1.00  0.00    -0.390 OA
ATOM     21  H4  UNL     1     -16.402  61.175 -34.186  1.00  0.00     0.210 HD
ENDBRANCH   4  20
TORSDOF 5
ENDMDL
