MODEL 1
REMARK VINA RESULT: -8.028646699      0.000      0.000
REMARK  5 active torsions:
REMARK  status: ('A' for Active; 'I' for Inactive)
REMARK    1  A    between atoms: N1_5  and  C4_6 
REMARK    2  A    between atoms: C5_8  and  C6_9 
REMARK    3  A    between atoms: C6_9  and  O3_10 
REMARK    4  A    between atoms: C7_12  and  O4_13 
REMARK    5  A    between atoms: C8_15  and  O5_16 
ROOT
HETATM    1  C4  UNL     1     -18.864  58.606 -34.182  1.00  0.00     0.263 C 
HETATM    2  O2  UNL     1     -18.949  57.238 -34.093  1.00  0.00    -0.353 OA
HETATM    3  C5  UNL     1     -20.334  57.067 -34.071  1.00  0.00     0.179 C 
HETATM    4  C7  UNL     1     -20.795  57.849 -35.274  1.00  0.00     0.182 C 
HETATM    5  C8  UNL     1     -19.700  58.897 -35.422  1.00  0.00     0.198 C 
ENDROOT
BRANCH   1   6
HETATM    6  N1  UNL     1     -17.543  59.128 -34.270  1.00  0.00    -0.280 N 
HETATM    7  C3  UNL     1     -17.187  60.332 -33.826  1.00  0.00     0.104 A 
HETATM    8  C2  UNL     1     -15.861  60.719 -33.974  1.00  0.00     0.092 A 
HETATM    9  C1  UNL     1     -14.931  59.892 -34.560  1.00  0.00     0.250 A 
HETATM   10  O1  UNL     1     -13.713  60.240 -34.699  1.00  0.00    -0.268 OA
HETATM   11  N2  UNL     1     -15.329  58.687 -34.993  1.00  0.00    -0.275 N 
HETATM   12  C9  UNL     1     -16.604  58.320 -34.848  1.00  0.00     0.331 A 
ATOM     13  H2  UNL     1     -14.660  58.053 -35.430  1.00  0.00     0.173 HD
HETATM   14  O6  UNL     1     -16.924  57.169 -35.276  1.00  0.00    -0.246 OA
ENDBRANCH   1   6
BRANCH   5  15
HETATM   15  O5  UNL     1     -20.186  60.187 -35.299  1.00  0.00    -0.388 OA
ATOM     16  H5  UNL     1     -19.680  60.738 -35.884  1.00  0.00     0.210 HD
ENDBRANCH   5  15
BRANCH   3  17
HETATM   17  C6  UNL     1     -20.732  55.615 -34.141  1.00  0.00     0.198 C 
BRANCH  17  18
HETATM   18  O3  UNL     1     -19.566  54.903 -34.495  1.00  0.00    -0.398 OA
ATOM     19  H3  UNL     1     -19.301  54.424 -33.719  1.00  0.00     0.209 HD
ENDBRANCH  17  18
ENDBRANCH   3  17
BRANCH   4  20
HETATM   20  O4  UNL     1     -21.961  58.536 -34.951  1.00  0.00    -0.390 OA
ATOM     21  H4  UNL     1     -21.759  59.458 -34.846  1.00  0.00     0.210 HD
ENDBRANCH   4  20
TORSDOF 5
ENDMDL
