MODEL 2
REMARK VINA RESULT: -7.898702798      1.869      4.998
REMARK  5 active torsions:
REMARK  status: ('A' for Active; 'I' for Inactive)
REMARK    1  A    between atoms: N1_5  and  C4_6 
REMARK    2  A    between atoms: C5_8  and  C6_9 
REMARK    3  A    between atoms: C6_9  and  O3_10 
REMARK    4  A    between atoms: C7_12  and  O4_13 
REMARK    5  A    between atoms: C8_15  and  O5_16 
ROOT
HETATM    1  C4  UNL     1     -17.823  58.675 -35.053  1.00  0.00     0.263 C 
HETATM    2  O2  UNL     1     -16.657  58.913 -34.367  1.00  0.00    -0.353 OA
HETATM    3  C5  UNL     1     -16.114  59.945 -35.133  1.00  0.00     0.179 C 
HETATM    4  C7  UNL     1     -17.243  60.940 -35.215  1.00  0.00     0.182 C 
HETATM    5  C8  UNL     1     -18.472  60.054 -35.063  1.00  0.00     0.198 C 
ENDROOT
BRANCH   1   6
HETATM    6  N1  UNL     1     -18.663  57.672 -34.492  1.00  0.00    -0.280 N 
HETATM    7  C3  UNL     1     -19.725  57.931 -33.731  1.00  0.00     0.104 A 
HETATM    8  C2  UNL     1     -20.461  56.856 -33.247  1.00  0.00     0.092 A 
HETATM    9  C1  UNL     1     -20.115  55.558 -33.539  1.00  0.00     0.250 A 
HETATM   10  O1  UNL     1     -20.786  54.566 -33.098  1.00  0.00    -0.268 OA
HETATM   11  N2  UNL     1     -19.039  55.339 -34.309  1.00  0.00    -0.275 N 
HETATM   12  C9  UNL     1     -18.336  56.375 -34.771  1.00  0.00     0.331 A 
ATOM     13  H2  UNL     1     -18.760  54.386 -34.541  1.00  0.00     0.173 HD
HETATM   14  O6  UNL     1     -17.328  56.109 -35.495  1.00  0.00    -0.246 OA
ENDBRANCH   1   6
BRANCH   5  15
HETATM   15  O5  UNL     1     -19.301  60.111 -36.170  1.00  0.00    -0.388 OA
ATOM     16  H5  UNL     1     -19.823  60.901 -36.092  1.00  0.00     0.210 HD
ENDBRANCH   5  15
BRANCH   3  17
HETATM   17  C6  UNL     1     -14.875  60.531 -34.506  1.00  0.00     0.198 C 
BRANCH  17  18
HETATM   18  O3  UNL     1     -13.970  59.460 -34.342  1.00  0.00    -0.398 OA
ATOM     19  H3  UNL     1     -13.128  59.851 -34.143  1.00  0.00     0.209 HD
ENDBRANCH  17  18
ENDBRANCH   3  17
BRANCH   4  20
HETATM   20  O4  UNL     1     -17.291  61.468 -36.501  1.00  0.00    -0.390 OA
ATOM     21  H4  UNL     1     -18.137  61.274 -36.885  1.00  0.00     0.210 HD
ENDBRANCH   4  20
TORSDOF 5
ENDMDL
