MODEL 6
REMARK VINA RESULT: -6.991352794     10.437     12.370
REMARK  7 active torsions:
REMARK  status: ('A' for Active; 'I' for Inactive)
REMARK    1  A    between atoms: N5_13  and  C6_14 
REMARK    2  A    between atoms: C7_16  and  C8_17 
REMARK    3  A    between atoms: C8_17  and  O2_18 
REMARK    4  A    between atoms: O2_18  and  P1_19 
REMARK    5  A    between atoms: C9_23  and  O6_24 
REMARK    6  A    between atoms: C10_26  and  O7_27 
REMARK    7  A    between atoms: O7_27  and  P2_28 
ROOT
HETATM    1  C6  UNL     1      -2.783   1.869   1.861  1.00  0.00     0.263 C 
HETATM    2  O1  UNL     1      -2.611   1.155   3.046  1.00  0.00    -0.353 OA
HETATM    3  C7  UNL     1      -2.079   2.137   3.880  1.00  0.00     0.180 C 
HETATM    4  C9  UNL     1      -2.971   3.361   3.669  1.00  0.00     0.183 C 
HETATM    5  C10 UNL     1      -3.553   3.065   2.291  1.00  0.00     0.216 C 
ENDROOT
BRANCH   1   6
HETATM    6  N5  UNL     1      -3.405   1.070   0.833  1.00  0.00    -0.297 N 
HETATM    7  C3  UNL     1      -3.334   1.249  -0.483  1.00  0.00     0.142 A 
HETATM    8  N3  UNL     1      -2.719   2.145  -1.258  1.00  0.00    -0.336 N 
HETATM    9  C4  UNL     1      -4.085   0.249  -1.086  1.00  0.00     0.119 A 
HETATM   10  C2  UNL     1      -2.835   2.070  -2.605  1.00  0.00     0.183 A 
ATOM     11  H3  UNL     1      -2.162   2.888  -0.835  1.00  0.00     0.168 HD
HETATM   12  N2  UNL     1      -3.567   1.095  -3.205  1.00  0.00    -0.339 N 
HETATM   13  C1  UNL     1      -4.208   0.165  -2.464  1.00  0.00     0.148 A 
ATOM     14  H2  UNL     1      -3.633   1.065  -4.223  1.00  0.00     0.167 HD
HETATM   15  N1  UNL     1      -4.974  -0.854  -3.097  1.00  0.00    -0.080 NA
HETATM   16  N4  UNL     1      -4.590  -0.507  -0.120  1.00  0.00    -0.346 N 
HETATM   17  C5  UNL     1      -4.175  -0.007   1.055  1.00  0.00     0.188 A 
ATOM     18  H4  UNL     1      -5.187  -1.325  -0.247  1.00  0.00     0.167 HD
ENDBRANCH   1   6
BRANCH   5  19
HETATM   19  O7  UNL     1      -3.337   4.061   1.400  1.00  0.00    -0.270 OA
BRANCH  19  20
HETATM   20  P2  UNL     1      -4.489   4.876   0.850  1.00  0.00     0.422 P 
HETATM   21  O8  UNL     1      -5.572   3.925   1.658  1.00  0.00    -0.617 OA
HETATM   22  O9  UNL     1      -3.849   6.226   1.605  1.00  0.00    -0.617 OA
HETATM   23  O10 UNL     1      -4.226   4.658  -0.740  1.00  0.00    -0.617 OA
ENDBRANCH  19  20
ENDBRANCH   5  19
BRANCH   3  24
HETATM   24  C8  UNL     1      -2.116   1.711   5.304  1.00  0.00     0.217 C 
BRANCH  24  25
HETATM   25  O2  UNL     1      -3.413   1.181   5.507  1.00  0.00    -0.280 OA
BRANCH  25  26
HETATM   26  P1  UNL     1      -3.499   0.075   6.562  1.00  0.00     0.422 P 
HETATM   27  O3  UNL     1      -1.975   0.353   7.082  1.00  0.00    -0.617 OA
HETATM   28  O4  UNL     1      -4.805   0.730   7.262  1.00  0.00    -0.617 OA
HETATM   29  O5  UNL     1      -3.728  -1.013   5.291  1.00  0.00    -0.617 OA
ENDBRANCH  25  26
ENDBRANCH  24  25
ENDBRANCH   3  24
BRANCH   4  30
HETATM   30  O6  UNL     1      -2.239   4.529   3.642  1.00  0.00    -0.390 OA
ATOM     31  H6  UNL     1      -1.576   4.515   2.962  1.00  0.00     0.210 HD
ENDBRANCH   4  30
TORSDOF 7
ENDMDL
