MODEL 4
REMARK VINA RESULT: -7.027640310      8.505     10.769
REMARK  7 active torsions:
REMARK  status: ('A' for Active; 'I' for Inactive)
REMARK    1  A    between atoms: N5_13  and  C6_14 
REMARK    2  A    between atoms: C7_16  and  C8_17 
REMARK    3  A    between atoms: C8_17  and  O2_18 
REMARK    4  A    between atoms: O2_18  and  P1_19 
REMARK    5  A    between atoms: C9_23  and  O6_24 
REMARK    6  A    between atoms: C10_26  and  O7_27 
REMARK    7  A    between atoms: O7_27  and  P2_28 
ROOT
HETATM    1  C6  UNL     1      -5.000   0.079   3.097  1.00  0.00     0.263 C 
HETATM    2  O1  UNL     1      -4.829  -0.486   1.834  1.00  0.00    -0.353 OA
HETATM    3  C7  UNL     1      -4.048   0.482   1.206  1.00  0.00     0.180 C 
HETATM    4  C9  UNL     1      -2.949   0.818   2.215  1.00  0.00     0.183 C 
HETATM    5  C10 UNL     1      -3.611   0.393   3.521  1.00  0.00     0.216 C 
ENDROOT
BRANCH   1   6
HETATM    6  N5  UNL     1      -5.737  -0.789   3.984  1.00  0.00    -0.297 N 
HETATM    7  C3  UNL     1      -5.507  -2.074   4.230  1.00  0.00     0.142 A 
HETATM    8  N3  UNL     1      -4.598  -2.948   3.791  1.00  0.00    -0.336 N 
HETATM    9  C4  UNL     1      -6.460  -2.506   5.142  1.00  0.00     0.119 A 
HETATM   10  C2  UNL     1      -4.617  -4.227   4.234  1.00  0.00     0.183 A 
ATOM     11  H3  UNL     1      -3.888  -2.651   3.121  1.00  0.00     0.168 HD
HETATM   12  N2  UNL     1      -5.545  -4.660   5.128  1.00  0.00    -0.339 N 
HETATM   13  C1  UNL     1      -6.487  -3.814   5.601  1.00  0.00     0.148 A 
ATOM     14  H2  UNL     1      -5.532  -5.630   5.443  1.00  0.00     0.167 HD
HETATM   15  N1  UNL     1      -7.457  -4.272   6.536  1.00  0.00    -0.080 NA
HETATM   16  N4  UNL     1      -7.240  -1.470   5.423  1.00  0.00    -0.346 N 
HETATM   17  C5  UNL     1      -6.799  -0.418   4.715  1.00  0.00     0.188 A 
ATOM     18  H4  UNL     1      -8.035  -1.473   6.064  1.00  0.00     0.167 HD
ENDBRANCH   1   6
BRANCH   5  19
HETATM   19  O7  UNL     1      -3.654   1.385   4.441  1.00  0.00    -0.270 OA
BRANCH  19  20
HETATM   20  P2  UNL     1      -2.891   1.271   5.745  1.00  0.00     0.422 P 
HETATM   21  O8  UNL     1      -2.015   2.622   5.371  1.00  0.00    -0.617 OA
HETATM   22  O9  UNL     1      -4.342   1.429   6.567  1.00  0.00    -0.617 OA
HETATM   23  O10 UNL     1      -2.251  -0.210   5.543  1.00  0.00    -0.617 OA
ENDBRANCH  19  20
ENDBRANCH   5  19
BRANCH   3  24
HETATM   24  C8  UNL     1      -3.450  -0.041  -0.051  1.00  0.00     0.217 C 
BRANCH  24  25
HETATM   25  O2  UNL     1      -3.706   0.949  -1.031  1.00  0.00    -0.280 OA
BRANCH  25  26
HETATM   26  P1  UNL     1      -2.495   1.344  -1.879  1.00  0.00     0.422 P 
HETATM   27  O3  UNL     1      -3.430   1.751  -3.155  1.00  0.00    -0.617 OA
HETATM   28  O4  UNL     1      -1.975   2.420  -0.785  1.00  0.00    -0.617 OA
HETATM   29  O5  UNL     1      -1.975  -0.257  -1.744  1.00  0.00    -0.617 OA
ENDBRANCH  25  26
ENDBRANCH  24  25
ENDBRANCH   3  24
BRANCH   4  30
HETATM   30  O6  UNL     1      -2.668   2.168   2.234  1.00  0.00    -0.390 OA
ATOM     31  H6  UNL     1      -2.020   2.385   2.894  1.00  0.00     0.210 HD
ENDBRANCH   4  30
TORSDOF 7
ENDMDL
