MODEL 3
REMARK VINA RESULT: -7.029197495      1.153      2.160
REMARK  7 active torsions:
REMARK  status: ('A' for Active; 'I' for Inactive)
REMARK    1  A    between atoms: N5_13  and  C6_14 
REMARK    2  A    between atoms: C7_16  and  C8_17 
REMARK    3  A    between atoms: C8_17  and  O2_18 
REMARK    4  A    between atoms: O2_18  and  P1_19 
REMARK    5  A    between atoms: C9_23  and  O6_24 
REMARK    6  A    between atoms: C10_26  and  O7_27 
REMARK    7  A    between atoms: O7_27  and  P2_28 
ROOT
HETATM    1  C6  UNL     1     -12.481  -1.844   5.033  1.00  0.00     0.263 C 
HETATM    2  O1  UNL     1     -11.168  -1.655   4.604  1.00  0.00    -0.353 OA
HETATM    3  C7  UNL     1     -10.516  -2.702   5.253  1.00  0.00     0.180 C 
HETATM    4  C9  UNL     1     -11.394  -3.929   5.004  1.00  0.00     0.183 C 
HETATM    5  C10 UNL     1     -12.740  -3.273   4.719  1.00  0.00     0.216 C 
ENDROOT
BRANCH   1   6
HETATM    6  N5  UNL     1     -13.390  -0.902   4.425  1.00  0.00    -0.297 N 
HETATM    7  C3  UNL     1     -14.482  -0.370   4.966  1.00  0.00     0.142 A 
HETATM    8  N3  UNL     1     -15.078  -0.499   6.153  1.00  0.00    -0.336 N 
HETATM    9  C4  UNL     1     -15.048   0.478   4.024  1.00  0.00     0.119 A 
HETATM   10  C2  UNL     1     -16.212   0.190   6.422  1.00  0.00     0.183 A 
ATOM     11  H3  UNL     1     -14.678  -1.117   6.859  1.00  0.00     0.168 HD
HETATM   12  N2  UNL     1     -16.774   1.023   5.507  1.00  0.00    -0.339 N 
HETATM   13  C1  UNL     1     -16.209   1.187   4.291  1.00  0.00     0.148 A 
ATOM     14  H2  UNL     1     -17.628   1.530   5.741  1.00  0.00     0.167 HD
HETATM   15  N1  UNL     1     -16.802   2.061   3.337  1.00  0.00    -0.080 NA
HETATM   16  N4  UNL     1     -14.284   0.437   2.940  1.00  0.00    -0.346 N 
HETATM   17  C5  UNL     1     -13.269  -0.408   3.183  1.00  0.00     0.188 A 
ATOM     18  H4  UNL     1     -14.440   0.955   2.075  1.00  0.00     0.167 HD
ENDBRANCH   1   6
BRANCH   5  19
HETATM   19  O7  UNL     1     -13.729  -3.720   5.527  1.00  0.00    -0.270 OA
BRANCH  19  20
HETATM   20  P2  UNL     1     -14.955  -4.400   4.954  1.00  0.00     0.422 P 
HETATM   21  O8  UNL     1     -14.335  -5.883   5.338  1.00  0.00    -0.617 OA
HETATM   22  O9  UNL     1     -15.891  -3.580   6.075  1.00  0.00    -0.617 OA
HETATM   23  O10 UNL     1     -14.874  -3.842   3.430  1.00  0.00    -0.617 OA
ENDBRANCH  19  20
ENDBRANCH   5  19
BRANCH   3  24
HETATM   24  C8  UNL     1      -9.155  -2.918   4.695  1.00  0.00     0.217 C 
BRANCH  24  25
HETATM   25  O2  UNL     1      -8.863  -4.283   4.931  1.00  0.00    -0.280 OA
BRANCH  25  26
HETATM   26  P1  UNL     1      -7.408  -4.684   4.675  1.00  0.00     0.422 P 
HETATM   27  O3  UNL     1      -7.134  -3.370   3.743  1.00  0.00    -0.617 OA
HETATM   28  O4  UNL     1      -7.057  -4.735   6.256  1.00  0.00    -0.617 OA
HETATM   29  O5  UNL     1      -8.003  -6.081   3.938  1.00  0.00    -0.617 OA
ENDBRANCH  25  26
ENDBRANCH  24  25
ENDBRANCH   3  24
BRANCH   4  30
HETATM   30  O6  UNL     1     -11.477  -4.735   6.120  1.00  0.00    -0.390 OA
ATOM     31  H6  UNL     1     -10.693  -5.259   6.236  1.00  0.00     0.210 HD
ENDBRANCH   4  30
TORSDOF 7
ENDMDL
