MODEL 5
REMARK VINA RESULT: -7.015589179      4.728      8.102
REMARK  7 active torsions:
REMARK  status: ('A' for Active; 'I' for Inactive)
REMARK    1  A    between atoms: N5_13  and  C6_14 
REMARK    2  A    between atoms: C7_16  and  C8_17 
REMARK    3  A    between atoms: C8_17  and  O2_18 
REMARK    4  A    between atoms: O2_18  and  P1_19 
REMARK    5  A    between atoms: C9_23  and  O6_24 
REMARK    6  A    between atoms: C10_26  and  O7_27 
REMARK    7  A    between atoms: O7_27  and  P2_28 
ROOT
HETATM    1  C6  UNL     1     -15.258  -0.204   6.068  1.00  0.00     0.263 C 
HETATM    2  O1  UNL     1     -16.318  -0.147   6.971  1.00  0.00    -0.353 OA
HETATM    3  C7  UNL     1     -16.743   1.170   6.810  1.00  0.00     0.180 C 
HETATM    4  C9  UNL     1     -16.816   1.379   5.297  1.00  0.00     0.183 C 
HETATM    5  C10 UNL     1     -15.857   0.300   4.806  1.00  0.00     0.216 C 
ENDROOT
BRANCH   1   6
HETATM    6  N5  UNL     1     -14.679  -1.524   5.994  1.00  0.00    -0.297 N 
HETATM    7  C3  UNL     1     -13.523  -1.868   5.436  1.00  0.00     0.142 A 
HETATM    8  N3  UNL     1     -12.566  -1.186   4.803  1.00  0.00    -0.336 N 
HETATM    9  C4  UNL     1     -13.369  -3.239   5.596  1.00  0.00     0.119 A 
HETATM   10  C2  UNL     1     -11.473  -1.829   4.330  1.00  0.00     0.183 A 
ATOM     11  H3  UNL     1     -12.660  -0.178   4.675  1.00  0.00     0.168 HD
HETATM   12  N2  UNL     1     -11.313  -3.170   4.482  1.00  0.00    -0.339 N 
HETATM   13  C1  UNL     1     -12.253  -3.905   5.115  1.00  0.00     0.148 A 
ATOM     14  H2  UNL     1     -10.476  -3.625   4.115  1.00  0.00     0.167 HD
HETATM   15  N1  UNL     1     -12.080  -5.309   5.271  1.00  0.00    -0.080 NA
HETATM   16  N4  UNL     1     -14.436  -3.686   6.246  1.00  0.00    -0.346 N 
HETATM   17  C5  UNL     1     -15.239  -2.638   6.491  1.00  0.00     0.188 A 
ATOM     18  H4  UNL     1     -14.614  -4.655   6.513  1.00  0.00     0.167 HD
ENDBRANCH   1   6
BRANCH   5  19
HETATM   19  O7  UNL     1     -14.868   0.789   4.022  1.00  0.00    -0.270 OA
BRANCH  19  20
HETATM   20  P2  UNL     1     -14.888   0.581   2.522  1.00  0.00     0.422 P 
HETATM   21  O8  UNL     1     -13.237   0.581   2.480  1.00  0.00    -0.617 OA
HETATM   22  O9  UNL     1     -15.709  -0.859   2.768  1.00  0.00    -0.617 OA
HETATM   23  O10 UNL     1     -15.725   1.905   2.087  1.00  0.00    -0.617 OA
ENDBRANCH  19  20
ENDBRANCH   5  19
BRANCH   3  24
HETATM   24  C8  UNL     1     -18.079   1.385   7.426  1.00  0.00     0.217 C 
BRANCH  24  25
HETATM   25  O2  UNL     1     -18.993   1.414   6.345  1.00  0.00    -0.280 OA
BRANCH  25  26
HETATM   26  P1  UNL     1     -20.459   1.599   6.745  1.00  0.00     0.422 P 
HETATM   27  O3  UNL     1     -20.376   3.222   6.577  1.00  0.00    -0.617 OA
HETATM   28  O4  UNL     1     -20.990   0.615   5.573  1.00  0.00    -0.617 OA
HETATM   29  O5  UNL     1     -20.055   0.925   8.240  1.00  0.00    -0.617 OA
ENDBRANCH  25  26
ENDBRANCH  24  25
ENDBRANCH   3  24
BRANCH   4  30
HETATM   30  O6  UNL     1     -16.364   2.630   4.930  1.00  0.00    -0.390 OA
ATOM     31  H6  UNL     1     -15.673   2.937   5.504  1.00  0.00     0.210 HD
ENDBRANCH   4  30
TORSDOF 7
ENDMDL
