MODEL 2
REMARK VINA RESULT: -7.338596272      1.013      2.052
REMARK  7 active torsions:
REMARK  status: ('A' for Active; 'I' for Inactive)
REMARK    1  A    between atoms: N5_13  and  C6_14 
REMARK    2  A    between atoms: C7_16  and  C8_17 
REMARK    3  A    between atoms: C8_17  and  O2_18 
REMARK    4  A    between atoms: O2_18  and  P1_19 
REMARK    5  A    between atoms: C9_23  and  O6_24 
REMARK    6  A    between atoms: C10_26  and  O7_27 
REMARK    7  A    between atoms: O7_27  and  P2_28 
ROOT
HETATM    1  C6  UNL     1     -13.362  -2.835   5.854  1.00  0.00     0.263 C 
HETATM    2  O1  UNL     1     -12.109  -2.334   5.507  1.00  0.00    -0.353 OA
HETATM    3  C7  UNL     1     -11.314  -3.470   5.646  1.00  0.00     0.180 C 
HETATM    4  C9  UNL     1     -12.085  -4.582   4.933  1.00  0.00     0.183 C 
HETATM    5  C10 UNL     1     -13.506  -4.030   4.983  1.00  0.00     0.216 C 
ENDROOT
BRANCH   1   6
HETATM    6  N5  UNL     1     -14.400  -1.842   5.716  1.00  0.00    -0.297 N 
HETATM    7  C3  UNL     1     -14.915  -1.074   6.672  1.00  0.00     0.142 A 
HETATM    8  N3  UNL     1     -14.681  -0.952   7.981  1.00  0.00    -0.336 N 
HETATM    9  C4  UNL     1     -15.886  -0.270   6.090  1.00  0.00     0.119 A 
HETATM   10  C2  UNL     1     -15.385  -0.059   8.715  1.00  0.00     0.183 A 
ATOM     11  H3  UNL     1     -13.972  -1.533   8.428  1.00  0.00     0.168 HD
HETATM   12  N2  UNL     1     -16.337   0.733   8.155  1.00  0.00    -0.339 N 
HETATM   13  C1  UNL     1     -16.610   0.647   6.835  1.00  0.00     0.148 A 
ATOM     14  H2  UNL     1     -16.849   1.398   8.736  1.00  0.00     0.167 HD
HETATM   15  N1  UNL     1     -17.608   1.479   6.254  1.00  0.00    -0.080 NA
HETATM   16  N4  UNL     1     -15.932  -0.573   4.799  1.00  0.00    -0.346 N 
HETATM   17  C5  UNL     1     -15.024  -1.534   4.568  1.00  0.00     0.188 A 
ATOM     18  H4  UNL     1     -16.548  -0.149   4.105  1.00  0.00     0.167 HD
ENDBRANCH   1   6
BRANCH   5  19
HETATM   19  O7  UNL     1     -14.385  -4.882   5.559  1.00  0.00    -0.270 OA
BRANCH  19  20
HETATM   20  P2  UNL     1     -15.435  -5.595   4.732  1.00  0.00     0.422 P 
HETATM   21  O8  UNL     1     -14.716  -7.050   5.038  1.00  0.00    -0.617 OA
HETATM   22  O9  UNL     1     -16.605  -5.014   5.781  1.00  0.00    -0.617 OA
HETATM   23  O10 UNL     1     -15.202  -4.841   3.311  1.00  0.00    -0.617 OA
ENDBRANCH  19  20
ENDBRANCH   5  19
BRANCH   3  24
HETATM   24  C8  UNL     1      -9.983  -3.277   5.011  1.00  0.00     0.217 C 
BRANCH  24  25
HETATM   25  O2  UNL     1      -9.298  -4.503   5.190  1.00  0.00    -0.280 OA
BRANCH  25  26
HETATM   26  P1  UNL     1      -7.864  -4.523   4.654  1.00  0.00     0.422 P 
HETATM   27  O3  UNL     1      -8.051  -3.090   3.892  1.00  0.00    -0.617 OA
HETATM   28  O4  UNL     1      -7.223  -4.660   6.136  1.00  0.00    -0.617 OA
HETATM   29  O5  UNL     1      -8.278  -5.934   3.823  1.00  0.00    -0.617 OA
ENDBRANCH  25  26
ENDBRANCH  24  25
ENDBRANCH   3  24
BRANCH   4  30
HETATM   30  O6  UNL     1     -12.008  -5.777   5.617  1.00  0.00    -0.390 OA
ATOM     31  H6  UNL     1     -12.622  -6.418   5.279  1.00  0.00     0.210 HD
ENDBRANCH   4  30
TORSDOF 7
ENDMDL
