MODEL 4
REMARK VINA RESULT: -9.528445112      1.106      1.910
REMARK  8 active torsions:
REMARK  status: ('A' for Active; 'I' for Inactive)
REMARK    1  A    between atoms: N4_10  and  C5_11 
REMARK    2  A    between atoms: C6_13  and  C7_14 
REMARK    3  A    between atoms: C7_14  and  O2_15 
REMARK    4  A    between atoms: O2_15  and  P1_16 
REMARK    5  A    between atoms: P1_16  and  O5_19 
REMARK    6  A    between atoms: O5_19  and  P2_20 
REMARK    7  A    between atoms: C8_24  and  O9_25 
REMARK    8  A    between atoms: C9_27  and  O10_28 
ROOT
HETATM    1  C5  UNL     1     -11.535 -13.751 -31.195  1.00  0.00     0.262 C 
HETATM    2  O1  UNL     1     -12.821 -13.794 -31.687  1.00  0.00    -0.353 OA
HETATM    3  C6  UNL     1     -12.854 -14.869 -32.536  1.00  0.00     0.180 C 
HETATM    4  C8  UNL     1     -12.172 -15.953 -31.728  1.00  0.00     0.182 C 
HETATM    5  C9  UNL     1     -11.046 -15.178 -31.080  1.00  0.00     0.198 C 
ENDROOT
BRANCH   1   6
HETATM    6  N4  UNL     1     -11.574 -13.181 -29.876  1.00  0.00    -0.297 N 
HETATM    7  C2  UNL     1     -12.538 -13.464 -28.963  1.00  0.00     0.146 A 
HETATM    8  N2  UNL     1     -13.627 -14.263 -28.993  1.00  0.00    -0.314 N 
HETATM    9  C3  UNL     1     -12.225 -12.733 -27.849  1.00  0.00     0.146 A 
HETATM   10  C1  UNL     1     -14.446 -14.374 -27.936  1.00  0.00     0.196 A 
ATOM     11  H2  UNL     1     -13.831 -14.794 -29.839  1.00  0.00     0.170 HD
HETATM   12  N1  UNL     1     -15.594 -15.206 -27.939  1.00  0.00    -0.063 NA
HETATM   13  N5  UNL     1     -14.133 -13.646 -26.826  1.00  0.00    -0.295 N 
HETATM   14  C10 UNL     1     -13.064 -12.848 -26.764  1.00  0.00     0.278 A 
ATOM     15  H5  UNL     1     -14.740 -13.714 -26.009  1.00  0.00     0.171 HD
HETATM   16  O11 UNL     1     -12.807 -12.184 -25.709  1.00  0.00    -0.265 OA
HETATM   17  N3  UNL     1     -11.111 -12.042 -28.099  1.00  0.00    -0.345 N 
HETATM   18  C4  UNL     1     -10.700 -12.310 -29.344  1.00  0.00     0.188 A 
ATOM     19  H3  UNL     1     -10.647 -11.411 -27.446  1.00  0.00     0.167 HD
ENDBRANCH   1   6
BRANCH   5  20
HETATM   20  O10 UNL     1      -9.898 -15.394 -31.865  1.00  0.00    -0.388 OA
ATOM     21  H10 UNL     1      -9.388 -16.127 -31.542  1.00  0.00     0.210 HD
ENDBRANCH   5  20
BRANCH   3  22
HETATM   22  C7  UNL     1     -14.281 -15.364 -32.789  1.00  0.00     0.216 C 
BRANCH  22  23
HETATM   23  O2  UNL     1     -14.681 -15.977 -31.616  1.00  0.00    -0.287 OA
BRANCH  23  24
HETATM   24  P1  UNL     1     -16.134 -16.802 -31.751  1.00  0.00     0.418 P 
HETATM   25  O3  UNL     1     -15.810 -18.135 -32.434  1.00  0.00    -0.624 OA
HETATM   26  O4  UNL     1     -17.274 -15.959 -32.672  1.00  0.00    -0.624 OA
BRANCH  24  27
HETATM   27  O5  UNL     1     -16.765 -17.033 -30.214  1.00  0.00    -0.173 OA
BRANCH  27  28
HETATM   28  P2  UNL     1     -18.035 -18.104 -30.158  1.00  0.00     0.431 P 
HETATM   29  O6  UNL     1     -18.663 -18.001 -28.765  1.00  0.00    -0.616 OA
HETATM   30  O7  UNL     1     -17.443 -19.700 -30.270  1.00  0.00    -0.616 OA
HETATM   31  O8  UNL     1     -19.242 -17.811 -31.269  1.00  0.00    -0.616 OA
ENDBRANCH  27  28
ENDBRANCH  24  27
ENDBRANCH  23  24
ENDBRANCH  22  23
ENDBRANCH   3  22
BRANCH   4  32
HETATM   32  O9  UNL     1     -11.695 -16.976 -32.539  1.00  0.00    -0.390 OA
ATOM     33  H9  UNL     1     -11.462 -17.745 -32.034  1.00  0.00     0.210 HD
ENDBRANCH   4  32
TORSDOF 8
ENDMDL
