MODEL 2
REMARK VINA RESULT: -9.772704012      2.260      3.803
REMARK  8 active torsions:
REMARK  status: ('A' for Active; 'I' for Inactive)
REMARK    1  A    between atoms: N4_10  and  C5_11 
REMARK    2  A    between atoms: C6_13  and  C7_14 
REMARK    3  A    between atoms: C7_14  and  O2_15 
REMARK    4  A    between atoms: O2_15  and  P1_16 
REMARK    5  A    between atoms: P1_16  and  O5_19 
REMARK    6  A    between atoms: O5_19  and  P2_20 
REMARK    7  A    between atoms: C8_24  and  O9_25 
REMARK    8  A    between atoms: C9_27  and  O10_28 
ROOT
HETATM    1  C5  UNL     1     -14.136 -14.672 -30.800  1.00  0.00     0.262 C 
HETATM    2  O1  UNL     1     -15.477 -14.831 -31.076  1.00  0.00    -0.353 OA
HETATM    3  C6  UNL     1     -15.538 -15.780 -32.063  1.00  0.00     0.180 C 
HETATM    4  C8  UNL     1     -14.599 -16.854 -31.553  1.00  0.00     0.182 C 
HETATM    5  C9  UNL     1     -13.472 -16.019 -30.986  1.00  0.00     0.198 C 
ENDROOT
BRANCH   1   6
HETATM    6  N4  UNL     1     -14.000 -14.289 -29.421  1.00  0.00    -0.297 N 
HETATM    7  C2  UNL     1     -13.162 -13.311 -28.992  1.00  0.00     0.146 A 
HETATM    8  N2  UNL     1     -12.299 -12.493 -29.633  1.00  0.00    -0.314 N 
HETATM    9  C3  UNL     1     -13.322 -13.250 -27.635  1.00  0.00     0.146 A 
HETATM   10  C1  UNL     1     -11.565 -11.587 -28.968  1.00  0.00     0.196 A 
ATOM     11  H2  UNL     1     -12.204 -12.564 -30.646  1.00  0.00     0.170 HD
HETATM   12  N1  UNL     1     -10.652 -10.715 -29.615  1.00  0.00    -0.063 NA
HETATM   13  N5  UNL     1     -11.725 -11.527 -27.615  1.00  0.00    -0.295 N 
HETATM   14  C10 UNL     1     -12.569 -12.321 -26.953  1.00  0.00     0.278 A 
ATOM     15  H5  UNL     1     -11.177 -10.847 -27.088  1.00  0.00     0.171 HD
HETATM   16  O11 UNL     1     -12.689 -12.234 -25.688  1.00  0.00    -0.265 OA
HETATM   17  N3  UNL     1     -14.226 -14.164 -27.276  1.00  0.00    -0.345 N 
HETATM   18  C4  UNL     1     -14.652 -14.810 -28.368  1.00  0.00     0.188 A 
ATOM     19  H3  UNL     1     -14.543 -14.341 -26.323  1.00  0.00     0.167 HD
ENDBRANCH   1   6
BRANCH   5  20
HETATM   20  O10 UNL     1     -12.468 -15.966 -31.971  1.00  0.00    -0.388 OA
ATOM     21  H10 UNL     1     -11.760 -16.569 -31.779  1.00  0.00     0.210 HD
ENDBRANCH   5  20
BRANCH   3  22
HETATM   22  C7  UNL     1     -16.920 -16.435 -32.152  1.00  0.00     0.216 C 
BRANCH  22  23
HETATM   23  O2  UNL     1     -16.877 -17.525 -31.302  1.00  0.00    -0.287 OA
BRANCH  23  24
HETATM   24  P1  UNL     1     -18.331 -17.830 -30.528  1.00  0.00     0.418 P 
HETATM   25  O3  UNL     1     -19.433 -17.548 -31.554  1.00  0.00    -0.624 OA
HETATM   26  O4  UNL     1     -18.561 -16.849 -29.170  1.00  0.00    -0.624 OA
BRANCH  24  27
HETATM   27  O5  UNL     1     -18.348 -19.431 -30.028  1.00  0.00    -0.173 OA
BRANCH  27  28
HETATM   28  P2  UNL     1     -19.849 -20.144 -30.088  1.00  0.00     0.431 P 
HETATM   29  O6  UNL     1     -19.789 -21.416 -29.239  1.00  0.00    -0.616 OA
HETATM   30  O7  UNL     1     -20.168 -20.675 -31.678  1.00  0.00    -0.616 OA
HETATM   31  O8  UNL     1     -21.088 -19.205 -29.488  1.00  0.00    -0.616 OA
ENDBRANCH  27  28
ENDBRANCH  24  27
ENDBRANCH  23  24
ENDBRANCH  22  23
ENDBRANCH   3  22
BRANCH   4  32
HETATM   32  O9  UNL     1     -14.163 -17.685 -32.576  1.00  0.00    -0.390 OA
ATOM     33  H9  UNL     1     -14.175 -18.598 -32.318  1.00  0.00     0.210 HD
ENDBRANCH   4  32
TORSDOF 8
ENDMDL
