MODEL 3
REMARK VINA RESULT: -9.553559472      5.777      7.863
REMARK  8 active torsions:
REMARK  status: ('A' for Active; 'I' for Inactive)
REMARK    1  A    between atoms: N4_10  and  C5_11 
REMARK    2  A    between atoms: C6_13  and  C7_14 
REMARK    3  A    between atoms: C7_14  and  O2_15 
REMARK    4  A    between atoms: O2_15  and  P1_16 
REMARK    5  A    between atoms: P1_16  and  O5_19 
REMARK    6  A    between atoms: O5_19  and  P2_20 
REMARK    7  A    between atoms: C8_24  and  O9_25 
REMARK    8  A    between atoms: C9_27  and  O10_28 
ROOT
HETATM    1  C5  UNL     1     -10.827 -11.412 -36.082  1.00  0.00     0.262 C 
HETATM    2  O1  UNL     1     -11.802 -12.299 -35.680  1.00  0.00    -0.353 OA
HETATM    3  C6  UNL     1     -11.162 -13.214 -34.887  1.00  0.00     0.180 C 
HETATM    4  C8  UNL     1     -10.322 -12.340 -33.979  1.00  0.00     0.182 C 
HETATM    5  C9  UNL     1      -9.834 -11.286 -34.948  1.00  0.00     0.198 C 
ENDROOT
BRANCH   1   6
HETATM    6  N4  UNL     1     -11.440 -10.128 -36.289  1.00  0.00    -0.297 N 
HETATM    7  C2  UNL     1     -11.046  -9.253 -37.249  1.00  0.00     0.146 A 
HETATM    8  N2  UNL     1     -10.079  -9.297 -38.192  1.00  0.00    -0.314 N 
HETATM    9  C3  UNL     1     -11.865  -8.165 -37.123  1.00  0.00     0.146 A 
HETATM   10  C1  UNL     1      -9.883  -8.278 -39.043  1.00  0.00     0.196 A 
ATOM     11  H2  UNL     1      -9.486 -10.123 -38.258  1.00  0.00     0.170 HD
HETATM   12  N1  UNL     1      -8.877  -8.298 -40.043  1.00  0.00    -0.063 NA
HETATM   13  N5  UNL     1     -10.700  -7.194 -38.917  1.00  0.00    -0.295 N 
HETATM   14  C10 UNL     1     -11.664  -7.120 -37.996  1.00  0.00     0.278 A 
ATOM     15  H5  UNL     1     -10.570  -6.407 -39.553  1.00  0.00     0.171 HD
HETATM   16  O11 UNL     1     -12.406  -6.089 -37.911  1.00  0.00    -0.265 OA
HETATM   17  N3  UNL     1     -12.716  -8.393 -36.120  1.00  0.00    -0.345 N 
HETATM   18  C4  UNL     1     -12.464  -9.599 -35.599  1.00  0.00     0.188 A 
ATOM     19  H3  UNL     1     -13.442  -7.751 -35.802  1.00  0.00     0.167 HD
ENDBRANCH   1   6
BRANCH   5  20
HETATM   20  O10 UNL     1      -8.541 -11.670 -35.350  1.00  0.00    -0.388 OA
ATOM     21  H10 UNL     1      -7.947 -10.930 -35.363  1.00  0.00     0.210 HD
ENDBRANCH   5  20
BRANCH   3  22
HETATM   22  C7  UNL     1     -12.131 -13.967 -33.971  1.00  0.00     0.216 C 
BRANCH  22  23
HETATM   23  O2  UNL     1     -12.429 -13.097 -32.939  1.00  0.00    -0.287 OA
BRANCH  23  24
HETATM   24  P1  UNL     1     -14.029 -13.164 -32.444  1.00  0.00     0.418 P 
HETATM   25  O3  UNL     1     -14.458 -11.718 -32.175  1.00  0.00    -0.624 OA
HETATM   26  O4  UNL     1     -14.234 -14.084 -31.040  1.00  0.00    -0.624 OA
BRANCH  24  27
HETATM   27  O5  UNL     1     -14.941 -13.861 -33.667  1.00  0.00    -0.173 OA
BRANCH  27  28
HETATM   28  P2  UNL     1     -16.347 -14.576 -33.141  1.00  0.00     0.431 P 
HETATM   29  O6  UNL     1     -17.327 -14.584 -34.317  1.00  0.00    -0.616 OA
HETATM   30  O7  UNL     1     -17.076 -13.596 -31.950  1.00  0.00    -0.616 OA
HETATM   31  O8  UNL     1     -16.175 -16.152 -32.627  1.00  0.00    -0.616 OA
ENDBRANCH  27  28
ENDBRANCH  24  27
ENDBRANCH  23  24
ENDBRANCH  22  23
ENDBRANCH   3  22
BRANCH   4  32
HETATM   32  O9  UNL     1      -9.270 -13.048 -33.411  1.00  0.00    -0.390 OA
ATOM     33  H9  UNL     1      -9.430 -13.241 -32.496  1.00  0.00     0.210 HD
ENDBRANCH   4  32
TORSDOF 8
ENDMDL
