MODEL 1
REMARK VINA RESULT: -10.029810210      0.000      0.000
REMARK  8 active torsions:
REMARK  status: ('A' for Active; 'I' for Inactive)
REMARK    1  A    between atoms: N4_10  and  C5_11 
REMARK    2  A    between atoms: C6_13  and  C7_14 
REMARK    3  A    between atoms: C7_14  and  O2_15 
REMARK    4  A    between atoms: O2_15  and  P1_16 
REMARK    5  A    between atoms: P1_16  and  O5_19 
REMARK    6  A    between atoms: O5_19  and  P2_20 
REMARK    7  A    between atoms: C8_24  and  O9_25 
REMARK    8  A    between atoms: C9_27  and  O10_28 
ROOT
HETATM    1  C5  UNL     1     -11.575 -13.411 -31.250  1.00  0.00     0.262 C 
HETATM    2  O1  UNL     1     -12.663 -12.902 -31.925  1.00  0.00    -0.353 OA
HETATM    3  C6  UNL     1     -12.978 -13.840 -32.873  1.00  0.00     0.180 C 
HETATM    4  C8  UNL     1     -12.941 -15.134 -32.088  1.00  0.00     0.182 C 
HETATM    5  C9  UNL     1     -11.730 -14.915 -31.209  1.00  0.00     0.198 C 
ENDROOT
BRANCH   1   6
HETATM    6  N4  UNL     1     -11.609 -12.917 -29.900  1.00  0.00    -0.297 N 
HETATM    7  C2  UNL     1     -12.543 -13.289 -28.987  1.00  0.00     0.146 A 
HETATM    8  N2  UNL     1     -13.602 -14.127 -29.044  1.00  0.00    -0.314 N 
HETATM    9  C3  UNL     1     -12.237 -12.611 -27.840  1.00  0.00     0.146 A 
HETATM   10  C1  UNL     1     -14.394 -14.330 -27.980  1.00  0.00     0.196 A 
ATOM     11  H2  UNL     1     -13.802 -14.617 -29.915  1.00  0.00     0.170 HD
HETATM   12  N1  UNL     1     -15.510 -15.204 -28.011  1.00  0.00    -0.063 NA
HETATM   13  N5  UNL     1     -14.087 -13.654 -26.836  1.00  0.00    -0.295 N 
HETATM   14  C10 UNL     1     -13.049 -12.819 -26.748  1.00  0.00     0.278 A 
ATOM     15  H5  UNL     1     -14.675 -13.792 -26.014  1.00  0.00     0.171 HD
HETATM   16  O11 UNL     1     -12.796 -12.207 -25.661  1.00  0.00    -0.265 OA
HETATM   17  N3  UNL     1     -11.155 -11.864 -28.069  1.00  0.00    -0.345 N 
HETATM   18  C4  UNL     1     -10.759 -12.045 -29.335  1.00  0.00     0.188 A 
ATOM     19  H3  UNL     1     -10.702 -11.253 -27.389  1.00  0.00     0.167 HD
ENDBRANCH   1   6
BRANCH   5  20
HETATM   20  O10 UNL     1     -10.648 -15.561 -31.837  1.00  0.00    -0.388 OA
ATOM     21  H10 UNL     1     -10.923 -16.365 -32.261  1.00  0.00     0.210 HD
ENDBRANCH   5  20
BRANCH   3  22
HETATM   22  C7  UNL     1     -14.416 -13.693 -33.378  1.00  0.00     0.216 C 
BRANCH  22  23
HETATM   23  O2  UNL     1     -15.026 -14.911 -33.143  1.00  0.00    -0.287 OA
BRANCH  23  24
HETATM   24  P1  UNL     1     -16.697 -14.820 -33.052  1.00  0.00     0.418 P 
HETATM   25  O3  UNL     1     -17.177 -14.336 -34.425  1.00  0.00    -0.624 OA
HETATM   26  O4  UNL     1     -17.223 -13.743 -31.860  1.00  0.00    -0.624 OA
BRANCH  24  27
HETATM   27  O5  UNL     1     -17.299 -16.342 -32.689  1.00  0.00    -0.173 OA
BRANCH  27  28
HETATM   28  P2  UNL     1     -16.345 -17.217 -31.645  1.00  0.00     0.431 P 
HETATM   29  O6  UNL     1     -15.341 -18.006 -32.491  1.00  0.00    -0.616 OA
HETATM   30  O7  UNL     1     -17.292 -18.393 -30.852  1.00  0.00    -0.616 OA
HETATM   31  O8  UNL     1     -15.469 -16.296 -30.567  1.00  0.00    -0.616 OA
ENDBRANCH  27  28
ENDBRANCH  24  27
ENDBRANCH  23  24
ENDBRANCH  22  23
ENDBRANCH   3  22
BRANCH   4  32
HETATM   32  O9  UNL     1     -12.784 -16.236 -32.919  1.00  0.00    -0.390 OA
ATOM     33  H9  UNL     1     -13.327 -16.965 -32.644  1.00  0.00     0.210 HD
ENDBRANCH   4  32
TORSDOF 8
ENDMDL
