MODEL 10
REMARK VINA RESULT: -7.390668275      2.619      4.483
REMARK  8 active torsions:
REMARK  status: ('A' for Active; 'I' for Inactive)
REMARK    1  A    between atoms: C1_2  and  C2_4 
REMARK    2  A    between atoms: C4_6  and  C5_7 
REMARK    3  A    between atoms: C8_10  and  C9_11 
REMARK    4  A    between atoms: C9_11  and  N1_12 
REMARK       I    between atoms: N1_12  and  C10_14 
REMARK    5  A    between atoms: C10_14  and  C11_16 
REMARK    6  A    between atoms: C14_19  and  C15_20 
REMARK    7  A    between atoms: C18_23  and  C19_24 
REMARK    8  A    between atoms: N2_33  and  C24_34 
ROOT
HETATM    1  C5  UNL     1       8.032  13.397  25.242  1.00  0.00    -0.007 A 
HETATM    2  C6  UNL     1       9.239  13.835  24.678  1.00  0.00     0.014 A 
HETATM    3  C7  UNL     1      10.398  13.126  24.777  1.00  0.00     0.010 A 
HETATM    4  C8  UNL     1      10.424  11.930  25.449  1.00  0.00    -0.040 A 
HETATM    5  C22 UNL     1       9.251  11.477  26.013  1.00  0.00     0.010 A 
HETATM    6  C23 UNL     1       8.066  12.216  25.903  1.00  0.00     0.014 A 
ENDROOT
BRANCH   4   7
HETATM    7  C9  UNL     1      11.660  11.155  25.563  1.00  0.00     0.161 C 
BRANCH   7   8
HETATM    8  N1  UNL     1      12.685  11.517  24.620  1.00  0.00    -0.353 N 
HETATM    9  C10 UNL     1      13.068  10.758  23.505  1.00  0.00     0.253 C 
HETATM   10  O3  UNL     1      12.494   9.668  23.278  1.00  0.00    -0.268 OA
ATOM     11  H1  UNL     1      13.173  12.399  24.776  1.00  0.00     0.163 HD
BRANCH   9  12
HETATM   12  C11 UNL     1      14.129  11.189  22.578  1.00  0.00     0.053 A 
HETATM   13  C12 UNL     1      15.337  10.508  22.524  1.00  0.00     0.020 A 
HETATM   14  C13 UNL     1      16.353  10.893  21.662  1.00  0.00     0.015 A 
HETATM   15  C14 UNL     1      16.191  11.975  20.824  1.00  0.00    -0.001 A 
HETATM   16  C20 UNL     1      14.983  12.636  20.894  1.00  0.00     0.039 A 
HETATM   17  C21 UNL     1      13.964  12.265  21.745  1.00  0.00     0.050 A 
HETATM   18 CL1  UNL     1      12.441  13.134  21.804  1.00  0.00    -0.083 Cl
BRANCH  15  19
HETATM   19  C15 UNL     1      17.247  12.396  19.912  1.00  0.00     0.086 A 
HETATM   20  C16 UNL     1      18.397  11.666  19.671  1.00  0.00     0.041 A 
HETATM   21  C17 UNL     1      19.137  12.389  18.762  1.00  0.00     0.047 A 
HETATM   22  C18 UNL     1      18.409  13.532  18.484  1.00  0.00     0.152 A 
HETATM   23  O6  UNL     1      17.309  13.489  19.184  1.00  0.00    -0.303 OA
BRANCH  22  24
HETATM   24  C19 UNL     1      18.869  14.559  17.555  1.00  0.00     0.234 C 
HETATM   25  O4  UNL     1      20.019  14.544  17.051  1.00  0.00    -0.642 OA
HETATM   26  O5  UNL     1      18.029  15.615  17.184  1.00  0.00    -0.642 OA
ENDBRANCH  22  24
ENDBRANCH  15  19
ENDBRANCH   9  12
ENDBRANCH   7   8
ENDBRANCH   4   7
BRANCH   1  27
HETATM   27  C4  UNL     1       6.855  14.234  25.077  1.00  0.00     0.069 A 
HETATM   28  C3  UNL     1       5.800  13.938  24.210  1.00  0.00     0.070 A 
HETATM   29  C2  UNL     1       4.829  14.922  24.279  1.00  0.00     0.127 A 
HETATM   30  N3  UNL     1       5.308  15.793  25.180  1.00  0.00    -0.287 N 
HETATM   31  N2  UNL     1       6.504  15.374  25.643  1.00  0.00    -0.255 N 
ATOM     32  H3  UNL     1       4.836  16.648  25.474  1.00  0.00     0.188 HD
BRANCH  29  33
HETATM   33  C1  UNL     1       3.577  14.985  23.536  1.00  0.00     0.228 C 
HETATM   34  O1  UNL     1       3.188  14.007  22.867  1.00  0.00    -0.643 OA
HETATM   35  O2  UNL     1       2.827  16.133  23.579  1.00  0.00    -0.643 OA
ENDBRANCH  29  33
BRANCH  31  36
HETATM   36  C24 UNL     1       7.202  16.138  26.609  1.00  0.00     0.058 A 
HETATM   37  C25 UNL     1       7.011  16.002  27.984  1.00  0.00     0.033 A 
HETATM   38  C26 UNL     1       7.725  16.813  28.815  1.00  0.00     0.028 A 
HETATM   39  C27 UNL     1       8.617  17.751  28.346  1.00  0.00     0.055 A 
HETATM   40 CL2  UNL     1       9.506  18.767  29.474  1.00  0.00    -0.083 Cl
HETATM   41  C28 UNL     1       8.822  17.905  26.986  1.00  0.00     0.058 A 
HETATM   42 CL3  UNL     1       9.950  19.090  26.360  1.00  0.00    -0.082 Cl
HETATM   43  C29 UNL     1       8.107  17.091  26.123  1.00  0.00     0.057 A 
ENDBRANCH  31  36
ENDBRANCH   1  27
TORSDOF 8
ENDMDL
