MODEL 3
REMARK VINA RESULT: -8.420743112      1.175      1.640
REMARK  8 active torsions:
REMARK  status: ('A' for Active; 'I' for Inactive)
REMARK    1  A    between atoms: C1_2  and  C2_4 
REMARK    2  A    between atoms: C4_6  and  C5_7 
REMARK    3  A    between atoms: C8_10  and  C9_11 
REMARK    4  A    between atoms: C9_11  and  N1_12 
REMARK       I    between atoms: N1_12  and  C10_14 
REMARK    5  A    between atoms: C10_14  and  C11_16 
REMARK    6  A    between atoms: C14_19  and  C15_20 
REMARK    7  A    between atoms: C18_23  and  C19_24 
REMARK    8  A    between atoms: N2_33  and  C24_34 
ROOT
HETATM    1  C5  UNL     1       7.215  13.603  24.971  1.00  0.00    -0.007 A 
HETATM    2  C6  UNL     1       7.264  12.497  25.833  1.00  0.00     0.014 A 
HETATM    3  C7  UNL     1       8.435  11.945  26.256  1.00  0.00     0.010 A 
HETATM    4  C8  UNL     1       9.636  12.464  25.843  1.00  0.00    -0.040 A 
HETATM    5  C22 UNL     1       9.615  13.551  24.996  1.00  0.00     0.010 A 
HETATM    6  C23 UNL     1       8.404  14.110  24.569  1.00  0.00     0.014 A 
ENDROOT
BRANCH   4   7
HETATM    7  C9  UNL     1      10.903  11.884  26.290  1.00  0.00     0.161 C 
BRANCH   7   8
HETATM    8  N1  UNL     1      11.973  11.974  25.334  1.00  0.00    -0.353 N 
HETATM    9  C10 UNL     1      12.163  11.113  24.243  1.00  0.00     0.253 C 
HETATM   10  O3  UNL     1      11.354  10.175  24.053  1.00  0.00    -0.268 OA
ATOM     11  H1  UNL     1      12.651  12.726  25.460  1.00  0.00     0.163 HD
BRANCH   9  12
HETATM   12  C11 UNL     1      13.286  11.261  23.300  1.00  0.00     0.053 A 
HETATM   13  C12 UNL     1      14.303  10.318  23.260  1.00  0.00     0.020 A 
HETATM   14  C13 UNL     1      15.372  10.434  22.384  1.00  0.00     0.015 A 
HETATM   15  C14 UNL     1      15.456  11.501  21.517  1.00  0.00    -0.001 A 
HETATM   16  C20 UNL     1      14.435  12.426  21.573  1.00  0.00     0.039 A 
HETATM   17  C21 UNL     1      13.367  12.324  22.438  1.00  0.00     0.050 A 
HETATM   18 CL1  UNL     1      12.087  13.523  22.478  1.00  0.00    -0.083 Cl
BRANCH  15  19
HETATM   19  C15 UNL     1      16.571  11.642  20.590  1.00  0.00     0.086 A 
HETATM   20  C16 UNL     1      16.688  12.669  19.671  1.00  0.00     0.041 A 
HETATM   21  C17 UNL     1      17.864  12.452  18.988  1.00  0.00     0.047 A 
HETATM   22  C18 UNL     1      18.418  11.300  19.516  1.00  0.00     0.152 A 
HETATM   23  O6  UNL     1      17.622  10.863  20.452  1.00  0.00    -0.303 OA
BRANCH  22  24
HETATM   24  C19 UNL     1      19.681  10.740  19.045  1.00  0.00     0.234 C 
HETATM   25  O4  UNL     1      20.724  11.430  18.936  1.00  0.00    -0.642 OA
HETATM   26  O5  UNL     1      19.776   9.388  18.695  1.00  0.00    -0.642 OA
ENDBRANCH  22  24
ENDBRANCH  15  19
ENDBRANCH   9  12
ENDBRANCH   7   8
ENDBRANCH   4   7
BRANCH   1  27
HETATM   27  C4  UNL     1       5.910  14.111  24.581  1.00  0.00     0.069 A 
HETATM   28  C3  UNL     1       5.504  15.436  24.751  1.00  0.00     0.070 A 
HETATM   29  C2  UNL     1       4.213  15.610  24.281  1.00  0.00     0.127 A 
HETATM   30  N3  UNL     1       3.861  14.394  23.837  1.00  0.00    -0.287 N 
HETATM   31  N2  UNL     1       4.870  13.519  24.020  1.00  0.00    -0.255 N 
ATOM     32  H3  UNL     1       2.958  14.163  23.421  1.00  0.00     0.188 HD
BRANCH  29  33
HETATM   33  C1  UNL     1       3.429  16.838  24.275  1.00  0.00     0.228 C 
HETATM   34  O1  UNL     1       3.729  17.784  25.031  1.00  0.00    -0.643 OA
HETATM   35  O2  UNL     1       2.354  16.946  23.429  1.00  0.00    -0.643 OA
ENDBRANCH  29  33
BRANCH  31  36
HETATM   36  C24 UNL     1       4.725  12.167  23.624  1.00  0.00     0.058 A 
HETATM   37  C25 UNL     1       4.047  11.212  24.381  1.00  0.00     0.033 A 
HETATM   38  C26 UNL     1       3.997   9.935  23.906  1.00  0.00     0.028 A 
HETATM   39  C27 UNL     1       4.588   9.564  22.719  1.00  0.00     0.055 A 
HETATM   40 CL2  UNL     1       4.487   7.896  22.165  1.00  0.00    -0.083 Cl
HETATM   41  C28 UNL     1       5.268  10.494  21.953  1.00  0.00     0.058 A 
HETATM   42 CL3  UNL     1       6.031  10.051  20.440  1.00  0.00    -0.082 Cl
HETATM   43  C29 UNL     1       5.331  11.798  22.416  1.00  0.00     0.057 A 
ENDBRANCH  31  36
ENDBRANCH   1  27
TORSDOF 8
ENDMDL
