MODEL 15
REMARK VINA RESULT: -7.204226801      2.833      4.839
REMARK  8 active torsions:
REMARK  status: ('A' for Active; 'I' for Inactive)
REMARK    1  A    between atoms: C1_2  and  C2_4 
REMARK    2  A    between atoms: C4_6  and  C5_7 
REMARK    3  A    between atoms: C8_10  and  C9_11 
REMARK    4  A    between atoms: C9_11  and  N1_12 
REMARK       I    between atoms: N1_12  and  C10_14 
REMARK    5  A    between atoms: C10_14  and  C11_16 
REMARK    6  A    between atoms: C14_19  and  C15_20 
REMARK    7  A    between atoms: C18_23  and  C19_24 
REMARK    8  A    between atoms: N2_33  and  C24_34 
ROOT
HETATM    1  C5  UNL     1       7.900  14.273  25.656  1.00  0.00    -0.007 A 
HETATM    2  C6  UNL     1       8.970  14.300  24.750  1.00  0.00     0.014 A 
HETATM    3  C7  UNL     1      10.013  13.426  24.816  1.00  0.00     0.010 A 
HETATM    4  C8  UNL     1      10.052  12.466  25.795  1.00  0.00    -0.040 A 
HETATM    5  C22 UNL     1       9.012  12.418  26.699  1.00  0.00     0.010 A 
HETATM    6  C23 UNL     1       7.945  13.323  26.619  1.00  0.00     0.014 A 
ENDROOT
BRANCH   4   7
HETATM    7  C9  UNL     1      11.164  11.518  25.879  1.00  0.00     0.161 C 
BRANCH   7   8
HETATM    8  N1  UNL     1      12.226  11.755  24.939  1.00  0.00    -0.353 N 
HETATM    9  C10 UNL     1      12.508  10.965  23.814  1.00  0.00     0.253 C 
HETATM   10  O3  UNL     1      11.797   9.961  23.577  1.00  0.00    -0.268 OA
ATOM     11  H1  UNL     1      12.825  12.565  25.103  1.00  0.00     0.163 HD
BRANCH   9  12
HETATM   12  C11 UNL     1      13.615  11.265  22.890  1.00  0.00     0.053 A 
HETATM   13  C12 UNL     1      14.738  10.451  22.848  1.00  0.00     0.020 A 
HETATM   14  C13 UNL     1      15.796  10.711  21.989  1.00  0.00     0.015 A 
HETATM   15  C14 UNL     1      15.762  11.797  21.143  1.00  0.00    -0.001 A 
HETATM   16  C20 UNL     1      14.637  12.591  21.201  1.00  0.00     0.039 A 
HETATM   17  C21 UNL     1      13.578  12.346  22.048  1.00  0.00     0.050 A 
HETATM   18 CL1  UNL     1      12.164  13.382  22.091  1.00  0.00    -0.083 Cl
BRANCH  15  19
HETATM   19  C15 UNL     1      16.864  12.087  20.233  1.00  0.00     0.086 A 
HETATM   20  C16 UNL     1      17.879  11.196  19.939  1.00  0.00     0.041 A 
HETATM   21  C17 UNL     1      18.717  11.835  19.052  1.00  0.00     0.047 A 
HETATM   22  C18 UNL     1      18.179  13.092  18.841  1.00  0.00     0.152 A 
HETATM   23  O6  UNL     1      17.094  13.191  19.556  1.00  0.00    -0.303 OA
BRANCH  22  24
HETATM   24  C19 UNL     1      18.791  14.076  17.953  1.00  0.00     0.234 C 
HETATM   25  O4  UNL     1      20.007  14.042  17.647  1.00  0.00    -0.642 OA
HETATM   26  O5  UNL     1      18.027  15.110  17.400  1.00  0.00    -0.642 OA
ENDBRANCH  22  24
ENDBRANCH  15  19
ENDBRANCH   9  12
ENDBRANCH   7   8
ENDBRANCH   4   7
BRANCH   1  27
HETATM   27  C4  UNL     1       6.840  15.254  25.493  1.00  0.00     0.069 A 
HETATM   28  C3  UNL     1       5.660  15.021  24.783  1.00  0.00     0.070 A 
HETATM   29  C2  UNL     1       4.850  16.143  24.810  1.00  0.00     0.127 A 
HETATM   30  N3  UNL     1       5.548  17.033  25.533  1.00  0.00    -0.287 N 
HETATM   31  N2  UNL     1       6.719  16.495  25.929  1.00  0.00    -0.255 N 
ATOM     32  H3  UNL     1       5.237  17.980  25.751  1.00  0.00     0.188 HD
BRANCH  29  33
HETATM   33  C1  UNL     1       3.541  16.307  24.192  1.00  0.00     0.228 C 
HETATM   34  O1  UNL     1       2.872  15.310  23.852  1.00  0.00    -0.643 OA
HETATM   35  O2  UNL     1       3.048  17.571  23.986  1.00  0.00    -0.643 OA
ENDBRANCH  29  33
BRANCH  31  36
HETATM   36  C24 UNL     1       7.626  17.254  26.709  1.00  0.00     0.058 A 
HETATM   37  C25 UNL     1       7.495  17.431  28.087  1.00  0.00     0.033 A 
HETATM   38  C26 UNL     1       8.419  18.206  28.724  1.00  0.00     0.028 A 
HETATM   39  C27 UNL     1       9.461  18.812  28.059  1.00  0.00     0.055 A 
HETATM   40 CL2  UNL     1      10.618  19.801  28.943  1.00  0.00    -0.083 Cl
HETATM   41  C28 UNL     1       9.609  18.651  26.693  1.00  0.00     0.058 A 
HETATM   42 CL3  UNL     1      10.925  19.411  25.820  1.00  0.00    -0.082 Cl
HETATM   43  C29 UNL     1       8.682  17.868  26.024  1.00  0.00     0.057 A 
ENDBRANCH  31  36
ENDBRANCH   1  27
TORSDOF 8
ENDMDL
