MODEL 5
REMARK VINA RESULT: -7.764586906      1.045      1.237
REMARK  8 active torsions:
REMARK  status: ('A' for Active; 'I' for Inactive)
REMARK    1  A    between atoms: C1_2  and  C2_4 
REMARK    2  A    between atoms: C4_6  and  C5_7 
REMARK    3  A    between atoms: C8_10  and  C9_11 
REMARK    4  A    between atoms: C9_11  and  N1_12 
REMARK       I    between atoms: N1_12  and  C10_14 
REMARK    5  A    between atoms: C10_14  and  C11_16 
REMARK    6  A    between atoms: C14_19  and  C15_20 
REMARK    7  A    between atoms: C18_23  and  C19_24 
REMARK    8  A    between atoms: N2_33  and  C24_34 
ROOT
HETATM    1  C5  UNL     1       6.374  14.137  25.545  1.00  0.00    -0.007 A 
HETATM    2  C6  UNL     1       7.525  14.839  25.157  1.00  0.00     0.014 A 
HETATM    3  C7  UNL     1       8.771  14.509  25.598  1.00  0.00     0.010 A 
HETATM    4  C8  UNL     1       8.946  13.454  26.457  1.00  0.00    -0.040 A 
HETATM    5  C22 UNL     1       7.831  12.748  26.854  1.00  0.00     0.010 A 
HETATM    6  C23 UNL     1       6.555  13.097  26.392  1.00  0.00     0.014 A 
ENDROOT
BRANCH   4   7
HETATM    7  C9  UNL     1      10.279  13.086  26.938  1.00  0.00     0.161 C 
BRANCH   7   8
HETATM    8  N1  UNL     1      11.301  13.078  25.926  1.00  0.00    -0.353 N 
HETATM    9  C10 UNL     1      11.403  12.147  24.882  1.00  0.00     0.253 C 
HETATM   10  O3  UNL     1      10.553  11.232  24.791  1.00  0.00    -0.268 OA
ATOM     11  H1  UNL     1      12.010  13.810  25.972  1.00  0.00     0.163 HD
BRANCH   9  12
HETATM   12  C11 UNL     1      12.480  12.196  23.877  1.00  0.00     0.053 A 
HETATM   13  C12 UNL     1      13.445  11.201  23.829  1.00  0.00     0.020 A 
HETATM   14  C13 UNL     1      14.470  11.224  22.895  1.00  0.00     0.015 A 
HETATM   15  C14 UNL     1      14.561  12.246  21.977  1.00  0.00    -0.001 A 
HETATM   16  C20 UNL     1      13.590  13.224  22.042  1.00  0.00     0.039 A 
HETATM   17  C21 UNL     1      12.566  13.215  22.964  1.00  0.00     0.050 A 
HETATM   18 CL1  UNL     1      11.351  14.479  23.014  1.00  0.00    -0.083 Cl
BRANCH  15  19
HETATM   19  C15 UNL     1      15.630  12.288  20.987  1.00  0.00     0.086 A 
HETATM   20  C16 UNL     1      16.511  11.247  20.756  1.00  0.00     0.041 A 
HETATM   21  C17 UNL     1      17.363  11.669  19.759  1.00  0.00     0.047 A 
HETATM   22  C18 UNL     1      16.969  12.951  19.423  1.00  0.00     0.152 A 
HETATM   23  O6  UNL     1      15.949  13.269  20.171  1.00  0.00    -0.303 OA
BRANCH  22  24
HETATM   24  C19 UNL     1      17.638  13.742  18.394  1.00  0.00     0.234 C 
HETATM   25  O4  UNL     1      18.690  13.358  17.829  1.00  0.00    -0.642 OA
HETATM   26  O5  UNL     1      17.117  14.977  17.992  1.00  0.00    -0.642 OA
ENDBRANCH  22  24
ENDBRANCH  15  19
ENDBRANCH   9  12
ENDBRANCH   7   8
ENDBRANCH   4   7
BRANCH   1  27
HETATM   27  C4  UNL     1       5.093  14.576  25.015  1.00  0.00     0.069 A 
HETATM   28  C3  UNL     1       4.616  15.886  25.107  1.00  0.00     0.070 A 
HETATM   29  C2  UNL     1       3.372  15.989  24.508  1.00  0.00     0.127 A 
HETATM   30  N3  UNL     1       3.118  14.748  24.066  1.00  0.00    -0.287 N 
HETATM   31  N2  UNL     1       4.141  13.925  24.371  1.00  0.00    -0.255 N 
ATOM     32  H3  UNL     1       2.272  14.468  23.569  1.00  0.00     0.188 HD
BRANCH  29  33
HETATM   33  C1  UNL     1       2.540  17.180  24.392  1.00  0.00     0.228 C 
HETATM   34  O1  UNL     1       2.340  17.706  23.278  1.00  0.00    -0.643 OA
HETATM   35  O2  UNL     1       1.978  17.720  25.521  1.00  0.00    -0.643 OA
ENDBRANCH  29  33
BRANCH  31  36
HETATM   36  C24 UNL     1       4.094  12.559  24.001  1.00  0.00     0.058 A 
HETATM   37  C25 UNL     1       3.331  11.604  24.672  1.00  0.00     0.033 A 
HETATM   38  C26 UNL     1       3.389  10.314  24.236  1.00  0.00     0.028 A 
HETATM   39  C27 UNL     1       4.167   9.929  23.168  1.00  0.00     0.055 A 
HETATM   40 CL2  UNL     1       4.196   8.245  22.657  1.00  0.00    -0.083 Cl
HETATM   41  C28 UNL     1       4.934  10.858  22.487  1.00  0.00     0.058 A 
HETATM   42 CL3  UNL     1       5.935  10.397  21.126  1.00  0.00    -0.082 Cl
HETATM   43  C29 UNL     1       4.891  12.176  22.914  1.00  0.00     0.057 A 
ENDBRANCH  31  36
ENDBRANCH   1  27
TORSDOF 8
ENDMDL
