MODEL 14
REMARK VINA RESULT: -7.224551893      2.874      4.605
REMARK  8 active torsions:
REMARK  status: ('A' for Active; 'I' for Inactive)
REMARK    1  A    between atoms: C1_2  and  C2_4 
REMARK    2  A    between atoms: C4_6  and  C5_7 
REMARK    3  A    between atoms: C8_10  and  C9_11 
REMARK    4  A    between atoms: C9_11  and  N1_12 
REMARK       I    between atoms: N1_12  and  C10_14 
REMARK    5  A    between atoms: C10_14  and  C11_16 
REMARK    6  A    between atoms: C14_19  and  C15_20 
REMARK    7  A    between atoms: C18_23  and  C19_24 
REMARK    8  A    between atoms: N2_33  and  C24_34 
ROOT
HETATM    1  C5  UNL     1       7.958  13.543  25.363  1.00  0.00    -0.007 A 
HETATM    2  C6  UNL     1       9.147  13.898  24.708  1.00  0.00     0.014 A 
HETATM    3  C7  UNL     1      10.299  13.184  24.836  1.00  0.00     0.010 A 
HETATM    4  C8  UNL     1      10.338  12.065  25.629  1.00  0.00    -0.040 A 
HETATM    5  C22 UNL     1       9.184  11.695  26.285  1.00  0.00     0.010 A 
HETATM    6  C23 UNL     1       8.004  12.438  26.144  1.00  0.00     0.014 A 
ENDROOT
BRANCH   4   7
HETATM    7  C9  UNL     1      11.568  11.286  25.776  1.00  0.00     0.161 C 
BRANCH   7   8
HETATM    8  N1  UNL     1      12.595  11.601  24.820  1.00  0.00    -0.353 N 
HETATM    9  C10 UNL     1      12.872  10.872  23.654  1.00  0.00     0.253 C 
HETATM   10  O3  UNL     1      12.190   9.856  23.390  1.00  0.00    -0.268 OA
ATOM     11  H1  UNL     1      13.171  12.423  25.005  1.00  0.00     0.163 HD
BRANCH   9  12
HETATM   12  C11 UNL     1      13.943  11.251  22.716  1.00  0.00     0.053 A 
HETATM   13  C12 UNL     1      15.122  10.522  22.660  1.00  0.00     0.020 A 
HETATM   14  C13 UNL     1      16.147  10.858  21.787  1.00  0.00     0.015 A 
HETATM   15  C14 UNL     1      16.023  11.937  20.941  1.00  0.00    -0.001 A 
HETATM   16  C20 UNL     1      14.843  12.648  21.013  1.00  0.00     0.039 A 
HETATM   17  C21 UNL     1      13.816  12.326  21.874  1.00  0.00     0.050 A 
HETATM   18 CL1  UNL     1      12.330  13.256  21.935  1.00  0.00    -0.083 Cl
BRANCH  15  19
HETATM   19  C15 UNL     1      17.089  12.307  20.018  1.00  0.00     0.086 A 
HETATM   20  C16 UNL     1      18.187  11.512  19.747  1.00  0.00     0.041 A 
HETATM   21  C17 UNL     1      18.956  12.202  18.837  1.00  0.00     0.047 A 
HETATM   22  C18 UNL     1      18.296  13.392  18.589  1.00  0.00     0.152 A 
HETATM   23  O6  UNL     1      17.207  13.406  19.305  1.00  0.00    -0.303 OA
BRANCH  22  24
HETATM   24  C19 UNL     1      18.805  14.403  17.667  1.00  0.00     0.234 C 
HETATM   25  O4  UNL     1      19.949  14.333  17.156  1.00  0.00    -0.642 OA
HETATM   26  O5  UNL     1      18.019  15.506  17.312  1.00  0.00    -0.642 OA
ENDBRANCH  22  24
ENDBRANCH  15  19
ENDBRANCH   9  12
ENDBRANCH   7   8
ENDBRANCH   4   7
BRANCH   1  27
HETATM   27  C4  UNL     1       6.786  14.377  25.157  1.00  0.00     0.069 A 
HETATM   28  C3  UNL     1       5.726  14.042  24.312  1.00  0.00     0.070 A 
HETATM   29  C2  UNL     1       4.761  15.035  24.330  1.00  0.00     0.127 A 
HETATM   30  N3  UNL     1       5.250  15.950  25.181  1.00  0.00    -0.287 N 
HETATM   31  N2  UNL     1       6.444  15.549  25.661  1.00  0.00    -0.255 N 
ATOM     32  H3  UNL     1       4.785  16.823  25.429  1.00  0.00     0.188 HD
BRANCH  29  33
HETATM   33  C1  UNL     1       3.506  15.065  23.590  1.00  0.00     0.228 C 
HETATM   34  O1  UNL     1       3.126  14.066  22.948  1.00  0.00    -0.643 OA
HETATM   35  O2  UNL     1       2.745  16.207  23.605  1.00  0.00    -0.643 OA
ENDBRANCH  29  33
BRANCH  31  36
HETATM   36  C24 UNL     1       7.152  16.360  26.582  1.00  0.00     0.058 A 
HETATM   37  C25 UNL     1       8.261  17.132  26.235  1.00  0.00     0.033 A 
HETATM   38  C26 UNL     1       8.874  17.851  27.218  1.00  0.00     0.028 A 
HETATM   39  C27 UNL     1       8.440  17.839  28.524  1.00  0.00     0.055 A 
HETATM   40 CL2  UNL     1       9.279  18.791  29.743  1.00  0.00    -0.083 Cl
HETATM   41  C28 UNL     1       7.343  17.079  28.892  1.00  0.00     0.058 A 
HETATM   42 CL3  UNL     1       6.769  17.043  30.546  1.00  0.00    -0.082 Cl
HETATM   43  C29 UNL     1       6.704  16.340  27.910  1.00  0.00     0.057 A 
ENDBRANCH  31  36
ENDBRANCH   1  27
TORSDOF 8
ENDMDL
