MODEL 2
REMARK VINA RESULT: -8.654744125      0.860      1.208
REMARK  8 active torsions:
REMARK  status: ('A' for Active; 'I' for Inactive)
REMARK    1  A    between atoms: C1_2  and  C2_4 
REMARK    2  A    between atoms: C4_6  and  C5_7 
REMARK    3  A    between atoms: C8_10  and  C9_11 
REMARK    4  A    between atoms: C9_11  and  N1_12 
REMARK       I    between atoms: N1_12  and  C10_14 
REMARK    5  A    between atoms: C10_14  and  C11_16 
REMARK    6  A    between atoms: C14_19  and  C15_20 
REMARK    7  A    between atoms: C18_23  and  C19_24 
REMARK    8  A    between atoms: N2_33  and  C24_34 
ROOT
HETATM    1  C5  UNL     1       7.027  13.555  25.095  1.00  0.00    -0.007 A 
HETATM    2  C6  UNL     1       8.191  14.069  24.504  1.00  0.00     0.014 A 
HETATM    3  C7  UNL     1       9.439  13.643  24.844  1.00  0.00     0.010 A 
HETATM    4  C8  UNL     1       9.604  12.673  25.801  1.00  0.00    -0.040 A 
HETATM    5  C22 UNL     1       8.476  12.152  26.397  1.00  0.00     0.010 A 
HETATM    6  C23 UNL     1       7.198  12.598  26.037  1.00  0.00     0.014 A 
ENDROOT
BRANCH   4   7
HETATM    7  C9  UNL     1      10.938  12.203  26.177  1.00  0.00     0.161 C 
BRANCH   7   8
HETATM    8  N1  UNL     1      11.951  12.410  25.177  1.00  0.00    -0.353 N 
HETATM    9  C10 UNL     1      12.350  11.469  24.217  1.00  0.00     0.253 C 
HETATM   10  O3  UNL     1      11.802  10.343  24.197  1.00  0.00    -0.268 OA
ATOM     11  H1  UNL     1      12.418  13.318  25.165  1.00  0.00     0.163 HD
BRANCH   9  12
HETATM   12  C11 UNL     1      13.398  11.747  23.219  1.00  0.00     0.053 A 
HETATM   13  C12 UNL     1      13.078  12.344  22.008  1.00  0.00     0.020 A 
HETATM   14  C13 UNL     1      14.044  12.616  21.050  1.00  0.00     0.015 A 
HETATM   15  C14 UNL     1      15.365  12.297  21.276  1.00  0.00    -0.001 A 
HETATM   16  C20 UNL     1      15.660  11.706  22.486  1.00  0.00     0.039 A 
HETATM   17  C21 UNL     1      14.712  11.430  23.447  1.00  0.00     0.050 A 
HETATM   18 CL1  UNL     1      15.130  10.675  24.974  1.00  0.00    -0.083 Cl
BRANCH  15  19
HETATM   19  C15 UNL     1      16.395  12.574  20.282  1.00  0.00     0.086 A 
HETATM   20  C16 UNL     1      17.319  11.641  19.847  1.00  0.00     0.041 A 
HETATM   21  C17 UNL     1      18.112  12.280  18.919  1.00  0.00     0.047 A 
HETATM   22  C18 UNL     1      17.640  13.576  18.826  1.00  0.00     0.152 A 
HETATM   23  O6  UNL     1      16.633  13.699  19.645  1.00  0.00    -0.303 OA
BRANCH  22  24
HETATM   24  C19 UNL     1      18.230  14.572  17.936  1.00  0.00     0.234 C 
HETATM   25  O4  UNL     1      17.677  15.674  17.698  1.00  0.00    -0.642 OA
HETATM   26  O5  UNL     1      19.457  14.330  17.307  1.00  0.00    -0.642 OA
ENDBRANCH  22  24
ENDBRANCH  15  19
ENDBRANCH   9  12
ENDBRANCH   7   8
ENDBRANCH   4   7
BRANCH   1  27
HETATM   27  C4  UNL     1       5.745  14.083  24.657  1.00  0.00     0.069 A 
HETATM   28  C3  UNL     1       5.350  15.412  24.820  1.00  0.00     0.070 A 
HETATM   29  C2  UNL     1       4.082  15.607  24.300  1.00  0.00     0.127 A 
HETATM   30  N3  UNL     1       3.732  14.399  23.832  1.00  0.00    -0.287 N 
HETATM   31  N2  UNL     1       4.722  13.510  24.049  1.00  0.00    -0.255 N 
ATOM     32  H3  UNL     1       2.844  14.184  23.377  1.00  0.00     0.188 HD
BRANCH  29  33
HETATM   33  C1  UNL     1       3.315  16.845  24.273  1.00  0.00     0.228 C 
HETATM   34  O1  UNL     1       3.523  17.737  25.120  1.00  0.00    -0.643 OA
HETATM   35  O2  UNL     1       2.358  17.022  23.305  1.00  0.00    -0.643 OA
ENDBRANCH  29  33
BRANCH  31  36
HETATM   36  C24 UNL     1       4.576  12.163  23.636  1.00  0.00     0.058 A 
HETATM   37  C25 UNL     1       3.837  11.216  24.344  1.00  0.00     0.033 A 
HETATM   38  C26 UNL     1       3.792   9.943  23.859  1.00  0.00     0.028 A 
HETATM   39  C27 UNL     1       4.445   9.567  22.707  1.00  0.00     0.055 A 
HETATM   40 CL2  UNL     1       4.346   7.905  22.136  1.00  0.00    -0.083 Cl
HETATM   41  C28 UNL     1       5.186  10.489  21.988  1.00  0.00     0.058 A 
HETATM   42 CL3  UNL     1       6.029  10.040  20.520  1.00  0.00    -0.082 Cl
HETATM   43  C29 UNL     1       5.246  11.789  22.463  1.00  0.00     0.057 A 
ENDBRANCH  31  36
ENDBRANCH   1  27
TORSDOF 8
ENDMDL
