MODEL 1
REMARK VINA RESULT: -8.809739878      0.000      0.000
REMARK  8 active torsions:
REMARK  status: ('A' for Active; 'I' for Inactive)
REMARK    1  A    between atoms: C1_2  and  C2_4 
REMARK    2  A    between atoms: C4_6  and  C5_7 
REMARK    3  A    between atoms: C8_10  and  C9_11 
REMARK    4  A    between atoms: C9_11  and  N1_12 
REMARK       I    between atoms: N1_12  and  C10_14 
REMARK    5  A    between atoms: C10_14  and  C11_16 
REMARK    6  A    between atoms: C14_19  and  C15_20 
REMARK    7  A    between atoms: C18_23  and  C19_24 
REMARK    8  A    between atoms: N2_33  and  C24_34 
ROOT
HETATM    1  C5  UNL     1       7.167  13.378  25.114  1.00  0.00    -0.007 A 
HETATM    2  C6  UNL     1       8.344  13.979  24.643  1.00  0.00     0.014 A 
HETATM    3  C7  UNL     1       9.585  13.522  24.968  1.00  0.00     0.010 A 
HETATM    4  C8  UNL     1       9.730  12.430  25.787  1.00  0.00    -0.040 A 
HETATM    5  C22 UNL     1       8.589  11.821  26.263  1.00  0.00     0.010 A 
HETATM    6  C23 UNL     1       7.318  12.302  25.921  1.00  0.00     0.014 A 
ENDROOT
BRANCH   4   7
HETATM    7  C9  UNL     1      11.056  11.925  26.144  1.00  0.00     0.161 C 
BRANCH   7   8
HETATM    8  N1  UNL     1      12.068  12.135  25.144  1.00  0.00    -0.353 N 
HETATM    9  C10 UNL     1      12.358  11.262  24.085  1.00  0.00     0.253 C 
HETATM   10  O3  UNL     1      11.703  10.200  23.969  1.00  0.00    -0.268 OA
ATOM     11  H1  UNL     1      12.620  12.991  25.209  1.00  0.00     0.163 HD
BRANCH   9  12
HETATM   12  C11 UNL     1      13.411  11.539  23.093  1.00  0.00     0.053 A 
HETATM   13  C12 UNL     1      14.539  10.735  23.019  1.00  0.00     0.020 A 
HETATM   14  C13 UNL     1      15.547  10.974  22.096  1.00  0.00     0.015 A 
HETATM   15  C14 UNL     1      15.456  12.029  21.215  1.00  0.00    -0.001 A 
HETATM   16  C20 UNL     1      14.326  12.815  21.306  1.00  0.00     0.039 A 
HETATM   17  C21 UNL     1      13.317  12.590  22.217  1.00  0.00     0.050 A 
HETATM   18 CL1  UNL     1      11.895  13.614  22.299  1.00  0.00    -0.083 Cl
BRANCH  15  19
HETATM   19  C15 UNL     1      16.504  12.298  20.239  1.00  0.00     0.086 A 
HETATM   20  C16 UNL     1      17.461  11.375  19.858  1.00  0.00     0.041 A 
HETATM   21  C17 UNL     1      18.262  12.001  18.929  1.00  0.00     0.047 A 
HETATM   22  C18 UNL     1      17.762  13.282  18.780  1.00  0.00     0.152 A 
HETATM   23  O6  UNL     1      16.732  13.407  19.569  1.00  0.00    -0.303 OA
BRANCH  22  24
HETATM   24  C19 UNL     1      18.350  14.262  17.872  1.00  0.00     0.234 C 
HETATM   25  O4  UNL     1      19.439  14.062  17.281  1.00  0.00    -0.642 OA
HETATM   26  O5  UNL     1      17.708  15.480  17.622  1.00  0.00    -0.642 OA
ENDBRANCH  22  24
ENDBRANCH  15  19
ENDBRANCH   9  12
ENDBRANCH   7   8
ENDBRANCH   4   7
BRANCH   1  27
HETATM   27  C4  UNL     1       5.895  13.950  24.705  1.00  0.00     0.069 A 
HETATM   28  C3  UNL     1       5.540  15.287  24.899  1.00  0.00     0.070 A 
HETATM   29  C2  UNL     1       4.271  15.526  24.402  1.00  0.00     0.127 A 
HETATM   30  N3  UNL     1       3.880  14.338  23.917  1.00  0.00    -0.287 N 
HETATM   31  N2  UNL     1       4.847  13.417  24.103  1.00  0.00    -0.255 N 
ATOM     32  H3  UNL     1       2.979  14.156  23.473  1.00  0.00     0.188 HD
BRANCH  29  33
HETATM   33  C1  UNL     1       3.539  16.786  24.409  1.00  0.00     0.228 C 
HETATM   34  O1  UNL     1       3.950  17.753  25.082  1.00  0.00    -0.643 OA
HETATM   35  O2  UNL     1       2.390  16.901  23.668  1.00  0.00    -0.643 OA
ENDBRANCH  29  33
BRANCH  31  36
HETATM   36  C24 UNL     1       4.656  12.083  23.668  1.00  0.00     0.058 A 
HETATM   37  C25 UNL     1       3.898  11.145  24.369  1.00  0.00     0.033 A 
HETATM   38  C26 UNL     1       3.810   9.883  23.861  1.00  0.00     0.028 A 
HETATM   39  C27 UNL     1       4.438   9.510  22.694  1.00  0.00     0.055 A 
HETATM   40 CL2  UNL     1       4.283   7.862  22.095  1.00  0.00    -0.083 Cl
HETATM   41  C28 UNL     1       5.197  10.423  21.983  1.00  0.00     0.058 A 
HETATM   42 CL3  UNL     1       6.008   9.976  20.496  1.00  0.00    -0.082 Cl
HETATM   43  C29 UNL     1       5.301  11.712  22.480  1.00  0.00     0.057 A 
ENDBRANCH  31  36
ENDBRANCH   1  27
TORSDOF 8
ENDMDL
