MODEL 4
REMARK VINA RESULT: -7.954085518      1.356      1.820
REMARK  8 active torsions:
REMARK  status: ('A' for Active; 'I' for Inactive)
REMARK    1  A    between atoms: C1_2  and  C2_4 
REMARK    2  A    between atoms: C4_6  and  C5_7 
REMARK    3  A    between atoms: C8_10  and  C9_11 
REMARK    4  A    between atoms: C9_11  and  N1_12 
REMARK       I    between atoms: N1_12  and  C10_14 
REMARK    5  A    between atoms: C10_14  and  C11_16 
REMARK    6  A    between atoms: C14_19  and  C15_20 
REMARK    7  A    between atoms: C18_23  and  C19_24 
REMARK    8  A    between atoms: N2_33  and  C24_34 
ROOT
HETATM    1  C5  UNL     1       7.356  13.087  26.365  1.00  0.00    -0.007 A 
HETATM    2  C6  UNL     1       7.564  11.876  27.041  1.00  0.00     0.014 A 
HETATM    3  C7  UNL     1       8.802  11.340  27.229  1.00  0.00     0.010 A 
HETATM    4  C8  UNL     1       9.916  11.983  26.752  1.00  0.00    -0.040 A 
HETATM    5  C22 UNL     1       9.740  13.176  26.083  1.00  0.00     0.010 A 
HETATM    6  C23 UNL     1       8.460  13.716  25.897  1.00  0.00     0.014 A 
ENDROOT
BRANCH   4   7
HETATM    7  C9  UNL     1      11.253  11.423  26.947  1.00  0.00     0.161 C 
BRANCH   7   8
HETATM    8  N1  UNL     1      12.179  11.693  25.879  1.00  0.00    -0.353 N 
HETATM    9  C10 UNL     1      12.193  11.048  24.634  1.00  0.00     0.253 C 
HETATM   10  O3  UNL     1      11.347  10.157  24.394  1.00  0.00    -0.268 OA
ATOM     11  H1  UNL     1      12.883  12.414  26.041  1.00  0.00     0.163 HD
BRANCH   9  12
HETATM   12  C11 UNL     1      13.173  11.375  23.582  1.00  0.00     0.053 A 
HETATM   13  C12 UNL     1      14.237  10.524  23.322  1.00  0.00     0.020 A 
HETATM   14  C13 UNL     1      15.174  10.807  22.339  1.00  0.00     0.015 A 
HETATM   15  C14 UNL     1      15.075  11.955  21.584  1.00  0.00    -0.001 A 
HETATM   16  C20 UNL     1      14.009  12.786  21.859  1.00  0.00     0.039 A 
HETATM   17  C21 UNL     1      13.070  12.518  22.832  1.00  0.00     0.050 A 
HETATM   18 CL1  UNL     1      11.729  13.602  23.151  1.00  0.00    -0.083 Cl
BRANCH  15  19
HETATM   19  C15 UNL     1      16.050  12.271  20.548  1.00  0.00     0.086 A 
HETATM   20  C16 UNL     1      16.977  11.370  20.058  1.00  0.00     0.041 A 
HETATM   21  C17 UNL     1      17.708  12.040  19.102  1.00  0.00     0.047 A 
HETATM   22  C18 UNL     1      17.198  13.325  19.048  1.00  0.00     0.152 A 
HETATM   23  O6  UNL     1      16.228  13.410  19.915  1.00  0.00    -0.303 OA
BRANCH  22  24
HETATM   24  C19 UNL     1      17.719  14.347  18.145  1.00  0.00     0.234 C 
HETATM   25  O4  UNL     1      18.720  14.151  17.414  1.00  0.00    -0.642 OA
HETATM   26  O5  UNL     1      17.108  15.603  18.060  1.00  0.00    -0.642 OA
ENDBRANCH  22  24
ENDBRANCH  15  19
ENDBRANCH   9  12
ENDBRANCH   7   8
ENDBRANCH   4   7
BRANCH   1  27
HETATM   27  C4  UNL     1       5.992  13.566  26.220  1.00  0.00     0.069 A 
HETATM   28  C3  UNL     1       5.410  14.532  27.044  1.00  0.00     0.070 A 
HETATM   29  C2  UNL     1       4.105  14.777  26.654  1.00  0.00     0.127 A 
HETATM   30  N3  UNL     1       3.918  13.960  25.605  1.00  0.00    -0.287 N 
HETATM   31  N2  UNL     1       5.039  13.252  25.361  1.00  0.00    -0.255 N 
ATOM     32  H3  UNL     1       3.052  13.886  25.071  1.00  0.00     0.188 HD
BRANCH  29  33
HETATM   33  C1  UNL     1       3.160  15.711  27.254  1.00  0.00     0.228 C 
HETATM   34  O1  UNL     1       3.552  16.574  28.064  1.00  0.00    -0.643 OA
HETATM   35  O2  UNL     1       1.832  15.633  26.918  1.00  0.00    -0.643 OA
ENDBRANCH  29  33
BRANCH  31  36
HETATM   36  C24 UNL     1       5.077  12.321  24.294  1.00  0.00     0.058 A 
HETATM   37  C25 UNL     1       5.327  12.678  22.969  1.00  0.00     0.033 A 
HETATM   38  C26 UNL     1       5.312  11.694  22.026  1.00  0.00     0.028 A 
HETATM   39  C27 UNL     1       5.060  10.376  22.336  1.00  0.00     0.055 A 
HETATM   40 CL2  UNL     1       5.055   9.155  21.069  1.00  0.00    -0.083 Cl
HETATM   41  C28 UNL     1       4.808  10.000  23.643  1.00  0.00     0.058 A 
HETATM   42 CL3  UNL     1       4.483   8.331  24.068  1.00  0.00    -0.082 Cl
HETATM   43  C29 UNL     1       4.818  10.983  24.619  1.00  0.00     0.057 A 
ENDBRANCH  31  36
ENDBRANCH   1  27
TORSDOF 8
ENDMDL
