MODEL 17
REMARK VINA RESULT: -7.294960493      3.355      4.427
REMARK  7 active torsions:
REMARK  status: ('A' for Active; 'I' for Inactive)
REMARK    1  A    between atoms: C1_2  and  C2_4 
REMARK    2  A    between atoms: C4_6  and  C5_7 
REMARK    3  A    between atoms: C8_10  and  C9_11 
REMARK    4  A    between atoms: C9_11  and  N1_12 
REMARK    5  A    between atoms: C14_17  and  C15_18 
REMARK    6  A    between atoms: C18_21  and  C19_22 
REMARK    7  A    between atoms: N2_33  and  C26_34 
ROOT
HETATM    1  C5  UNL     1       6.818  13.366  25.170  1.00  0.00    -0.007 A 
HETATM    2  C6  UNL     1       8.000  13.830  24.569  1.00  0.00     0.014 A 
HETATM    3  C7  UNL     1       9.227  13.352  24.965  1.00  0.00     0.010 A 
HETATM    4  C8  UNL     1       9.308  12.408  25.959  1.00  0.00    -0.040 A 
HETATM    5  C24 UNL     1       8.141  11.945  26.559  1.00  0.00     0.010 A 
HETATM    6  C25 UNL     1       6.902  12.435  26.151  1.00  0.00     0.014 A 
ENDROOT
BRANCH   4   7
HETATM    7  C9  UNL     1      10.610  11.866  26.400  1.00  0.00     0.168 C 
BRANCH   7   8
HETATM    8  N1  UNL     1      11.581  11.799  25.326  1.00  0.00    -0.343 N 
HETATM    9  C10 UNL     1      11.472  10.786  24.443  1.00  0.00     0.093 A 
HETATM   10  C11 UNL     1      12.353  10.674  23.399  1.00  0.00     0.029 A 
HETATM   11  C12 UNL     1      13.347  11.622  23.279  1.00  0.00    -0.021 A 
HETATM   12  C13 UNL     1      14.273  11.561  22.236  1.00  0.00     0.026 A 
HETATM   13  C22 UNL     1      13.447  12.649  24.186  1.00  0.00     0.012 A 
HETATM   14  C14 UNL     1      15.266  12.487  22.097  1.00  0.00    -0.001 A 
HETATM   15  C20 UNL     1      15.323  13.496  23.030  1.00  0.00     0.015 A 
HETATM   16  C21 UNL     1      14.440  13.610  24.079  1.00  0.00     0.016 A 
HETATM   17  C23 UNL     1      12.539  12.729  25.226  1.00  0.00     0.114 A 
HETATM   18  S1  UNL     1      12.726  13.963  26.286  1.00  0.00    -0.059 SA
BRANCH  14  19
HETATM   19  C15 UNL     1      16.237  12.406  20.985  1.00  0.00     0.086 A 
HETATM   20  C16 UNL     1      16.111  13.007  19.752  1.00  0.00     0.041 A 
HETATM   21  C17 UNL     1      17.221  12.691  19.002  1.00  0.00     0.047 A 
HETATM   22  C18 UNL     1      18.007  11.886  19.824  1.00  0.00     0.152 A 
HETATM   23  O5  UNL     1      17.370  11.760  20.971  1.00  0.00    -0.303 OA
BRANCH  22  24
HETATM   24  C19 UNL     1      19.288  11.313  19.443  1.00  0.00     0.234 C 
HETATM   25  O3  UNL     1      20.273  12.044  19.214  1.00  0.00    -0.642 OA
HETATM   26  O4  UNL     1      19.418   9.949  19.334  1.00  0.00    -0.642 OA
ENDBRANCH  22  24
ENDBRANCH  14  19
ENDBRANCH   7   8
ENDBRANCH   4   7
BRANCH   1  27
HETATM   27  C4  UNL     1       5.547  13.906  24.713  1.00  0.00     0.069 A 
HETATM   28  C3  UNL     1       5.149  15.241  24.819  1.00  0.00     0.070 A 
HETATM   29  C2  UNL     1       3.888  15.389  24.283  1.00  0.00     0.127 A 
HETATM   30  N3  UNL     1       3.532  14.180  23.863  1.00  0.00    -0.287 N 
HETATM   31  N2  UNL     1       4.532  13.298  24.125  1.00  0.00    -0.255 N 
ATOM     32  H3  UNL     1       2.646  13.949  23.414  1.00  0.00     0.188 HD
BRANCH  29  33
HETATM   33  C1  UNL     1       3.094  16.599  24.183  1.00  0.00     0.228 C 
HETATM   34  O1  UNL     1       3.392  17.612  24.850  1.00  0.00    -0.643 OA
HETATM   35  O2  UNL     1       2.002  16.636  23.349  1.00  0.00    -0.643 OA
ENDBRANCH  29  33
BRANCH  31  36
HETATM   36  C26 UNL     1       4.324  11.941  23.741  1.00  0.00     0.058 A 
HETATM   37  C27 UNL     1       3.274  11.238  24.284  1.00  0.00     0.033 A 
HETATM   38  C28 UNL     1       2.994   9.943  23.941  1.00  0.00     0.028 A 
HETATM   39  C29 UNL     1       3.787   9.296  23.013  1.00  0.00     0.055 A 
HETATM   40 CL1  UNL     1       3.459   7.630  22.545  1.00  0.00    -0.083 Cl
HETATM   41  C30 UNL     1       4.838  10.008  22.473  1.00  0.00     0.058 A 
HETATM   42 CL2  UNL     1       5.896   9.244  21.277  1.00  0.00    -0.082 Cl
HETATM   43  C31 UNL     1       5.122  11.308  22.814  1.00  0.00     0.057 A 
ENDBRANCH  31  36
ENDBRANCH   1  27
TORSDOF 7
ENDMDL
