MODEL 11
REMARK VINA RESULT: -7.416246240      8.030     10.587
REMARK  7 active torsions:
REMARK  status: ('A' for Active; 'I' for Inactive)
REMARK    1  A    between atoms: C1_2  and  C2_4 
REMARK    2  A    between atoms: C4_6  and  C5_7 
REMARK    3  A    between atoms: C8_10  and  C9_11 
REMARK    4  A    between atoms: C9_11  and  N1_12 
REMARK    5  A    between atoms: C14_17  and  C15_18 
REMARK    6  A    between atoms: C18_21  and  C19_22 
REMARK    7  A    between atoms: N2_33  and  C26_34 
ROOT
HETATM    1  C5  UNL     1       1.270   5.430  23.445  1.00  0.00    -0.007 A 
HETATM    2  C6  UNL     1       2.500   4.770  23.280  1.00  0.00     0.014 A 
HETATM    3  C7  UNL     1       3.654   5.479  23.046  1.00  0.00     0.010 A 
HETATM    4  C8  UNL     1       3.615   6.850  22.971  1.00  0.00    -0.040 A 
HETATM    5  C24 UNL     1       2.400   7.509  23.132  1.00  0.00     0.010 A 
HETATM    6  C25 UNL     1       1.235   6.782  23.369  1.00  0.00     0.014 A 
ENDROOT
BRANCH   4   7
HETATM    7  C9  UNL     1       4.839   7.642  22.730  1.00  0.00     0.168 C 
BRANCH   7   8
HETATM    8  N1  UNL     1       4.783   8.957  23.335  1.00  0.00    -0.343 N 
HETATM    9  C10 UNL     1       4.546   9.031  24.660  1.00  0.00     0.093 A 
HETATM   10  C11 UNL     1       4.493  10.245  25.292  1.00  0.00     0.029 A 
HETATM   11  C12 UNL     1       4.689  11.383  24.539  1.00  0.00    -0.021 A 
HETATM   12  C13 UNL     1       4.647  12.648  25.126  1.00  0.00     0.026 A 
HETATM   13  C22 UNL     1       4.930  11.294  23.189  1.00  0.00     0.012 A 
HETATM   14  C14 UNL     1       4.838  13.789  24.401  1.00  0.00    -0.001 A 
HETATM   15  C20 UNL     1       5.077  13.647  23.054  1.00  0.00     0.015 A 
HETATM   16  C21 UNL     1       5.129  12.428  22.416  1.00  0.00     0.016 A 
HETATM   17  C23 UNL     1       4.976  10.050  22.586  1.00  0.00     0.114 A 
HETATM   18  S1  UNL     1       5.245  10.014  20.971  1.00  0.00    -0.059 SA
BRANCH  14  19
HETATM   19  C15 UNL     1       4.790  15.120  25.042  1.00  0.00     0.086 A 
HETATM   20  C16 UNL     1       4.007  16.182  24.648  1.00  0.00     0.041 A 
HETATM   21  C17 UNL     1       4.251  17.237  25.497  1.00  0.00     0.047 A 
HETATM   22  C18 UNL     1       5.202  16.772  26.405  1.00  0.00     0.152 A 
HETATM   23  O5  UNL     1       5.472  15.523  26.078  1.00  0.00    -0.303 OA
BRANCH  22  24
HETATM   24  C19 UNL     1       5.762  17.554  27.494  1.00  0.00     0.234 C 
HETATM   25  O3  UNL     1       6.825  17.208  28.049  1.00  0.00    -0.642 OA
HETATM   26  O4  UNL     1       5.115  18.689  27.919  1.00  0.00    -0.642 OA
ENDBRANCH  22  24
ENDBRANCH  14  19
ENDBRANCH   7   8
ENDBRANCH   4   7
BRANCH   1  27
HETATM   27  C4  UNL     1       0.080   4.630  23.691  1.00  0.00     0.069 A 
HETATM   28  C3  UNL     1      -0.327   4.145  24.936  1.00  0.00     0.070 A 
HETATM   29  C2  UNL     1      -1.496   3.430  24.791  1.00  0.00     0.127 A 
HETATM   30  N3  UNL     1      -1.790   3.481  23.497  1.00  0.00    -0.287 N 
HETATM   31  N2  UNL     1      -0.840   4.202  22.846  1.00  0.00    -0.255 N 
ATOM     32  H3  UNL     1      -2.602   3.046  23.060  1.00  0.00     0.188 HD
BRANCH  29  33
HETATM   33  C1  UNL     1      -2.265   2.755  25.819  1.00  0.00     0.228 C 
HETATM   34  O1  UNL     1      -1.712   2.334  26.856  1.00  0.00    -0.643 OA
HETATM   35  O2  UNL     1      -3.619   2.574  25.655  1.00  0.00    -0.643 OA
ENDBRANCH  29  33
BRANCH  31  36
HETATM   36  C26 UNL     1      -0.993   4.363  21.438  1.00  0.00     0.058 A 
HETATM   37  C27 UNL     1      -0.153   3.685  20.584  1.00  0.00     0.033 A 
HETATM   38  C28 UNL     1      -0.259   3.767  19.222  1.00  0.00     0.028 A 
HETATM   39  C29 UNL     1      -1.243   4.557  18.660  1.00  0.00     0.055 A 
HETATM   40 CL1  UNL     1      -1.411   4.686  16.912  1.00  0.00    -0.083 Cl
HETATM   41  C30 UNL     1      -2.081   5.232  19.522  1.00  0.00     0.058 A 
HETATM   42 CL2  UNL     1      -3.365   6.264  18.873  1.00  0.00    -0.082 Cl
HETATM   43  C31 UNL     1      -1.978   5.154  20.889  1.00  0.00     0.057 A 
ENDBRANCH  31  36
ENDBRANCH   1  27
TORSDOF 7
ENDMDL
