MODEL 13
REMARK VINA RESULT: -7.389779135      3.219      4.250
REMARK  7 active torsions:
REMARK  status: ('A' for Active; 'I' for Inactive)
REMARK    1  A    between atoms: C1_2  and  C2_4 
REMARK    2  A    between atoms: C4_6  and  C5_7 
REMARK    3  A    between atoms: C8_10  and  C9_11 
REMARK    4  A    between atoms: C9_11  and  N1_12 
REMARK    5  A    between atoms: C14_17  and  C15_18 
REMARK    6  A    between atoms: C18_21  and  C19_22 
REMARK    7  A    between atoms: N2_33  and  C26_34 
ROOT
HETATM    1  C5  UNL     1       7.535  13.434  25.219  1.00  0.00    -0.007 A 
HETATM    2  C6  UNL     1       8.255  13.720  26.391  1.00  0.00     0.014 A 
HETATM    3  C7  UNL     1       9.490  13.159  26.615  1.00  0.00     0.010 A 
HETATM    4  C8  UNL     1      10.035  12.307  25.686  1.00  0.00    -0.040 A 
HETATM    5  C24 UNL     1       9.327  12.018  24.523  1.00  0.00     0.010 A 
HETATM    6  C25 UNL     1       8.076  12.592  24.306  1.00  0.00     0.014 A 
ENDROOT
BRANCH   4   7
HETATM    7  C9  UNL     1      11.365  11.695  25.892  1.00  0.00     0.168 C 
BRANCH   7   8
HETATM    8  N1  UNL     1      12.343  12.141  24.920  1.00  0.00    -0.343 N 
HETATM    9  C10 UNL     1      12.610  13.460  24.856  1.00  0.00     0.093 A 
HETATM   10  C11 UNL     1      13.533  13.942  23.966  1.00  0.00     0.029 A 
HETATM   11  C12 UNL     1      14.178  13.044  23.143  1.00  0.00    -0.021 A 
HETATM   12  C13 UNL     1      15.129  13.475  22.216  1.00  0.00     0.026 A 
HETATM   13  C22 UNL     1      13.897  11.701  23.217  1.00  0.00     0.012 A 
HETATM   14  C14 UNL     1      15.780  12.604  21.391  1.00  0.00    -0.001 A 
HETATM   15  C20 UNL     1      15.463  11.271  21.505  1.00  0.00     0.015 A 
HETATM   16  C21 UNL     1      14.536  10.784  22.397  1.00  0.00     0.016 A 
HETATM   17  C23 UNL     1      12.958  11.252  24.129  1.00  0.00     0.114 A 
HETATM   18  S1  UNL     1      12.652   9.644  24.153  1.00  0.00    -0.059 SA
BRANCH  14  19
HETATM   19  C15 UNL     1      16.785  13.080  20.416  1.00  0.00     0.086 A 
HETATM   20  C16 UNL     1      17.738  12.307  19.792  1.00  0.00     0.041 A 
HETATM   21  C17 UNL     1      18.477  13.119  18.962  1.00  0.00     0.047 A 
HETATM   22  C18 UNL     1      17.935  14.395  19.112  1.00  0.00     0.152 A 
HETATM   23  O5  UNL     1      16.947  14.298  19.979  1.00  0.00    -0.303 OA
BRANCH  22  24
HETATM   24  C19 UNL     1      18.405  15.583  18.419  1.00  0.00     0.234 C 
HETATM   25  O3  UNL     1      19.079  16.448  19.016  1.00  0.00    -0.642 OA
HETATM   26  O4  UNL     1      18.105  15.759  17.090  1.00  0.00    -0.642 OA
ENDBRANCH  22  24
ENDBRANCH  14  19
ENDBRANCH   7   8
ENDBRANCH   4   7
BRANCH   1  27
HETATM   27  C4  UNL     1       6.233  14.055  25.033  1.00  0.00     0.069 A 
HETATM   28  C3  UNL     1       5.902  15.364  25.393  1.00  0.00     0.070 A 
HETATM   29  C2  UNL     1       4.584  15.610  25.071  1.00  0.00     0.127 A 
HETATM   30  N3  UNL     1       4.131  14.484  24.530  1.00  0.00    -0.287 N 
HETATM   31  N2  UNL     1       5.126  13.559  24.512  1.00  0.00    -0.255 N 
ATOM     32  H3  UNL     1       3.184  14.338  24.183  1.00  0.00     0.188 HD
BRANCH  29  33
HETATM   33  C1  UNL     1       3.828  16.832  25.267  1.00  0.00     0.228 C 
HETATM   34  O1  UNL     1       3.883  17.447  26.352  1.00  0.00    -0.643 OA
HETATM   35  O2  UNL     1       3.041  17.322  24.251  1.00  0.00    -0.643 OA
ENDBRANCH  29  33
BRANCH  31  36
HETATM   36  C26 UNL     1       4.819  12.280  23.964  1.00  0.00     0.058 A 
HETATM   37  C27 UNL     1       4.089  11.382  24.708  1.00  0.00     0.033 A 
HETATM   38  C28 UNL     1       3.730  10.148  24.236  1.00  0.00     0.028 A 
HETATM   39  C29 UNL     1       4.107   9.769  22.962  1.00  0.00     0.055 A 
HETATM   40 CL1  UNL     1       3.664   8.190  22.320  1.00  0.00    -0.083 Cl
HETATM   41  C30 UNL     1       4.838  10.674  22.223  1.00  0.00     0.058 A 
HETATM   42 CL2  UNL     1       5.355  10.257  20.582  1.00  0.00    -0.082 Cl
HETATM   43  C31 UNL     1       5.200  11.913  22.692  1.00  0.00     0.057 A 
ENDBRANCH  31  36
ENDBRANCH   1  27
TORSDOF 7
ENDMDL
