MODEL 4
REMARK VINA RESULT: -8.000542565      3.147      4.262
REMARK  7 active torsions:
REMARK  status: ('A' for Active; 'I' for Inactive)
REMARK    1  A    between atoms: C1_2  and  C2_4 
REMARK    2  A    between atoms: C4_6  and  C5_7 
REMARK    3  A    between atoms: C8_10  and  C9_11 
REMARK    4  A    between atoms: C9_11  and  N1_12 
REMARK    5  A    between atoms: C14_17  and  C15_18 
REMARK    6  A    between atoms: C18_21  and  C19_22 
REMARK    7  A    between atoms: N2_33  and  C26_34 
ROOT
HETATM    1  C5  UNL     1       6.494  13.367  25.094  1.00  0.00    -0.007 A 
HETATM    2  C6  UNL     1       6.577  12.379  26.090  1.00  0.00     0.014 A 
HETATM    3  C7  UNL     1       7.795  11.900  26.508  1.00  0.00     0.010 A 
HETATM    4  C8  UNL     1       8.952  12.386  25.950  1.00  0.00    -0.040 A 
HETATM    5  C24 UNL     1       8.877  13.363  24.962  1.00  0.00     0.010 A 
HETATM    6  C25 UNL     1       7.637  13.842  24.545  1.00  0.00     0.014 A 
ENDROOT
BRANCH   4   7
HETATM    7  C9  UNL     1      10.278  11.899  26.384  1.00  0.00     0.168 C 
BRANCH   7   8
HETATM    8  N1  UNL     1      11.252  11.895  25.312  1.00  0.00    -0.343 N 
HETATM    9  C10 UNL     1      11.166  10.919  24.386  1.00  0.00     0.093 A 
HETATM   10  C11 UNL     1      12.051  10.868  23.341  1.00  0.00     0.029 A 
HETATM   11  C12 UNL     1      13.026  11.840  23.264  1.00  0.00    -0.021 A 
HETATM   12  C13 UNL     1      13.956  11.841  22.222  1.00  0.00     0.026 A 
HETATM   13  C22 UNL     1      13.104  12.829  24.213  1.00  0.00     0.012 A 
HETATM   14  C14 UNL     1      14.930  12.792  22.125  1.00  0.00    -0.001 A 
HETATM   15  C20 UNL     1      14.965  13.762  23.100  1.00  0.00     0.015 A 
HETATM   16  C21 UNL     1      14.078  13.814  24.151  1.00  0.00     0.016 A 
HETATM   17  C23 UNL     1      12.192  12.848  25.254  1.00  0.00     0.114 A 
HETATM   18  S1  UNL     1      12.352  14.040  26.365  1.00  0.00    -0.059 SA
BRANCH  14  19
HETATM   19  C15 UNL     1      15.905  12.777  21.013  1.00  0.00     0.086 A 
HETATM   20  C16 UNL     1      16.585  11.675  20.546  1.00  0.00     0.041 A 
HETATM   21  C17 UNL     1      17.395  12.075  19.508  1.00  0.00     0.047 A 
HETATM   22  C18 UNL     1      17.178  13.445  19.374  1.00  0.00     0.152 A 
HETATM   23  O5  UNL     1      16.292  13.790  20.289  1.00  0.00    -0.303 OA
BRANCH  22  24
HETATM   24  C19 UNL     1      17.829  14.296  18.392  1.00  0.00     0.234 C 
HETATM   25  O3  UNL     1      18.829  13.897  17.762  1.00  0.00    -0.642 OA
HETATM   26  O4  UNL     1      17.337  15.557  18.153  1.00  0.00    -0.642 OA
ENDBRANCH  22  24
ENDBRANCH  14  19
ENDBRANCH   7   8
ENDBRANCH   4   7
BRANCH   1  27
HETATM   27  C4  UNL     1       5.178  13.838  24.690  1.00  0.00     0.069 A 
HETATM   28  C3  UNL     1       4.722  15.154  24.796  1.00  0.00     0.070 A 
HETATM   29  C2  UNL     1       3.431  15.233  24.318  1.00  0.00     0.127 A 
HETATM   30  N3  UNL     1       3.116  14.002  23.932  1.00  0.00    -0.287 N 
HETATM   31  N2  UNL     1       4.168  13.173  24.158  1.00  0.00    -0.255 N 
ATOM     32  H3  UNL     1       2.222  13.723  23.528  1.00  0.00     0.188 HD
BRANCH  29  33
HETATM   33  C1  UNL     1       2.576  16.402  24.240  1.00  0.00     0.228 C 
HETATM   34  O1  UNL     1       3.027  17.539  24.491  1.00  0.00    -0.643 OA
HETATM   35  O2  UNL     1       1.254  16.262  23.886  1.00  0.00    -0.643 OA
ENDBRANCH  29  33
BRANCH  31  36
HETATM   36  C26 UNL     1       4.009  11.802  23.802  1.00  0.00     0.058 A 
HETATM   37  C27 UNL     1       2.973  11.078  24.346  1.00  0.00     0.033 A 
HETATM   38  C28 UNL     1       2.740   9.767  24.028  1.00  0.00     0.028 A 
HETATM   39  C29 UNL     1       3.567   9.126  23.127  1.00  0.00     0.055 A 
HETATM   40 CL1  UNL     1       3.298   7.440  22.693  1.00  0.00    -0.083 Cl
HETATM   41  C30 UNL     1       4.602   9.859  22.586  1.00  0.00     0.058 A 
HETATM   42 CL2  UNL     1       5.703   9.102  21.424  1.00  0.00    -0.082 Cl
HETATM   43  C31 UNL     1       4.840  11.174  22.902  1.00  0.00     0.057 A 
ENDBRANCH  31  36
ENDBRANCH   1  27
TORSDOF 7
ENDMDL
