MODEL 2
REMARK VINA RESULT: -8.208186155      3.205      4.186
REMARK  7 active torsions:
REMARK  status: ('A' for Active; 'I' for Inactive)
REMARK    1  A    between atoms: C1_2  and  C2_4 
REMARK    2  A    between atoms: C4_6  and  C5_7 
REMARK    3  A    between atoms: C8_10  and  C9_11 
REMARK    4  A    between atoms: C9_11  and  N1_12 
REMARK    5  A    between atoms: C14_17  and  C15_18 
REMARK    6  A    between atoms: C18_21  and  C19_22 
REMARK    7  A    between atoms: N2_33  and  C26_34 
ROOT
HETATM    1  C5  UNL     1       6.479  14.211  25.295  1.00  0.00    -0.007 A 
HETATM    2  C6  UNL     1       7.421  13.763  24.353  1.00  0.00     0.014 A 
HETATM    3  C7  UNL     1       8.674  13.357  24.748  1.00  0.00     0.010 A 
HETATM    4  C8  UNL     1       9.018  13.386  26.077  1.00  0.00    -0.040 A 
HETATM    5  C24 UNL     1       8.090  13.829  27.014  1.00  0.00     0.010 A 
HETATM    6  C25 UNL     1       6.823  14.239  26.605  1.00  0.00     0.014 A 
ENDROOT
BRANCH   4   7
HETATM    7  C9  UNL     1      10.352  12.946  26.534  1.00  0.00     0.168 C 
BRANCH   7   8
HETATM    8  N1  UNL     1      11.366  13.069  25.506  1.00  0.00    -0.343 N 
HETATM    9  C10 UNL     1      11.783  14.309  25.180  1.00  0.00     0.093 A 
HETATM   10  C11 UNL     1      12.748  14.491  24.224  1.00  0.00     0.029 A 
HETATM   11  C12 UNL     1      13.276  13.376  23.609  1.00  0.00    -0.021 A 
HETATM   12  C13 UNL     1      14.261  13.498  22.628  1.00  0.00     0.026 A 
HETATM   13  C22 UNL     1      12.842  12.118  23.950  1.00  0.00     0.012 A 
HETATM   14  C14 UNL     1      14.799  12.409  22.005  1.00  0.00    -0.001 A 
HETATM   15  C20 UNL     1      14.332  11.171  22.383  1.00  0.00     0.015 A 
HETATM   16  C21 UNL     1      13.363  10.986  23.342  1.00  0.00     0.016 A 
HETATM   17  C23 UNL     1      11.867  11.974  24.921  1.00  0.00     0.114 A 
HETATM   18  S1  UNL     1      11.377  10.450  25.266  1.00  0.00    -0.059 SA
BRANCH  14  19
HETATM   19  C15 UNL     1      15.843  12.558  20.968  1.00  0.00     0.086 A 
HETATM   20  C16 UNL     1      16.736  11.588  20.571  1.00  0.00     0.041 A 
HETATM   21  C17 UNL     1      17.540  12.117  19.588  1.00  0.00     0.047 A 
HETATM   22  C18 UNL     1      17.100  13.428  19.414  1.00  0.00     0.152 A 
HETATM   23  O5  UNL     1      16.102  13.619  20.256  1.00  0.00    -0.303 OA
BRANCH  22  24
HETATM   24  C19 UNL     1      17.665  14.375  18.466  1.00  0.00     0.234 C 
HETATM   25  O3  UNL     1      18.600  14.042  17.710  1.00  0.00    -0.642 OA
HETATM   26  O4  UNL     1      17.164  15.653  18.401  1.00  0.00    -0.642 OA
ENDBRANCH  22  24
ENDBRANCH  14  19
ENDBRANCH   7   8
ENDBRANCH   4   7
BRANCH   1  27
HETATM   27  C4  UNL     1       5.169  14.630  24.823  1.00  0.00     0.069 A 
HETATM   28  C3  UNL     1       4.628  15.910  24.963  1.00  0.00     0.070 A 
HETATM   29  C2  UNL     1       3.371  15.943  24.398  1.00  0.00     0.127 A 
HETATM   30  N3  UNL     1       3.156  14.719  23.930  1.00  0.00    -0.287 N 
HETATM   31  N2  UNL     1       4.238  13.940  24.189  1.00  0.00    -0.255 N 
ATOM     32  H3  UNL     1       2.310  14.412  23.450  1.00  0.00     0.188 HD
BRANCH  29  33
HETATM   33  C1  UNL     1       2.455  17.065  24.318  1.00  0.00     0.228 C 
HETATM   34  O1  UNL     1       1.995  17.587  25.355  1.00  0.00    -0.643 OA
HETATM   35  O2  UNL     1       2.086  17.563  23.090  1.00  0.00    -0.643 OA
ENDBRANCH  29  33
BRANCH  31  36
HETATM   36  C26 UNL     1       4.185  12.583  23.754  1.00  0.00     0.058 A 
HETATM   37  C27 UNL     1       3.469  11.665  24.488  1.00  0.00     0.033 A 
HETATM   38  C28 UNL     1       3.348  10.353  24.117  1.00  0.00     0.028 A 
HETATM   39  C29 UNL     1       3.963   9.912  22.961  1.00  0.00     0.055 A 
HETATM   40 CL1  UNL     1       3.829   8.231  22.451  1.00  0.00    -0.083 Cl
HETATM   41  C30 UNL     1       4.678  10.838  22.232  1.00  0.00     0.058 A 
HETATM   42 CL2  UNL     1       5.492  10.343  20.739  1.00  0.00    -0.082 Cl
HETATM   43  C31 UNL     1       4.802  12.155  22.600  1.00  0.00     0.057 A 
ENDBRANCH  31  36
ENDBRANCH   1  27
TORSDOF 7
ENDMDL
