MODEL 6
REMARK VINA RESULT: -7.725181974      2.819      4.012
REMARK  7 active torsions:
REMARK  status: ('A' for Active; 'I' for Inactive)
REMARK    1  A    between atoms: C1_2  and  C2_4 
REMARK    2  A    between atoms: C4_6  and  C5_7 
REMARK    3  A    between atoms: C8_10  and  C9_11 
REMARK    4  A    between atoms: C9_11  and  N1_12 
REMARK    5  A    between atoms: C14_17  and  C15_18 
REMARK    6  A    between atoms: C18_21  and  C19_22 
REMARK    7  A    between atoms: N2_33  and  C26_34 
ROOT
HETATM    1  C5  UNL     1       6.611  11.754  24.948  1.00  0.00    -0.007 A 
HETATM    2  C6  UNL     1       7.091  11.900  26.261  1.00  0.00     0.014 A 
HETATM    3  C7  UNL     1       8.401  11.621  26.567  1.00  0.00     0.010 A 
HETATM    4  C8  UNL     1       9.260  11.194  25.584  1.00  0.00    -0.040 A 
HETATM    5  C24 UNL     1       8.791  11.047  24.283  1.00  0.00     0.010 A 
HETATM    6  C25 UNL     1       7.461  11.331  23.982  1.00  0.00     0.014 A 
ENDROOT
BRANCH   4   7
HETATM    7  C9  UNL     1      10.677  10.896  25.879  1.00  0.00     0.168 C 
BRANCH   7   8
HETATM    8  N1  UNL     1      11.580  11.411  24.869  1.00  0.00    -0.343 N 
HETATM    9  C10 UNL     1      11.381  12.670  24.432  1.00  0.00     0.093 A 
HETATM   10  C11 UNL     1      12.208  13.218  23.486  1.00  0.00     0.029 A 
HETATM   11  C12 UNL     1      13.243  12.449  22.999  1.00  0.00    -0.021 A 
HETATM   12  C13 UNL     1      14.119  12.952  22.035  1.00  0.00     0.026 A 
HETATM   13  C22 UNL     1      13.435  11.166  23.453  1.00  0.00     0.012 A 
HETATM   14  C14 UNL     1      15.150  12.209  21.538  1.00  0.00    -0.001 A 
HETATM   15  C20 UNL     1      15.300  10.932  22.026  1.00  0.00     0.015 A 
HETATM   16  C21 UNL     1      14.471  10.379  22.974  1.00  0.00     0.016 A 
HETATM   17  C23 UNL     1      12.579  10.648  24.409  1.00  0.00     0.114 A 
HETATM   18  S1  UNL     1      12.848   9.106  24.892  1.00  0.00    -0.059 SA
BRANCH  14  19
HETATM   19  C15 UNL     1      16.068  12.760  20.517  1.00  0.00     0.086 A 
HETATM   20  C16 UNL     1      16.860  12.030  19.660  1.00  0.00     0.041 A 
HETATM   21  C17 UNL     1      17.564  12.908  18.869  1.00  0.00     0.047 A 
HETATM   22  C18 UNL     1      17.169  14.179  19.282  1.00  0.00     0.152 A 
HETATM   23  O5  UNL     1      16.290  14.017  20.251  1.00  0.00    -0.303 OA
BRANCH  22  24
HETATM   24  C19 UNL     1      17.660  15.425  18.717  1.00  0.00     0.234 C 
HETATM   25  O3  UNL     1      17.692  16.469  19.402  1.00  0.00    -0.642 OA
HETATM   26  O4  UNL     1      18.095  15.457  17.414  1.00  0.00    -0.642 OA
ENDBRANCH  22  24
ENDBRANCH  14  19
ENDBRANCH   7   8
ENDBRANCH   4   7
BRANCH   1  27
HETATM   27  C4  UNL     1       5.215  12.063  24.680  1.00  0.00     0.069 A 
HETATM   28  C3  UNL     1       4.633  13.329  24.776  1.00  0.00     0.070 A 
HETATM   29  C2  UNL     1       3.296  13.247  24.450  1.00  0.00     0.127 A 
HETATM   30  N3  UNL     1       3.075  11.969  24.163  1.00  0.00    -0.287 N 
HETATM   31  N2  UNL     1       4.230  11.268  24.304  1.00  0.00    -0.255 N 
ATOM     32  H3  UNL     1       2.177  11.575  23.882  1.00  0.00     0.188 HD
BRANCH  29  33
HETATM   33  C1  UNL     1       2.315  14.315  24.417  1.00  0.00     0.228 C 
HETATM   34  O1  UNL     1       2.554  15.416  24.955  1.00  0.00    -0.643 OA
HETATM   35  O2  UNL     1       1.108  14.118  23.787  1.00  0.00    -0.643 OA
ENDBRANCH  29  33
BRANCH  31  36
HETATM   36  C26 UNL     1       4.182   9.868  24.036  1.00  0.00     0.058 A 
HETATM   37  C27 UNL     1       4.942   9.008  24.795  1.00  0.00     0.033 A 
HETATM   38  C28 UNL     1       4.924   7.651  24.616  1.00  0.00     0.028 A 
HETATM   39  C29 UNL     1       4.116   7.102  23.639  1.00  0.00     0.055 A 
HETATM   40 CL1  UNL     1       4.065   5.361  23.379  1.00  0.00    -0.083 Cl
HETATM   41  C30 UNL     1       3.357   7.971  22.884  1.00  0.00     0.058 A 
HETATM   42 CL2  UNL     1       2.298   7.339  21.613  1.00  0.00    -0.082 Cl
HETATM   43  C31 UNL     1       3.372   9.333  23.059  1.00  0.00     0.057 A 
ENDBRANCH  31  36
ENDBRANCH   1  27
TORSDOF 7
ENDMDL
