MODEL 10
REMARK VINA RESULT: -7.441423727      3.785     11.594
REMARK  7 active torsions:
REMARK  status: ('A' for Active; 'I' for Inactive)
REMARK    1  A    between atoms: C1_2  and  C2_4 
REMARK    2  A    between atoms: C4_6  and  C5_7 
REMARK    3  A    between atoms: C8_10  and  C9_11 
REMARK    4  A    between atoms: C9_11  and  N1_12 
REMARK    5  A    between atoms: C14_17  and  C15_18 
REMARK    6  A    between atoms: C18_21  and  C19_22 
REMARK    7  A    between atoms: N2_33  and  C26_34 
ROOT
HETATM    1  C5  UNL     1      11.291  12.605  23.828  1.00  0.00    -0.007 A 
HETATM    2  C6  UNL     1      10.458  11.477  23.736  1.00  0.00     0.014 A 
HETATM    3  C7  UNL     1       9.099  11.589  23.914  1.00  0.00     0.010 A 
HETATM    4  C8  UNL     1       8.540  12.813  24.185  1.00  0.00    -0.040 A 
HETATM    5  C24 UNL     1       9.360  13.934  24.278  1.00  0.00     0.010 A 
HETATM    6  C25 UNL     1      10.736  13.811  24.097  1.00  0.00     0.014 A 
ENDROOT
BRANCH   4   7
HETATM    7  C9  UNL     1       7.083  12.968  24.371  1.00  0.00     0.168 C 
BRANCH   7   8
HETATM    8  N1  UNL     1       6.329  11.843  23.855  1.00  0.00    -0.343 N 
HETATM    9  C10 UNL     1       6.083  11.806  22.531  1.00  0.00     0.093 A 
HETATM   10  C11 UNL     1       5.386  10.762  21.980  1.00  0.00     0.029 A 
HETATM   11  C12 UNL     1       4.947   9.757  22.816  1.00  0.00    -0.021 A 
HETATM   12  C13 UNL     1       4.232   8.668  22.314  1.00  0.00     0.026 A 
HETATM   13  C22 UNL     1       5.205   9.807  24.164  1.00  0.00     0.012 A 
HETATM   14  C14 UNL     1       3.788   7.662  23.122  1.00  0.00    -0.001 A 
HETATM   15  C20 UNL     1       4.072   7.758  24.464  1.00  0.00     0.015 A 
HETATM   16  C21 UNL     1       4.771   8.805  25.019  1.00  0.00     0.016 A 
HETATM   17  C23 UNL     1       5.912  10.877  24.683  1.00  0.00     0.114 A 
HETATM   18  S1  UNL     1       6.166  10.889  26.301  1.00  0.00    -0.059 SA
BRANCH  14  19
HETATM   19  C15 UNL     1       3.032   6.516  22.571  1.00  0.00     0.086 A 
HETATM   20  C16 UNL     1       3.004   5.240  23.088  1.00  0.00     0.041 A 
HETATM   21  C17 UNL     1       2.190   4.469  22.291  1.00  0.00     0.047 A 
HETATM   22  C18 UNL     1       1.737   5.323  21.286  1.00  0.00     0.152 A 
HETATM   23  O5  UNL     1       2.271   6.507  21.512  1.00  0.00    -0.303 OA
BRANCH  22  24
HETATM   24  C19 UNL     1       0.842   4.935  20.208  1.00  0.00     0.234 C 
HETATM   25  O3  UNL     1      -0.282   4.450  20.454  1.00  0.00    -0.642 OA
HETATM   26  O4  UNL     1       1.236   5.104  18.903  1.00  0.00    -0.642 OA
ENDBRANCH  22  24
ENDBRANCH  14  19
ENDBRANCH   7   8
ENDBRANCH   4   7
BRANCH   1  27
HETATM   27  C4  UNL     1      12.722  12.430  23.631  1.00  0.00     0.069 A 
HETATM   28  C3  UNL     1      13.492  13.082  22.665  1.00  0.00     0.070 A 
HETATM   29  C2  UNL     1      14.804  12.674  22.770  1.00  0.00     0.127 A 
HETATM   30  N3  UNL     1      14.829  11.800  23.771  1.00  0.00    -0.287 N 
HETATM   31  N2  UNL     1      13.577  11.661  24.280  1.00  0.00    -0.255 N 
ATOM     32  H3  UNL     1      15.659  11.311  24.105  1.00  0.00     0.188 HD
BRANCH  29  33
HETATM   33  C1  UNL     1      15.939  13.094  21.971  1.00  0.00     0.228 C 
HETATM   34  O1  UNL     1      15.783  13.466  20.789  1.00  0.00    -0.643 OA
HETATM   35  O2  UNL     1      17.203  13.084  22.515  1.00  0.00    -0.643 OA
ENDBRANCH  29  33
BRANCH  31  36
HETATM   36  C26 UNL     1      13.411  10.756  25.369  1.00  0.00     0.058 A 
HETATM   37  C27 UNL     1      13.826   9.451  25.233  1.00  0.00     0.033 A 
HETATM   38  C28 UNL     1      13.727   8.534  26.245  1.00  0.00     0.028 A 
HETATM   39  C29 UNL     1      13.191   8.914  27.460  1.00  0.00     0.055 A 
HETATM   40 CL1  UNL     1      13.048   7.763  28.785  1.00  0.00    -0.083 Cl
HETATM   41  C30 UNL     1      12.778  10.224  27.588  1.00  0.00     0.058 A 
HETATM   42 CL2  UNL     1      12.082  10.781  29.117  1.00  0.00    -0.082 Cl
HETATM   43  C31 UNL     1      12.875  11.147  26.576  1.00  0.00     0.057 A 
ENDBRANCH  31  36
ENDBRANCH   1  27
TORSDOF 7
ENDMDL
