MODEL 14
REMARK VINA RESULT: -7.383196894      7.857     10.716
REMARK  7 active torsions:
REMARK  status: ('A' for Active; 'I' for Inactive)
REMARK    1  A    between atoms: C1_2  and  C2_4 
REMARK    2  A    between atoms: C4_6  and  C5_7 
REMARK    3  A    between atoms: C8_10  and  C9_11 
REMARK    4  A    between atoms: C9_11  and  N1_12 
REMARK    5  A    between atoms: C14_17  and  C15_18 
REMARK    6  A    between atoms: C18_21  and  C19_22 
REMARK    7  A    between atoms: N2_33  and  C26_34 
ROOT
HETATM    1  C5  UNL     1       3.643   6.964  23.105  1.00  0.00    -0.007 A 
HETATM    2  C6  UNL     1       4.559   7.006  24.171  1.00  0.00     0.014 A 
HETATM    3  C7  UNL     1       5.325   8.125  24.397  1.00  0.00     0.010 A 
HETATM    4  C8  UNL     1       5.201   9.220  23.577  1.00  0.00    -0.040 A 
HETATM    5  C24 UNL     1       4.297   9.184  22.520  1.00  0.00     0.010 A 
HETATM    6  C25 UNL     1       3.525   8.045  22.298  1.00  0.00     0.014 A 
ENDROOT
BRANCH   4   7
HETATM    7  C9  UNL     1       6.003  10.441  23.800  1.00  0.00     0.168 C 
BRANCH   7   8
HETATM    8  N1  UNL     1       5.201  11.648  23.786  1.00  0.00    -0.343 N 
HETATM    9  C10 UNL     1       5.152  12.356  22.640  1.00  0.00     0.093 A 
HETATM   10  C11 UNL     1       4.402  13.500  22.559  1.00  0.00     0.029 A 
HETATM   11  C12 UNL     1       3.703  13.903  23.677  1.00  0.00    -0.021 A 
HETATM   12  C13 UNL     1       2.921  15.059  23.656  1.00  0.00     0.026 A 
HETATM   13  C22 UNL     1       3.761  13.172  24.839  1.00  0.00     0.012 A 
HETATM   14  C14 UNL     1       2.220  15.478  24.750  1.00  0.00    -0.001 A 
HETATM   15  C20 UNL     1       2.311  14.711  25.888  1.00  0.00     0.015 A 
HETATM   16  C21 UNL     1       3.064  13.562  25.972  1.00  0.00     0.016 A 
HETATM   17  C23 UNL     1       4.529  12.022  24.882  1.00  0.00     0.114 A 
HETATM   18  S1  UNL     1       4.575  11.208  26.302  1.00  0.00    -0.059 SA
BRANCH  14  19
HETATM   19  C15 UNL     1       1.397  16.706  24.708  1.00  0.00     0.086 A 
HETATM   20  C16 UNL     1       1.004  17.455  25.794  1.00  0.00     0.041 A 
HETATM   21  C17 UNL     1       0.252  18.514  25.338  1.00  0.00     0.047 A 
HETATM   22  C18 UNL     1       0.210  18.370  23.952  1.00  0.00     0.152 A 
HETATM   23  O5  UNL     1       0.902  17.289  23.652  1.00  0.00    -0.303 OA
BRANCH  22  24
HETATM   24  C19 UNL     1      -0.481  19.272  23.045  1.00  0.00     0.234 C 
HETATM   25  O3  UNL     1      -1.324  18.839  22.233  1.00  0.00    -0.642 OA
HETATM   26  O4  UNL     1      -0.204  20.617  23.080  1.00  0.00    -0.642 OA
ENDBRANCH  22  24
ENDBRANCH  14  19
ENDBRANCH   7   8
ENDBRANCH   4   7
BRANCH   1  27
HETATM   27  C4  UNL     1       2.858   5.755  22.911  1.00  0.00     0.069 A 
HETATM   28  C3  UNL     1       3.378   4.476  22.701  1.00  0.00     0.070 A 
HETATM   29  C2  UNL     1       2.344   3.576  22.558  1.00  0.00     0.127 A 
HETATM   30  N3  UNL     1       1.230   4.288  22.680  1.00  0.00    -0.287 N 
HETATM   31  N2  UNL     1       1.547   5.592  22.891  1.00  0.00    -0.255 N 
ATOM     32  H3  UNL     1       0.283   3.914  22.623  1.00  0.00     0.188 HD
BRANCH  29  33
HETATM   33  C1  UNL     1       2.427   2.147  22.325  1.00  0.00     0.228 C 
HETATM   34  O1  UNL     1       3.236   1.443  22.965  1.00  0.00    -0.643 OA
HETATM   35  O2  UNL     1       1.609   1.555  21.391  1.00  0.00    -0.643 OA
ENDBRANCH  29  33
BRANCH  31  36
HETATM   36  C26 UNL     1       0.468   6.511  23.045  1.00  0.00     0.058 A 
HETATM   37  C27 UNL     1       0.369   7.250  24.202  1.00  0.00     0.033 A 
HETATM   38  C28 UNL     1      -0.622   8.172  24.407  1.00  0.00     0.028 A 
HETATM   39  C29 UNL     1      -1.570   8.385  23.426  1.00  0.00     0.055 A 
HETATM   40 CL1  UNL     1      -2.859   9.564  23.654  1.00  0.00    -0.083 Cl
HETATM   41  C30 UNL     1      -1.463   7.642  22.270  1.00  0.00     0.058 A 
HETATM   42 CL2  UNL     1      -2.643   7.863  20.969  1.00  0.00    -0.082 Cl
HETATM   43  C31 UNL     1      -0.471   6.715  22.059  1.00  0.00     0.057 A 
ENDBRANCH  31  36
ENDBRANCH   1  27
TORSDOF 7
ENDMDL
