MODEL 3
REMARK VINA RESULT: -7.866359360      3.328      4.381
REMARK  9 active torsions:
REMARK  status: ('A' for Active; 'I' for Inactive)
REMARK    1  A    between atoms: C1_2  and  C2_4 
REMARK    2  A    between atoms: C4_6  and  C5_7 
REMARK    3  A    between atoms: C8_10  and  C9_11 
REMARK    4  A    between atoms: C9_11  and  N1_13 
REMARK    5  A    between atoms: N1_13  and  C10_15 
REMARK    6  A    between atoms: C10_15  and  C11_16 
REMARK    7  A    between atoms: C14_19  and  C15_20 
REMARK    8  A    between atoms: C18_23  and  C19_24 
REMARK    9  A    between atoms: N2_32  and  C24_33 
ROOT
HETATM    1  C5  UNL     1      -2.553  11.747  -0.574  1.00  0.00    -0.007 A 
HETATM    2  C6  UNL     1      -1.499  11.041  -1.165  1.00  0.00     0.014 A 
HETATM    3  C7  UNL     1      -0.173  11.306  -0.897  1.00  0.00     0.015 A 
HETATM    4  C8  UNL     1       0.148  12.309  -0.008  1.00  0.00     0.002 A 
HETATM    5  C22 UNL     1      -0.848  13.020   0.590  1.00  0.00     0.015 A 
HETATM    6  C23 UNL     1      -2.178  12.728   0.298  1.00  0.00     0.014 A 
ENDROOT
BRANCH   4   7
HETATM    7  C9  UNL     1       1.542  12.634   0.314  1.00  0.00     0.107 C 
HETATM    8  S1  UNL     1       2.438  13.414  -0.794  1.00  0.00    -0.060 SA
BRANCH   7   9
HETATM    9  N1  UNL     1       2.061  12.254   1.590  1.00  0.00    -0.376 N 
ATOM     10  H1  UNL     1       2.623  12.928   2.109  1.00  0.00     0.160 HD
BRANCH   9  11
HETATM   11  C10 UNL     1       1.825  10.963   2.175  1.00  0.00     0.159 C 
BRANCH  11  12
HETATM   12  C11 UNL     1       3.001  10.078   1.937  1.00  0.00    -0.041 A 
HETATM   13  C12 UNL     1       4.052  10.030   2.817  1.00  0.00     0.010 A 
HETATM   14  C13 UNL     1       5.153   9.202   2.604  1.00  0.00     0.015 A 
HETATM   15  C14 UNL     1       5.170   8.419   1.477  1.00  0.00    -0.002 A 
HETATM   16  C20 UNL     1       4.123   8.456   0.585  1.00  0.00     0.015 A 
HETATM   17  C21 UNL     1       3.054   9.276   0.815  1.00  0.00     0.010 A 
BRANCH  15  18
HETATM   18  C15 UNL     1       6.316   7.525   1.209  1.00  0.00     0.086 A 
HETATM   19  C16 UNL     1       7.446   7.382   1.992  1.00  0.00     0.041 A 
HETATM   20  C17 UNL     1       8.229   6.447   1.349  1.00  0.00     0.047 A 
HETATM   21  C18 UNL     1       7.558   6.056   0.212  1.00  0.00     0.152 A 
HETATM   22  O5  UNL     1       6.440   6.731   0.192  1.00  0.00    -0.303 OA
BRANCH  21  23
HETATM   23  C19 UNL     1       8.048   5.078  -0.751  1.00  0.00     0.234 C 
HETATM   24  O3  UNL     1       9.010   4.339  -0.431  1.00  0.00    -0.642 OA
HETATM   25  O4  UNL     1       7.493   4.927  -2.011  1.00  0.00    -0.642 OA
ENDBRANCH  21  23
ENDBRANCH  15  18
ENDBRANCH  11  12
ENDBRANCH   9  11
ENDBRANCH   7   9
ENDBRANCH   4   7
BRANCH   1  26
HETATM   26  C4  UNL     1      -3.938  11.398  -0.917  1.00  0.00     0.069 A 
HETATM   27  C3  UNL     1      -4.482  11.633  -2.197  1.00  0.00     0.070 A 
HETATM   28  C2  UNL     1      -5.781  11.192  -2.170  1.00  0.00     0.127 A 
HETATM   29  N3  UNL     1      -5.981  10.730  -0.953  1.00  0.00    -0.287 N 
HETATM   30  N2  UNL     1      -4.878  10.848  -0.190  1.00  0.00    -0.255 N 
ATOM     31  H3  UNL     1      -6.863  10.332  -0.629  1.00  0.00     0.188 HD
BRANCH  28  32
HETATM   32  C1  UNL     1      -6.691  11.260  -3.305  1.00  0.00     0.228 C 
HETATM   33  O1  UNL     1      -7.858  11.728  -3.172  1.00  0.00    -0.643 OA
HETATM   34  O2  UNL     1      -6.323  10.817  -4.567  1.00  0.00    -0.643 OA
ENDBRANCH  28  32
BRANCH  30  35
HETATM   35  C24 UNL     1      -4.835  10.415   1.184  1.00  0.00     0.058 A 
HETATM   36  C25 UNL     1      -5.267  11.198   2.231  1.00  0.00     0.033 A 
HETATM   37  C26 UNL     1      -5.169  10.740   3.539  1.00  0.00     0.028 A 
HETATM   38  C27 UNL     1      -4.643   9.500   3.833  1.00  0.00     0.055 A 
HETATM   39 CL1  UNL     1      -4.548   8.981   5.511  1.00  0.00    -0.083 Cl
HETATM   40  C28 UNL     1      -4.210   8.711   2.797  1.00  0.00     0.058 A 
HETATM   41 CL2  UNL     1      -3.542   7.138   3.180  1.00  0.00    -0.082 Cl
HETATM   42  C29 UNL     1      -4.309   9.173   1.488  1.00  0.00     0.057 A 
ENDBRANCH  30  35
ENDBRANCH   1  26
TORSDOF 9
ENDMDL
