MODEL 14
REMARK VINA RESULT: -7.229380520      3.466      4.577
REMARK  9 active torsions:
REMARK  status: ('A' for Active; 'I' for Inactive)
REMARK    1  A    between atoms: C1_2  and  C2_4 
REMARK    2  A    between atoms: C4_6  and  C5_7 
REMARK    3  A    between atoms: C8_10  and  C9_11 
REMARK    4  A    between atoms: C9_11  and  N1_13 
REMARK    5  A    between atoms: N1_13  and  C10_15 
REMARK    6  A    between atoms: C10_15  and  C11_16 
REMARK    7  A    between atoms: C14_19  and  C15_20 
REMARK    8  A    between atoms: C18_23  and  C19_24 
REMARK    9  A    between atoms: N2_32  and  C24_33 
ROOT
HETATM    1  C5  UNL     1      -1.015  11.598   0.323  1.00  0.00    -0.007 A 
HETATM    2  C6  UNL     1       0.134  11.504  -0.470  1.00  0.00     0.014 A 
HETATM    3  C7  UNL     1       1.407  11.440   0.055  1.00  0.00     0.015 A 
HETATM    4  C8  UNL     1       1.575  11.468   1.421  1.00  0.00     0.002 A 
HETATM    5  C22 UNL     1       0.483  11.558   2.231  1.00  0.00     0.015 A 
HETATM    6  C23 UNL     1      -0.790  11.621   1.670  1.00  0.00     0.014 A 
ENDROOT
BRANCH   4   7
HETATM    7  C9  UNL     1       2.907  11.403   2.035  1.00  0.00     0.107 C 
HETATM    8  S1  UNL     1       3.794  12.760   2.119  1.00  0.00    -0.060 SA
BRANCH   7   9
HETATM    9  N1  UNL     1       3.374  10.148   2.536  1.00  0.00    -0.376 N 
ATOM     10  H1  UNL     1       2.806   9.317   2.373  1.00  0.00     0.160 HD
BRANCH   9  11
HETATM   11  C10 UNL     1       4.608  10.007   3.257  1.00  0.00     0.159 C 
BRANCH  11  12
HETATM   12  C11 UNL     1       5.500   9.044   2.549  1.00  0.00    -0.041 A 
HETATM   13  C12 UNL     1       6.680   8.619   3.103  1.00  0.00     0.010 A 
HETATM   14  C13 UNL     1       7.516   7.715   2.449  1.00  0.00     0.015 A 
HETATM   15  C14 UNL     1       7.133   7.248   1.217  1.00  0.00    -0.002 A 
HETATM   16  C20 UNL     1       5.952   7.666   0.649  1.00  0.00     0.015 A 
HETATM   17  C21 UNL     1       5.147   8.552   1.308  1.00  0.00     0.010 A 
BRANCH  15  18
HETATM   18  C15 UNL     1       7.987   6.289   0.486  1.00  0.00     0.086 A 
HETATM   19  C16 UNL     1       9.024   5.544   1.016  1.00  0.00     0.041 A 
HETATM   20  C17 UNL     1       9.522   4.800  -0.033  1.00  0.00     0.047 A 
HETATM   21  C18 UNL     1       8.782   5.113  -1.151  1.00  0.00     0.152 A 
HETATM   22  O5  UNL     1       7.897   5.995  -0.773  1.00  0.00    -0.303 OA
BRANCH  21  23
HETATM   23  C19 UNL     1       8.990   4.541  -2.475  1.00  0.00     0.234 C 
HETATM   24  O3  UNL     1       9.201   5.311  -3.444  1.00  0.00    -0.642 OA
HETATM   25  O4  UNL     1       8.964   3.177  -2.713  1.00  0.00    -0.642 OA
ENDBRANCH  21  23
ENDBRANCH  15  18
ENDBRANCH  11  12
ENDBRANCH   9  11
ENDBRANCH   7   9
ENDBRANCH   4   7
BRANCH   1  26
HETATM   26  C4  UNL     1      -2.333  11.661  -0.320  1.00  0.00     0.069 A 
HETATM   27  C3  UNL     1      -2.513  12.156  -1.628  1.00  0.00     0.070 A 
HETATM   28  C2  UNL     1      -3.854  12.072  -1.910  1.00  0.00     0.127 A 
HETATM   29  N3  UNL     1      -4.419  11.562  -0.836  1.00  0.00    -0.287 N 
HETATM   30  N2  UNL     1      -3.513  11.310   0.129  1.00  0.00    -0.255 N 
ATOM     31  H3  UNL     1      -5.419  11.380  -0.745  1.00  0.00     0.188 HD
BRANCH  28  32
HETATM   32  C1  UNL     1      -4.452  12.489  -3.171  1.00  0.00     0.228 C 
HETATM   33  O1  UNL     1      -3.768  13.104  -4.040  1.00  0.00    -0.643 OA
HETATM   34  O2  UNL     1      -5.782  12.236  -3.471  1.00  0.00    -0.643 OA
ENDBRANCH  28  32
BRANCH  30  35
HETATM   35  C24 UNL     1      -3.875  10.748   1.405  1.00  0.00     0.058 A 
HETATM   36  C25 UNL     1      -4.406  11.497   2.431  1.00  0.00     0.033 A 
HETATM   37  C26 UNL     1      -4.704  10.906   3.653  1.00  0.00     0.028 A 
HETATM   38  C27 UNL     1      -4.483   9.565   3.879  1.00  0.00     0.055 A 
HETATM   39 CL1  UNL     1      -4.883   8.880   5.450  1.00  0.00    -0.083 Cl
HETATM   40  C28 UNL     1      -3.954   8.808   2.864  1.00  0.00     0.058 A 
HETATM   41 CL2  UNL     1      -3.676   7.105   3.162  1.00  0.00    -0.082 Cl
HETATM   42  C29 UNL     1      -3.656   9.403   1.641  1.00  0.00     0.057 A 
ENDBRANCH  30  35
ENDBRANCH   1  26
TORSDOF 9
ENDMDL
