MODEL 8
REMARK VINA RESULT: -7.407570508      4.920      8.675
REMARK  9 active torsions:
REMARK  status: ('A' for Active; 'I' for Inactive)
REMARK    1  A    between atoms: C1_2  and  C2_4 
REMARK    2  A    between atoms: C4_6  and  C5_7 
REMARK    3  A    between atoms: C8_10  and  C9_11 
REMARK    4  A    between atoms: C9_11  and  N1_13 
REMARK    5  A    between atoms: N1_13  and  C10_15 
REMARK    6  A    between atoms: C10_15  and  C11_16 
REMARK    7  A    between atoms: C14_19  and  C15_20 
REMARK    8  A    between atoms: C18_23  and  C19_24 
REMARK    9  A    between atoms: N2_32  and  C24_33 
ROOT
HETATM    1  C5  UNL     1       0.358  11.484  -2.637  1.00  0.00    -0.007 A 
HETATM    2  C6  UNL     1      -0.321  10.511  -1.895  1.00  0.00     0.014 A 
HETATM    3  C7  UNL     1      -1.467  10.777  -1.176  1.00  0.00     0.015 A 
HETATM    4  C8  UNL     1      -1.981  12.055  -1.177  1.00  0.00     0.002 A 
HETATM    5  C22 UNL     1      -1.352  13.033  -1.886  1.00  0.00     0.015 A 
HETATM    6  C23 UNL     1      -0.197  12.732  -2.603  1.00  0.00     0.014 A 
ENDROOT
BRANCH   4   7
HETATM    7  C9  UNL     1      -3.197  12.395  -0.428  1.00  0.00     0.107 C 
HETATM    8  S1  UNL     1      -4.550  12.748  -1.256  1.00  0.00    -0.060 SA
BRANCH   7   9
HETATM    9  N1  UNL     1      -3.147  12.404   1.000  1.00  0.00    -0.376 N 
ATOM     10  H1  UNL     1      -3.825  11.843   1.515  1.00  0.00     0.160 HD
BRANCH   9  11
HETATM   11  C10 UNL     1      -2.185  13.169   1.742  1.00  0.00     0.159 C 
BRANCH  11  12
HETATM   12  C11 UNL     1      -0.901  12.415   1.832  1.00  0.00    -0.041 A 
HETATM   13  C12 UNL     1      -0.842  11.165   2.393  1.00  0.00     0.010 A 
HETATM   14  C13 UNL     1       0.354  10.453   2.476  1.00  0.00     0.015 A 
HETATM   15  C14 UNL     1       1.494  11.033   1.980  1.00  0.00    -0.002 A 
HETATM   16  C20 UNL     1       1.449  12.287   1.416  1.00  0.00     0.015 A 
HETATM   17  C21 UNL     1       0.266  12.968   1.344  1.00  0.00     0.010 A 
BRANCH  15  18
HETATM   18  C15 UNL     1       2.784  10.317   2.047  1.00  0.00     0.086 A 
HETATM   19  C16 UNL     1       3.582  10.165   3.166  1.00  0.00     0.041 A 
HETATM   20  C17 UNL     1       4.673   9.432   2.750  1.00  0.00     0.047 A 
HETATM   21  C18 UNL     1       4.505   9.165   1.409  1.00  0.00     0.152 A 
HETATM   22  O5  UNL     1       3.374   9.715   1.061  1.00  0.00    -0.303 OA
BRANCH  21  23
HETATM   23  C19 UNL     1       5.442   8.411   0.586  1.00  0.00     0.234 C 
HETATM   24  O3  UNL     1       6.022   8.992  -0.364  1.00  0.00    -0.642 OA
HETATM   25  O4  UNL     1       5.720   7.073   0.806  1.00  0.00    -0.642 OA
ENDBRANCH  21  23
ENDBRANCH  15  18
ENDBRANCH  11  12
ENDBRANCH   9  11
ENDBRANCH   7   9
ENDBRANCH   4   7
BRANCH   1  26
HETATM   26  C4  UNL     1       1.571  11.112  -3.375  1.00  0.00     0.069 A 
HETATM   27  C3  UNL     1       1.565  10.149  -4.406  1.00  0.00     0.070 A 
HETATM   28  C2  UNL     1       2.852  10.050  -4.872  1.00  0.00     0.127 A 
HETATM   29  N3  UNL     1       3.562  10.899  -4.160  1.00  0.00    -0.287 N 
HETATM   30  N2  UNL     1       2.802  11.545  -3.255  1.00  0.00    -0.255 N 
ATOM     31  H3  UNL     1       4.564  11.049  -4.278  1.00  0.00     0.188 HD
BRANCH  28  32
HETATM   32  C1  UNL     1       3.265   9.155  -5.945  1.00  0.00     0.228 C 
HETATM   33  O1  UNL     1       3.409   9.583  -7.126  1.00  0.00    -0.643 OA
HETATM   34  O2  UNL     1       3.514   7.809  -5.721  1.00  0.00    -0.643 OA
ENDBRANCH  28  32
BRANCH  30  35
HETATM   35  C24 UNL     1       3.340  12.529  -2.351  1.00  0.00     0.058 A 
HETATM   36  C25 UNL     1       3.186  13.885  -2.540  1.00  0.00     0.033 A 
HETATM   37  C26 UNL     1       3.757  14.788  -1.652  1.00  0.00     0.028 A 
HETATM   38  C27 UNL     1       4.490  14.366  -0.563  1.00  0.00     0.055 A 
HETATM   39 CL1  UNL     1       5.186  15.563   0.522  1.00  0.00    -0.083 Cl
HETATM   40  C28 UNL     1       4.650  13.018  -0.365  1.00  0.00     0.058 A 
HETATM   41 CL2  UNL     1       5.583  12.492   1.020  1.00  0.00    -0.082 Cl
HETATM   42  C29 UNL     1       4.077  12.115  -1.256  1.00  0.00     0.057 A 
ENDBRANCH  30  35
ENDBRANCH   1  26
TORSDOF 9
ENDMDL
