MODEL 4
REMARK VINA RESULT: -7.664634293      5.877      8.697
REMARK  9 active torsions:
REMARK  status: ('A' for Active; 'I' for Inactive)
REMARK    1  A    between atoms: C1_2  and  C2_4 
REMARK    2  A    between atoms: C4_6  and  C5_7 
REMARK    3  A    between atoms: C8_10  and  C9_11 
REMARK    4  A    between atoms: C9_11  and  N1_13 
REMARK    5  A    between atoms: N1_13  and  C10_15 
REMARK    6  A    between atoms: C10_15  and  C11_16 
REMARK    7  A    between atoms: C14_19  and  C15_20 
REMARK    8  A    between atoms: C18_23  and  C19_24 
REMARK    9  A    between atoms: N2_32  and  C24_33 
ROOT
HETATM    1  C5  UNL     1       2.785  10.975  -3.438  1.00  0.00    -0.007 A 
HETATM    2  C6  UNL     1       3.420  11.834  -2.534  1.00  0.00     0.014 A 
HETATM    3  C7  UNL     1       2.925  12.100  -1.276  1.00  0.00     0.015 A 
HETATM    4  C8  UNL     1       1.752  11.502  -0.872  1.00  0.00     0.002 A 
HETATM    5  C22 UNL     1       1.101  10.658  -1.721  1.00  0.00     0.015 A 
HETATM    6  C23 UNL     1       1.628  10.409  -2.986  1.00  0.00     0.014 A 
ENDROOT
BRANCH   4   7
HETATM    7  C9  UNL     1       1.178  11.749   0.456  1.00  0.00     0.107 C 
HETATM    8  S1  UNL     1       0.204  13.032   0.659  1.00  0.00    -0.060 SA
BRANCH   7   9
HETATM    9  N1  UNL     1       1.498  10.852   1.522  1.00  0.00    -0.376 N 
ATOM     10  H1  UNL     1       0.902  10.037   1.668  1.00  0.00     0.160 HD
BRANCH   9  11
HETATM   11  C10 UNL     1       2.621  11.048   2.396  1.00  0.00     0.159 C 
BRANCH  11  12
HETATM   12  C11 UNL     1       3.688  10.055   2.077  1.00  0.00    -0.041 A 
HETATM   13  C12 UNL     1       4.783   9.895   2.887  1.00  0.00     0.010 A 
HETATM   14  C13 UNL     1       5.781   8.966   2.598  1.00  0.00     0.015 A 
HETATM   15  C14 UNL     1       5.650   8.199   1.468  1.00  0.00    -0.002 A 
HETATM   16  C20 UNL     1       4.557   8.349   0.646  1.00  0.00     0.015 A 
HETATM   17  C21 UNL     1       3.589   9.266   0.949  1.00  0.00     0.010 A 
BRANCH  15  18
HETATM   18  C15 UNL     1       6.683   7.201   1.121  1.00  0.00     0.086 A 
HETATM   19  C16 UNL     1       7.735   6.796   1.922  1.00  0.00     0.041 A 
HETATM   20  C17 UNL     1       8.427   5.859   1.183  1.00  0.00     0.047 A 
HETATM   21  C18 UNL     1       7.781   5.727  -0.026  1.00  0.00     0.152 A 
HETATM   22  O5  UNL     1       6.765   6.545   0.006  1.00  0.00    -0.303 OA
BRANCH  21  23
HETATM   23  C19 UNL     1       8.197   4.833  -1.099  1.00  0.00     0.234 C 
HETATM   24  O3  UNL     1       9.160   4.053  -0.902  1.00  0.00    -0.642 OA
HETATM   25  O4  UNL     1       7.572   4.808  -2.334  1.00  0.00    -0.642 OA
ENDBRANCH  21  23
ENDBRANCH  15  18
ENDBRANCH  11  12
ENDBRANCH   9  11
ENDBRANCH   7   9
ENDBRANCH   4   7
BRANCH   1  26
HETATM   26  C4  UNL     1       3.384  10.748  -4.760  1.00  0.00     0.069 A 
HETATM   27  C3  UNL     1       4.338   9.736  -4.994  1.00  0.00     0.070 A 
HETATM   28  C2  UNL     1       4.680   9.804  -6.322  1.00  0.00     0.127 A 
HETATM   29  N3  UNL     1       3.972  10.792  -6.827  1.00  0.00    -0.287 N 
HETATM   30  N2  UNL     1       3.187  11.368  -5.897  1.00  0.00    -0.255 N 
ATOM     31  H3  UNL     1       4.013  11.085  -7.804  1.00  0.00     0.188 HD
BRANCH  28  32
HETATM   32  C1  UNL     1       5.646   8.922  -6.962  1.00  0.00     0.228 C 
HETATM   33  O1  UNL     1       5.484   7.669  -6.954  1.00  0.00    -0.643 OA
HETATM   34  O2  UNL     1       6.776   9.413  -7.601  1.00  0.00    -0.643 OA
ENDBRANCH  28  32
BRANCH  30  35
HETATM   35  C24 UNL     1       2.313  12.473  -6.196  1.00  0.00     0.058 A 
HETATM   36  C25 UNL     1       0.940  12.378  -6.142  1.00  0.00     0.033 A 
HETATM   37  C26 UNL     1       0.146  13.469  -6.475  1.00  0.00     0.028 A 
HETATM   38  C27 UNL     1       0.696  14.671  -6.865  1.00  0.00     0.055 A 
HETATM   39 CL1  UNL     1      -0.367  16.012  -7.273  1.00  0.00    -0.083 Cl
HETATM   40  C28 UNL     1       2.064  14.777  -6.922  1.00  0.00     0.058 A 
HETATM   41 CL2  UNL     1       2.753  16.307  -7.420  1.00  0.00    -0.082 Cl
HETATM   42  C29 UNL     1       2.856  13.682  -6.589  1.00  0.00     0.057 A 
ENDBRANCH  30  35
ENDBRANCH   1  26
TORSDOF 9
ENDMDL
