MODEL 6
REMARK VINA RESULT: -7.489046517      6.141      8.355
REMARK  9 active torsions:
REMARK  status: ('A' for Active; 'I' for Inactive)
REMARK    1  A    between atoms: C1_2  and  C2_4 
REMARK    2  A    between atoms: C4_6  and  C5_7 
REMARK    3  A    between atoms: C8_10  and  C9_11 
REMARK    4  A    between atoms: C9_11  and  N1_13 
REMARK    5  A    between atoms: N1_13  and  C10_15 
REMARK    6  A    between atoms: C10_15  and  C11_16 
REMARK    7  A    between atoms: C14_19  and  C15_20 
REMARK    8  A    between atoms: C18_23  and  C19_24 
REMARK    9  A    between atoms: N2_32  and  C24_33 
ROOT
HETATM    1  C5  UNL     1       0.733  12.703  -3.276  1.00  0.00    -0.007 A 
HETATM    2  C6  UNL     1      -0.156  11.839  -2.626  1.00  0.00     0.014 A 
HETATM    3  C7  UNL     1      -0.041  11.506  -1.293  1.00  0.00     0.015 A 
HETATM    4  C8  UNL     1       0.990  12.038  -0.551  1.00  0.00     0.002 A 
HETATM    5  C22 UNL     1       1.878  12.884  -1.145  1.00  0.00     0.015 A 
HETATM    6  C23 UNL     1       1.735  13.202  -2.493  1.00  0.00     0.014 A 
ENDROOT
BRANCH   4   7
HETATM    7  C9  UNL     1       1.161  11.718   0.871  1.00  0.00     0.107 C 
HETATM    8  S1  UNL     1      -0.157  11.378   1.758  1.00  0.00    -0.060 SA
BRANCH   7   9
HETATM    9  N1  UNL     1       2.479  11.717   1.423  1.00  0.00    -0.376 N 
ATOM     10  H1  UNL     1       3.192  12.299   0.984  1.00  0.00     0.160 HD
BRANCH   9  11
HETATM   11  C10 UNL     1       2.843  10.932   2.570  1.00  0.00     0.159 C 
BRANCH  11  12
HETATM   12  C11 UNL     1       3.887   9.937   2.189  1.00  0.00    -0.041 A 
HETATM   13  C12 UNL     1       4.976   9.698   2.988  1.00  0.00     0.010 A 
HETATM   14  C13 UNL     1       5.952   8.766   2.641  1.00  0.00     0.015 A 
HETATM   15  C14 UNL     1       5.805   8.076   1.464  1.00  0.00    -0.002 A 
HETATM   16  C20 UNL     1       4.718   8.305   0.653  1.00  0.00     0.015 A 
HETATM   17  C21 UNL     1       3.773   9.224   1.013  1.00  0.00     0.010 A 
BRANCH  15  18
HETATM   18  C15 UNL     1       6.815   7.078   1.055  1.00  0.00     0.086 A 
HETATM   19  C16 UNL     1       7.870   6.617   1.821  1.00  0.00     0.041 A 
HETATM   20  C17 UNL     1       8.535   5.704   1.028  1.00  0.00     0.047 A 
HETATM   21  C18 UNL     1       7.870   5.642  -0.177  1.00  0.00     0.152 A 
HETATM   22  O5  UNL     1       6.870   6.475  -0.091  1.00  0.00    -0.303 OA
BRANCH  21  23
HETATM   23  C19 UNL     1       8.255   4.792  -1.297  1.00  0.00     0.234 C 
HETATM   24  O3  UNL     1       7.547   4.796  -2.334  1.00  0.00    -0.642 OA
HETATM   25  O4  UNL     1       9.372   3.976  -1.267  1.00  0.00    -0.642 OA
ENDBRANCH  21  23
ENDBRANCH  15  18
ENDBRANCH  11  12
ENDBRANCH   9  11
ENDBRANCH   7   9
ENDBRANCH   4   7
BRANCH   1  26
HETATM   26  C4  UNL     1       0.536  13.004  -4.699  1.00  0.00     0.069 A 
HETATM   27  C3  UNL     1      -0.399  13.960  -5.148  1.00  0.00     0.070 A 
HETATM   28  C2  UNL     1      -0.322  13.987  -6.518  1.00  0.00     0.127 A 
HETATM   29  N3  UNL     1       0.597  13.104  -6.846  1.00  0.00    -0.287 N 
HETATM   30  N2  UNL     1       1.122  12.506  -5.760  1.00  0.00    -0.255 N 
ATOM     31  H3  UNL     1       0.878  12.899  -7.806  1.00  0.00     0.188 HD
BRANCH  28  32
HETATM   32  C1  UNL     1      -1.135  14.850  -7.365  1.00  0.00     0.228 C 
HETATM   33  O1  UNL     1      -0.734  16.005  -7.687  1.00  0.00    -0.643 OA
HETATM   34  O2  UNL     1      -2.372  14.448  -7.846  1.00  0.00    -0.643 OA
ENDBRANCH  28  32
BRANCH  30  35
HETATM   35  C24 UNL     1       2.149  11.500  -5.849  1.00  0.00     0.058 A 
HETATM   36  C25 UNL     1       1.953  10.192  -5.466  1.00  0.00     0.033 A 
HETATM   37  C26 UNL     1       2.993   9.273  -5.542  1.00  0.00     0.028 A 
HETATM   38  C27 UNL     1       4.243   9.633  -5.998  1.00  0.00     0.055 A 
HETATM   39 CL1  UNL     1       5.515   8.419  -6.069  1.00  0.00    -0.083 Cl
HETATM   40  C28 UNL     1       4.450  10.934  -6.382  1.00  0.00     0.058 A 
HETATM   41 CL2  UNL     1       6.042  11.381  -6.959  1.00  0.00    -0.082 Cl
HETATM   42  C29 UNL     1       3.407  11.852  -6.305  1.00  0.00     0.057 A 
ENDBRANCH  30  35
ENDBRANCH   1  26
TORSDOF 9
ENDMDL
