MODEL 2
REMARK VINA RESULT: -8.277262753      0.172      1.180
REMARK  9 active torsions:
REMARK  status: ('A' for Active; 'I' for Inactive)
REMARK    1  A    between atoms: C1_2  and  C2_4 
REMARK    2  A    between atoms: C4_6  and  C5_7 
REMARK    3  A    between atoms: C8_10  and  C9_11 
REMARK    4  A    between atoms: C9_11  and  N1_12 
REMARK    5  A    between atoms: N1_12  and  C10_14 
REMARK    6  A    between atoms: C10_14  and  C11_16 
REMARK    7  A    between atoms: C14_19  and  C15_20 
REMARK    8  A    between atoms: C18_23  and  C19_24 
REMARK    9  A    between atoms: N2_32  and  C24_33 
ROOT
HETATM    1  C5  UNL     1      -2.207  11.782  -0.062  1.00  0.00    -0.007 A 
HETATM    2  C6  UNL     1      -0.985  11.414  -0.593  1.00  0.00     0.014 A 
HETATM    3  C7  UNL     1       0.231  11.808  -0.037  1.00  0.00     0.010 A 
HETATM    4  C8  UNL     1       0.276  12.595   1.087  1.00  0.00    -0.041 A 
HETATM    5  C22 UNL     1      -0.929  12.966   1.623  1.00  0.00     0.010 A 
HETATM    6  C23 UNL     1      -2.155  12.566   1.057  1.00  0.00     0.014 A 
ENDROOT
BRANCH   4   7
HETATM    7  C9  UNL     1       1.548  13.030   1.711  1.00  0.00     0.159 C 
BRANCH   7   8
HETATM    8  N1  UNL     1       2.621  12.098   1.497  1.00  0.00    -0.376 N 
ATOM      9  H1  UNL     1       3.313  12.265   0.765  1.00  0.00     0.160 HD
BRANCH   8  10
HETATM   10  C10 UNL     1       2.706  10.945   2.316  1.00  0.00     0.107 C 
HETATM   11  S1  UNL     1       1.739  10.709   3.605  1.00  0.00    -0.060 SA
BRANCH  10  12
HETATM   12  C11 UNL     1       3.698   9.932   1.992  1.00  0.00     0.002 A 
HETATM   13  C12 UNL     1       3.592   9.180   0.834  1.00  0.00     0.015 A 
HETATM   14  C13 UNL     1       4.566   8.234   0.580  1.00  0.00     0.015 A 
HETATM   15  C14 UNL     1       5.636   8.018   1.442  1.00  0.00    -0.002 A 
HETATM   16  C20 UNL     1       5.689   8.793   2.576  1.00  0.00     0.015 A 
HETATM   17  C21 UNL     1       4.741   9.748   2.869  1.00  0.00     0.015 A 
BRANCH  15  18
HETATM   18  C15 UNL     1       6.643   7.007   1.136  1.00  0.00     0.086 A 
HETATM   19  C16 UNL     1       7.586   6.448   1.941  1.00  0.00     0.041 A 
HETATM   20  C17 UNL     1       8.282   5.550   1.169  1.00  0.00     0.047 A 
HETATM   21  C18 UNL     1       7.730   5.597  -0.091  1.00  0.00     0.152 A 
HETATM   22  O5  UNL     1       6.772   6.466  -0.062  1.00  0.00    -0.303 OA
BRANCH  21  23
HETATM   23  C19 UNL     1       8.122   4.830  -1.262  1.00  0.00     0.234 C 
HETATM   24  O3  UNL     1       9.104   4.057  -1.169  1.00  0.00    -0.642 OA
HETATM   25  O4  UNL     1       7.459   4.919  -2.465  1.00  0.00    -0.642 OA
ENDBRANCH  21  23
ENDBRANCH  15  18
ENDBRANCH  10  12
ENDBRANCH   8  10
ENDBRANCH   7   8
ENDBRANCH   4   7
BRANCH   1  26
HETATM   26  C4  UNL     1      -3.457  11.332  -0.699  1.00  0.00     0.069 A 
HETATM   27  C3  UNL     1      -3.753  11.619  -2.046  1.00  0.00     0.070 A 
HETATM   28  C2  UNL     1      -4.975  11.063  -2.318  1.00  0.00     0.127 A 
HETATM   29  N3  UNL     1      -5.372  10.483  -1.198  1.00  0.00    -0.287 N 
HETATM   30  N2  UNL     1      -4.473  10.632  -0.208  1.00  0.00    -0.255 N 
ATOM     31  H3  UNL     1      -6.255   9.983  -1.097  1.00  0.00     0.188 HD
BRANCH  28  32
HETATM   32  C1  UNL     1      -5.632  11.145  -3.620  1.00  0.00     0.228 C 
HETATM   33  O1  UNL     1      -6.486  10.302  -3.992  1.00  0.00    -0.643 OA
HETATM   34  O2  UNL     1      -5.281  12.208  -4.467  1.00  0.00    -0.643 OA
ENDBRANCH  28  32
BRANCH  30  35
HETATM   35  C24 UNL     1      -4.651  10.104   1.109  1.00  0.00     0.058 A 
HETATM   36  C25 UNL     1      -5.403  10.789   2.054  1.00  0.00     0.033 A 
HETATM   37  C26 UNL     1      -5.571  10.328   3.346  1.00  0.00     0.028 A 
HETATM   38  C27 UNL     1      -4.985   9.152   3.741  1.00  0.00     0.055 A 
HETATM   39 CL1  UNL     1      -5.208   8.583   5.380  1.00  0.00    -0.083 Cl
HETATM   40  C28 UNL     1      -4.227   8.451   2.808  1.00  0.00     0.058 A 
HETATM   41 CL2  UNL     1      -3.494   6.952   3.346  1.00  0.00    -0.082 Cl
HETATM   42  C29 UNL     1      -4.063   8.914   1.519  1.00  0.00     0.057 A 
ENDBRANCH  30  35
ENDBRANCH   1  26
TORSDOF 9
ENDMDL
