MODEL 7
REMARK VINA RESULT: -7.578515593      0.952      1.592
REMARK  9 active torsions:
REMARK  status: ('A' for Active; 'I' for Inactive)
REMARK    1  A    between atoms: C1_2  and  C2_4 
REMARK    2  A    between atoms: C4_6  and  C5_7 
REMARK    3  A    between atoms: C8_10  and  C9_11 
REMARK    4  A    between atoms: C9_11  and  N1_12 
REMARK    5  A    between atoms: N1_12  and  C10_14 
REMARK    6  A    between atoms: C10_14  and  C11_16 
REMARK    7  A    between atoms: C14_19  and  C15_20 
REMARK    8  A    between atoms: C18_23  and  C19_24 
REMARK    9  A    between atoms: N2_32  and  C24_33 
ROOT
HETATM    1  C5  UNL     1      -1.791  11.986  -0.621  1.00  0.00    -0.007 A 
HETATM    2  C6  UNL     1      -0.797  11.083  -0.949  1.00  0.00     0.014 A 
HETATM    3  C7  UNL     1       0.546  11.291  -0.637  1.00  0.00     0.010 A 
HETATM    4  C8  UNL     1       0.955  12.422   0.023  1.00  0.00    -0.041 A 
HETATM    5  C22 UNL     1      -0.021  13.325   0.354  1.00  0.00     0.010 A 
HETATM    6  C23 UNL     1      -1.377  13.111   0.036  1.00  0.00     0.014 A 
ENDROOT
BRANCH   4   7
HETATM    7  C9  UNL     1       2.372  12.676   0.377  1.00  0.00     0.159 C 
BRANCH   7   8
HETATM    8  N1  UNL     1       2.652  12.432   1.766  1.00  0.00    -0.376 N 
ATOM      9  H1  UNL     1       2.974  13.189   2.369  1.00  0.00     0.160 HD
BRANCH   8  10
HETATM   10  C10 UNL     1       2.474  11.126   2.286  1.00  0.00     0.107 C 
HETATM   11  S1  UNL     1       1.162  10.695   3.150  1.00  0.00    -0.060 SA
BRANCH  10  12
HETATM   12  C11 UNL     1       3.505  10.131   2.037  1.00  0.00     0.002 A 
HETATM   13  C12 UNL     1       4.585  10.000   2.893  1.00  0.00     0.015 A 
HETATM   14  C13 UNL     1       5.532   9.035   2.604  1.00  0.00     0.015 A 
HETATM   15  C14 UNL     1       5.433   8.204   1.493  1.00  0.00    -0.002 A 
HETATM   16  C20 UNL     1       4.339   8.381   0.679  1.00  0.00     0.015 A 
HETATM   17  C21 UNL     1       3.371   9.329   0.928  1.00  0.00     0.015 A 
BRANCH  15  18
HETATM   18  C15 UNL     1       6.455   7.199   1.224  1.00  0.00     0.086 A 
HETATM   19  C16 UNL     1       7.387   6.662   2.056  1.00  0.00     0.041 A 
HETATM   20  C17 UNL     1       8.108   5.760   1.313  1.00  0.00     0.047 A 
HETATM   21  C18 UNL     1       7.581   5.781   0.042  1.00  0.00     0.152 A 
HETATM   22  O5  UNL     1       6.614   6.641   0.037  1.00  0.00    -0.303 OA
BRANCH  21  23
HETATM   23  C19 UNL     1       8.004   5.000  -1.108  1.00  0.00     0.234 C 
HETATM   24  O3  UNL     1       9.011   4.263  -0.993  1.00  0.00    -0.642 OA
HETATM   25  O4  UNL     1       7.343   5.037  -2.315  1.00  0.00    -0.642 OA
ENDBRANCH  21  23
ENDBRANCH  15  18
ENDBRANCH  10  12
ENDBRANCH   8  10
ENDBRANCH   7   8
ENDBRANCH   4   7
BRANCH   1  26
HETATM   26  C4  UNL     1      -3.193  11.707  -0.980  1.00  0.00     0.069 A 
HETATM   27  C3  UNL     1      -3.762  12.175  -2.180  1.00  0.00     0.070 A 
HETATM   28  C2  UNL     1      -5.063  11.745  -2.204  1.00  0.00     0.127 A 
HETATM   29  N3  UNL     1      -5.245  11.066  -1.084  1.00  0.00    -0.287 N 
HETATM   30  N2  UNL     1      -4.132  11.029  -0.330  1.00  0.00    -0.255 N 
ATOM     31  H3  UNL     1      -6.126  10.622  -0.824  1.00  0.00     0.188 HD
BRANCH  28  32
HETATM   32  C1  UNL     1      -5.992  12.030  -3.295  1.00  0.00     0.228 C 
HETATM   33  O1  UNL     1      -7.061  12.664  -3.114  1.00  0.00    -0.643 OA
HETATM   34  O2  UNL     1      -5.658  11.571  -4.578  1.00  0.00    -0.643 OA
ENDBRANCH  28  32
BRANCH  30  35
HETATM   35  C24 UNL     1      -4.051  10.361   0.931  1.00  0.00     0.058 A 
HETATM   36  C25 UNL     1      -3.892   8.983   0.997  1.00  0.00     0.033 A 
HETATM   37  C26 UNL     1      -3.843   8.298   2.197  1.00  0.00     0.028 A 
HETATM   38  C27 UNL     1      -3.952   8.976   3.385  1.00  0.00     0.055 A 
HETATM   39 CL1  UNL     1      -3.888   8.092   4.893  1.00  0.00    -0.083 Cl
HETATM   40  C28 UNL     1      -4.112  10.358   3.339  1.00  0.00     0.058 A 
HETATM   41 CL2  UNL     1      -4.248  11.192   4.875  1.00  0.00    -0.082 Cl
HETATM   42  C29 UNL     1      -4.160  11.038   2.140  1.00  0.00     0.057 A 
ENDBRANCH  30  35
ENDBRANCH   1  26
TORSDOF 9
ENDMDL
