MODEL 3
REMARK VINA RESULT: -7.987927362      0.926      1.676
REMARK  9 active torsions:
REMARK  status: ('A' for Active; 'I' for Inactive)
REMARK    1  A    between atoms: C1_2  and  C2_4 
REMARK    2  A    between atoms: C4_6  and  C5_7 
REMARK    3  A    between atoms: C8_10  and  C9_11 
REMARK    4  A    between atoms: C9_11  and  N1_12 
REMARK    5  A    between atoms: N1_12  and  C10_14 
REMARK    6  A    between atoms: C10_14  and  C11_16 
REMARK    7  A    between atoms: C14_19  and  C15_20 
REMARK    8  A    between atoms: C18_23  and  C19_24 
REMARK    9  A    between atoms: N2_32  and  C24_33 
ROOT
HETATM    1  C5  UNL     1      -1.554  11.667  -0.927  1.00  0.00    -0.007 A 
HETATM    2  C6  UNL     1      -1.240  12.752  -0.130  1.00  0.00     0.014 A 
HETATM    3  C7  UNL     1       0.059  13.027   0.295  1.00  0.00     0.010 A 
HETATM    4  C8  UNL     1       1.109  12.220  -0.062  1.00  0.00    -0.041 A 
HETATM    5  C22 UNL     1       0.811  11.140  -0.852  1.00  0.00     0.010 A 
HETATM    6  C23 UNL     1      -0.503  10.866  -1.280  1.00  0.00     0.014 A 
ENDROOT
BRANCH   4   7
HETATM    7  C9  UNL     1       2.504  12.482   0.366  1.00  0.00     0.159 C 
BRANCH   7   8
HETATM    8  N1  UNL     1       2.683  12.361   1.787  1.00  0.00    -0.376 N 
ATOM      9  H1  UNL     1       2.885  13.184   2.355  1.00  0.00     0.160 HD
BRANCH   8  10
HETATM   10  C10 UNL     1       2.573  11.082   2.389  1.00  0.00     0.107 C 
HETATM   11  S1  UNL     1       1.376  10.698   3.425  1.00  0.00    -0.060 SA
BRANCH  10  12
HETATM   12  C11 UNL     1       3.571  10.075   2.068  1.00  0.00     0.002 A 
HETATM   13  C12 UNL     1       3.495   9.350   0.892  1.00  0.00     0.015 A 
HETATM   14  C13 UNL     1       4.474   8.406   0.642  1.00  0.00     0.015 A 
HETATM   15  C14 UNL     1       5.520   8.168   1.527  1.00  0.00    -0.002 A 
HETATM   16  C20 UNL     1       5.544   8.918   2.680  1.00  0.00     0.015 A 
HETATM   17  C21 UNL     1       4.590   9.868   2.969  1.00  0.00     0.015 A 
BRANCH  15  18
HETATM   18  C15 UNL     1       6.532   7.162   1.226  1.00  0.00     0.086 A 
HETATM   19  C16 UNL     1       7.499   6.635   2.024  1.00  0.00     0.041 A 
HETATM   20  C17 UNL     1       8.190   5.726   1.260  1.00  0.00     0.047 A 
HETATM   21  C18 UNL     1       7.611   5.734   0.012  1.00  0.00     0.152 A 
HETATM   22  O5  UNL     1       6.642   6.592   0.039  1.00  0.00    -0.303 OA
BRANCH  21  23
HETATM   23  C19 UNL     1       7.987   4.942  -1.147  1.00  0.00     0.234 C 
HETATM   24  O3  UNL     1       8.906   4.099  -1.022  1.00  0.00    -0.642 OA
HETATM   25  O4  UNL     1       7.375   5.081  -2.372  1.00  0.00    -0.642 OA
ENDBRANCH  21  23
ENDBRANCH  15  18
ENDBRANCH  10  12
ENDBRANCH   8  10
ENDBRANCH   7   8
ENDBRANCH   4   7
BRANCH   1  26
HETATM   26  C4  UNL     1      -2.948  11.433  -1.343  1.00  0.00     0.069 A 
HETATM   27  C3  UNL     1      -3.431  11.847  -2.600  1.00  0.00     0.070 A 
HETATM   28  C2  UNL     1      -4.750  11.480  -2.666  1.00  0.00     0.127 A 
HETATM   29  N3  UNL     1      -5.023  10.885  -1.517  1.00  0.00    -0.287 N 
HETATM   30  N2  UNL     1      -3.953  10.845  -0.703  1.00  0.00    -0.255 N 
ATOM     31  H3  UNL     1      -5.938  10.503  -1.277  1.00  0.00     0.188 HD
BRANCH  28  32
HETATM   32  C1  UNL     1      -5.606  11.736  -3.822  1.00  0.00     0.228 C 
HETATM   33  O1  UNL     1      -5.716  12.880  -4.330  1.00  0.00    -0.643 OA
HETATM   34  O2  UNL     1      -6.318  10.656  -4.364  1.00  0.00    -0.643 OA
ENDBRANCH  28  32
BRANCH  30  35
HETATM   35  C24 UNL     1      -3.971  10.259   0.601  1.00  0.00     0.058 A 
HETATM   36  C25 UNL     1      -3.894   8.882   0.762  1.00  0.00     0.033 A 
HETATM   37  C26 UNL     1      -3.941   8.275   2.003  1.00  0.00     0.028 A 
HETATM   38  C27 UNL     1      -4.068   9.035   3.138  1.00  0.00     0.055 A 
HETATM   39 CL1  UNL     1      -4.127   8.252   4.701  1.00  0.00    -0.083 Cl
HETATM   40  C28 UNL     1      -4.147  10.418   2.997  1.00  0.00     0.058 A 
HETATM   41 CL2  UNL     1      -4.309  11.358   4.468  1.00  0.00    -0.082 Cl
HETATM   42  C29 UNL     1      -4.099  11.019   1.757  1.00  0.00     0.057 A 
ENDBRANCH  30  35
ENDBRANCH   1  26
TORSDOF 9
ENDMDL
