MODEL 10
REMARK VINA RESULT: -7.432928234      5.507      6.768
REMARK  9 active torsions:
REMARK  status: ('A' for Active; 'I' for Inactive)
REMARK    1  A    between atoms: C1_2  and  C2_4 
REMARK    2  A    between atoms: C4_6  and  C5_7 
REMARK    3  A    between atoms: C8_10  and  C9_11 
REMARK    4  A    between atoms: C9_11  and  N1_12 
REMARK    5  A    between atoms: N1_12  and  C10_14 
REMARK    6  A    between atoms: C10_14  and  C11_16 
REMARK    7  A    between atoms: C14_19  and  C15_20 
REMARK    8  A    between atoms: C18_23  and  C19_24 
REMARK    9  A    between atoms: N2_32  and  C24_33 
ROOT
HETATM    1  C5  UNL     1       1.985  12.874  -2.830  1.00  0.00    -0.007 A 
HETATM    2  C6  UNL     1       3.205  13.487  -2.615  1.00  0.00     0.014 A 
HETATM    3  C7  UNL     1       3.874  13.434  -1.393  1.00  0.00     0.010 A 
HETATM    4  C8  UNL     1       3.345  12.757  -0.323  1.00  0.00    -0.041 A 
HETATM    5  C22 UNL     1       2.135  12.144  -0.523  1.00  0.00     0.010 A 
HETATM    6  C23 UNL     1       1.463  12.202  -1.759  1.00  0.00     0.014 A 
ENDROOT
BRANCH   4   7
HETATM    7  C9  UNL     1       4.028  12.673   0.990  1.00  0.00     0.159 C 
BRANCH   7   8
HETATM    8  N1  UNL     1       3.117  12.443   2.078  1.00  0.00    -0.376 N 
ATOM      9  H1  UNL     1       2.655  13.227   2.540  1.00  0.00     0.160 HD
BRANCH   8  10
HETATM   10  C10 UNL     1       2.867  11.113   2.499  1.00  0.00     0.107 C 
HETATM   11  S1  UNL     1       1.524  10.687   3.316  1.00  0.00    -0.060 SA
BRANCH  10  12
HETATM   12  C11 UNL     1       3.852  10.089   2.189  1.00  0.00     0.002 A 
HETATM   13  C12 UNL     1       4.983   9.932   2.973  1.00  0.00     0.015 A 
HETATM   14  C13 UNL     1       5.882   8.940   2.628  1.00  0.00     0.015 A 
HETATM   15  C14 UNL     1       5.686   8.107   1.532  1.00  0.00    -0.002 A 
HETATM   16  C20 UNL     1       4.546   8.310   0.791  1.00  0.00     0.015 A 
HETATM   17  C21 UNL     1       3.623   9.285   1.097  1.00  0.00     0.015 A 
BRANCH  15  18
HETATM   18  C15 UNL     1       6.660   7.073   1.203  1.00  0.00     0.086 A 
HETATM   19  C16 UNL     1       7.608   6.490   1.985  1.00  0.00     0.041 A 
HETATM   20  C17 UNL     1       8.264   5.576   1.197  1.00  0.00     0.047 A 
HETATM   21  C18 UNL     1       7.684   5.638  -0.050  1.00  0.00     0.152 A 
HETATM   22  O5  UNL     1       6.748   6.530   0.001  1.00  0.00    -0.303 OA
BRANCH  21  23
HETATM   23  C19 UNL     1       8.030   4.863  -1.230  1.00  0.00     0.234 C 
HETATM   24  O3  UNL     1       8.951   4.018  -1.141  1.00  0.00    -0.642 OA
HETATM   25  O4  UNL     1       7.388   5.021  -2.437  1.00  0.00    -0.642 OA
ENDBRANCH  21  23
ENDBRANCH  15  18
ENDBRANCH  10  12
ENDBRANCH   8  10
ENDBRANCH   7   8
ENDBRANCH   4   7
BRANCH   1  26
HETATM   26  C4  UNL     1       1.330  12.969  -4.146  1.00  0.00     0.069 A 
HETATM   27  C3  UNL     1       0.260  13.853  -4.385  1.00  0.00     0.070 A 
HETATM   28  C2  UNL     1      -0.112  13.693  -5.694  1.00  0.00     0.127 A 
HETATM   29  N3  UNL     1       0.692  12.770  -6.193  1.00  0.00    -0.287 N 
HETATM   30  N2  UNL     1       1.570  12.318  -5.279  1.00  0.00    -0.255 N 
ATOM     31  H3  UNL     1       0.652  12.439  -7.157  1.00  0.00     0.188 HD
BRANCH  28  32
HETATM   32  C1  UNL     1      -1.196  14.440  -6.326  1.00  0.00     0.228 C 
HETATM   33  O1  UNL     1      -2.262  14.712  -5.720  1.00  0.00    -0.643 OA
HETATM   34  O2  UNL     1      -1.018  14.858  -7.654  1.00  0.00    -0.643 OA
ENDBRANCH  28  32
BRANCH  30  35
HETATM   35  C24 UNL     1       2.554  11.317  -5.552  1.00  0.00     0.058 A 
HETATM   36  C25 UNL     1       2.218   9.970  -5.544  1.00  0.00     0.033 A 
HETATM   37  C26 UNL     1       3.146   8.972  -5.771  1.00  0.00     0.028 A 
HETATM   38  C27 UNL     1       4.458   9.291  -6.018  1.00  0.00     0.055 A 
HETATM   39 CL1  UNL     1       5.620   8.015  -6.303  1.00  0.00    -0.083 Cl
HETATM   40  C28 UNL     1       4.814  10.637  -6.030  1.00  0.00     0.058 A 
HETATM   41 CL2  UNL     1       6.497  11.009  -6.349  1.00  0.00    -0.082 Cl
HETATM   42  C29 UNL     1       3.884  11.630  -5.804  1.00  0.00     0.057 A 
ENDBRANCH  30  35
ENDBRANCH   1  26
TORSDOF 9
ENDMDL
