MODEL 4
REMARK VINA RESULT: -7.697316426      5.804      7.180
REMARK  9 active torsions:
REMARK  status: ('A' for Active; 'I' for Inactive)
REMARK    1  A    between atoms: C1_2  and  C2_4 
REMARK    2  A    between atoms: C4_6  and  C5_7 
REMARK    3  A    between atoms: C8_10  and  C9_11 
REMARK    4  A    between atoms: C9_11  and  N1_12 
REMARK    5  A    between atoms: N1_12  and  C10_14 
REMARK    6  A    between atoms: C10_14  and  C11_16 
REMARK    7  A    between atoms: C14_19  and  C15_20 
REMARK    8  A    between atoms: C18_23  and  C19_24 
REMARK    9  A    between atoms: N2_32  and  C24_33 
ROOT
HETATM    1  C5  UNL     1       2.837  11.718  -2.519  1.00  0.00    -0.007 A 
HETATM    2  C6  UNL     1       3.940  12.252  -1.878  1.00  0.00     0.014 A 
HETATM    3  C7  UNL     1       3.883  12.780  -0.589  1.00  0.00     0.010 A 
HETATM    4  C8  UNL     1       2.710  12.797   0.121  1.00  0.00    -0.041 A 
HETATM    5  C22 UNL     1       1.608  12.271  -0.503  1.00  0.00     0.010 A 
HETATM    6  C23 UNL     1       1.670  11.739  -1.806  1.00  0.00     0.014 A 
ENDROOT
BRANCH   4   7
HETATM    7  C9  UNL     1       2.611  13.345   1.495  1.00  0.00     0.159 C 
BRANCH   7   8
HETATM    8  N1  UNL     1       3.296  12.538   2.467  1.00  0.00    -0.376 N 
ATOM      9  H1  UNL     1       4.048  12.935   3.030  1.00  0.00     0.160 HD
BRANCH   8  10
HETATM   10  C10 UNL     1       2.912  11.183   2.632  1.00  0.00     0.107 C 
HETATM   11  S1  UNL     1       1.460  10.748   3.228  1.00  0.00    -0.060 SA
BRANCH  10  12
HETATM   12  C11 UNL     1       3.854  10.142   2.255  1.00  0.00     0.002 A 
HETATM   13  C12 UNL     1       3.727   9.474   1.049  1.00  0.00     0.015 A 
HETATM   14  C13 UNL     1       4.655   8.494   0.745  1.00  0.00     0.015 A 
HETATM   15  C14 UNL     1       5.697   8.166   1.606  1.00  0.00    -0.002 A 
HETATM   16  C20 UNL     1       5.773   8.862   2.789  1.00  0.00     0.015 A 
HETATM   17  C21 UNL     1       4.872   9.846   3.132  1.00  0.00     0.015 A 
BRANCH  15  18
HETATM   18  C15 UNL     1       6.654   7.125   1.247  1.00  0.00     0.086 A 
HETATM   19  C16 UNL     1       7.600   6.513   2.009  1.00  0.00     0.041 A 
HETATM   20  C17 UNL     1       8.236   5.606   1.197  1.00  0.00     0.047 A 
HETATM   21  C18 UNL     1       7.646   5.700  -0.042  1.00  0.00     0.152 A 
HETATM   22  O5  UNL     1       6.723   6.604   0.035  1.00  0.00    -0.303 OA
BRANCH  21  23
HETATM   23  C19 UNL     1       7.971   4.944  -1.240  1.00  0.00     0.234 C 
HETATM   24  O3  UNL     1       8.799   4.008  -1.150  1.00  0.00    -0.642 OA
HETATM   25  O4  UNL     1       7.404   5.213  -2.466  1.00  0.00    -0.642 OA
ENDBRANCH  21  23
ENDBRANCH  15  18
ENDBRANCH  10  12
ENDBRANCH   8  10
ENDBRANCH   7   8
ENDBRANCH   4   7
BRANCH   1  26
HETATM   26  C4  UNL     1       2.963  11.176  -3.883  1.00  0.00     0.069 A 
HETATM   27  C3  UNL     1       3.667   9.985  -4.149  1.00  0.00     0.070 A 
HETATM   28  C2  UNL     1       3.593   9.766  -5.500  1.00  0.00     0.127 A 
HETATM   29  N3  UNL     1       2.887  10.768  -5.996  1.00  0.00    -0.287 N 
HETATM   30  N2  UNL     1       2.496  11.631  -5.040  1.00  0.00    -0.255 N 
ATOM     31  H3  UNL     1       2.666  10.874  -6.986  1.00  0.00     0.188 HD
BRANCH  28  32
HETATM   32  C1  UNL     1       4.204   8.621  -6.171  1.00  0.00     0.228 C 
HETATM   33  O1  UNL     1       5.086   8.758  -7.054  1.00  0.00    -0.643 OA
HETATM   34  O2  UNL     1       3.777   7.337  -5.800  1.00  0.00    -0.643 OA
ENDBRANCH  28  32
BRANCH  30  35
HETATM   35  C24 UNL     1       1.721  12.804  -5.301  1.00  0.00     0.058 A 
HETATM   36  C25 UNL     1       0.354  12.716  -5.527  1.00  0.00     0.033 A 
HETATM   37  C26 UNL     1      -0.423  13.822  -5.814  1.00  0.00     0.028 A 
HETATM   38  C27 UNL     1       0.147  15.068  -5.885  1.00  0.00     0.055 A 
HETATM   39 CL1  UNL     1      -0.851  16.457  -6.250  1.00  0.00    -0.083 Cl
HETATM   40  C28 UNL     1       1.517  15.176  -5.661  1.00  0.00     0.058 A 
HETATM   41 CL2  UNL     1       2.213  16.782  -5.759  1.00  0.00    -0.082 Cl
HETATM   42  C29 UNL     1       2.289  14.070  -5.374  1.00  0.00     0.057 A 
ENDBRANCH  30  35
ENDBRANCH   1  26
TORSDOF 9
ENDMDL
