MODEL 8
REMARK VINA RESULT: -7.516243013      4.230      6.759
REMARK  9 active torsions:
REMARK  status: ('A' for Active; 'I' for Inactive)
REMARK    1  A    between atoms: C1_2  and  C2_4 
REMARK    2  A    between atoms: C4_6  and  C5_7 
REMARK    3  A    between atoms: C8_10  and  C9_11 
REMARK    4  A    between atoms: C9_11  and  N1_12 
REMARK    5  A    between atoms: N1_12  and  C10_14 
REMARK    6  A    between atoms: C10_14  and  C11_16 
REMARK    7  A    between atoms: C14_19  and  C15_20 
REMARK    8  A    between atoms: C18_23  and  C19_24 
REMARK    9  A    between atoms: N2_32  and  C24_33 
ROOT
HETATM    1  C5  UNL     1      -4.652  11.127   0.705  1.00  0.00    -0.007 A 
HETATM    2  C6  UNL     1      -5.143  12.334   0.243  1.00  0.00     0.014 A 
HETATM    3  C7  UNL     1      -5.313  12.611  -1.113  1.00  0.00     0.010 A 
HETATM    4  C8  UNL     1      -4.995  11.684  -2.073  1.00  0.00    -0.041 A 
HETATM    5  C22 UNL     1      -4.507  10.484  -1.628  1.00  0.00     0.010 A 
HETATM    6  C23 UNL     1      -4.337  10.207  -0.257  1.00  0.00     0.014 A 
ENDROOT
BRANCH   4   7
HETATM    7  C9  UNL     1      -5.165  11.941  -3.523  1.00  0.00     0.159 C 
BRANCH   7   8
HETATM    8  N1  UNL     1      -3.913  12.055  -4.220  1.00  0.00    -0.376 N 
ATOM      9  H1  UNL     1      -3.707  11.450  -5.016  1.00  0.00     0.160 HD
BRANCH   8  10
HETATM   10  C10 UNL     1      -2.969  13.019  -3.787  1.00  0.00     0.107 C 
HETATM   11  S1  UNL     1      -3.232  14.622  -3.910  1.00  0.00    -0.060 SA
BRANCH  10  12
HETATM   12  C11 UNL     1      -1.717  12.557  -3.211  1.00  0.00     0.002 A 
HETATM   13  C12 UNL     1      -1.601  12.341  -1.848  1.00  0.00     0.015 A 
HETATM   14  C13 UNL     1      -0.385  11.900  -1.360  1.00  0.00     0.015 A 
HETATM   15  C14 UNL     1       0.710  11.672  -2.187  1.00  0.00    -0.002 A 
HETATM   16  C20 UNL     1       0.536  11.905  -3.531  1.00  0.00     0.015 A 
HETATM   17  C21 UNL     1      -0.657  12.343  -4.061  1.00  0.00     0.015 A 
BRANCH  15  18
HETATM   18  C15 UNL     1       1.976  11.208  -1.630  1.00  0.00     0.086 A 
HETATM   19  C16 UNL     1       3.224  11.734  -1.752  1.00  0.00     0.041 A 
HETATM   20  C17 UNL     1       4.068  10.920  -1.037  1.00  0.00     0.047 A 
HETATM   21  C18 UNL     1       3.293   9.918  -0.499  1.00  0.00     0.152 A 
HETATM   22  O5  UNL     1       2.072  10.128  -0.875  1.00  0.00    -0.303 OA
BRANCH  21  23
HETATM   23  C19 UNL     1       3.725   8.811   0.338  1.00  0.00     0.234 C 
HETATM   24  O3  UNL     1       3.258   7.671   0.110  1.00  0.00    -0.642 OA
HETATM   25  O4  UNL     1       4.625   8.966   1.368  1.00  0.00    -0.642 OA
ENDBRANCH  21  23
ENDBRANCH  15  18
ENDBRANCH  10  12
ENDBRANCH   8  10
ENDBRANCH   7   8
ENDBRANCH   4   7
BRANCH   1  26
HETATM   26  C4  UNL     1      -4.497  10.896   2.152  1.00  0.00     0.069 A 
HETATM   27  C3  UNL     1      -5.512  10.299   2.925  1.00  0.00     0.070 A 
HETATM   28  C2  UNL     1      -5.051  10.232   4.213  1.00  0.00     0.127 A 
HETATM   29  N3  UNL     1      -3.839  10.758   4.197  1.00  0.00    -0.287 N 
HETATM   30  N2  UNL     1      -3.482  11.166   2.965  1.00  0.00    -0.255 N 
ATOM     31  H3  UNL     1      -3.244  10.845   5.021  1.00  0.00     0.188 HD
BRANCH  28  32
HETATM   32  C1  UNL     1      -5.821   9.672   5.322  1.00  0.00     0.228 C 
HETATM   33  O1  UNL     1      -5.299   8.923   6.186  1.00  0.00    -0.643 OA
HETATM   34  O2  UNL     1      -7.184   9.994   5.404  1.00  0.00    -0.643 OA
ENDBRANCH  28  32
BRANCH  30  35
HETATM   35  C24 UNL     1      -2.223  11.771   2.665  1.00  0.00     0.058 A 
HETATM   36  C25 UNL     1      -2.157  13.068   2.172  1.00  0.00     0.033 A 
HETATM   37  C26 UNL     1      -0.961  13.676   1.839  1.00  0.00     0.028 A 
HETATM   38  C27 UNL     1       0.223  13.000   1.990  1.00  0.00     0.055 A 
HETATM   39 CL1  UNL     1       1.727  13.785   1.564  1.00  0.00    -0.083 Cl
HETATM   40  C28 UNL     1       0.178  11.699   2.483  1.00  0.00     0.058 A 
HETATM   41 CL2  UNL     1       1.709  10.865   2.663  1.00  0.00    -0.082 Cl
HETATM   42  C29 UNL     1      -1.018  11.096   2.814  1.00  0.00     0.057 A 
ENDBRANCH  30  35
ENDBRANCH   1  26
TORSDOF 9
ENDMDL
