MODEL 1
REMARK VINA RESULT: -8.422160896      0.000      0.000
REMARK  9 active torsions:
REMARK  status: ('A' for Active; 'I' for Inactive)
REMARK    1  A    between atoms: C1_2  and  C2_4 
REMARK    2  A    between atoms: C4_6  and  C5_7 
REMARK    3  A    between atoms: C8_10  and  C9_11 
REMARK    4  A    between atoms: C9_11  and  N1_12 
REMARK    5  A    between atoms: N1_12  and  C10_14 
REMARK    6  A    between atoms: C10_14  and  C11_16 
REMARK    7  A    between atoms: C14_19  and  C15_20 
REMARK    8  A    between atoms: C18_23  and  C19_24 
REMARK    9  A    between atoms: N2_32  and  C24_33 
ROOT
HETATM    1  C5  UNL     1      -2.247  11.567  -0.203  1.00  0.00    -0.007 A 
HETATM    2  C6  UNL     1      -2.229  12.372   0.921  1.00  0.00     0.014 A 
HETATM    3  C7  UNL     1      -1.049  12.822   1.511  1.00  0.00     0.010 A 
HETATM    4  C8  UNL     1       0.177  12.482   0.996  1.00  0.00    -0.041 A 
HETATM    5  C22 UNL     1       0.173  11.684  -0.119  1.00  0.00     0.010 A 
HETATM    6  C23 UNL     1      -1.022  11.232  -0.711  1.00  0.00     0.014 A 
ENDROOT
BRANCH   4   7
HETATM    7  C9  UNL     1       1.453  12.945   1.591  1.00  0.00     0.159 C 
BRANCH   7   8
HETATM    8  N1  UNL     1       2.532  12.018   1.385  1.00  0.00    -0.376 N 
ATOM      9  H1  UNL     1       3.182  12.144   0.609  1.00  0.00     0.160 HD
BRANCH   8  10
HETATM   10  C10 UNL     1       2.681  10.926   2.276  1.00  0.00     0.107 C 
HETATM   11  S1  UNL     1       1.759  10.744   3.606  1.00  0.00    -0.060 SA
BRANCH  10  12
HETATM   12  C11 UNL     1       3.700   9.928   1.990  1.00  0.00     0.002 A 
HETATM   13  C12 UNL     1       4.775   9.747   2.844  1.00  0.00     0.015 A 
HETATM   14  C13 UNL     1       5.710   8.783   2.519  1.00  0.00     0.015 A 
HETATM   15  C14 UNL     1       5.604   8.000   1.373  1.00  0.00    -0.002 A 
HETATM   16  C20 UNL     1       4.516   8.225   0.563  1.00  0.00     0.015 A 
HETATM   17  C21 UNL     1       3.560   9.174   0.848  1.00  0.00     0.015 A 
BRANCH  15  18
HETATM   18  C15 UNL     1       6.615   6.994   1.067  1.00  0.00     0.086 A 
HETATM   19  C16 UNL     1       7.574   6.453   1.864  1.00  0.00     0.041 A 
HETATM   20  C17 UNL     1       8.266   5.550   1.095  1.00  0.00     0.047 A 
HETATM   21  C18 UNL     1       7.694   5.575  -0.157  1.00  0.00     0.152 A 
HETATM   22  O5  UNL     1       6.729   6.437  -0.126  1.00  0.00    -0.303 OA
BRANCH  21  23
HETATM   23  C19 UNL     1       8.075   4.795  -1.323  1.00  0.00     0.234 C 
HETATM   24  O3  UNL     1       7.454   4.981  -2.395  1.00  0.00    -0.642 OA
HETATM   25  O4  UNL     1       9.087   3.862  -1.296  1.00  0.00    -0.642 OA
ENDBRANCH  21  23
ENDBRANCH  15  18
ENDBRANCH  10  12
ENDBRANCH   8  10
ENDBRANCH   7   8
ENDBRANCH   4   7
BRANCH   1  26
HETATM   26  C4  UNL     1      -3.530  11.125  -0.777  1.00  0.00     0.069 A 
HETATM   27  C3  UNL     1      -3.870  11.376  -2.121  1.00  0.00     0.070 A 
HETATM   28  C2  UNL     1      -5.114  10.839  -2.328  1.00  0.00     0.127 A 
HETATM   29  N3  UNL     1      -5.480  10.306  -1.175  1.00  0.00    -0.287 N 
HETATM   30  N2  UNL     1      -4.541  10.465  -0.225  1.00  0.00    -0.255 N 
ATOM     31  H3  UNL     1      -6.370   9.830  -1.024  1.00  0.00     0.188 HD
BRANCH  28  32
HETATM   32  C1  UNL     1      -5.818  10.895  -3.607  1.00  0.00     0.228 C 
HETATM   33  O1  UNL     1      -6.761  10.112  -3.884  1.00  0.00    -0.643 OA
HETATM   34  O2  UNL     1      -5.411  11.861  -4.539  1.00  0.00    -0.643 OA
ENDBRANCH  28  32
BRANCH  30  35
HETATM   35  C24 UNL     1      -4.680   9.984   1.114  1.00  0.00     0.058 A 
HETATM   36  C25 UNL     1      -5.419  10.695   2.051  1.00  0.00     0.033 A 
HETATM   37  C26 UNL     1      -5.549  10.280   3.363  1.00  0.00     0.028 A 
HETATM   38  C27 UNL     1      -4.938   9.127   3.787  1.00  0.00     0.055 A 
HETATM   39 CL1  UNL     1      -5.113   8.616   5.451  1.00  0.00    -0.083 Cl
HETATM   40  C28 UNL     1      -4.193   8.401   2.862  1.00  0.00     0.058 A 
HETATM   41 CL2  UNL     1      -3.426   6.933   3.437  1.00  0.00    -0.082 Cl
HETATM   42  C29 UNL     1      -4.066   8.818   1.553  1.00  0.00     0.057 A 
ENDBRANCH  30  35
ENDBRANCH   1  26
TORSDOF 9
ENDMDL
