MODEL 7
REMARK VINA RESULT: -6.188789369      2.883      7.198
REMARK  10 active torsions:
REMARK  status: ('A' for Active; 'I' for Inactive)
REMARK    1  A    between atoms: N1_1  and  S1_4 
REMARK    2  A    between atoms: S1_4  and  O3_7 
REMARK    3  A    between atoms: O3_7  and  C1_8 
REMARK    4  A    between atoms: N2_11  and  S2_12 
REMARK    5  A    between atoms: S2_12  and  C4_15 
REMARK    6  A    between atoms: C5_17  and  C6_18 
REMARK    7  A    between atoms: C6_18  and  O7_19 
REMARK    8  A    between atoms: C7_21  and  O8_22 
REMARK    9  A    between atoms: C8_24  and  O9_25 
REMARK   10  A    between atoms: C9_27  and  O10_28 
ROOT
HETATM    1  S2  UNL     1       0.176   4.236  82.669  1.00  0.00     0.241 S 
HETATM    2  O4  UNL     1      -0.553   4.295  81.355  1.00  0.00    -0.208 OA
HETATM    3  O5  UNL     1       1.549   3.700  82.381  1.00  0.00    -0.208 OA
ENDROOT
BRANCH   1   4
HETATM    4  N2  UNL     1       0.275   5.837  83.282  1.00  0.00    -0.208 NA
HETATM    5  C3  UNL     1       0.168   6.821  82.260  1.00  0.00     0.110 C 
HETATM    6  C2  UNL     1       1.459   7.262  81.659  1.00  0.00     0.049 C 
HETATM    7  C1  UNL     1       2.337   7.790  82.792  1.00  0.00     0.146 C 
HETATM    8  C11 UNL     1       2.558   6.639  83.739  1.00  0.00     0.049 C 
HETATM    9  C10 UNL     1       1.299   6.028  84.242  1.00  0.00     0.110 C 
BRANCH   7  10
HETATM   10  O3  UNL     1       1.769   8.870  83.429  1.00  0.00    -0.254 OA
BRANCH  10  11
HETATM   11  S1  UNL     1       2.936   9.797  84.230  1.00  0.00     0.355 S 
HETATM   12  O1  UNL     1       2.991   9.420  85.670  1.00  0.00    -0.176 OA
HETATM   13  O2  UNL     1       2.552  11.254  84.120  1.00  0.00    -0.176 OA
BRANCH  11  14
HETATM   14  N1  UNL     1       4.497   9.569  83.517  1.00  0.00    -0.306 N 
ATOM     15  H12 UNL     1       4.934  10.219  82.864  1.00  0.00     0.171 HD
ATOM     16  H11 UNL     1       4.897   8.692  83.851  1.00  0.00     0.171 HD
ENDBRANCH  11  14
ENDBRANCH  10  11
ENDBRANCH   7  10
ENDBRANCH   1   4
BRANCH   1  17
HETATM   17  C4  UNL     1      -0.684   3.162  83.828  1.00  0.00     0.290 C 
HETATM   18  O6  UNL     1       0.179   2.883  84.848  1.00  0.00    -0.357 OA
HETATM   19  C5  UNL     1      -0.412   2.535  86.044  1.00  0.00     0.178 C 
HETATM   20  C7  UNL     1      -1.358   3.558  86.586  1.00  0.00     0.180 C 
HETATM   21  C8  UNL     1      -1.532   4.650  85.550  1.00  0.00     0.181 C 
HETATM   22  C9  UNL     1      -1.920   3.924  84.261  1.00  0.00     0.194 C 
BRANCH  19  23
HETATM   23  C6  UNL     1      -1.033   1.144  86.005  1.00  0.00     0.198 C 
BRANCH  23  24
HETATM   24  O7  UNL     1      -1.156   0.741  87.351  1.00  0.00    -0.398 OA
ATOM     25  H7  UNL     1      -1.820   1.305  87.730  1.00  0.00     0.209 HD
ENDBRANCH  23  24
ENDBRANCH  19  23
BRANCH  20  26
HETATM   26  O8  UNL     1      -2.626   2.942  86.708  1.00  0.00    -0.390 OA
ATOM     27  H8  UNL     1      -2.769   2.427  85.922  1.00  0.00     0.210 HD
ENDBRANCH  20  26
BRANCH  21  28
HETATM   28  O9  UNL     1      -2.477   5.579  85.926  1.00  0.00    -0.390 OA
ATOM     29  H9  UNL     1      -2.139   6.467  85.897  1.00  0.00     0.210 HD
ENDBRANCH  21  28
BRANCH  22  30
HETATM   30  O10 UNL     1      -2.363   4.798  83.293  1.00  0.00    -0.389 OA
ATOM     31  H10 UNL     1      -3.155   4.493  82.866  1.00  0.00     0.210 HD
ENDBRANCH  22  30
ENDBRANCH   1  17
TORSDOF 10
ENDMDL
