MODEL 10
REMARK VINA RESULT: -6.154242863      3.913      7.241
REMARK  10 active torsions:
REMARK  status: ('A' for Active; 'I' for Inactive)
REMARK    1  A    between atoms: N1_1  and  S1_4 
REMARK    2  A    between atoms: S1_4  and  O3_7 
REMARK    3  A    between atoms: O3_7  and  C1_8 
REMARK    4  A    between atoms: N2_11  and  S2_12 
REMARK    5  A    between atoms: S2_12  and  C4_15 
REMARK    6  A    between atoms: C5_17  and  C6_18 
REMARK    7  A    between atoms: C6_18  and  O7_19 
REMARK    8  A    between atoms: C7_21  and  O8_22 
REMARK    9  A    between atoms: C8_24  and  O9_25 
REMARK   10  A    between atoms: C9_27  and  O10_28 
ROOT
HETATM    1  S2  UNL     1       0.065   4.989  83.394  1.00  0.00     0.241 S 
HETATM    2  O4  UNL     1      -0.084   6.219  84.247  1.00  0.00    -0.208 OA
HETATM    3  O5  UNL     1      -0.629   5.276  82.094  1.00  0.00    -0.208 OA
ENDROOT
BRANCH   1   4
HETATM    4  N2  UNL     1       1.743   4.737  83.135  1.00  0.00    -0.208 NA
HETATM    5  C3  UNL     1       2.535   5.835  83.570  1.00  0.00     0.110 C 
HETATM    6  C2  UNL     1       2.809   6.875  82.537  1.00  0.00     0.049 C 
HETATM    7  C1  UNL     1       3.493   6.184  81.359  1.00  0.00     0.146 C 
HETATM    8  C11 UNL     1       2.518   5.160  80.837  1.00  0.00     0.049 C 
HETATM    9  C10 UNL     1       2.058   4.191  81.867  1.00  0.00     0.110 C 
BRANCH   7  10
HETATM   10  O3  UNL     1       4.690   5.608  81.717  1.00  0.00    -0.254 OA
BRANCH  10  11
HETATM   11  S1  UNL     1       5.666   5.321  80.365  1.00  0.00     0.355 S 
HETATM   12  O1  UNL     1       5.200   4.104  79.646  1.00  0.00    -0.176 OA
HETATM   13  O2  UNL     1       7.085   5.101  80.833  1.00  0.00    -0.176 OA
BRANCH  11  14
HETATM   14  N1  UNL     1       5.631   6.674  79.286  1.00  0.00    -0.306 N 
ATOM     15  H12 UNL     1       6.295   7.448  79.308  1.00  0.00     0.171 HD
ATOM     16  H11 UNL     1       4.850   6.571  78.638  1.00  0.00     0.171 HD
ENDBRANCH  11  14
ENDBRANCH  10  11
ENDBRANCH   7  10
ENDBRANCH   1   4
BRANCH   1  17
HETATM   17  C4  UNL     1      -0.678   3.561  84.197  1.00  0.00     0.290 C 
HETATM   18  O6  UNL     1       0.151   3.185  85.214  1.00  0.00    -0.357 OA
HETATM   19  C5  UNL     1      -0.452   2.485  86.238  1.00  0.00     0.178 C 
HETATM   20  C7  UNL     1      -1.590   3.203  86.890  1.00  0.00     0.180 C 
HETATM   21  C8  UNL     1      -1.875   4.467  86.105  1.00  0.00     0.181 C 
HETATM   22  C9  UNL     1      -2.050   4.010  84.657  1.00  0.00     0.194 C 
BRANCH  19  23
HETATM   23  C6  UNL     1      -0.827   1.065  85.833  1.00  0.00     0.198 C 
BRANCH  23  24
HETATM   24  O7  UNL     1       0.389   0.419  85.527  1.00  0.00    -0.398 OA
ATOM     25  H7  UNL     1       0.407  -0.366  86.062  1.00  0.00     0.209 HD
ENDBRANCH  23  24
ENDBRANCH  19  23
BRANCH  20  26
HETATM   26  O8  UNL     1      -2.741   2.394  86.745  1.00  0.00    -0.390 OA
ATOM     27  H8  UNL     1      -3.446   2.812  87.227  1.00  0.00     0.210 HD
ENDBRANCH  20  26
BRANCH  21  28
HETATM   28  O9  UNL     1      -2.985   5.133  86.576  1.00  0.00    -0.390 OA
ATOM     29  H9  UNL     1      -3.419   4.658  87.275  1.00  0.00     0.210 HD
ENDBRANCH  21  28
BRANCH  22  30
HETATM   30  O10 UNL     1      -2.568   5.009  83.862  1.00  0.00    -0.389 OA
ATOM     31  H10 UNL     1      -3.501   4.907  83.716  1.00  0.00     0.210 HD
ENDBRANCH  22  30
ENDBRANCH   1  17
TORSDOF 10
ENDMDL
