MODEL 2
REMARK VINA RESULT: -6.584912385      3.170      3.977
REMARK  10 active torsions:
REMARK  status: ('A' for Active; 'I' for Inactive)
REMARK    1  A    between atoms: N1_1  and  S1_4 
REMARK    2  A    between atoms: S1_4  and  O3_7 
REMARK    3  A    between atoms: O3_7  and  C1_8 
REMARK    4  A    between atoms: N2_11  and  S2_12 
REMARK    5  A    between atoms: S2_12  and  C4_15 
REMARK    6  A    between atoms: C5_17  and  C6_18 
REMARK    7  A    between atoms: C6_18  and  O7_19 
REMARK    8  A    between atoms: C7_21  and  O8_22 
REMARK    9  A    between atoms: C8_24  and  O9_25 
REMARK   10  A    between atoms: C9_27  and  O10_28 
ROOT
HETATM    1  S2  UNL     1       1.027   5.532  82.722  1.00  0.00     0.241 S 
HETATM    2  O4  UNL     1      -0.294   6.236  82.572  1.00  0.00    -0.208 OA
HETATM    3  O5  UNL     1       1.971   6.510  83.360  1.00  0.00    -0.208 OA
ENDROOT
BRANCH   1   4
HETATM    4  N2  UNL     1       0.781   4.179  83.750  1.00  0.00    -0.208 NA
HETATM    5  C3  UNL     1      -0.126   3.231  83.199  1.00  0.00     0.110 C 
HETATM    6  C2  UNL     1      -1.557   3.427  83.567  1.00  0.00     0.049 C 
HETATM    7  C1  UNL     1      -1.649   3.399  85.091  1.00  0.00     0.146 C 
HETATM    8  C11 UNL     1      -0.810   4.547  85.593  1.00  0.00     0.049 C 
HETATM    9  C10 UNL     1       0.598   4.513  85.114  1.00  0.00     0.110 C 
BRANCH   7  10
HETATM   10  O3  UNL     1      -1.232   2.198  85.615  1.00  0.00    -0.254 OA
BRANCH  10  11
HETATM   11  S1  UNL     1      -2.190   1.732  86.929  1.00  0.00     0.355 S 
HETATM   12  O1  UNL     1      -1.918   0.311  87.284  1.00  0.00    -0.176 OA
HETATM   13  O2  UNL     1      -3.643   1.869  86.539  1.00  0.00    -0.176 OA
BRANCH  11  14
HETATM   14  N1  UNL     1      -1.878   2.736  88.304  1.00  0.00    -0.306 N 
ATOM     15  H12 UNL     1      -1.367   2.437  89.134  1.00  0.00     0.171 HD
ATOM     16  H11 UNL     1      -2.283   3.659  88.147  1.00  0.00     0.171 HD
ENDBRANCH  11  14
ENDBRANCH  10  11
ENDBRANCH   7  10
ENDBRANCH   1   4
BRANCH   1  17
HETATM   17  C4  UNL     1       1.657   5.008  81.121  1.00  0.00     0.290 C 
HETATM   18  O6  UNL     1       1.497   6.051  80.255  1.00  0.00    -0.357 OA
HETATM   19  C5  UNL     1       2.351   6.057  79.173  1.00  0.00     0.178 C 
HETATM   20  C7  UNL     1       3.803   6.051  79.532  1.00  0.00     0.180 C 
HETATM   21  C8  UNL     1       3.927   5.865  81.031  1.00  0.00     0.181 C 
HETATM   22  C9  UNL     1       3.104   4.618  81.351  1.00  0.00     0.194 C 
BRANCH  19  23
HETATM   23  C6  UNL     1       2.009   4.977  78.153  1.00  0.00     0.198 C 
BRANCH  23  24
HETATM   24  O7  UNL     1       0.625   5.102  77.913  1.00  0.00    -0.398 OA
ATOM     25  H7  UNL     1       0.480   4.746  77.044  1.00  0.00     0.209 HD
ENDBRANCH  23  24
ENDBRANCH  19  23
BRANCH  20  26
HETATM   26  O8  UNL     1       4.378   4.895  78.954  1.00  0.00    -0.390 OA
ATOM     27  H8  UNL     1       5.079   4.607  79.529  1.00  0.00     0.210 HD
ENDBRANCH  20  26
BRANCH  21  28
HETATM   28  O9  UNL     1       5.239   5.737  81.432  1.00  0.00    -0.390 OA
ATOM     29  H9  UNL     1       5.326   5.732  82.378  1.00  0.00     0.210 HD
ENDBRANCH  21  28
BRANCH  22  30
HETATM   30  O10 UNL     1       3.327   4.170  82.635  1.00  0.00    -0.389 OA
ATOM     31  H10 UNL     1       4.182   3.768  82.733  1.00  0.00     0.210 HD
ENDBRANCH  22  30
ENDBRANCH   1  17
TORSDOF 10
ENDMDL
