MODEL 11
REMARK VINA RESULT: -6.665127736      2.237      5.196
REMARK  10 active torsions:
REMARK  status: ('A' for Active; 'I' for Inactive)
REMARK    1  A    between atoms: N1_1  and  S1_4 
REMARK    2  A    between atoms: S1_4  and  O3_7 
REMARK    3  A    between atoms: O3_7  and  C1_8 
REMARK    4  A    between atoms: N2_11  and  S2_12 
REMARK    5  A    between atoms: S2_12  and  C4_15 
REMARK    6  A    between atoms: C5_17  and  C6_18 
REMARK    7  A    between atoms: C6_18  and  O7_19 
REMARK    8  A    between atoms: C7_21  and  O8_22 
REMARK    9  A    between atoms: C8_24  and  O9_25 
REMARK   10  A    between atoms: C9_27  and  O10_28 
ROOT
HETATM    1  C4  UNL     1       0.256   2.070  83.341  1.00  0.00     0.290 C 
HETATM    2  O6  UNL     1       1.537   2.360  82.815  1.00  0.00    -0.357 OA
HETATM    3  C5  UNL     1       1.475   2.830  81.518  1.00  0.00     0.178 C 
HETATM    4  C7  UNL     1       1.234   1.648  80.612  1.00  0.00     0.180 C 
HETATM    5  C8  UNL     1       0.071   0.879  81.148  1.00  0.00     0.181 C 
HETATM    6  C9  UNL     1      -0.668   1.597  82.266  1.00  0.00     0.194 C 
ENDROOT
BRANCH   1   7
HETATM    7  S2  UNL     1      -0.271   3.516  84.181  1.00  0.00     0.241 S 
HETATM    8  O4  UNL     1      -1.640   3.322  84.804  1.00  0.00    -0.208 OA
HETATM    9  O5  UNL     1       0.660   3.746  85.355  1.00  0.00    -0.208 OA
BRANCH   7  10
HETATM   10  N2  UNL     1      -0.324   4.932  83.259  1.00  0.00    -0.206 NA
HETATM   11  C3  UNL     1       0.794   5.824  83.425  1.00  0.00     0.110 C 
HETATM   12  C2  UNL     1       0.340   7.101  82.721  1.00  0.00     0.050 C 
HETATM   13  C1  UNL     1      -1.143   6.879  82.402  1.00  0.00     0.159 C 
HETATM   14  C10 UNL     1      -1.460   5.772  83.422  1.00  0.00     0.140 C 
BRANCH  13  15
HETATM   15  O3  UNL     1      -1.212   6.412  81.115  1.00  0.00    -0.253 OA
BRANCH  15  16
HETATM   16  S1  UNL     1      -1.868   7.551  80.113  1.00  0.00     0.356 S 
HETATM   17  O1  UNL     1      -1.397   7.274  78.706  1.00  0.00    -0.176 OA
HETATM   18  O2  UNL     1      -3.364   7.404  80.105  1.00  0.00    -0.176 OA
BRANCH  16  19
HETATM   19  N1  UNL     1      -1.493   9.158  80.538  1.00  0.00    -0.306 N 
ATOM     20  H12 UNL     1      -1.841   9.628  81.374  1.00  0.00     0.171 HD
ATOM     21  H11 UNL     1      -0.877   9.565  79.835  1.00  0.00     0.171 HD
ENDBRANCH  16  19
ENDBRANCH  15  16
ENDBRANCH  13  15
ENDBRANCH   7  10
ENDBRANCH   1   7
BRANCH   6  22
HETATM   22  O10 UNL     1      -1.502   2.581  81.782  1.00  0.00    -0.389 OA
ATOM     23  H10 UNL     1      -2.270   2.244  81.335  1.00  0.00     0.210 HD
ENDBRANCH   6  22
BRANCH   3  24
HETATM   24  C6  UNL     1       2.808   3.496  81.220  1.00  0.00     0.198 C 
BRANCH  24  25
HETATM   25  O7  UNL     1       3.615   3.303  82.355  1.00  0.00    -0.398 OA
ATOM     26  H7  UNL     1       3.060   3.459  83.111  1.00  0.00     0.209 HD
ENDBRANCH  24  25
ENDBRANCH   3  24
BRANCH   5  27
HETATM   27  O9  UNL     1      -0.833   0.665  80.111  1.00  0.00    -0.390 OA
ATOM     28  H9  UNL     1      -1.214  -0.198  80.217  1.00  0.00     0.210 HD
ENDBRANCH   5  27
BRANCH   4  29
HETATM   29  O8  UNL     1       2.378   0.834  80.694  1.00  0.00    -0.390 OA
ATOM     30  H8  UNL     1       2.077  -0.066  80.657  1.00  0.00     0.210 HD
ENDBRANCH   4  29
TORSDOF 10
ENDMDL
