MODEL 10
REMARK VINA RESULT: -6.701926694      2.144      4.762
REMARK  10 active torsions:
REMARK  status: ('A' for Active; 'I' for Inactive)
REMARK    1  A    between atoms: N1_1  and  S1_4 
REMARK    2  A    between atoms: S1_4  and  O3_7 
REMARK    3  A    between atoms: O3_7  and  C1_8 
REMARK    4  A    between atoms: N2_11  and  S2_12 
REMARK    5  A    between atoms: S2_12  and  C4_15 
REMARK    6  A    between atoms: C5_17  and  C6_18 
REMARK    7  A    between atoms: C6_18  and  O7_19 
REMARK    8  A    between atoms: C7_21  and  O8_22 
REMARK    9  A    between atoms: C8_24  and  O9_25 
REMARK   10  A    between atoms: C9_27  and  O10_28 
ROOT
HETATM    1  C4  UNL     1       0.396   6.678  81.946  1.00  0.00     0.290 C 
HETATM    2  O6  UNL     1       1.374   6.458  82.945  1.00  0.00    -0.357 OA
HETATM    3  C5  UNL     1       0.820   6.018  84.131  1.00  0.00     0.178 C 
HETATM    4  C7  UNL     1       0.206   7.211  84.821  1.00  0.00     0.180 C 
HETATM    5  C8  UNL     1      -0.673   7.916  83.840  1.00  0.00     0.181 C 
HETATM    6  C9  UNL     1      -0.891   7.138  82.552  1.00  0.00     0.194 C 
ENDROOT
BRANCH   1   7
HETATM    7  S2  UNL     1       0.286   5.189  81.026  1.00  0.00     0.241 S 
HETATM    8  O4  UNL     1      -1.037   5.094  80.290  1.00  0.00    -0.208 OA
HETATM    9  O5  UNL     1       1.336   5.231  79.933  1.00  0.00    -0.208 OA
BRANCH   7  10
HETATM   10  N2  UNL     1       0.487   3.759  81.903  1.00  0.00    -0.206 NA
HETATM   11  C3  UNL     1       1.285   2.745  81.264  1.00  0.00     0.110 C 
HETATM   12  C2  UNL     1       1.050   1.507  82.128  1.00  0.00     0.050 C 
HETATM   13  C1  UNL     1      -0.081   1.895  83.087  1.00  0.00     0.159 C 
HETATM   14  C10 UNL     1      -0.691   3.068  82.301  1.00  0.00     0.140 C 
BRANCH  13  15
HETATM   15  O3  UNL     1       0.507   2.321  84.250  1.00  0.00    -0.253 OA
BRANCH  15  16
HETATM   16  S1  UNL     1      -0.239   1.649  85.563  1.00  0.00     0.356 S 
HETATM   17  O1  UNL     1      -0.619   0.230  85.220  1.00  0.00    -0.176 OA
HETATM   18  O2  UNL     1       0.738   1.571  86.704  1.00  0.00    -0.176 OA
BRANCH  16  19
HETATM   19  N1  UNL     1      -1.615   2.498  86.100  1.00  0.00    -0.306 N 
ATOM     20  H12 UNL     1      -1.744   2.843  87.051  1.00  0.00     0.171 HD
ATOM     21  H11 UNL     1      -2.275   2.604  85.330  1.00  0.00     0.171 HD
ENDBRANCH  16  19
ENDBRANCH  15  16
ENDBRANCH  13  15
ENDBRANCH   7  10
ENDBRANCH   1   7
BRANCH   6  22
HETATM   22  O10 UNL     1      -1.818   6.132  82.709  1.00  0.00    -0.389 OA
ATOM     23  H10 UNL     1      -2.705   6.391  82.483  1.00  0.00     0.210 HD
ENDBRANCH   6  22
BRANCH   3  24
HETATM   24  C6  UNL     1       1.947   5.419  84.955  1.00  0.00     0.198 C 
BRANCH  24  25
HETATM   25  O7  UNL     1       2.649   4.549  84.102  1.00  0.00    -0.398 OA
ATOM     26  H7  UNL     1       2.464   3.667  84.403  1.00  0.00     0.209 HD
ENDBRANCH  24  25
ENDBRANCH   3  24
BRANCH   5  27
HETATM   27  O9  UNL     1      -1.919   8.117  84.429  1.00  0.00    -0.390 OA
ATOM     28  H9  UNL     1      -1.929   7.678  85.271  1.00  0.00     0.210 HD
ENDBRANCH   5  27
BRANCH   4  29
HETATM   29  O8  UNL     1       1.265   8.072  85.161  1.00  0.00    -0.390 OA
ATOM     30  H8  UNL     1       1.996   7.842  84.600  1.00  0.00     0.210 HD
ENDBRANCH   4  29
TORSDOF 10
ENDMDL
