MODEL 3
REMARK VINA RESULT: -7.485965231      1.591      3.115
REMARK  10 active torsions:
REMARK  status: ('A' for Active; 'I' for Inactive)
REMARK    1  A    between atoms: N1_1  and  S1_4 
REMARK    2  A    between atoms: S1_4  and  O3_7 
REMARK    3  A    between atoms: O3_7  and  C1_8 
REMARK    4  A    between atoms: N2_11  and  S2_12 
REMARK    5  A    between atoms: S2_12  and  C4_15 
REMARK    6  A    between atoms: C5_17  and  C6_18 
REMARK    7  A    between atoms: C6_18  and  O7_19 
REMARK    8  A    between atoms: C7_21  and  O8_22 
REMARK    9  A    between atoms: C8_24  and  O9_25 
REMARK   10  A    between atoms: C9_27  and  O10_28 
ROOT
HETATM    1  C4  UNL     1       1.242   2.529  81.887  1.00  0.00     0.290 C 
HETATM    2  O6  UNL     1       1.116   3.878  81.476  1.00  0.00    -0.357 OA
HETATM    3  C5  UNL     1       0.873   3.991  80.121  1.00  0.00     0.178 C 
HETATM    4  C7  UNL     1       2.179   3.763  79.400  1.00  0.00     0.180 C 
HETATM    5  C8  UNL     1       2.781   2.497  79.913  1.00  0.00     0.181 C 
HETATM    6  C9  UNL     1       1.842   1.695  80.802  1.00  0.00     0.194 C 
ENDROOT
BRANCH   1   7
HETATM    7  S2  UNL     1      -0.354   2.022  82.408  1.00  0.00     0.241 S 
HETATM    8  O4  UNL     1      -1.379   2.216  81.308  1.00  0.00    -0.208 OA
HETATM    9  O5  UNL     1      -0.320   0.526  82.647  1.00  0.00    -0.208 OA
BRANCH   7  10
HETATM   10  N2  UNL     1      -0.951   2.770  83.801  1.00  0.00    -0.206 NA
HETATM   11  C3  UNL     1      -1.251   4.173  83.674  1.00  0.00     0.110 C 
HETATM   12  C2  UNL     1      -1.479   4.621  85.116  1.00  0.00     0.050 C 
HETATM   13  C1  UNL     1      -1.052   3.431  85.981  1.00  0.00     0.159 C 
HETATM   14  C10 UNL     1      -0.151   2.695  84.975  1.00  0.00     0.140 C 
BRANCH  13  15
HETATM   15  O3  UNL     1      -2.184   2.710  86.261  1.00  0.00    -0.253 OA
BRANCH  15  16
HETATM   16  S1  UNL     1      -1.937   1.711  87.555  1.00  0.00     0.356 S 
HETATM   17  O1  UNL     1      -2.940   0.586  87.485  1.00  0.00    -0.176 OA
HETATM   18  O2  UNL     1      -0.575   1.084  87.447  1.00  0.00    -0.176 OA
BRANCH  16  19
HETATM   19  N1  UNL     1      -2.047   2.486  89.069  1.00  0.00    -0.306 N 
ATOM     20  H12 UNL     1      -2.825   3.079  89.358  1.00  0.00     0.171 HD
ATOM     21  H11 UNL     1      -1.224   2.263  89.629  1.00  0.00     0.171 HD
ENDBRANCH  16  19
ENDBRANCH  15  16
ENDBRANCH  13  15
ENDBRANCH   7  10
ENDBRANCH   1   7
BRANCH   6  22
HETATM   22  O10 UNL     1       0.913   0.993  80.067  1.00  0.00    -0.389 OA
ATOM     23  H10 UNL     1       1.292   0.481  79.361  1.00  0.00     0.210 HD
ENDBRANCH   6  22
BRANCH   3  24
HETATM   24  C6  UNL     1       0.342   5.394  79.878  1.00  0.00     0.198 C 
BRANCH  24  25
HETATM   25  O7  UNL     1      -1.034   5.356  80.165  1.00  0.00    -0.398 OA
ATOM     26  H7  UNL     1      -1.485   5.538  79.349  1.00  0.00     0.209 HD
ENDBRANCH  24  25
ENDBRANCH   3  24
BRANCH   5  27
HETATM   27  O9  UNL     1       3.120   1.696  78.826  1.00  0.00    -0.390 OA
ATOM     28  H9  UNL     1       4.019   1.408  78.932  1.00  0.00     0.210 HD
ENDBRANCH   5  27
BRANCH   4  29
HETATM   29  O8  UNL     1       3.027   4.829  79.751  1.00  0.00    -0.390 OA
ATOM     30  H8  UNL     1       3.017   5.438  79.023  1.00  0.00     0.210 HD
ENDBRANCH   4  29
TORSDOF 10
ENDMDL
