MODEL 4
REMARK VINA RESULT: -7.368991572      1.737      2.883
REMARK  10 active torsions:
REMARK  status: ('A' for Active; 'I' for Inactive)
REMARK    1  A    between atoms: N1_1  and  S1_4 
REMARK    2  A    between atoms: S1_4  and  O3_7 
REMARK    3  A    between atoms: O3_7  and  C1_8 
REMARK    4  A    between atoms: N2_11  and  S2_12 
REMARK    5  A    between atoms: S2_12  and  C4_15 
REMARK    6  A    between atoms: C5_17  and  C6_18 
REMARK    7  A    between atoms: C6_18  and  O7_19 
REMARK    8  A    between atoms: C7_21  and  O8_22 
REMARK    9  A    between atoms: C8_24  and  O9_25 
REMARK   10  A    between atoms: C9_27  and  O10_28 
ROOT
HETATM    1  C4  UNL     1       1.083   2.500  82.131  1.00  0.00     0.290 C 
HETATM    2  O6  UNL     1       1.885   3.424  82.842  1.00  0.00    -0.357 OA
HETATM    3  C5  UNL     1       2.454   4.369  82.011  1.00  0.00     0.178 C 
HETATM    4  C7  UNL     1       3.615   3.718  81.303  1.00  0.00     0.180 C 
HETATM    5  C8  UNL     1       3.137   2.436  80.703  1.00  0.00     0.181 C 
HETATM    6  C9  UNL     1       1.627   2.267  80.759  1.00  0.00     0.194 C 
ENDROOT
BRANCH   1   7
HETATM    7  S2  UNL     1      -0.553   3.128  82.178  1.00  0.00     0.241 S 
HETATM    8  O4  UNL     1      -0.680   4.394  81.353  1.00  0.00    -0.208 OA
HETATM    9  O5  UNL     1      -1.464   2.127  81.494  1.00  0.00    -0.208 OA
BRANCH   7  10
HETATM   10  N2  UNL     1      -1.180   3.453  83.714  1.00  0.00    -0.206 NA
HETATM   11  C3  UNL     1      -1.709   4.779  83.901  1.00  0.00     0.110 C 
HETATM   12  C2  UNL     1      -1.920   4.870  85.411  1.00  0.00     0.050 C 
HETATM   13  C1  UNL     1      -1.256   3.615  85.987  1.00  0.00     0.159 C 
HETATM   14  C10 UNL     1      -0.309   3.271  84.824  1.00  0.00     0.140 C 
BRANCH  13  15
HETATM   15  O3  UNL     1      -2.238   2.669  86.130  1.00  0.00    -0.253 OA
BRANCH  15  16
HETATM   16  S1  UNL     1      -1.943   1.714  87.447  1.00  0.00     0.356 S 
HETATM   17  O1  UNL     1      -2.936   0.577  87.442  1.00  0.00    -0.176 OA
HETATM   18  O2  UNL     1      -0.578   1.096  87.318  1.00  0.00    -0.176 OA
BRANCH  16  19
HETATM   19  N1  UNL     1      -2.017   2.534  88.939  1.00  0.00    -0.306 N 
ATOM     20  H12 UNL     1      -2.553   2.215  89.745  1.00  0.00     0.171 HD
ATOM     21  H11 UNL     1      -1.447   3.379  88.895  1.00  0.00     0.171 HD
ENDBRANCH  16  19
ENDBRANCH  15  16
ENDBRANCH  13  15
ENDBRANCH   7  10
ENDBRANCH   1   7
BRANCH   6  22
HETATM   22  O10 UNL     1       0.991   2.998  79.781  1.00  0.00    -0.389 OA
ATOM     23  H10 UNL     1       0.494   2.467  79.169  1.00  0.00     0.210 HD
ENDBRANCH   6  22
BRANCH   3  24
HETATM   24  C6  UNL     1       2.914   5.519  82.892  1.00  0.00     0.198 C 
BRANCH  24  25
HETATM   25  O7  UNL     1       2.914   5.037  84.213  1.00  0.00    -0.398 OA
ATOM     26  H7  UNL     1       3.746   4.598  84.341  1.00  0.00     0.209 HD
ENDBRANCH  24  25
ENDBRANCH   3  24
BRANCH   5  27
HETATM   27  O9  UNL     1       3.517   2.406  79.364  1.00  0.00    -0.390 OA
ATOM     28  H9  UNL     1       3.079   1.676  78.943  1.00  0.00     0.210 HD
ENDBRANCH   5  27
BRANCH   4  29
HETATM   29  O8  UNL     1       4.572   3.414  82.288  1.00  0.00    -0.390 OA
ATOM     30  H8  UNL     1       5.355   3.129  81.831  1.00  0.00     0.210 HD
ENDBRANCH   4  29
TORSDOF 10
ENDMDL
