MODEL 8
REMARK VINA RESULT: -7.042097734      2.653      6.258
REMARK  10 active torsions:
REMARK  status: ('A' for Active; 'I' for Inactive)
REMARK    1  A    between atoms: N1_1  and  S1_4 
REMARK    2  A    between atoms: S1_4  and  O3_7 
REMARK    3  A    between atoms: O3_7  and  C1_8 
REMARK    4  A    between atoms: N2_11  and  S2_12 
REMARK    5  A    between atoms: S2_12  and  C4_15 
REMARK    6  A    between atoms: C5_17  and  C6_18 
REMARK    7  A    between atoms: C6_18  and  O7_19 
REMARK    8  A    between atoms: C7_21  and  O8_22 
REMARK    9  A    between atoms: C8_24  and  O9_25 
REMARK   10  A    between atoms: C9_27  and  O10_28 
ROOT
HETATM    1  C4  UNL     1       0.105   3.706  83.415  1.00  0.00     0.290 C 
HETATM    2  O6  UNL     1       0.518   2.524  84.074  1.00  0.00    -0.357 OA
HETATM    3  C5  UNL     1      -0.534   1.875  84.691  1.00  0.00     0.178 C 
HETATM    4  C7  UNL     1      -0.851   2.622  85.963  1.00  0.00     0.180 C 
HETATM    5  C8  UNL     1      -1.003   4.069  85.629  1.00  0.00     0.181 C 
HETATM    6  C9  UNL     1      -1.038   4.347  84.134  1.00  0.00     0.194 C 
ENDROOT
BRANCH   1   7
HETATM    7  S2  UNL     1      -0.232   3.252  81.754  1.00  0.00     0.241 S 
HETATM    8  O4  UNL     1      -1.464   2.372  81.664  1.00  0.00    -0.208 OA
HETATM    9  O5  UNL     1      -0.594   4.508  80.986  1.00  0.00    -0.208 OA
BRANCH   7  10
HETATM   10  N2  UNL     1       1.019   2.468  80.931  1.00  0.00    -0.206 NA
HETATM   11  C3  UNL     1       1.000   1.029  80.998  1.00  0.00     0.110 C 
HETATM   12  C2  UNL     1       2.363   0.627  80.437  1.00  0.00     0.050 C 
HETATM   13  C1  UNL     1       3.146   1.938  80.306  1.00  0.00     0.159 C 
HETATM   14  C10 UNL     1       2.352   2.810  81.292  1.00  0.00     0.140 C 
BRANCH  13  15
HETATM   15  O3  UNL     1       2.992   2.372  79.015  1.00  0.00    -0.253 OA
BRANCH  15  16
HETATM   16  S1  UNL     1       4.133   3.507  78.638  1.00  0.00     0.356 S 
HETATM   17  O1  UNL     1       3.533   4.875  78.852  1.00  0.00    -0.176 OA
HETATM   18  O2  UNL     1       5.288   3.387  79.592  1.00  0.00    -0.176 OA
BRANCH  16  19
HETATM   19  N1  UNL     1       4.741   3.388  77.050  1.00  0.00    -0.306 N 
ATOM     20  H12 UNL     1       5.087   4.179  76.506  1.00  0.00     0.171 HD
ATOM     21  H11 UNL     1       4.705   2.418  76.739  1.00  0.00     0.171 HD
ENDBRANCH  16  19
ENDBRANCH  15  16
ENDBRANCH  13  15
ENDBRANCH   7  10
ENDBRANCH   1   7
BRANCH   6  22
HETATM   22  O10 UNL     1      -2.268   4.058  83.585  1.00  0.00    -0.389 OA
ATOM     23  H10 UNL     1      -2.395   4.429  82.719  1.00  0.00     0.210 HD
ENDBRANCH   6  22
BRANCH   3  24
HETATM   24  C6  UNL     1      -0.075   0.455  84.980  1.00  0.00     0.198 C 
BRANCH  24  25
HETATM   25  O7  UNL     1      -0.826   0.009  86.082  1.00  0.00    -0.398 OA
ATOM     26  H7  UNL     1      -0.327  -0.694  86.482  1.00  0.00     0.209 HD
ENDBRANCH  24  25
ENDBRANCH   3  24
BRANCH   5  27
HETATM   27  O9  UNL     1      -2.202   4.525  86.171  1.00  0.00    -0.390 OA
ATOM     28  H9  UNL     1      -2.462   5.313  85.709  1.00  0.00     0.210 HD
ENDBRANCH   5  27
BRANCH   4  29
HETATM   29  O8  UNL     1       0.266   2.478  86.806  1.00  0.00    -0.390 OA
ATOM     30  H8  UNL     1       0.101   1.720  87.353  1.00  0.00     0.210 HD
ENDBRANCH   4  29
TORSDOF 10
ENDMDL
