MODEL 4
REMARK VINA RESULT: -6.575727969      2.411      5.382
REMARK  10 active torsions:
REMARK  status: ('A' for Active; 'I' for Inactive)
REMARK    1  A    between atoms: N1_1  and  S1_4 
REMARK    2  A    between atoms: S1_4  and  O3_7 
REMARK    3  A    between atoms: O3_7  and  C1_8 
REMARK    4  A    between atoms: N2_11  and  S2_12 
REMARK    5  A    between atoms: S2_12  and  C4_15 
REMARK    6  A    between atoms: C5_17  and  C6_18 
REMARK    7  A    between atoms: C6_18  and  O7_19 
REMARK    8  A    between atoms: C7_21  and  O8_22 
REMARK    9  A    between atoms: C8_24  and  O9_25 
REMARK   10  A    between atoms: C9_27  and  O10_28 
ROOT
HETATM    1  C4  UNL     1      -0.653   1.925  83.581  1.00  0.00     0.290 C 
HETATM    2  O6  UNL     1       0.605   2.172  82.982  1.00  0.00    -0.357 OA
HETATM    3  C5  UNL     1       0.496   2.447  81.633  1.00  0.00     0.178 C 
HETATM    4  C7  UNL     1       0.271   1.140  80.914  1.00  0.00     0.180 C 
HETATM    5  C8  UNL     1      -0.851   0.423  81.590  1.00  0.00     0.181 C 
HETATM    6  C9  UNL     1      -1.587   1.274  82.613  1.00  0.00     0.194 C 
ENDROOT
BRANCH   1   7
HETATM    7  S2  UNL     1      -1.206   3.462  84.219  1.00  0.00     0.241 S 
HETATM    8  O4  UNL     1      -2.562   3.325  84.884  1.00  0.00    -0.208 OA
HETATM    9  O5  UNL     1      -0.267   3.877  85.334  1.00  0.00    -0.208 OA
BRANCH   7  10
HETATM   10  N2  UNL     1      -1.307   4.732  83.108  1.00  0.00    -0.206 NA
HETATM   11  C3  UNL     1      -0.209   5.664  83.127  1.00  0.00     0.110 C 
HETATM   12  C2  UNL     1      -0.705   6.818  82.259  1.00  0.00     0.050 C 
HETATM   13  C1  UNL     1      -2.186   6.521  82.001  1.00  0.00     0.159 C 
HETATM   14  C10 UNL     1      -2.462   5.561  83.171  1.00  0.00     0.140 C 
BRANCH  13  15
HETATM   15  O3  UNL     1      -2.262   5.875  80.794  1.00  0.00    -0.253 OA
BRANCH  15  16
HETATM   16  S1  UNL     1      -3.177   6.740  79.723  1.00  0.00     0.356 S 
HETATM   17  O1  UNL     1      -3.988   5.771  78.899  1.00  0.00    -0.176 OA
HETATM   18  O2  UNL     1      -4.159   7.590  80.481  1.00  0.00    -0.176 OA
BRANCH  16  19
HETATM   19  N1  UNL     1      -2.278   7.758  78.694  1.00  0.00    -0.306 N 
ATOM     20  H12 UNL     1      -2.206   7.637  77.683  1.00  0.00     0.171 HD
ATOM     21  H11 UNL     1      -1.832   8.493  79.242  1.00  0.00     0.171 HD
ENDBRANCH  16  19
ENDBRANCH  15  16
ENDBRANCH  13  15
ENDBRANCH   7  10
ENDBRANCH   1   7
BRANCH   6  22
HETATM   22  O10 UNL     1      -2.464   2.152  82.016  1.00  0.00    -0.389 OA
ATOM     23  H10 UNL     1      -3.015   1.750  81.354  1.00  0.00     0.210 HD
ENDBRANCH   6  22
BRANCH   3  24
HETATM   24  C6  UNL     1       1.798   3.101  81.203  1.00  0.00     0.198 C 
BRANCH  24  25
HETATM   25  O7  UNL     1       2.683   2.984  82.290  1.00  0.00    -0.398 OA
ATOM     26  H7  UNL     1       2.531   3.740  82.845  1.00  0.00     0.209 HD
ENDBRANCH  24  25
ENDBRANCH   3  24
BRANCH   5  27
HETATM   27  O9  UNL     1      -1.773   0.034  80.621  1.00  0.00    -0.390 OA
ATOM     28  H9  UNL     1      -2.625   0.381  80.860  1.00  0.00     0.210 HD
ENDBRANCH   5  27
BRANCH   4  29
HETATM   29  O8  UNL     1       1.444   0.380  81.080  1.00  0.00    -0.390 OA
ATOM     30  H8  UNL     1       1.232  -0.321  81.685  1.00  0.00     0.210 HD
ENDBRANCH   4  29
TORSDOF 10
ENDMDL
