MODEL 3
REMARK VINA RESULT: -6.586836081      2.954      6.317
REMARK  10 active torsions:
REMARK  status: ('A' for Active; 'I' for Inactive)
REMARK    1  A    between atoms: N1_1  and  S1_4 
REMARK    2  A    between atoms: S1_4  and  O3_7 
REMARK    3  A    between atoms: O3_7  and  C1_8 
REMARK    4  A    between atoms: N2_11  and  S2_12 
REMARK    5  A    between atoms: S2_12  and  C4_15 
REMARK    6  A    between atoms: C5_17  and  C6_18 
REMARK    7  A    between atoms: C6_18  and  O7_19 
REMARK    8  A    between atoms: C7_21  and  O8_22 
REMARK    9  A    between atoms: C8_24  and  O9_25 
REMARK   10  A    between atoms: C9_27  and  O10_28 
ROOT
HETATM    1  C4  UNL     1      -0.957   3.435  83.789  1.00  0.00     0.290 C 
HETATM    2  O6  UNL     1      -0.470   2.197  84.272  1.00  0.00    -0.357 OA
HETATM    3  C5  UNL     1      -1.491   1.346  84.646  1.00  0.00     0.178 C 
HETATM    4  C7  UNL     1      -2.007   1.807  85.987  1.00  0.00     0.180 C 
HETATM    5  C8  UNL     1      -2.295   3.270  85.897  1.00  0.00     0.181 C 
HETATM    6  C9  UNL     1      -2.226   3.816  84.479  1.00  0.00     0.194 C 
ENDROOT
BRANCH   1   7
HETATM    7  S2  UNL     1      -1.086   3.268  82.048  1.00  0.00     0.241 S 
HETATM    8  O4  UNL     1      -2.169   2.276  81.670  1.00  0.00    -0.208 OA
HETATM    9  O5  UNL     1      -1.558   4.592  81.480  1.00  0.00    -0.208 OA
BRANCH   7  10
HETATM   10  N2  UNL     1       0.327   2.816  81.239  1.00  0.00    -0.206 NA
HETATM   11  C3  UNL     1       0.743   1.451  81.430  1.00  0.00     0.110 C 
HETATM   12  C2  UNL     1       2.152   1.421  80.843  1.00  0.00     0.050 C 
HETATM   13  C1  UNL     1       2.503   2.886  80.564  1.00  0.00     0.159 C 
HETATM   14  C10 UNL     1       1.501   3.573  81.507  1.00  0.00     0.140 C 
BRANCH  13  15
HETATM   15  O3  UNL     1       2.201   3.128  79.248  1.00  0.00    -0.253 OA
BRANCH  15  16
HETATM   16  S1  UNL     1       3.521   3.715  78.443  1.00  0.00     0.356 S 
HETATM   17  O1  UNL     1       3.499   5.221  78.529  1.00  0.00    -0.176 OA
HETATM   18  O2  UNL     1       4.772   3.260  79.141  1.00  0.00    -0.176 OA
BRANCH  16  19
HETATM   19  N1  UNL     1       3.617   3.234  76.811  1.00  0.00    -0.306 N 
ATOM     20  H12 UNL     1       3.588   3.875  76.019  1.00  0.00     0.171 HD
ATOM     21  H11 UNL     1       3.707   2.219  76.757  1.00  0.00     0.171 HD
ENDBRANCH  16  19
ENDBRANCH  15  16
ENDBRANCH  13  15
ENDBRANCH   7  10
ENDBRANCH   1   7
BRANCH   6  22
HETATM   22  O10 UNL     1      -3.360   3.516  83.756  1.00  0.00    -0.389 OA
ATOM     23  H10 UNL     1      -4.041   4.176  83.823  1.00  0.00     0.210 HD
ENDBRANCH   6  22
BRANCH   3  24
HETATM   24  C6  UNL     1      -0.899  -0.052  84.730  1.00  0.00     0.198 C 
BRANCH  24  25
HETATM   25  O7  UNL     1      -1.608  -0.727  85.739  1.00  0.00    -0.398 OA
ATOM     26  H7  UNL     1      -2.527  -0.529  85.602  1.00  0.00     0.209 HD
ENDBRANCH  24  25
ENDBRANCH   3  24
BRANCH   5  27
HETATM   27  O9  UNL     1      -3.583   3.496  86.375  1.00  0.00    -0.390 OA
ATOM     28  H9  UNL     1      -3.849   4.373  86.123  1.00  0.00     0.210 HD
ENDBRANCH   5  27
BRANCH   4  29
HETATM   29  O8  UNL     1      -0.962   1.619  86.910  1.00  0.00    -0.390 OA
ATOM     30  H8  UNL     1      -1.253   1.993  87.733  1.00  0.00     0.210 HD
ENDBRANCH   4  29
TORSDOF 10
ENDMDL
