MODEL 5
REMARK VINA RESULT: -6.470612029      2.409      4.918
REMARK  10 active torsions:
REMARK  status: ('A' for Active; 'I' for Inactive)
REMARK    1  A    between atoms: N1_1  and  S1_4 
REMARK    2  A    between atoms: S1_4  and  O3_7 
REMARK    3  A    between atoms: O3_7  and  C1_8 
REMARK    4  A    between atoms: N2_11  and  S2_12 
REMARK    5  A    between atoms: S2_12  and  C4_15 
REMARK    6  A    between atoms: C5_17  and  C6_18 
REMARK    7  A    between atoms: C6_18  and  O7_19 
REMARK    8  A    between atoms: C7_21  and  O8_22 
REMARK    9  A    between atoms: C8_24  and  O9_25 
REMARK   10  A    between atoms: C9_27  and  O10_28 
ROOT
HETATM    1  C4  UNL     1      -0.410   5.049  84.490  1.00  0.00     0.290 C 
HETATM    2  O6  UNL     1      -0.356   3.785  85.125  1.00  0.00    -0.357 OA
HETATM    3  C5  UNL     1      -1.140   2.846  84.485  1.00  0.00     0.178 C 
HETATM    4  C7  UNL     1      -2.577   3.113  84.862  1.00  0.00     0.180 C 
HETATM    5  C8  UNL     1      -2.860   4.560  84.625  1.00  0.00     0.181 C 
HETATM    6  C9  UNL     1      -1.751   5.280  83.874  1.00  0.00     0.194 C 
ENDROOT
BRANCH   1   7
HETATM    7  S2  UNL     1       0.935   5.093  83.366  1.00  0.00     0.241 S 
HETATM    8  O4  UNL     1       0.762   6.201  82.344  1.00  0.00    -0.208 OA
HETATM    9  O5  UNL     1       2.185   5.469  84.137  1.00  0.00    -0.208 OA
BRANCH   7  10
HETATM   10  N2  UNL     1       1.243   3.662  82.521  1.00  0.00    -0.206 NA
HETATM   11  C3  UNL     1       2.588   3.507  82.029  1.00  0.00     0.110 C 
HETATM   12  C2  UNL     1       2.489   2.307  81.090  1.00  0.00     0.050 C 
HETATM   13  C1  UNL     1       0.989   2.020  80.960  1.00  0.00     0.159 C 
HETATM   14  C10 UNL     1       0.430   3.387  81.387  1.00  0.00     0.140 C 
BRANCH  13  15
HETATM   15  O3  UNL     1       0.685   1.045  81.875  1.00  0.00    -0.253 OA
BRANCH  15  16
HETATM   16  S1  UNL     1      -0.592   0.132  81.356  1.00  0.00     0.356 S 
HETATM   17  O1  UNL     1      -0.196  -0.551  80.070  1.00  0.00    -0.176 OA
HETATM   18  O2  UNL     1      -0.865  -0.956  82.357  1.00  0.00    -0.176 OA
BRANCH  16  19
HETATM   19  N1  UNL     1      -2.032   1.011  81.121  1.00  0.00    -0.306 N 
ATOM     20  H12 UNL     1      -2.938   0.747  81.508  1.00  0.00     0.171 HD
ATOM     21  H11 UNL     1      -1.845   1.829  80.541  1.00  0.00     0.171 HD
ENDBRANCH  16  19
ENDBRANCH  15  16
ENDBRANCH  13  15
ENDBRANCH   7  10
ENDBRANCH   1   7
BRANCH   6  22
HETATM   22  O10 UNL     1      -1.791   5.018  82.522  1.00  0.00    -0.389 OA
ATOM     23  H10 UNL     1      -2.616   5.251  82.112  1.00  0.00     0.210 HD
ENDBRANCH   6  22
BRANCH   3  24
HETATM   24  C6  UNL     1      -0.684   1.479  84.969  1.00  0.00     0.198 C 
BRANCH  24  25
HETATM   25  O7  UNL     1       0.110   1.702  86.108  1.00  0.00    -0.398 OA
ATOM     26  H7  UNL     1       0.673   0.942  86.198  1.00  0.00     0.209 HD
ENDBRANCH  24  25
ENDBRANCH   3  24
BRANCH   5  27
HETATM   27  O9  UNL     1      -4.022   4.664  83.865  1.00  0.00    -0.390 OA
ATOM     28  H9  UNL     1      -4.568   3.907  84.044  1.00  0.00     0.210 HD
ENDBRANCH   5  27
BRANCH   4  29
HETATM   29  O8  UNL     1      -2.687   2.862  86.242  1.00  0.00    -0.390 OA
ATOM     30  H8  UNL     1      -3.611   2.743  86.426  1.00  0.00     0.210 HD
ENDBRANCH   4  29
TORSDOF 10
ENDMDL
