MODEL 10
REMARK VINA RESULT: -5.922429191      2.449      4.419
REMARK  3 active torsions:
REMARK  status: ('A' for Active; 'I' for Inactive)
REMARK    1  A    between atoms: C1_2  and  C2_4 
REMARK    2  A    between atoms: C5_7  and  N1_8 
REMARK    3  A    between atoms: C7_12  and  P1_13 
ROOT
HETATM    1  C2  UNL     1     136.874  -1.314 -54.505  1.00  0.00     0.060 A 
HETATM    2  C3  UNL     1     136.747  -0.827 -53.208  1.00  0.00     0.022 A 
HETATM    3  C4  UNL     1     135.610  -0.927 -52.444  1.00  0.00     0.037 A 
HETATM    4  C5  UNL     1     134.525  -1.554 -53.011  1.00  0.00     0.104 A 
HETATM    5  C6  UNL     1     134.595  -2.060 -54.304  1.00  0.00     0.058 A 
HETATM    6  C7  UNL     1     135.767  -1.936 -55.041  1.00  0.00     0.087 A 
ENDROOT
BRANCH   6   7
HETATM    7  P1  UNL     1     135.785  -2.608 -56.693  1.00  0.00     0.296 P 
HETATM    8  O5  UNL     1     134.511  -3.418 -56.951  1.00  0.00    -0.636 OA
HETATM    9  O6  UNL     1     135.761  -1.360 -57.835  1.00  0.00    -0.636 OA
HETATM   10  O7  UNL     1     137.073  -3.629 -56.964  1.00  0.00    -0.636 OA
ENDBRANCH   6   7
BRANCH   1  11
HETATM   11  C1  UNL     1     138.116  -1.166 -55.245  1.00  0.00     0.210 C 
HETATM   12  O1  UNL     1     138.276  -0.178 -55.972  1.00  0.00    -0.644 OA
HETATM   13  O2  UNL     1     139.097  -2.120 -55.130  1.00  0.00    -0.644 OA
ENDBRANCH   1  11
BRANCH   4  14
HETATM   14  N1  UNL     1     133.337  -1.681 -52.269  1.00  0.00    -0.116 N 
HETATM   15  O3  UNL     1     132.839  -0.748 -51.602  1.00  0.00    -0.532 OA
HETATM   16  O4  UNL     1     132.658  -2.876 -52.254  1.00  0.00    -0.532 OA
ENDBRANCH   4  14
TORSDOF 3
ENDMDL
