MODEL 8
REMARK VINA RESULT: -6.083501731      3.949      6.467
REMARK  3 active torsions:
REMARK  status: ('A' for Active; 'I' for Inactive)
REMARK    1  A    between atoms: C1_2  and  C2_4 
REMARK    2  A    between atoms: C5_7  and  N1_8 
REMARK    3  A    between atoms: C7_12  and  P1_13 
ROOT
HETATM    1  C2  UNL     1     134.324  -4.375 -53.322  1.00  0.00     0.060 A 
HETATM    2  C3  UNL     1     133.971  -5.397 -52.446  1.00  0.00     0.022 A 
HETATM    3  C4  UNL     1     134.549  -6.643 -52.427  1.00  0.00     0.037 A 
HETATM    4  C5  UNL     1     135.547  -6.888 -53.342  1.00  0.00     0.104 A 
HETATM    5  C6  UNL     1     135.940  -5.903 -54.240  1.00  0.00     0.058 A 
HETATM    6  C7  UNL     1     135.327  -4.655 -54.224  1.00  0.00     0.087 A 
ENDROOT
BRANCH   6   7
HETATM    7  P1  UNL     1     135.884  -3.441 -55.406  1.00  0.00     0.296 P 
HETATM    8  O5  UNL     1     137.133  -3.942 -56.134  1.00  0.00    -0.636 OA
HETATM    9  O6  UNL     1     134.720  -3.221 -56.614  1.00  0.00    -0.636 OA
HETATM   10  O7  UNL     1     136.283  -1.985 -54.701  1.00  0.00    -0.636 OA
ENDBRANCH   6   7
BRANCH   1  11
HETATM   11  C1  UNL     1     133.661  -3.084 -53.275  1.00  0.00     0.210 C 
HETATM   12  O1  UNL     1     132.684  -2.875 -54.006  1.00  0.00    -0.644 OA
HETATM   13  O2  UNL     1     134.121  -2.109 -52.423  1.00  0.00    -0.644 OA
ENDBRANCH   1  11
BRANCH   4  14
HETATM   14  N1  UNL     1     136.169  -8.148 -53.362  1.00  0.00    -0.116 N 
HETATM   15  O3  UNL     1     136.685  -8.645 -54.388  1.00  0.00    -0.532 OA
HETATM   16  O4  UNL     1     136.237  -8.903 -52.216  1.00  0.00    -0.532 OA
ENDBRANCH   4  14
TORSDOF 3
ENDMDL
