MODEL 6
REMARK VINA RESULT: -6.328925374      2.187      3.544
REMARK  3 active torsions:
REMARK  status: ('A' for Active; 'I' for Inactive)
REMARK    1  A    between atoms: C1_2  and  C2_4 
REMARK    2  A    between atoms: C5_7  and  N1_8 
REMARK    3  A    between atoms: C7_12  and  P1_13 
ROOT
HETATM    1  C2  UNL     1     136.611  -0.987 -55.070  1.00  0.00     0.060 A 
HETATM    2  C3  UNL     1     136.643   0.256 -54.445  1.00  0.00     0.022 A 
HETATM    3  C4  UNL     1     135.879   0.602 -53.357  1.00  0.00     0.037 A 
HETATM    4  C5  UNL     1     135.026  -0.354 -52.857  1.00  0.00     0.104 A 
HETATM    5  C6  UNL     1     134.953  -1.613 -53.442  1.00  0.00     0.058 A 
HETATM    6  C7  UNL     1     135.746  -1.920 -54.543  1.00  0.00     0.087 A 
ENDROOT
BRANCH   6   7
HETATM    7  P1  UNL     1     135.599  -3.554 -55.241  1.00  0.00     0.296 P 
HETATM    8  O5  UNL     1     134.680  -4.421 -54.377  1.00  0.00    -0.636 OA
HETATM    9  O6  UNL     1     134.851  -3.481 -56.757  1.00  0.00    -0.636 OA
HETATM   10  O7  UNL     1     137.060  -4.348 -55.345  1.00  0.00    -0.636 OA
ENDBRANCH   6   7
BRANCH   1  11
HETATM   11  C1  UNL     1     137.454  -1.271 -56.218  1.00  0.00     0.210 C 
HETATM   12  O1  UNL     1     137.023  -1.054 -57.358  1.00  0.00    -0.644 OA
HETATM   13  O2  UNL     1     138.718  -1.776 -56.030  1.00  0.00    -0.644 OA
ENDBRANCH   1  11
BRANCH   4  14
HETATM   14  N1  UNL     1     134.222  -0.048 -51.745  1.00  0.00    -0.116 N 
HETATM   15  O3  UNL     1     134.625   0.624 -50.769  1.00  0.00    -0.532 OA
HETATM   16  O4  UNL     1     132.923  -0.489 -51.690  1.00  0.00    -0.532 OA
ENDBRANCH   4  14
TORSDOF 3
ENDMDL
