MODEL 17
REMARK VINA RESULT: -8.284891997      1.446      1.752
REMARK  7 active torsions:
REMARK  status: ('A' for Active; 'I' for Inactive)
REMARK    1  A    between atoms: C2_2  and  O1_5 
REMARK    2  A    between atoms: O1_5  and  C5_6 
REMARK       I    between atoms: C5_6  and  N1_8 
REMARK    3  A    between atoms: N1_8  and  C6_10 
REMARK    4  A    between atoms: C6_10  and  C7_11 
REMARK    5  A    between atoms: C6_10  and  C8_17 
REMARK       I    between atoms: C7_11  and  N2_13 
REMARK    6  A    between atoms: N2_13  and  O4_15 
REMARK    7  A    between atoms: C11_20  and  N3_21 
ROOT
HETATM    1  C6  UNL     1      12.943  11.042  12.714  1.00  0.00     0.214 C 
ENDROOT
BRANCH   1   2
HETATM    2  N1  UNL     1      14.370  10.863  12.584  1.00  0.00    -0.319 N 
HETATM    3  C5  UNL     1      14.965  10.468  11.379  1.00  0.00     0.362 C 
HETATM    4  O2  UNL     1      14.189  10.272  10.393  1.00  0.00    -0.238 OA
ATOM      5  H1  UNL     1      14.963  11.030  13.397  1.00  0.00     0.166 HD
BRANCH   3   6
HETATM    6  O1  UNL     1      16.349  10.287  11.225  1.00  0.00    -0.294 OA
BRANCH   6   7
HETATM    7  C2  UNL     1      16.910   9.017  11.006  1.00  0.00     0.061 C 
HETATM    8  C1  UNL     1      17.491   8.530  12.301  1.00  0.00     0.046 C 
HETATM    9  C3  UNL     1      15.917   8.010  10.509  1.00  0.00     0.046 C 
HETATM   10  C4  UNL     1      18.021   9.175   9.983  1.00  0.00     0.046 C 
ENDBRANCH   6   7
ENDBRANCH   3   6
ENDBRANCH   1   2
BRANCH   1  11
HETATM   11  C7  UNL     1      12.376  12.056  11.832  1.00  0.00     0.268 C 
HETATM   12  O3  UNL     1      11.188  11.911  11.423  1.00  0.00    -0.269 OA
HETATM   13  N2  UNL     1      13.139  13.178  11.446  1.00  0.00    -0.235 N 
ATOM     14  H2  UNL     1      14.096  13.300  11.776  1.00  0.00     0.197 HD
BRANCH  13  15
HETATM   15  O4  UNL     1      12.562  14.091  10.624  1.00  0.00    -0.287 OA
ATOM     16  H4  UNL     1      13.069  14.856  10.378  1.00  0.00     0.244 HD
ENDBRANCH  13  15
ENDBRANCH   1  11
BRANCH   1  17
HETATM   17  C8  UNL     1      12.618  11.226  14.158  1.00  0.00    -0.026 A 
HETATM   18  C9  UNL     1      11.887  12.277  14.662  1.00  0.00     0.012 A 
HETATM   19  C10 UNL     1      11.624  12.361  16.029  1.00  0.00     0.032 A 
HETATM   20  C11 UNL     1      12.070  11.419  16.931  1.00  0.00     0.056 A 
HETATM   21  C15 UNL     1      12.804  10.365  16.422  1.00  0.00     0.032 A 
HETATM   22  C16 UNL     1      13.065  10.281  15.074  1.00  0.00     0.012 A 
BRANCH  20  23
HETATM   23  N3  UNL     1      11.789  11.523  18.332  1.00  0.00    -0.268 N 
HETATM   24  C12 UNL     1      10.923  10.799  19.024  1.00  0.00     0.118 A 
HETATM   25  C13 UNL     1      10.960  11.219  20.352  1.00  0.00     0.038 A 
HETATM   26  C14 UNL     1      11.890  12.225  20.404  1.00  0.00     0.109 A 
HETATM   27  N4  UNL     1      12.362  12.370  19.161  1.00  0.00    -0.305 N 
ATOM     28  H4  UNL     1      13.073  13.048  18.889  1.00  0.00     0.186 HD
ENDBRANCH  20  23
ENDBRANCH   1  17
TORSDOF 7
ENDMDL
