MODEL 7
REMARK VINA RESULT: -9.122656920      2.671      6.894
REMARK  7 active torsions:
REMARK  status: ('A' for Active; 'I' for Inactive)
REMARK    1  A    between atoms: C2_2  and  O1_5 
REMARK    2  A    between atoms: O1_5  and  C5_6 
REMARK       I    between atoms: C5_6  and  N1_8 
REMARK    3  A    between atoms: N1_8  and  C6_10 
REMARK    4  A    between atoms: C6_10  and  C7_11 
REMARK    5  A    between atoms: C6_10  and  C8_17 
REMARK       I    between atoms: C7_11  and  N2_13 
REMARK    6  A    between atoms: N2_13  and  O4_15 
REMARK    7  A    between atoms: C11_20  and  N3_21 
ROOT
HETATM    1  C6  UNL     1      12.849  11.824  13.132  1.00  0.00     0.214 C 
ENDROOT
BRANCH   1   2
HETATM    2  N1  UNL     1      12.147  11.596  14.373  1.00  0.00    -0.319 N 
HETATM    3  C5  UNL     1      12.327  12.419  15.493  1.00  0.00     0.362 C 
HETATM    4  O2  UNL     1      13.142  13.384  15.370  1.00  0.00    -0.238 OA
ATOM      5  H1  UNL     1      11.499  10.811  14.435  1.00  0.00     0.166 HD
BRANCH   3   6
HETATM    6  O1  UNL     1      11.658  12.220  16.711  1.00  0.00    -0.294 OA
BRANCH   6   7
HETATM    7  C2  UNL     1      12.189  11.403  17.723  1.00  0.00     0.061 C 
HETATM    8  C1  UNL     1      11.095  11.104  18.707  1.00  0.00     0.046 C 
HETATM    9  C3  UNL     1      12.747  10.111  17.209  1.00  0.00     0.046 C 
HETATM   10  C4  UNL     1      13.290  12.186  18.417  1.00  0.00     0.046 C 
ENDBRANCH   6   7
ENDBRANCH   3   6
ENDBRANCH   1   2
BRANCH   1  11
HETATM   11  C7  UNL     1      11.988  11.944  11.961  1.00  0.00     0.268 C 
HETATM   12  O3  UNL     1      12.144  11.130  11.005  1.00  0.00    -0.269 OA
HETATM   13  N2  UNL     1      10.999  12.948  11.898  1.00  0.00    -0.235 N 
ATOM     14  H2  UNL     1      10.868  13.604  12.668  1.00  0.00     0.197 HD
BRANCH  13  15
HETATM   15  O4  UNL     1      10.226  13.015  10.784  1.00  0.00    -0.287 OA
ATOM     16  H4  UNL     1       9.283  13.042  10.895  1.00  0.00     0.244 HD
ENDBRANCH  13  15
ENDBRANCH   1  11
BRANCH   1  17
HETATM   17  C8  UNL     1      13.928  10.803  13.004  1.00  0.00    -0.026 A 
HETATM   18  C9  UNL     1      13.918   9.579  13.631  1.00  0.00     0.012 A 
HETATM   19  C10 UNL     1      14.970   8.682  13.444  1.00  0.00     0.032 A 
HETATM   20  C11 UNL     1      16.053   8.964  12.640  1.00  0.00     0.056 A 
HETATM   21  C15 UNL     1      16.061  10.195  12.012  1.00  0.00     0.032 A 
HETATM   22  C16 UNL     1      15.025  11.081  12.196  1.00  0.00     0.012 A 
BRANCH  20  23
HETATM   23  N3  UNL     1      17.124   8.029  12.460  1.00  0.00    -0.268 N 
HETATM   24  C12 UNL     1      18.045   7.696  13.352  1.00  0.00     0.118 A 
HETATM   25  C13 UNL     1      18.896   6.756  12.774  1.00  0.00     0.038 A 
HETATM   26  C14 UNL     1      18.429   6.556  11.500  1.00  0.00     0.109 A 
HETATM   27  N4  UNL     1      17.359   7.346  11.361  1.00  0.00    -0.305 N 
ATOM     28  H4  UNL     1      16.797   7.411  10.512  1.00  0.00     0.186 HD
ENDBRANCH  20  23
ENDBRANCH   1  17
TORSDOF 7
ENDMDL
