MODEL 6
REMARK VINA RESULT: -9.165786685      1.561      1.740
REMARK  7 active torsions:
REMARK  status: ('A' for Active; 'I' for Inactive)
REMARK    1  A    between atoms: C2_2  and  O1_5 
REMARK    2  A    between atoms: O1_5  and  C5_6 
REMARK       I    between atoms: C5_6  and  N1_8 
REMARK    3  A    between atoms: N1_8  and  C6_10 
REMARK    4  A    between atoms: C6_10  and  C7_11 
REMARK    5  A    between atoms: C6_10  and  C8_17 
REMARK       I    between atoms: C7_11  and  N2_13 
REMARK    6  A    between atoms: N2_13  and  O4_15 
REMARK    7  A    between atoms: C11_20  and  N3_21 
ROOT
HETATM    1  C6  UNL     1      12.618  11.373  12.505  1.00  0.00     0.214 C 
ENDROOT
BRANCH   1   2
HETATM    2  N1  UNL     1      14.046  11.352  12.293  1.00  0.00    -0.319 N 
HETATM    3  C5  UNL     1      14.620  10.808  11.135  1.00  0.00     0.362 C 
HETATM    4  O2  UNL     1      13.823  10.330  10.271  1.00  0.00    -0.238 OA
ATOM      5  H1  UNL     1      14.656  11.745  13.009  1.00  0.00     0.166 HD
BRANCH   3   6
HETATM    6  O1  UNL     1      16.004  10.775  10.903  1.00  0.00    -0.294 OA
BRANCH   6   7
HETATM    7  C2  UNL     1      16.708   9.564  10.793  1.00  0.00     0.061 C 
HETATM    8  C1  UNL     1      16.951   9.034  12.177  1.00  0.00     0.046 C 
HETATM    9  C3  UNL     1      15.978   8.526   9.997  1.00  0.00     0.046 C 
HETATM   10  C4  UNL     1      18.039   9.864  10.128  1.00  0.00     0.046 C 
ENDBRANCH   6   7
ENDBRANCH   3   6
ENDBRANCH   1   2
BRANCH   1  11
HETATM   11  C7  UNL     1      11.921  12.463  11.833  1.00  0.00     0.268 C 
HETATM   12  O3  UNL     1      12.598  13.427  11.373  1.00  0.00    -0.269 OA
HETATM   13  N2  UNL     1      10.517  12.439  11.698  1.00  0.00    -0.235 N 
ATOM     14  H2  UNL     1       9.967  11.663  12.065  1.00  0.00     0.197 HD
BRANCH  13  15
HETATM   15  O4  UNL     1       9.918  13.480  11.064  1.00  0.00    -0.287 OA
ATOM     16  H4  UNL     1       9.755  14.273  11.561  1.00  0.00     0.244 HD
ENDBRANCH  13  15
ENDBRANCH   1  11
BRANCH   1  17
HETATM   17  C8  UNL     1      12.356  11.280  13.970  1.00  0.00    -0.026 A 
HETATM   18  C9  UNL     1      11.522  12.124  14.665  1.00  0.00     0.012 A 
HETATM   19  C10 UNL     1      11.330  11.955  16.036  1.00  0.00     0.032 A 
HETATM   20  C11 UNL     1      11.949  10.955  16.755  1.00  0.00     0.056 A 
HETATM   21  C15 UNL     1      12.786  10.108  16.055  1.00  0.00     0.032 A 
HETATM   22  C16 UNL     1      12.978  10.275  14.703  1.00  0.00     0.012 A 
BRANCH  20  23
HETATM   23  N3  UNL     1      11.738  10.797  18.164  1.00  0.00    -0.268 N 
HETATM   24  C12 UNL     1      11.899   9.689  18.871  1.00  0.00     0.118 A 
HETATM   25  C13 UNL     1      11.591   9.968  20.201  1.00  0.00     0.038 A 
HETATM   26  C14 UNL     1      11.240  11.293  20.238  1.00  0.00     0.109 A 
HETATM   27  N4  UNL     1      11.346  11.748  18.984  1.00  0.00    -0.305 N 
ATOM     28  H4  UNL     1      11.149  12.707  18.701  1.00  0.00     0.186 HD
ENDBRANCH  20  23
ENDBRANCH   1  17
TORSDOF 7
ENDMDL
