MODEL 4
REMARK VINA RESULT: -9.230052724      2.691      7.211
REMARK  7 active torsions:
REMARK  status: ('A' for Active; 'I' for Inactive)
REMARK    1  A    between atoms: C2_2  and  O1_5 
REMARK    2  A    between atoms: O1_5  and  C5_6 
REMARK       I    between atoms: C5_6  and  N1_8 
REMARK    3  A    between atoms: N1_8  and  C6_10 
REMARK    4  A    between atoms: C6_10  and  C7_11 
REMARK    5  A    between atoms: C6_10  and  C8_17 
REMARK       I    between atoms: C7_11  and  N2_13 
REMARK    6  A    between atoms: N2_13  and  O4_15 
REMARK    7  A    between atoms: C11_20  and  N3_21 
ROOT
HETATM    1  C6  UNL     1      12.926  12.062  13.248  1.00  0.00     0.214 C 
ENDROOT
BRANCH   1   2
HETATM    2  N1  UNL     1      12.183  11.757  14.447  1.00  0.00    -0.319 N 
HETATM    3  C5  UNL     1      12.323  12.508  15.623  1.00  0.00     0.362 C 
HETATM    4  O2  UNL     1      13.139  13.480  15.587  1.00  0.00    -0.238 OA
ATOM      5  H1  UNL     1      11.536  10.969  14.439  1.00  0.00     0.166 HD
BRANCH   3   6
HETATM    6  O1  UNL     1      11.613  12.234  16.802  1.00  0.00    -0.294 OA
BRANCH   6   7
HETATM    7  C2  UNL     1      12.139  11.404  17.806  1.00  0.00     0.061 C 
HETATM    8  C1  UNL     1      11.042  11.099  18.785  1.00  0.00     0.046 C 
HETATM    9  C3  UNL     1      12.692  10.115  17.279  1.00  0.00     0.046 C 
HETATM   10  C4  UNL     1      13.242  12.174  18.510  1.00  0.00     0.046 C 
ENDBRANCH   6   7
ENDBRANCH   3   6
ENDBRANCH   1   2
BRANCH   1  11
HETATM   11  C7  UNL     1      12.146  12.707  12.199  1.00  0.00     0.268 C 
HETATM   12  O3  UNL     1      12.742  13.455  11.370  1.00  0.00    -0.269 OA
HETATM   13  N2  UNL     1      10.754  12.499  12.109  1.00  0.00    -0.235 N 
ATOM     14  H2  UNL     1      10.270  11.895  12.773  1.00  0.00     0.197 HD
BRANCH  13  15
HETATM   15  O4  UNL     1      10.076  13.125  11.113  1.00  0.00    -0.287 OA
ATOM     16  H4  UNL     1      10.260  12.870  10.217  1.00  0.00     0.244 HD
ENDBRANCH  13  15
ENDBRANCH   1  11
BRANCH   1  17
HETATM   17  C8  UNL     1      13.649  10.832  12.813  1.00  0.00    -0.026 A 
HETATM   18  C9  UNL     1      13.949   9.774  13.639  1.00  0.00     0.012 A 
HETATM   19  C10 UNL     1      14.621   8.659  13.140  1.00  0.00     0.032 A 
HETATM   20  C11 UNL     1      15.014   8.554  11.824  1.00  0.00     0.056 A 
HETATM   21  C15 UNL     1      14.711   9.619  10.996  1.00  0.00     0.032 A 
HETATM   22  C16 UNL     1      14.050  10.720  11.486  1.00  0.00     0.012 A 
BRANCH  20  23
HETATM   23  N3  UNL     1      15.704   7.400  11.330  1.00  0.00    -0.268 N 
HETATM   24  C12 UNL     1      15.474   6.137  11.657  1.00  0.00     0.118 A 
HETATM   25  C13 UNL     1      16.365   5.331  10.951  1.00  0.00     0.038 A 
HETATM   26  C14 UNL     1      17.128   6.183  10.194  1.00  0.00     0.109 A 
HETATM   27  N4  UNL     1      16.689   7.419  10.459  1.00  0.00    -0.305 N 
ATOM     28  H4  UNL     1      17.069   8.267  10.039  1.00  0.00     0.186 HD
ENDBRANCH  20  23
ENDBRANCH   1  17
TORSDOF 7
ENDMDL
