MODEL 2
REMARK VINA RESULT: -9.290398950      2.691      7.116
REMARK  7 active torsions:
REMARK  status: ('A' for Active; 'I' for Inactive)
REMARK    1  A    between atoms: C2_2  and  O1_5 
REMARK    2  A    between atoms: O1_5  and  C5_6 
REMARK       I    between atoms: C5_6  and  N1_8 
REMARK    3  A    between atoms: N1_8  and  C6_10 
REMARK    4  A    between atoms: C6_10  and  C7_11 
REMARK    5  A    between atoms: C6_10  and  C8_17 
REMARK       I    between atoms: C7_11  and  N2_13 
REMARK    6  A    between atoms: N2_13  and  O4_15 
REMARK    7  A    between atoms: C11_20  and  N3_21 
ROOT
HETATM    1  C6  UNL     1      12.856  12.076  13.168  1.00  0.00     0.214 C 
ENDROOT
BRANCH   1   2
HETATM    2  N1  UNL     1      12.112  11.714  14.351  1.00  0.00    -0.319 N 
HETATM    3  C5  UNL     1      12.215  12.438  15.547  1.00  0.00     0.362 C 
HETATM    4  O2  UNL     1      12.998  13.437  15.547  1.00  0.00    -0.238 OA
ATOM      5  H1  UNL     1      11.492  10.905  14.315  1.00  0.00     0.166 HD
BRANCH   3   6
HETATM    6  O1  UNL     1      11.503  12.108  16.711  1.00  0.00    -0.294 OA
BRANCH   6   7
HETATM    7  C2  UNL     1      12.099  11.400  17.768  1.00  0.00     0.061 C 
HETATM    8  C1  UNL     1      12.625  10.102  17.226  1.00  0.00     0.046 C 
HETATM    9  C3  UNL     1      13.224  12.145  18.420  1.00  0.00     0.046 C 
HETATM   10  C4  UNL     1      11.021  11.115  18.798  1.00  0.00     0.046 C 
ENDBRANCH   6   7
ENDBRANCH   3   6
ENDBRANCH   1   2
BRANCH   1  11
HETATM   11  C7  UNL     1      12.072  12.750  12.141  1.00  0.00     0.268 C 
HETATM   12  O3  UNL     1      12.665  13.515  11.326  1.00  0.00    -0.269 OA
HETATM   13  N2  UNL     1      10.678  12.550  12.056  1.00  0.00    -0.235 N 
ATOM     14  H2  UNL     1      10.196  11.932  12.709  1.00  0.00     0.197 HD
BRANCH  13  15
HETATM   15  O4  UNL     1       9.996  13.202  11.080  1.00  0.00    -0.287 OA
ATOM     16  H4  UNL     1       9.369  13.867  11.340  1.00  0.00     0.244 HD
ENDBRANCH  13  15
ENDBRANCH   1  11
BRANCH   1  17
HETATM   17  C8  UNL     1      13.599  10.874  12.691  1.00  0.00    -0.026 A 
HETATM   18  C9  UNL     1      14.004  10.677  11.391  1.00  0.00     0.012 A 
HETATM   19  C10 UNL     1      14.704   9.524  11.038  1.00  0.00     0.032 A 
HETATM   20  C11 UNL     1      15.025   8.541  11.949  1.00  0.00     0.056 A 
HETATM   21  C15 UNL     1      14.617   8.741  13.254  1.00  0.00     0.032 A 
HETATM   22  C16 UNL     1      13.925   9.877  13.603  1.00  0.00     0.012 A 
BRANCH  20  23
HETATM   23  N3  UNL     1      15.746   7.362  11.567  1.00  0.00    -0.268 N 
HETATM   24  C12 UNL     1      15.391   6.107  11.792  1.00  0.00     0.118 A 
HETATM   25  C13 UNL     1      16.370   5.271  11.257  1.00  0.00     0.038 A 
HETATM   26  C14 UNL     1      17.315   6.099  10.709  1.00  0.00     0.109 A 
HETATM   27  N4  UNL     1      16.892   7.350  10.921  1.00  0.00    -0.305 N 
ATOM     28  H4  UNL     1      17.393   8.187  10.622  1.00  0.00     0.186 HD
ENDBRANCH  20  23
ENDBRANCH   1  17
TORSDOF 7
ENDMDL
