MODEL 5
REMARK VINA RESULT: -9.224056220      1.606      1.855
REMARK  7 active torsions:
REMARK  status: ('A' for Active; 'I' for Inactive)
REMARK    1  A    between atoms: C2_2  and  O1_5 
REMARK    2  A    between atoms: O1_5  and  C5_6 
REMARK       I    between atoms: C5_6  and  N1_8 
REMARK    3  A    between atoms: N1_8  and  C6_10 
REMARK    4  A    between atoms: C6_10  and  C7_11 
REMARK    5  A    between atoms: C6_10  and  C8_17 
REMARK       I    between atoms: C7_11  and  N2_13 
REMARK    6  A    between atoms: N2_13  and  O4_15 
REMARK    7  A    between atoms: C11_20  and  N3_21 
ROOT
HETATM    1  C6  UNL     1      12.741  11.373  12.359  1.00  0.00     0.214 C 
ENDROOT
BRANCH   1   2
HETATM    2  N1  UNL     1      14.163  11.427  12.115  1.00  0.00    -0.319 N 
HETATM    3  C5  UNL     1      14.749  10.835  10.987  1.00  0.00     0.362 C 
HETATM    4  O2  UNL     1      13.968  10.243  10.180  1.00  0.00    -0.238 OA
ATOM      5  H1  UNL     1      14.760  11.911  12.785  1.00  0.00     0.166 HD
BRANCH   3   6
HETATM    6  O1  UNL     1      16.127  10.873  10.725  1.00  0.00    -0.294 OA
BRANCH   6   7
HETATM    7  C2  UNL     1      16.745   9.943   9.872  1.00  0.00     0.061 C 
HETATM    8  C1  UNL     1      18.162   9.755  10.330  1.00  0.00     0.046 C 
HETATM    9  C3  UNL     1      16.060   8.610   9.855  1.00  0.00     0.046 C 
HETATM   10  C4  UNL     1      16.741  10.528   8.471  1.00  0.00     0.046 C 
ENDBRANCH   6   7
ENDBRANCH   3   6
ENDBRANCH   1   2
BRANCH   1  11
HETATM   11  C7  UNL     1      11.986  12.488  11.801  1.00  0.00     0.268 C 
HETATM   12  O3  UNL     1      12.615  13.519  11.421  1.00  0.00    -0.269 OA
HETATM   13  N2  UNL     1      10.582  12.417  11.684  1.00  0.00    -0.235 N 
ATOM     14  H2  UNL     1      10.073  11.587  11.986  1.00  0.00     0.197 HD
BRANCH  13  15
HETATM   15  O4  UNL     1       9.929  13.485  11.158  1.00  0.00    -0.287 OA
ATOM     16  H4  UNL     1       9.590  13.411  10.274  1.00  0.00     0.244 HD
ENDBRANCH  13  15
ENDBRANCH   1  11
BRANCH   1  17
HETATM   17  C8  UNL     1      12.519  11.143  13.816  1.00  0.00    -0.026 A 
HETATM   18  C9  UNL     1      13.123  10.146  14.546  1.00  0.00     0.012 A 
HETATM   19  C10 UNL     1      12.862  10.014  15.910  1.00  0.00     0.032 A 
HETATM   20  C11 UNL     1      12.006  10.855  16.587  1.00  0.00     0.056 A 
HETATM   21  C15 UNL     1      11.400  11.855  15.852  1.00  0.00     0.032 A 
HETATM   22  C16 UNL     1      11.656  11.986  14.507  1.00  0.00     0.012 A 
BRANCH  20  23
HETATM   23  N3  UNL     1      11.750  10.703  17.989  1.00  0.00    -0.268 N 
HETATM   24  C12 UNL     1      12.115   9.687  18.757  1.00  0.00     0.118 A 
HETATM   25  C13 UNL     1      11.669   9.935  20.054  1.00  0.00     0.038 A 
HETATM   26  C14 UNL     1      11.026  11.146  20.008  1.00  0.00     0.109 A 
HETATM   27  N4  UNL     1      11.103  11.567  18.741  1.00  0.00    -0.305 N 
ATOM     28  H4  UNL     1      10.711  12.445  18.401  1.00  0.00     0.186 HD
ENDBRANCH  20  23
ENDBRANCH   1  17
TORSDOF 7
ENDMDL
