MODEL 1
REMARK VINA RESULT: -9.368603080      0.000      0.000
REMARK  7 active torsions:
REMARK  status: ('A' for Active; 'I' for Inactive)
REMARK    1  A    between atoms: C2_2  and  O1_5 
REMARK    2  A    between atoms: O1_5  and  C5_6 
REMARK       I    between atoms: C5_6  and  N1_8 
REMARK    3  A    between atoms: N1_8  and  C6_10 
REMARK    4  A    between atoms: C6_10  and  C7_11 
REMARK    5  A    between atoms: C6_10  and  C8_17 
REMARK       I    between atoms: C7_11  and  N2_13 
REMARK    6  A    between atoms: N2_13  and  O4_15 
REMARK    7  A    between atoms: C11_20  and  N3_21 
ROOT
HETATM    1  C6  UNL     1      12.998  11.189  12.329  1.00  0.00     0.214 C 
ENDROOT
BRANCH   1   2
HETATM    2  N1  UNL     1      14.361  11.142  11.858  1.00  0.00    -0.319 N 
HETATM    3  C5  UNL     1      15.110   9.956  11.860  1.00  0.00     0.362 C 
HETATM    4  O2  UNL     1      14.532   8.914  12.297  1.00  0.00    -0.238 OA
ATOM      5  H1  UNL     1      14.794  11.999  11.514  1.00  0.00     0.166 HD
BRANCH   3   6
HETATM    6  O1  UNL     1      16.437   9.883  11.408  1.00  0.00    -0.294 OA
BRANCH   6   7
HETATM    7  C2  UNL     1      16.747   9.671  10.054  1.00  0.00     0.061 C 
HETATM    8  C1  UNL     1      17.847   8.652   9.977  1.00  0.00     0.046 C 
HETATM    9  C3  UNL     1      15.580   9.186   9.248  1.00  0.00     0.046 C 
HETATM   10  C4  UNL     1      17.240  10.988   9.482  1.00  0.00     0.046 C 
ENDBRANCH   6   7
ENDBRANCH   3   6
ENDBRANCH   1   2
BRANCH   1  11
HETATM   11  C7  UNL     1      12.095  11.974  11.496  1.00  0.00     0.268 C 
HETATM   12  O3  UNL     1      12.439  12.240  10.308  1.00  0.00    -0.269 OA
HETATM   13  N2  UNL     1      10.860  12.427  12.006  1.00  0.00    -0.235 N 
ATOM     14  H2  UNL     1      10.578  12.213  12.963  1.00  0.00     0.197 HD
BRANCH  13  15
HETATM   15  O4  UNL     1      10.058  13.155  11.188  1.00  0.00    -0.287 OA
ATOM     16  H4  UNL     1       9.789  14.019  11.477  1.00  0.00     0.244 HD
ENDBRANCH  13  15
ENDBRANCH   1  11
BRANCH   1  17
HETATM   17  C8  UNL     1      13.007  11.578  13.769  1.00  0.00    -0.026 A 
HETATM   18  C9  UNL     1      13.178  12.864  14.225  1.00  0.00     0.012 A 
HETATM   19  C10 UNL     1      13.162  13.134  15.593  1.00  0.00     0.032 A 
HETATM   20  C11 UNL     1      12.978  12.153  16.543  1.00  0.00     0.056 A 
HETATM   21  C15 UNL     1      12.806  10.862  16.082  1.00  0.00     0.032 A 
HETATM   22  C16 UNL     1      12.823  10.593  14.733  1.00  0.00     0.012 A 
BRANCH  20  23
HETATM   23  N3  UNL     1      12.964  12.451  17.945  1.00  0.00    -0.268 N 
HETATM   24  C12 UNL     1      13.872  13.141  18.618  1.00  0.00     0.118 A 
HETATM   25  C13 UNL     1      13.479  13.198  19.954  1.00  0.00     0.038 A 
HETATM   26  C14 UNL     1      12.296  12.508  20.030  1.00  0.00     0.109 A 
HETATM   27  N4  UNL     1      12.029  12.078  18.791  1.00  0.00    -0.305 N 
ATOM     28  H4  UNL     1      11.207  11.532  18.536  1.00  0.00     0.186 HD
ENDBRANCH  20  23
ENDBRANCH   1  17
TORSDOF 7
ENDMDL
