MODEL 3
REMARK VINA RESULT: -8.966507637      1.090      1.874
REMARK  7 active torsions:
REMARK  status: ('A' for Active; 'I' for Inactive)
REMARK    1  A    between atoms: O1_1  and  C1_3 
REMARK    2  A    between atoms: C2_4  and  O2_5 
REMARK    3  A    between atoms: C3_7  and  O3_8 
REMARK    4  A    between atoms: C4_10  and  O4_11 
REMARK    5  A    between atoms: C5_14  and  C6_15 
REMARK    6  A    between atoms: C6_15  and  O6_16 
REMARK    7  A    between atoms: O6_16  and  P1_17 
ROOT
HETATM    1  C1  UNL     1      13.925  24.810  48.625  1.00  0.00     0.180 C 
HETATM    2  C2  UNL     1      13.331  23.475  49.026  1.00  0.00     0.183 C 
HETATM    3  C3  UNL     1      11.878  23.448  48.656  1.00  0.00     0.204 C 
HETATM    4  C4  UNL     1      11.219  24.669  49.263  1.00  0.00     0.288 C 
HETATM    5  O5  UNL     1      11.824  25.821  48.743  1.00  0.00    -0.349 OA
HETATM    6  C5  UNL     1      13.110  25.876  49.318  1.00  0.00     0.180 C 
ENDROOT
BRANCH   6   7
HETATM    7  C6  UNL     1      13.705  27.207  49.324  1.00  0.00     0.217 C 
BRANCH   7   8
HETATM    8  O6  UNL     1      14.272  27.573  50.567  1.00  0.00    -0.280 OA
BRANCH   8   9
HETATM    9  P1  UNL     1      15.782  27.803  50.479  1.00  0.00     0.422 P 
HETATM   10  O7  UNL     1      15.605  29.202  51.354  1.00  0.00    -0.617 OA
HETATM   11  O8  UNL     1      15.793  27.911  48.850  1.00  0.00    -0.617 OA
HETATM   12  O9  UNL     1      16.103  26.371  51.227  1.00  0.00    -0.617 OA
ENDBRANCH   8   9
ENDBRANCH   7   8
ENDBRANCH   6   7
BRANCH   1  13
HETATM   13  O1  UNL     1      15.225  24.848  49.094  1.00  0.00    -0.390 OA
ATOM     14  H1  UNL     1      15.767  24.367  48.479  1.00  0.00     0.210 HD
ENDBRANCH   1  13
BRANCH   2  15
HETATM   15  O2  UNL     1      14.044  22.409  48.487  1.00  0.00    -0.390 OA
ATOM     16  H2  UNL     1      14.089  21.675  49.087  1.00  0.00     0.210 HD
ENDBRANCH   2  15
BRANCH   4  17
HETATM   17  O4  UNL     1       9.864  24.642  49.042  1.00  0.00    -0.369 OA
ATOM     18  H4  UNL     1       9.399  25.007  49.786  1.00  0.00     0.212 HD
ENDBRANCH   4  17
BRANCH   3  19
HETATM   19  O3  UNL     1      11.264  22.302  49.160  1.00  0.00    -0.388 OA
ATOM     20  H3  UNL     1      10.496  22.081  48.647  1.00  0.00     0.210 HD
ENDBRANCH   3  19
TORSDOF 7
ENDMDL
