MODEL 12
REMARK VINA RESULT: -7.567783375      2.352      5.778
REMARK  7 active torsions:
REMARK  status: ('A' for Active; 'I' for Inactive)
REMARK    1  A    between atoms: O1_1  and  C1_3 
REMARK    2  A    between atoms: C2_4  and  O2_5 
REMARK    3  A    between atoms: C3_7  and  O3_8 
REMARK    4  A    between atoms: C4_10  and  O4_11 
REMARK    5  A    between atoms: C5_14  and  C6_15 
REMARK    6  A    between atoms: C6_15  and  O6_16 
REMARK    7  A    between atoms: O6_16  and  P1_17 
ROOT
HETATM    1  C1  UNL     1      12.991  27.243  50.075  1.00  0.00     0.180 C 
HETATM    2  C2  UNL     1      14.332  27.444  50.752  1.00  0.00     0.183 C 
HETATM    3  C3  UNL     1      15.428  27.256  49.747  1.00  0.00     0.204 C 
HETATM    4  C4  UNL     1      15.224  25.911  49.081  1.00  0.00     0.288 C 
HETATM    5  O5  UNL     1      13.980  25.903  48.438  1.00  0.00    -0.349 OA
HETATM    6  C5  UNL     1      13.014  25.862  49.465  1.00  0.00     0.180 C 
ENDROOT
BRANCH   6   7
HETATM    7  C6  UNL     1      11.716  25.347  49.044  1.00  0.00     0.217 C 
BRANCH   7   8
HETATM    8  O6  UNL     1      11.179  24.373  49.918  1.00  0.00    -0.280 OA
BRANCH   8   9
HETATM    9  P1  UNL     1      11.060  22.996  49.261  1.00  0.00     0.422 P 
HETATM   10  O7  UNL     1      10.638  23.729  47.833  1.00  0.00    -0.617 OA
HETATM   11  O8  UNL     1       9.863  22.492  50.251  1.00  0.00    -0.617 OA
HETATM   12  O9  UNL     1      12.633  22.635  49.595  1.00  0.00    -0.617 OA
ENDBRANCH   8   9
ENDBRANCH   7   8
ENDBRANCH   6   7
BRANCH   1  13
HETATM   13  O1  UNL     1      12.015  27.297  51.053  1.00  0.00    -0.390 OA
ATOM     14  H1  UNL     1      11.688  26.415  51.182  1.00  0.00     0.210 HD
ENDBRANCH   1  13
BRANCH   2  15
HETATM   15  O2  UNL     1      14.402  28.672  51.402  1.00  0.00    -0.390 OA
ATOM     16  H2  UNL     1      14.898  29.309  50.901  1.00  0.00     0.210 HD
ENDBRANCH   2  15
BRANCH   4  17
HETATM   17  O4  UNL     1      16.261  25.640  48.221  1.00  0.00    -0.369 OA
ATOM     18  H4  UNL     1      16.596  24.764  48.372  1.00  0.00     0.212 HD
ENDBRANCH   4  17
BRANCH   3  19
HETATM   19  O3  UNL     1      16.675  27.271  50.371  1.00  0.00    -0.388 OA
ATOM     20  H3  UNL     1      17.116  28.098  50.219  1.00  0.00     0.210 HD
ENDBRANCH   3  19
TORSDOF 7
ENDMDL
