MODEL 2
REMARK VINA RESULT: -9.331305259      0.058      1.236
REMARK  7 active torsions:
REMARK  status: ('A' for Active; 'I' for Inactive)
REMARK    1  A    between atoms: O1_1  and  C1_3 
REMARK    2  A    between atoms: C2_4  and  O2_5 
REMARK    3  A    between atoms: C3_7  and  O3_8 
REMARK    4  A    between atoms: C4_10  and  O4_11 
REMARK    5  A    between atoms: C5_14  and  C6_15 
REMARK    6  A    between atoms: C6_15  and  O6_16 
REMARK    7  A    between atoms: O6_16  and  P1_17 
ROOT
HETATM    1  C1  UNL     1      13.015  23.784  48.265  1.00  0.00     0.180 C 
HETATM    2  C2  UNL     1      11.742  22.982  48.447  1.00  0.00     0.183 C 
HETATM    3  C3  UNL     1      10.561  23.902  48.368  1.00  0.00     0.204 C 
HETATM    4  C4  UNL     1      10.778  25.025  49.361  1.00  0.00     0.288 C 
HETATM    5  O5  UNL     1      11.947  25.717  49.020  1.00  0.00    -0.349 OA
HETATM    6  C5  UNL     1      13.015  24.851  49.333  1.00  0.00     0.180 C 
ENDROOT
BRANCH   6   7
HETATM    7  C6  UNL     1      14.291  25.525  49.538  1.00  0.00     0.217 C 
BRANCH   7   8
HETATM    8  O6  UNL     1      14.167  26.838  50.050  1.00  0.00    -0.280 OA
BRANCH   8   9
HETATM    9  P1  UNL     1      15.521  27.474  50.371  1.00  0.00     0.422 P 
HETATM   10  O7  UNL     1      14.742  28.671  51.215  1.00  0.00    -0.617 OA
HETATM   11  O8  UNL     1      15.896  27.755  48.806  1.00  0.00    -0.617 OA
HETATM   12  O9  UNL     1      16.049  26.110  51.128  1.00  0.00    -0.617 OA
ENDBRANCH   8   9
ENDBRANCH   7   8
ENDBRANCH   6   7
BRANCH   1  13
HETATM   13  O1  UNL     1      14.082  22.928  48.469  1.00  0.00    -0.390 OA
ATOM     14  H1  UNL     1      14.519  23.200  49.268  1.00  0.00     0.210 HD
ENDBRANCH   1  13
BRANCH   2  15
HETATM   15  O2  UNL     1      11.663  21.927  47.544  1.00  0.00    -0.390 OA
ATOM     16  H2  UNL     1      11.083  21.240  47.853  1.00  0.00     0.210 HD
ENDBRANCH   2  15
BRANCH   4  17
HETATM   17  O4  UNL     1       9.676  25.844  49.406  1.00  0.00    -0.369 OA
ATOM     18  H4  UNL     1       9.136  25.632  50.157  1.00  0.00     0.212 HD
ENDBRANCH   4  17
BRANCH   3  19
HETATM   19  O3  UNL     1       9.387  23.225  48.696  1.00  0.00    -0.388 OA
ATOM     20  H3  UNL     1       8.654  23.566  48.198  1.00  0.00     0.210 HD
ENDBRANCH   3  19
TORSDOF 7
ENDMDL
