MODEL 11
REMARK VINA RESULT: -7.629009193      2.334      5.163
REMARK  7 active torsions:
REMARK  status: ('A' for Active; 'I' for Inactive)
REMARK    1  A    between atoms: O1_1  and  C1_3 
REMARK    2  A    between atoms: C2_4  and  O2_5 
REMARK    3  A    between atoms: C3_7  and  O3_8 
REMARK    4  A    between atoms: C4_10  and  O4_11 
REMARK    5  A    between atoms: C5_14  and  C6_15 
REMARK    6  A    between atoms: C6_15  and  O6_16 
REMARK    7  A    between atoms: O6_16  and  P1_17 
ROOT
HETATM    1  C1  UNL     1      14.685  24.646  49.221  1.00  0.00     0.180 C 
HETATM    2  C2  UNL     1      15.219  26.003  48.808  1.00  0.00     0.183 C 
HETATM    3  C3  UNL     1      14.741  27.040  49.780  1.00  0.00     0.204 C 
HETATM    4  C4  UNL     1      13.234  26.929  49.878  1.00  0.00     0.288 C 
HETATM    5  O5  UNL     1      12.899  25.650  50.341  1.00  0.00    -0.349 OA
HETATM    6  C5  UNL     1      13.181  24.767  49.277  1.00  0.00     0.180 C 
ENDROOT
BRANCH   6   7
HETATM    7  C6  UNL     1      12.458  23.503  49.342  1.00  0.00     0.217 C 
BRANCH   7   8
HETATM    8  O6  UNL     1      11.302  23.549  50.155  1.00  0.00    -0.280 OA
BRANCH   8   9
HETATM    9  P1  UNL     1      10.013  23.335  49.358  1.00  0.00     0.422 P 
HETATM   10  O7  UNL     1       9.701  24.961  49.453  1.00  0.00    -0.617 OA
HETATM   11  O8  UNL     1       9.339  22.354  50.477  1.00  0.00    -0.617 OA
HETATM   12  O9  UNL     1      10.840  22.704  48.080  1.00  0.00    -0.617 OA
ENDBRANCH   8   9
ENDBRANCH   7   8
ENDBRANCH   6   7
BRANCH   1  13
HETATM   13  O1  UNL     1      15.037  23.741  48.237  1.00  0.00    -0.390 OA
ATOM     14  H1  UNL     1      15.044  22.876  48.631  1.00  0.00     0.210 HD
ENDBRANCH   1  13
BRANCH   2  15
HETATM   15  O2  UNL     1      16.602  25.993  48.669  1.00  0.00    -0.390 OA
ATOM     16  H2  UNL     1      16.945  26.860  48.485  1.00  0.00     0.210 HD
ENDBRANCH   2  15
BRANCH   4  17
HETATM   17  O4  UNL     1      12.731  27.925  50.678  1.00  0.00    -0.369 OA
ATOM     18  H4  UNL     1      12.431  28.655  50.150  1.00  0.00     0.212 HD
ENDBRANCH   4  17
BRANCH   3  19
HETATM   19  O3  UNL     1      15.075  28.320  49.338  1.00  0.00    -0.388 OA
ATOM     20  H3  UNL     1      14.585  28.978  49.817  1.00  0.00     0.210 HD
ENDBRANCH   3  19
TORSDOF 7
ENDMDL
