MODEL 10
REMARK VINA RESULT: -8.115357507      1.409      1.446
REMARK  7 active torsions:
REMARK  status: ('A' for Active; 'I' for Inactive)
REMARK    1  A    between atoms: O1_1  and  C1_3 
REMARK    2  A    between atoms: C2_4  and  O2_5 
REMARK    3  A    between atoms: C3_7  and  O3_8 
REMARK    4  A    between atoms: C4_10  and  O4_11 
REMARK    5  A    between atoms: C5_14  and  C6_15 
REMARK    6  A    between atoms: C6_15  and  O6_16 
REMARK    7  A    between atoms: O6_16  and  P1_17 
ROOT
HETATM    1  C1  UNL     1      13.320  23.932  48.919  1.00  0.00     0.180 C 
HETATM    2  C2  UNL     1      11.990  23.563  48.293  1.00  0.00     0.183 C 
HETATM    3  C3  UNL     1      11.704  24.494  47.153  1.00  0.00     0.204 C 
HETATM    4  C4  UNL     1      11.815  25.913  47.671  1.00  0.00     0.288 C 
HETATM    5  O5  UNL     1      13.115  26.126  48.148  1.00  0.00    -0.349 OA
HETATM    6  C5  UNL     1      13.218  25.379  49.339  1.00  0.00     0.180 C 
ENDROOT
BRANCH   6   7
HETATM    7  C6  UNL     1      14.264  25.838  50.245  1.00  0.00     0.217 C 
BRANCH   7   8
HETATM    8  O6  UNL     1      14.338  27.246  50.362  1.00  0.00    -0.280 OA
BRANCH   8   9
HETATM    9  P1  UNL     1      15.776  27.748  50.508  1.00  0.00     0.422 P 
HETATM   10  O7  UNL     1      16.200  26.294  51.184  1.00  0.00    -0.617 OA
HETATM   11  O8  UNL     1      15.375  28.975  51.509  1.00  0.00    -0.617 OA
HETATM   12  O9  UNL     1      15.915  28.001  48.886  1.00  0.00    -0.617 OA
ENDBRANCH   8   9
ENDBRANCH   7   8
ENDBRANCH   6   7
BRANCH   1  13
HETATM   13  O1  UNL     1      13.489  23.139  50.040  1.00  0.00    -0.390 OA
ATOM     14  H1  UNL     1      14.263  22.606  49.900  1.00  0.00     0.210 HD
ENDBRANCH   1  13
BRANCH   2  15
HETATM   15  O2  UNL     1      11.950  22.224  47.917  1.00  0.00    -0.390 OA
ATOM     16  H2  UNL     1      11.773  22.123  46.989  1.00  0.00     0.210 HD
ENDBRANCH   2  15
BRANCH   4  17
HETATM   17  O4  UNL     1      11.461  26.810  46.693  1.00  0.00    -0.369 OA
ATOM     18  H4  UNL     1      11.732  26.492  45.839  1.00  0.00     0.212 HD
ENDBRANCH   4  17
BRANCH   3  19
HETATM   19  O3  UNL     1      10.415  24.289  46.662  1.00  0.00    -0.388 OA
ATOM     20  H3  UNL     1      10.198  24.943  46.009  1.00  0.00     0.210 HD
ENDBRANCH   3  19
TORSDOF 7
ENDMDL
