MODEL 1
REMARK VINA RESULT: -9.339147825      0.000      0.000
REMARK  7 active torsions:
REMARK  status: ('A' for Active; 'I' for Inactive)
REMARK    1  A    between atoms: O1_1  and  C1_3 
REMARK    2  A    between atoms: C2_4  and  O2_5 
REMARK    3  A    between atoms: C3_7  and  O3_8 
REMARK    4  A    between atoms: C4_10  and  O4_11 
REMARK    5  A    between atoms: C5_14  and  C6_15 
REMARK    6  A    between atoms: C6_15  and  O6_16 
REMARK    7  A    between atoms: O6_16  and  P1_17 
ROOT
HETATM    1  C1  UNL     1      13.024  23.795  48.254  1.00  0.00     0.180 C 
HETATM    2  C2  UNL     1      11.749  23.000  48.448  1.00  0.00     0.183 C 
HETATM    3  C3  UNL     1      10.572  23.924  48.367  1.00  0.00     0.204 C 
HETATM    4  C4  UNL     1      10.797  25.054  49.350  1.00  0.00     0.288 C 
HETATM    5  O5  UNL     1      11.967  25.739  48.999  1.00  0.00    -0.349 OA
HETATM    6  C5  UNL     1      13.033  24.871  49.313  1.00  0.00     0.180 C 
ENDROOT
BRANCH   6   7
HETATM    7  C6  UNL     1      14.313  25.542  49.508  1.00  0.00     0.217 C 
BRANCH   7   8
HETATM    8  O6  UNL     1      14.197  26.850  50.033  1.00  0.00    -0.280 OA
BRANCH   8   9
HETATM    9  P1  UNL     1      15.555  27.476  50.356  1.00  0.00     0.422 P 
HETATM   10  O7  UNL     1      16.005  26.072  51.117  1.00  0.00    -0.617 OA
HETATM   11  O8  UNL     1      14.923  28.676  51.266  1.00  0.00    -0.617 OA
HETATM   12  O9  UNL     1      15.888  27.720  48.761  1.00  0.00    -0.617 OA
ENDBRANCH   8   9
ENDBRANCH   7   8
ENDBRANCH   6   7
BRANCH   1  13
HETATM   13  O1  UNL     1      14.089  22.937  48.461  1.00  0.00    -0.390 OA
ATOM     14  H1  UNL     1      14.884  23.405  48.231  1.00  0.00     0.210 HD
ENDBRANCH   1  13
BRANCH   2  15
HETATM   15  O2  UNL     1      11.662  21.938  47.554  1.00  0.00    -0.390 OA
ATOM     16  H2  UNL     1      12.097  21.161  47.885  1.00  0.00     0.210 HD
ENDBRANCH   2  15
BRANCH   4  17
HETATM   17  O4  UNL     1       9.699  25.878  49.393  1.00  0.00    -0.369 OA
ATOM     18  H4  UNL     1       9.968  26.785  49.465  1.00  0.00     0.212 HD
ENDBRANCH   4  17
BRANCH   3  19
HETATM   19  O3  UNL     1       9.396  23.254  48.705  1.00  0.00    -0.388 OA
ATOM     20  H3  UNL     1       8.901  23.750  49.345  1.00  0.00     0.210 HD
ENDBRANCH   3  19
TORSDOF 7
ENDMDL
