MODEL 13
REMARK VINA RESULT: -7.337644955      2.300      5.195
REMARK  7 active torsions:
REMARK  status: ('A' for Active; 'I' for Inactive)
REMARK    1  A    between atoms: O1_1  and  C1_3 
REMARK    2  A    between atoms: C2_4  and  O2_5 
REMARK    3  A    between atoms: C3_7  and  O3_8 
REMARK    4  A    between atoms: C4_10  and  O4_11 
REMARK    5  A    between atoms: C5_14  and  C6_15 
REMARK    6  A    between atoms: C6_15  and  O6_16 
REMARK    7  A    between atoms: O6_16  and  P1_17 
ROOT
HETATM    1  C1  UNL     1      14.384  24.564  49.333  1.00  0.00     0.180 C 
HETATM    2  C2  UNL     1      15.188  25.673  48.685  1.00  0.00     0.183 C 
HETATM    3  C3  UNL     1      15.315  26.818  49.643  1.00  0.00     0.204 C 
HETATM    4  C4  UNL     1      13.923  27.199  50.103  1.00  0.00     0.288 C 
HETATM    5  O5  UNL     1      13.337  26.100  50.746  1.00  0.00    -0.349 OA
HETATM    6  C5  UNL     1      13.056  25.163  49.731  1.00  0.00     0.180 C 
ENDROOT
BRANCH   6   7
HETATM    7  C6  UNL     1      12.018  24.199  50.078  1.00  0.00     0.217 C 
BRANCH   7   8
HETATM    8  O6  UNL     1      10.861  24.291  49.271  1.00  0.00    -0.280 OA
BRANCH   8   9
HETATM    9  P1  UNL     1      10.702  23.092  48.334  1.00  0.00     0.422 P 
HETATM   10  O7  UNL     1       9.084  23.042  48.695  1.00  0.00    -0.617 OA
HETATM   11  O8  UNL     1      11.711  22.134  49.190  1.00  0.00    -0.617 OA
HETATM   12  O9  UNL     1      11.256  23.952  47.043  1.00  0.00    -0.617 OA
ENDBRANCH   8   9
ENDBRANCH   7   8
ENDBRANCH   6   7
BRANCH   1  13
HETATM   13  O1  UNL     1      14.179  23.583  48.380  1.00  0.00    -0.390 OA
ATOM     14  H1  UNL     1      14.807  22.889  48.543  1.00  0.00     0.210 HD
ENDBRANCH   1  13
BRANCH   2  15
HETATM   15  O2  UNL     1      16.418  25.217  48.225  1.00  0.00    -0.390 OA
ATOM     16  H2  UNL     1      17.009  25.934  48.027  1.00  0.00     0.210 HD
ENDBRANCH   2  15
BRANCH   4  17
HETATM   17  O4  UNL     1      13.971  28.312  50.906  1.00  0.00    -0.369 OA
ATOM     18  H4  UNL     1      13.094  28.581  51.153  1.00  0.00     0.212 HD
ENDBRANCH   4  17
BRANCH   3  19
HETATM   19  O3  UNL     1      15.905  27.918  49.021  1.00  0.00    -0.388 OA
ATOM     20  H3  UNL     1      15.362  28.690  49.121  1.00  0.00     0.210 HD
ENDBRANCH   3  19
TORSDOF 7
ENDMDL
