MODEL 4
REMARK VINA RESULT: -8.886729400      1.096      1.861
REMARK  7 active torsions:
REMARK  status: ('A' for Active; 'I' for Inactive)
REMARK    1  A    between atoms: O1_1  and  C1_3 
REMARK    2  A    between atoms: C2_4  and  O2_5 
REMARK    3  A    between atoms: C3_7  and  O3_8 
REMARK    4  A    between atoms: C4_10  and  O4_11 
REMARK    5  A    between atoms: C5_14  and  C6_15 
REMARK    6  A    between atoms: C6_15  and  O6_16 
REMARK    7  A    between atoms: O6_16  and  P1_17 
ROOT
HETATM    1  C1  UNL     1      13.952  24.793  48.597  1.00  0.00     0.180 C 
HETATM    2  C2  UNL     1      13.347  23.470  49.020  1.00  0.00     0.183 C 
HETATM    3  C3  UNL     1      11.892  23.453  48.659  1.00  0.00     0.204 C 
HETATM    4  C4  UNL     1      11.249  24.690  49.253  1.00  0.00     0.288 C 
HETATM    5  O5  UNL     1      11.863  25.828  48.713  1.00  0.00    -0.349 OA
HETATM    6  C5  UNL     1      13.153  25.878  49.280  1.00  0.00     0.180 C 
ENDROOT
BRANCH   6   7
HETATM    7  C6  UNL     1      13.762  27.202  49.264  1.00  0.00     0.217 C 
BRANCH   7   8
HETATM    8  O6  UNL     1      14.262  27.615  50.521  1.00  0.00    -0.280 OA
BRANCH   8   9
HETATM    9  P1  UNL     1      15.776  27.834  50.508  1.00  0.00     0.422 P 
HETATM   10  O7  UNL     1      15.738  27.897  48.850  1.00  0.00    -0.617 OA
HETATM   11  O8  UNL     1      16.113  26.401  51.216  1.00  0.00    -0.617 OA
HETATM   12  O9  UNL     1      15.645  29.205  51.411  1.00  0.00    -0.617 OA
ENDBRANCH   8   9
ENDBRANCH   7   8
ENDBRANCH   6   7
BRANCH   1  13
HETATM   13  O1  UNL     1      15.256  24.823  49.058  1.00  0.00    -0.390 OA
ATOM     14  H1  UNL     1      15.224  24.858  50.007  1.00  0.00     0.210 HD
ENDBRANCH   1  13
BRANCH   2  15
HETATM   15  O2  UNL     1      14.045  22.390  48.492  1.00  0.00    -0.390 OA
ATOM     16  H2  UNL     1      13.494  21.852  47.935  1.00  0.00     0.210 HD
ENDBRANCH   2  15
BRANCH   4  17
HETATM   17  O4  UNL     1       9.892  24.674  49.040  1.00  0.00    -0.369 OA
ATOM     18  H4  UNL     1       9.468  25.346  49.560  1.00  0.00     0.212 HD
ENDBRANCH   4  17
BRANCH   3  19
HETATM   19  O3  UNL     1      11.268  22.321  49.182  1.00  0.00    -0.388 OA
ATOM     20  H3  UNL     1      11.380  21.579  48.600  1.00  0.00     0.210 HD
ENDBRANCH   3  19
TORSDOF 7
ENDMDL
