MODEL 3
REMARK VINA RESULT: -8.089864980      1.319      1.570
REMARK  8 active torsions:
REMARK  status: ('A' for Active; 'I' for Inactive)
REMARK    1  A    between atoms: O1_1  and  C1_3 
REMARK    2  A    between atoms: C1_3  and  C2_4 
REMARK    3  A    between atoms: C2_4  and  O2_5 
REMARK    4  A    between atoms: C3_8  and  C4_9 
REMARK    5  A    between atoms: C4_9  and  O4_10 
REMARK    6  A    between atoms: O4_10  and  P1_11 
REMARK    7  A    between atoms: C5_15  and  O8_16 
REMARK    8  A    between atoms: C6_18  and  O9_19 
ROOT
HETATM    1  C2  UNL     1      -9.779  23.558  -8.979  1.00  0.00     0.213 C 
HETATM    2  O3  UNL     1      -8.964  22.701  -9.664  1.00  0.00    -0.341 OA
HETATM    3  C3  UNL     1      -7.658  22.907  -9.278  1.00  0.00     0.181 C 
HETATM    4  C5  UNL     1      -7.599  24.180  -8.486  1.00  0.00     0.183 C 
HETATM    5  C6  UNL     1      -8.937  24.807  -8.833  1.00  0.00     0.213 C 
ENDROOT
BRANCH   3   6
HETATM    6  C4  UNL     1      -7.043  21.744  -8.584  1.00  0.00     0.217 C 
BRANCH   6   7
HETATM    7  O4  UNL     1      -6.994  20.606  -9.396  1.00  0.00    -0.280 OA
BRANCH   7   8
HETATM    8  P1  UNL     1      -5.660  20.359 -10.132  1.00  0.00     0.422 P 
HETATM    9  O5  UNL     1      -4.250  20.345 -10.751  1.00  0.00    -0.617 OA
HETATM   10  O6  UNL     1      -5.037  19.731  -8.726  1.00  0.00    -0.617 OA
HETATM   11  O7  UNL     1      -6.369  19.361 -11.193  1.00  0.00    -0.617 OA
ENDBRANCH   7   8
ENDBRANCH   6   7
ENDBRANCH   3   6
BRANCH   4  12
HETATM   12  O8  UNL     1      -6.529  24.998  -8.843  1.00  0.00    -0.390 OA
ATOM     13  H8  UNL     1      -5.808  24.521  -9.235  1.00  0.00     0.210 HD
ENDBRANCH   4  12
BRANCH   1  14
HETATM   14  C1  UNL     1     -11.066  23.874  -9.708  1.00  0.00     0.235 C 
BRANCH  14  15
HETATM   15  O1  UNL     1     -11.907  24.668  -8.966  1.00  0.00    -0.395 OA
ATOM     16  H1  UNL     1     -12.585  24.166  -8.529  1.00  0.00     0.209 HD
ENDBRANCH  14  15
ENDBRANCH   1  14
BRANCH   1  17
HETATM   17  O2  UNL     1     -10.052  23.074  -7.699  1.00  0.00    -0.362 OA
ATOM     18  H2  UNL     1     -10.565  22.276  -7.751  1.00  0.00     0.213 HD
ENDBRANCH   1  17
BRANCH   5  19
HETATM   19  O9  UNL     1      -9.408  25.639  -7.826  1.00  0.00    -0.387 OA
ATOM     20  H9  UNL     1      -8.716  26.170  -7.449  1.00  0.00     0.210 HD
ENDBRANCH   5  19
TORSDOF 8
ENDMDL
