MODEL 12
REMARK VINA RESULT: -7.555479509      0.997      1.093
REMARK  8 active torsions:
REMARK  status: ('A' for Active; 'I' for Inactive)
REMARK    1  A    between atoms: O1_1  and  C1_3 
REMARK    2  A    between atoms: C1_3  and  C2_4 
REMARK    3  A    between atoms: C2_4  and  O2_5 
REMARK    4  A    between atoms: C3_8  and  C4_9 
REMARK    5  A    between atoms: C4_9  and  O4_10 
REMARK    6  A    between atoms: O4_10  and  P1_11 
REMARK    7  A    between atoms: C5_15  and  O8_16 
REMARK    8  A    between atoms: C6_18  and  O9_19 
ROOT
HETATM    1  C2  UNL     1      -9.739  23.452  -9.493  1.00  0.00     0.213 C 
HETATM    2  O3  UNL     1      -8.864  23.088 -10.477  1.00  0.00    -0.341 OA
HETATM    3  C3  UNL     1      -7.668  22.710  -9.906  1.00  0.00     0.181 C 
HETATM    4  C5  UNL     1      -7.686  23.125  -8.464  1.00  0.00     0.183 C 
HETATM    5  C6  UNL     1      -8.852  24.096  -8.449  1.00  0.00     0.213 C 
ENDROOT
BRANCH   3   6
HETATM    6  C4  UNL     1      -7.327  21.277 -10.110  1.00  0.00     0.217 C 
BRANCH   6   7
HETATM    7  O4  UNL     1      -5.983  21.095 -10.453  1.00  0.00    -0.280 OA
BRANCH   7   8
HETATM    8  P1  UNL     1      -5.561  19.647 -10.782  1.00  0.00     0.422 P 
HETATM    9  O5  UNL     1      -4.887  18.304 -11.120  1.00  0.00    -0.617 OA
HETATM   10  O6  UNL     1      -5.165  19.432  -9.184  1.00  0.00    -0.617 OA
HETATM   11  O7  UNL     1      -7.055  19.269 -11.280  1.00  0.00    -0.617 OA
ENDBRANCH   7   8
ENDBRANCH   6   7
ENDBRANCH   3   6
BRANCH   4  12
HETATM   12  O8  UNL     1      -6.499  23.726  -8.052  1.00  0.00    -0.390 OA
ATOM     13  H8  UNL     1      -6.602  24.267  -7.278  1.00  0.00     0.210 HD
ENDBRANCH   4  12
BRANCH   1  14
HETATM   14  C1  UNL     1     -10.795  24.430  -9.961  1.00  0.00     0.235 C 
BRANCH  14  15
HETATM   15  O1  UNL     1     -11.772  24.637  -9.017  1.00  0.00    -0.395 OA
ATOM     16  H1  UNL     1     -12.074  25.537  -9.000  1.00  0.00     0.209 HD
ENDBRANCH  14  15
ENDBRANCH   1  14
BRANCH   1  17
HETATM   17  O2  UNL     1     -10.337  22.332  -8.914  1.00  0.00    -0.362 OA
ATOM     18  H2  UNL     1      -9.675  21.711  -8.635  1.00  0.00     0.213 HD
ENDBRANCH   1  17
BRANCH   5  19
HETATM   19  O9  UNL     1      -9.469  24.161  -7.208  1.00  0.00    -0.387 OA
ATOM     20  H9  UNL     1      -9.331  25.000  -6.783  1.00  0.00     0.210 HD
ENDBRANCH   5  19
TORSDOF 8
ENDMDL
