MODEL 1
REMARK VINA RESULT: -8.592627172      0.000      0.000
REMARK  8 active torsions:
REMARK  status: ('A' for Active; 'I' for Inactive)
REMARK    1  A    between atoms: O1_1  and  C1_3 
REMARK    2  A    between atoms: C1_3  and  C2_4 
REMARK    3  A    between atoms: C2_4  and  O2_5 
REMARK    4  A    between atoms: C3_8  and  C4_9 
REMARK    5  A    between atoms: C4_9  and  O4_10 
REMARK    6  A    between atoms: O4_10  and  P1_11 
REMARK    7  A    between atoms: C5_15  and  O8_16 
REMARK    8  A    between atoms: C6_18  and  O9_19 
ROOT
HETATM    1  C2  UNL     1      -9.974  23.068  -9.694  1.00  0.00     0.213 C 
HETATM    2  O3  UNL     1      -9.074  22.760 -10.675  1.00  0.00    -0.341 OA
HETATM    3  C3  UNL     1      -8.048  22.016 -10.134  1.00  0.00     0.181 C 
HETATM    4  C5  UNL     1      -8.156  22.085  -8.639  1.00  0.00     0.183 C 
HETATM    5  C6  UNL     1      -9.110  23.253  -8.464  1.00  0.00     0.213 C 
ENDROOT
BRANCH   3   6
HETATM    6  C4  UNL     1      -7.963  20.629 -10.662  1.00  0.00     0.217 C 
BRANCH   6   7
HETATM    7  O4  UNL     1      -7.051  19.844  -9.949  1.00  0.00    -0.280 OA
BRANCH   7   8
HETATM    8  P1  UNL     1      -5.575  19.959 -10.386  1.00  0.00     0.422 P 
HETATM    9  O5  UNL     1      -4.130  20.336 -10.759  1.00  0.00    -0.617 OA
HETATM   10  O6  UNL     1      -5.127  19.863  -8.790  1.00  0.00    -0.617 OA
HETATM   11  O7  UNL     1      -5.673  18.598 -11.259  1.00  0.00    -0.617 OA
ENDBRANCH   7   8
ENDBRANCH   6   7
ENDBRANCH   3   6
BRANCH   4  12
HETATM   12  O8  UNL     1      -6.934  22.309  -8.010  1.00  0.00    -0.390 OA
ATOM     13  H8  UNL     1      -6.964  22.166  -7.071  1.00  0.00     0.210 HD
ENDBRANCH   4  12
BRANCH   1  14
HETATM   14  C1  UNL     1     -10.761  24.328  -9.977  1.00  0.00     0.235 C 
BRANCH  14  15
HETATM   15  O1  UNL     1     -11.679  24.604  -8.991  1.00  0.00    -0.395 OA
ATOM     16  H1  UNL     1     -11.522  25.444  -8.576  1.00  0.00     0.209 HD
ENDBRANCH  14  15
ENDBRANCH   1  14
BRANCH   1  17
HETATM   17  O2  UNL     1     -10.838  21.999  -9.453  1.00  0.00    -0.362 OA
ATOM     18  H2  UNL     1     -11.121  22.002  -8.546  1.00  0.00     0.213 HD
ENDBRANCH   1  17
BRANCH   5  19
HETATM   19  O9  UNL     1      -9.846  23.163  -7.291  1.00  0.00    -0.387 OA
ATOM     20  H9  UNL     1     -10.416  23.913  -7.168  1.00  0.00     0.210 HD
ENDBRANCH   5  19
TORSDOF 8
ENDMDL
