MODEL 5
REMARK VINA RESULT: -7.799464675      2.306      5.169
REMARK  8 active torsions:
REMARK  status: ('A' for Active; 'I' for Inactive)
REMARK    1  A    between atoms: O1_1  and  C1_3 
REMARK    2  A    between atoms: C1_3  and  C2_4 
REMARK    3  A    between atoms: C2_4  and  O2_5 
REMARK    4  A    between atoms: C3_8  and  C4_9 
REMARK    5  A    between atoms: C4_9  and  O4_10 
REMARK    6  A    between atoms: O4_10  and  P1_11 
REMARK    7  A    between atoms: C5_15  and  O8_16 
REMARK    8  A    between atoms: C6_18  and  O9_19 
ROOT
HETATM    1  C2  UNL     1      -7.653  20.251 -11.340  1.00  0.00     0.213 C 
HETATM    2  O3  UNL     1      -8.307  20.013 -10.165  1.00  0.00    -0.341 OA
HETATM    3  C3  UNL     1      -7.718  20.747  -9.159  1.00  0.00     0.181 C 
HETATM    4  C5  UNL     1      -6.415  21.286  -9.674  1.00  0.00     0.183 C 
HETATM    5  C6  UNL     1      -6.212  20.436 -10.915  1.00  0.00     0.213 C 
ENDROOT
BRANCH   3   6
HETATM    6  C4  UNL     1      -8.603  21.788  -8.572  1.00  0.00     0.217 C 
BRANCH   6   7
HETATM    7  O4  UNL     1      -8.812  22.861  -9.445  1.00  0.00    -0.280 OA
BRANCH   7   8
HETATM    8  P1  UNL     1      -9.039  24.237  -8.782  1.00  0.00     0.422 P 
HETATM    9  O5  UNL     1      -9.524  25.575  -8.195  1.00  0.00    -0.617 OA
HETATM   10  O6  UNL     1      -9.575  23.456  -7.418  1.00  0.00    -0.617 OA
HETATM   11  O7  UNL     1      -7.469  24.615  -8.906  1.00  0.00    -0.617 OA
ENDBRANCH   7   8
ENDBRANCH   6   7
ENDBRANCH   3   6
BRANCH   4  12
HETATM   12  O8  UNL     1      -5.367  21.148  -8.767  1.00  0.00    -0.390 OA
ATOM     13  H8  UNL     1      -5.147  20.242  -8.585  1.00  0.00     0.210 HD
ENDBRANCH   4  12
BRANCH   1  14
HETATM   14  C1  UNL     1      -7.766  19.113 -12.331  1.00  0.00     0.235 C 
BRANCH  14  15
HETATM   15  O1  UNL     1      -6.603  18.914 -13.035  1.00  0.00    -0.395 OA
ATOM     16  H1  UNL     1      -6.252  19.723 -13.388  1.00  0.00     0.209 HD
ENDBRANCH  14  15
ENDBRANCH   1  14
BRANCH   1  17
HETATM   17  O2  UNL     1      -8.084  21.444 -11.921  1.00  0.00    -0.362 OA
ATOM     18  H2  UNL     1      -7.896  21.445 -12.852  1.00  0.00     0.213 HD
ENDBRANCH   1  17
BRANCH   5  19
HETATM   19  O9  UNL     1      -5.461  21.087 -11.884  1.00  0.00    -0.387 OA
ATOM     20  H9  UNL     1      -4.529  20.947 -11.767  1.00  0.00     0.210 HD
ENDBRANCH   5  19
TORSDOF 8
ENDMDL
