MODEL 6
REMARK VINA RESULT: -7.789449204      2.226      5.350
REMARK  8 active torsions:
REMARK  status: ('A' for Active; 'I' for Inactive)
REMARK    1  A    between atoms: O1_1  and  C1_3 
REMARK    2  A    between atoms: C1_3  and  C2_4 
REMARK    3  A    between atoms: C2_4  and  O2_5 
REMARK    4  A    between atoms: C3_8  and  C4_9 
REMARK    5  A    between atoms: C4_9  and  O4_10 
REMARK    6  A    between atoms: O4_10  and  P1_11 
REMARK    7  A    between atoms: C5_15  and  O8_16 
REMARK    8  A    between atoms: C6_18  and  O9_19 
ROOT
HETATM    1  C2  UNL     1      -7.110  20.226 -11.469  1.00  0.00     0.213 C 
HETATM    2  O3  UNL     1      -7.989  19.933 -10.464  1.00  0.00    -0.341 OA
HETATM    3  C3  UNL     1      -7.836  20.846  -9.444  1.00  0.00     0.181 C 
HETATM    4  C5  UNL     1      -6.576  21.621  -9.694  1.00  0.00     0.183 C 
HETATM    5  C6  UNL     1      -5.895  20.753 -10.735  1.00  0.00     0.213 C 
ENDROOT
BRANCH   3   6
HETATM    6  C4  UNL     1      -9.030  21.705  -9.219  1.00  0.00     0.217 C 
BRANCH   6   7
HETATM    7  O4  UNL     1      -9.042  22.826 -10.057  1.00  0.00    -0.280 OA
BRANCH   7   8
HETATM    8  P1  UNL     1      -9.420  24.165  -9.387  1.00  0.00     0.422 P 
HETATM    9  O5  UNL     1      -9.662  25.403  -8.505  1.00  0.00    -0.617 OA
HETATM   10  O6  UNL     1      -7.915  24.748  -9.775  1.00  0.00    -0.617 OA
HETATM   11  O7  UNL     1     -10.645  24.397 -10.422  1.00  0.00    -0.617 OA
ENDBRANCH   7   8
ENDBRANCH   6   7
ENDBRANCH   3   6
BRANCH   4  12
HETATM   12  O8  UNL     1      -5.794  21.780  -8.552  1.00  0.00    -0.390 OA
ATOM     13  H8  UNL     1      -5.010  21.243  -8.558  1.00  0.00     0.210 HD
ENDBRANCH   4  12
BRANCH   1  14
HETATM   14  C1  UNL     1      -6.737  19.025 -12.310  1.00  0.00     0.235 C 
BRANCH  14  15
HETATM   15  O1  UNL     1      -5.637  18.364 -11.819  1.00  0.00    -0.395 OA
ATOM     16  H1  UNL     1      -4.924  18.954 -11.608  1.00  0.00     0.209 HD
ENDBRANCH  14  15
ENDBRANCH   1  14
BRANCH   1  17
HETATM   17  O2  UNL     1      -7.600  21.252 -12.278  1.00  0.00    -0.362 OA
ATOM     18  H2  UNL     1      -6.890  21.816 -12.562  1.00  0.00     0.213 HD
ENDBRANCH   1  17
BRANCH   5  19
HETATM   19  O9  UNL     1      -5.059  21.484 -11.569  1.00  0.00    -0.387 OA
ATOM     20  H9  UNL     1      -5.163  22.420 -11.447  1.00  0.00     0.210 HD
ENDBRANCH   5  19
TORSDOF 8
ENDMDL
