MODEL 4
REMARK VINA RESULT: -7.915712510      0.680      1.187
REMARK  8 active torsions:
REMARK  status: ('A' for Active; 'I' for Inactive)
REMARK    1  A    between atoms: O1_1  and  C1_3 
REMARK    2  A    between atoms: C1_3  and  C2_4 
REMARK    3  A    between atoms: C2_4  and  O2_5 
REMARK    4  A    between atoms: C3_8  and  C4_9 
REMARK    5  A    between atoms: C4_9  and  O4_10 
REMARK    6  A    between atoms: O4_10  and  P1_11 
REMARK    7  A    between atoms: C5_15  and  O8_16 
REMARK    8  A    between atoms: C6_18  and  O9_19 
ROOT
HETATM    1  C2  UNL     1      -9.979  23.117  -9.607  1.00  0.00     0.213 C 
HETATM    2  O3  UNL     1      -9.037  22.839 -10.557  1.00  0.00    -0.341 OA
HETATM    3  C3  UNL     1      -7.950  22.240  -9.959  1.00  0.00     0.181 C 
HETATM    4  C5  UNL     1      -8.090  22.393  -8.473  1.00  0.00     0.183 C 
HETATM    5  C6  UNL     1      -9.159  23.467  -8.384  1.00  0.00     0.213 C 
ENDROOT
BRANCH   3   6
HETATM    6  C4  UNL     1      -7.717  20.837 -10.394  1.00  0.00     0.217 C 
BRANCH   6   7
HETATM    7  O4  UNL     1      -6.811  20.167  -9.565  1.00  0.00    -0.280 OA
BRANCH   7   8
HETATM    8  P1  UNL     1      -5.368  20.048 -10.100  1.00  0.00     0.422 P 
HETATM    9  O5  UNL     1      -4.017  19.701 -10.751  1.00  0.00    -0.617 OA
HETATM   10  O6  UNL     1      -5.878  20.710 -11.534  1.00  0.00    -0.617 OA
HETATM   11  O7  UNL     1      -4.801  21.026  -8.940  1.00  0.00    -0.617 OA
ENDBRANCH   7   8
ENDBRANCH   6   7
ENDBRANCH   3   6
BRANCH   4  12
HETATM   12  O8  UNL     1      -6.906  22.780  -7.847  1.00  0.00    -0.390 OA
ATOM     13  H8  UNL     1      -6.824  22.445  -6.962  1.00  0.00     0.210 HD
ENDBRANCH   4  12
BRANCH   1  14
HETATM   14  C1  UNL     1     -10.885  24.270  -9.980  1.00  0.00     0.235 C 
BRANCH  14  15
HETATM   15  O1  UNL     1     -11.749  24.606  -8.965  1.00  0.00    -0.395 OA
ATOM     16  H1  UNL     1     -11.432  25.336  -8.447  1.00  0.00     0.209 HD
ENDBRANCH  14  15
ENDBRANCH   1  14
BRANCH   1  17
HETATM   17  O2  UNL     1     -10.735  21.983  -9.306  1.00  0.00    -0.362 OA
ATOM     18  H2  UNL     1     -10.477  21.257  -9.860  1.00  0.00     0.213 HD
ENDBRANCH   1  17
BRANCH   5  19
HETATM   19  O9  UNL     1      -9.902  23.378  -7.215  1.00  0.00    -0.387 OA
ATOM     20  H9  UNL     1     -10.614  22.753  -7.290  1.00  0.00     0.210 HD
ENDBRANCH   5  19
TORSDOF 8
ENDMDL
