MODEL 2
REMARK VINA RESULT: -8.275170913      1.261      1.436
REMARK  8 active torsions:
REMARK  status: ('A' for Active; 'I' for Inactive)
REMARK    1  A    between atoms: O1_1  and  C1_3 
REMARK    2  A    between atoms: C1_3  and  C2_4 
REMARK    3  A    between atoms: C2_4  and  O2_5 
REMARK    4  A    between atoms: C3_8  and  C4_9 
REMARK    5  A    between atoms: C4_9  and  O4_10 
REMARK    6  A    between atoms: O4_10  and  P1_11 
REMARK    7  A    between atoms: C5_15  and  O8_16 
REMARK    8  A    between atoms: C6_18  and  O9_19 
ROOT
HETATM    1  C2  UNL     1     -10.065  23.795  -9.608  1.00  0.00     0.213 C 
HETATM    2  O3  UNL     1      -9.313  23.062 -10.482  1.00  0.00    -0.341 OA
HETATM    3  C3  UNL     1      -8.096  22.774  -9.905  1.00  0.00     0.181 C 
HETATM    4  C5  UNL     1      -7.949  23.618  -8.674  1.00  0.00     0.183 C 
HETATM    5  C6  UNL     1      -9.043  24.649  -8.889  1.00  0.00     0.213 C 
ENDROOT
BRANCH   3   6
HETATM    6  C4  UNL     1      -7.870  21.324  -9.664  1.00  0.00     0.217 C 
BRANCH   6   7
HETATM    7  O4  UNL     1      -6.730  21.086  -8.888  1.00  0.00    -0.280 OA
BRANCH   7   8
HETATM    8  P1  UNL     1      -5.440  20.754  -9.667  1.00  0.00     0.422 P 
HETATM    9  O5  UNL     1      -4.236  20.615 -10.617  1.00  0.00    -0.617 OA
HETATM   10  O6  UNL     1      -4.704  22.054  -8.943  1.00  0.00    -0.617 OA
HETATM   11  O7  UNL     1      -5.329  19.297  -8.967  1.00  0.00    -0.617 OA
ENDBRANCH   7   8
ENDBRANCH   6   7
ENDBRANCH   3   6
BRANCH   4  12
HETATM   12  O8  UNL     1      -6.692  24.206  -8.558  1.00  0.00    -0.390 OA
ATOM     13  H8  UNL     1      -6.650  24.870  -7.880  1.00  0.00     0.210 HD
ENDBRANCH   4  12
BRANCH   1  14
HETATM   14  C1  UNL     1     -11.094  24.670 -10.289  1.00  0.00     0.235 C 
BRANCH  14  15
HETATM   15  O1  UNL     1     -12.175  24.932  -9.482  1.00  0.00    -0.395 OA
ATOM     16  H1  UNL     1     -12.054  25.714  -8.957  1.00  0.00     0.209 HD
ENDBRANCH  14  15
ENDBRANCH   1  14
BRANCH   1  17
HETATM   17  O2  UNL     1     -10.678  22.972  -8.662  1.00  0.00    -0.362 OA
ATOM     18  H2  UNL     1     -10.312  23.131  -7.800  1.00  0.00     0.213 HD
ENDBRANCH   1  17
BRANCH   5  19
HETATM   19  O9  UNL     1      -9.534  25.155  -7.693  1.00  0.00    -0.387 OA
ATOM     20  H9  UNL     1      -9.675  26.093  -7.733  1.00  0.00     0.210 HD
ENDBRANCH   5  19
TORSDOF 8
ENDMDL
