MODEL 8
REMARK VINA RESULT: -7.717644891      2.323      5.217
REMARK  8 active torsions:
REMARK  status: ('A' for Active; 'I' for Inactive)
REMARK    1  A    between atoms: O1_1  and  C1_3 
REMARK    2  A    between atoms: C1_3  and  C2_4 
REMARK    3  A    between atoms: C2_4  and  O2_5 
REMARK    4  A    between atoms: C3_8  and  C4_9 
REMARK    5  A    between atoms: C4_9  and  O4_10 
REMARK    6  A    between atoms: O4_10  and  P1_11 
REMARK    7  A    between atoms: C5_15  and  O8_16 
REMARK    8  A    between atoms: C6_18  and  O9_19 
ROOT
HETATM    1  C2  UNL     1      -7.739  20.383 -11.234  1.00  0.00     0.213 C 
HETATM    2  O3  UNL     1      -8.359  20.101 -10.049  1.00  0.00    -0.341 OA
HETATM    3  C3  UNL     1      -7.740  20.797  -9.034  1.00  0.00     0.181 C 
HETATM    4  C5  UNL     1      -6.452  21.354  -9.565  1.00  0.00     0.183 C 
HETATM    5  C6  UNL     1      -6.286  20.551 -10.842  1.00  0.00     0.213 C 
ENDROOT
BRANCH   3   6
HETATM    6  C4  UNL     1      -8.607  21.816  -8.383  1.00  0.00     0.217 C 
BRANCH   6   7
HETATM    7  O4  UNL     1      -8.566  23.048  -9.045  1.00  0.00    -0.280 OA
BRANCH   7   8
HETATM    8  P1  UNL     1      -9.893  23.835  -9.089  1.00  0.00     0.422 P 
HETATM    9  O5  UNL     1     -11.216  24.589  -8.863  1.00  0.00    -0.617 OA
HETATM   10  O6  UNL     1      -9.052  25.214  -8.706  1.00  0.00    -0.617 OA
HETATM   11  O7  UNL     1     -10.124  23.462 -10.648  1.00  0.00    -0.617 OA
ENDBRANCH   7   8
ENDBRANCH   6   7
ENDBRANCH   3   6
BRANCH   4  12
HETATM   12  O8  UNL     1      -5.379  21.181  -8.695  1.00  0.00    -0.390 OA
ATOM     13  H8  UNL     1      -5.402  21.770  -7.950  1.00  0.00     0.210 HD
ENDBRANCH   4  12
BRANCH   1  14
HETATM   14  C1  UNL     1      -7.882  19.282 -12.262  1.00  0.00     0.235 C 
BRANCH  14  15
HETATM   15  O1  UNL     1      -6.708  19.037 -12.933  1.00  0.00    -0.395 OA
ATOM     16  H1  UNL     1      -6.440  18.128 -12.871  1.00  0.00     0.209 HD
ENDBRANCH  14  15
ENDBRANCH   1  14
BRANCH   1  17
HETATM   17  O2  UNL     1      -8.184  21.597 -11.757  1.00  0.00    -0.362 OA
ATOM     18  H2  UNL     1      -8.820  21.995 -11.174  1.00  0.00     0.213 HD
ENDBRANCH   1  17
BRANCH   5  19
HETATM   19  O9  UNL     1      -5.562  21.237 -11.808  1.00  0.00    -0.387 OA
ATOM     20  H9  UNL     1      -4.886  21.785 -11.426  1.00  0.00     0.210 HD
ENDBRANCH   5  19
TORSDOF 8
ENDMDL
