MODEL 9
REMARK VINA RESULT: -8.251799245      1.479      2.830
REMARK  10 active torsions:
REMARK  status: ('A' for Active; 'I' for Inactive)
REMARK    1  A    between atoms: O1_1  and  C1_3 
REMARK    2  A    between atoms: C1_3  and  C2_4 
REMARK    3  A    between atoms: C2_4  and  O2_5 
REMARK    4  A    between atoms: C3_8  and  C4_9 
REMARK    5  A    between atoms: C4_9  and  O4_10 
REMARK    6  A    between atoms: C4_9  and  C5_12 
REMARK    7  A    between atoms: C5_12  and  O5_13 
REMARK    8  A    between atoms: O5_13  and  P1_14 
REMARK    9  A    between atoms: C6_18  and  O9_19 
REMARK   10  A    between atoms: C7_21  and  O10_22 
ROOT
HETATM    1  C2  UNL     1     -14.864  -9.612  13.736  1.00  0.00     0.213 C 
HETATM    2  O3  UNL     1     -14.400  -9.583  12.426  1.00  0.00    -0.340 OA
HETATM    3  C3  UNL     1     -13.398  -8.637  12.440  1.00  0.00     0.187 C 
HETATM    4  C6  UNL     1     -12.680  -8.752  13.753  1.00  0.00     0.184 C 
HETATM    5  C7  UNL     1     -13.599  -9.663  14.534  1.00  0.00     0.213 C 
ENDROOT
BRANCH   3   6
HETATM    6  C4  UNL     1     -12.407  -8.981  11.320  1.00  0.00     0.174 C 
BRANCH   6   7
HETATM    7  O4  UNL     1     -11.118  -8.762  11.801  1.00  0.00    -0.391 OA
ATOM      8  H4  UNL     1     -10.573  -9.489  11.523  1.00  0.00     0.210 HD
ENDBRANCH   6   7
BRANCH   6   9
HETATM    9  C5  UNL     1     -12.690  -8.099  10.142  1.00  0.00     0.217 C 
BRANCH   9  10
HETATM   10  O5  UNL     1     -11.594  -7.840   9.371  1.00  0.00    -0.280 OA
BRANCH  10  11
HETATM   11  P1  UNL     1     -11.077  -8.931   8.326  1.00  0.00     0.422 P 
HETATM   12  O6  UNL     1      -9.718  -9.851   8.636  1.00  0.00    -0.617 OA
HETATM   13  O7  UNL     1     -10.256  -7.964   7.479  1.00  0.00    -0.617 OA
HETATM   14  O8  UNL     1     -11.988  -9.337   6.956  1.00  0.00    -0.617 OA
ENDBRANCH  10  11
ENDBRANCH   9  10
ENDBRANCH   6   9
ENDBRANCH   3   6
BRANCH   4  15
HETATM   15  O9  UNL     1     -12.493  -7.530  14.375  1.00  0.00    -0.390 OA
ATOM     16  H9  UNL     1     -11.878  -7.572  15.098  1.00  0.00     0.210 HD
ENDBRANCH   4  15
BRANCH   1  17
HETATM   17  C1  UNL     1     -15.660  -8.354  13.978  1.00  0.00     0.235 C 
BRANCH  17  18
HETATM   18  O1  UNL     1     -16.748  -8.677  14.788  1.00  0.00    -0.395 OA
ATOM     19  H1  UNL     1     -17.171  -9.446  14.424  1.00  0.00     0.209 HD
ENDBRANCH  17  18
ENDBRANCH   1  17
BRANCH   1  20
HETATM   20  O2  UNL     1     -15.603 -10.757  14.006  1.00  0.00    -0.362 OA
ATOM     21  H2  UNL     1     -15.297 -11.203  14.787  1.00  0.00     0.213 HD
ENDBRANCH   1  20
BRANCH   5  22
HETATM   22  O10 UNL     1     -13.078 -10.954  14.422  1.00  0.00    -0.387 OA
ATOM     23  H10 UNL     1     -12.254 -10.975  14.895  1.00  0.00     0.210 HD
ENDBRANCH   5  22
TORSDOF 10
ENDMDL
