MODEL 2
REMARK VINA RESULT: -8.636948295      1.357      2.718
REMARK  10 active torsions:
REMARK  status: ('A' for Active; 'I' for Inactive)
REMARK    1  A    between atoms: O1_1  and  C1_3 
REMARK    2  A    between atoms: C1_3  and  C2_4 
REMARK    3  A    between atoms: C2_4  and  O2_5 
REMARK    4  A    between atoms: C3_8  and  C4_9 
REMARK    5  A    between atoms: C4_9  and  O4_10 
REMARK    6  A    between atoms: C4_9  and  C5_12 
REMARK    7  A    between atoms: C5_12  and  O5_13 
REMARK    8  A    between atoms: O5_13  and  P1_14 
REMARK    9  A    between atoms: C6_18  and  O9_19 
REMARK   10  A    between atoms: C7_21  and  O10_22 
ROOT
HETATM    1  C2  UNL     1     -14.916  -9.546  13.956  1.00  0.00     0.213 C 
HETATM    2  O3  UNL     1     -14.662  -9.543  12.590  1.00  0.00    -0.340 OA
HETATM    3  C3  UNL     1     -13.670  -8.600  12.430  1.00  0.00     0.187 C 
HETATM    4  C6  UNL     1     -12.757  -8.692  13.616  1.00  0.00     0.184 C 
HETATM    5  C7  UNL     1     -13.543  -9.584  14.549  1.00  0.00     0.213 C 
ENDROOT
BRANCH   3   6
HETATM    6  C4  UNL     1     -12.866  -8.968  11.175  1.00  0.00     0.174 C 
BRANCH   6   7
HETATM    7  O4  UNL     1     -12.385 -10.266  11.336  1.00  0.00    -0.391 OA
ATOM      8  H4  UNL     1     -11.689 -10.243  11.983  1.00  0.00     0.210 HD
ENDBRANCH   6   7
BRANCH   6   9
HETATM    9  C5  UNL     1     -11.733  -7.997  11.031  1.00  0.00     0.217 C 
BRANCH   9  10
HETATM   10  O5  UNL     1     -10.702  -8.462  10.265  1.00  0.00    -0.280 OA
BRANCH  10  11
HETATM   11  P1  UNL     1     -10.910  -8.683   8.697  1.00  0.00     0.422 P 
HETATM   12  O6  UNL     1     -12.086  -9.718   8.117  1.00  0.00    -0.617 OA
HETATM   13  O7  UNL     1      -9.849  -9.769   8.547  1.00  0.00    -0.617 OA
HETATM   14  O8  UNL     1     -10.085  -7.737   7.559  1.00  0.00    -0.617 OA
ENDBRANCH  10  11
ENDBRANCH   9  10
ENDBRANCH   6   9
ENDBRANCH   3   6
BRANCH   4  15
HETATM   15  O9  UNL     1     -12.475  -7.459  14.178  1.00  0.00    -0.390 OA
ATOM     16  H9  UNL     1     -12.177  -7.520  15.078  1.00  0.00     0.210 HD
ENDBRANCH   4  15
BRANCH   1  17
HETATM   17  C1  UNL     1     -15.666  -8.281  14.295  1.00  0.00     0.235 C 
BRANCH  17  18
HETATM   18  O1  UNL     1     -16.892  -8.638  14.853  1.00  0.00    -0.395 OA
ATOM     19  H1  UNL     1     -17.456  -7.874  14.844  1.00  0.00     0.209 HD
ENDBRANCH  17  18
ENDBRANCH   1  17
BRANCH   1  20
HETATM   20  O2  UNL     1     -15.604 -10.683  14.360  1.00  0.00    -0.362 OA
ATOM     21  H2  UNL     1     -16.194 -11.001  13.687  1.00  0.00     0.213 HD
ENDBRANCH   1  20
BRANCH   5  22
HETATM   22  O10 UNL     1     -13.045 -10.879  14.381  1.00  0.00    -0.387 OA
ATOM     23  H10 UNL     1     -12.156 -10.893  14.716  1.00  0.00     0.210 HD
ENDBRANCH   5  22
TORSDOF 10
ENDMDL
