MODEL 4
REMARK VINA RESULT: -8.505569964      1.399      2.589
REMARK  10 active torsions:
REMARK  status: ('A' for Active; 'I' for Inactive)
REMARK    1  A    between atoms: O1_1  and  C1_3 
REMARK    2  A    between atoms: C1_3  and  C2_4 
REMARK    3  A    between atoms: C2_4  and  O2_5 
REMARK    4  A    between atoms: C3_8  and  C4_9 
REMARK    5  A    between atoms: C4_9  and  O4_10 
REMARK    6  A    between atoms: C4_9  and  C5_12 
REMARK    7  A    between atoms: C5_12  and  O5_13 
REMARK    8  A    between atoms: O5_13  and  P1_14 
REMARK    9  A    between atoms: C6_18  and  O9_19 
REMARK   10  A    between atoms: C7_21  and  O10_22 
ROOT
HETATM    1  C2  UNL     1     -14.609  -9.557  13.307  1.00  0.00     0.213 C 
HETATM    2  O3  UNL     1     -14.076  -9.363  12.038  1.00  0.00    -0.340 OA
HETATM    3  C3  UNL     1     -13.128  -8.379  12.213  1.00  0.00     0.187 C 
HETATM    4  C6  UNL     1     -12.479  -8.602  13.547  1.00  0.00     0.184 C 
HETATM    5  C7  UNL     1     -13.389  -9.635  14.170  1.00  0.00     0.213 C 
ENDROOT
BRANCH   3   6
HETATM    6  C4  UNL     1     -12.060  -8.551  11.125  1.00  0.00     0.174 C 
BRANCH   6   7
HETATM    7  O4  UNL     1     -11.188  -7.468  11.200  1.00  0.00    -0.391 OA
ATOM      8  H4  UNL     1     -10.520  -7.581  10.534  1.00  0.00     0.210 HD
ENDBRANCH   6   7
BRANCH   6   9
HETATM    9  C5  UNL     1     -12.740  -8.593   9.789  1.00  0.00     0.217 C 
BRANCH   9  10
HETATM   10  O5  UNL     1     -12.218  -9.521   8.934  1.00  0.00    -0.280 OA
BRANCH  10  11
HETATM   11  P1  UNL     1     -11.039  -9.113   7.937  1.00  0.00     0.422 P 
HETATM   12  O6  UNL     1     -10.820  -9.909   6.484  1.00  0.00    -0.617 OA
HETATM   13  O7  UNL     1      -9.967  -9.977   8.597  1.00  0.00    -0.617 OA
HETATM   14  O8  UNL     1     -10.087  -7.741   8.216  1.00  0.00    -0.617 OA
ENDBRANCH  10  11
ENDBRANCH   9  10
ENDBRANCH   6   9
ENDBRANCH   3   6
BRANCH   4  15
HETATM   15  O9  UNL     1     -12.391  -7.448  14.306  1.00  0.00    -0.390 OA
ATOM     16  H9  UNL     1     -11.496  -7.209  14.515  1.00  0.00     0.210 HD
ENDBRANCH   4  15
BRANCH   1  17
HETATM   17  C1  UNL     1     -15.484  -8.372  13.633  1.00  0.00     0.235 C 
BRANCH  17  18
HETATM   18  O1  UNL     1     -15.370  -8.110  14.997  1.00  0.00    -0.395 OA
ATOM     19  H1  UNL     1     -16.228  -8.213  15.391  1.00  0.00     0.209 HD
ENDBRANCH  17  18
ENDBRANCH   1  17
BRANCH   1  20
HETATM   20  O2  UNL     1     -15.300 -10.758  13.409  1.00  0.00    -0.362 OA
ATOM     21  H2  UNL     1     -15.230 -11.137  14.277  1.00  0.00     0.213 HD
ENDBRANCH   1  20
BRANCH   5  22
HETATM   22  O10 UNL     1     -12.795 -10.880  13.953  1.00  0.00    -0.387 OA
ATOM     23  H10 UNL     1     -12.470 -10.893  13.060  1.00  0.00     0.210 HD
ENDBRANCH   5  22
TORSDOF 10
ENDMDL
