MODEL 14
REMARK VINA RESULT: -7.659817196      2.256      5.644
REMARK  10 active torsions:
REMARK  status: ('A' for Active; 'I' for Inactive)
REMARK    1  A    between atoms: O1_1  and  C1_3 
REMARK    2  A    between atoms: C1_3  and  C2_4 
REMARK    3  A    between atoms: C2_4  and  O2_5 
REMARK    4  A    between atoms: C3_8  and  C4_9 
REMARK    5  A    between atoms: C4_9  and  O4_10 
REMARK    6  A    between atoms: C4_9  and  C5_12 
REMARK    7  A    between atoms: C5_12  and  O5_13 
REMARK    8  A    between atoms: O5_13  and  P1_14 
REMARK    9  A    between atoms: C6_18  and  O9_19 
REMARK   10  A    between atoms: C7_21  and  O10_22 
ROOT
HETATM    1  C2  UNL     1     -12.375  -9.446   9.311  1.00  0.00     0.213 C 
HETATM    2  O3  UNL     1     -11.996  -9.851  10.585  1.00  0.00    -0.340 OA
HETATM    3  C3  UNL     1     -11.780  -8.673  11.267  1.00  0.00     0.187 C 
HETATM    4  C6  UNL     1     -12.799  -7.679  10.796  1.00  0.00     0.184 C 
HETATM    5  C7  UNL     1     -13.384  -8.376   9.590  1.00  0.00     0.213 C 
ENDROOT
BRANCH   3   6
HETATM    6  C4  UNL     1     -12.022  -8.939  12.759  1.00  0.00     0.174 C 
BRANCH   6   7
HETATM    7  O4  UNL     1     -12.596 -10.201  12.886  1.00  0.00    -0.391 OA
ATOM      8  H4  UNL     1     -13.529 -10.088  13.024  1.00  0.00     0.210 HD
ENDBRANCH   6   7
BRANCH   6   9
HETATM    9  C5  UNL     1     -12.943  -7.882  13.291  1.00  0.00     0.217 C 
BRANCH   9  10
HETATM   10  O5  UNL     1     -13.767  -8.320  14.288  1.00  0.00    -0.280 OA
BRANCH  10  11
HETATM   11  P1  UNL     1     -15.234  -8.844  13.937  1.00  0.00     0.422 P 
HETATM   12  O6  UNL     1     -16.542  -8.469  14.907  1.00  0.00    -0.617 OA
HETATM   13  O7  UNL     1     -15.087 -10.199  14.623  1.00  0.00    -0.617 OA
HETATM   14  O8  UNL     1     -15.560  -9.634  12.474  1.00  0.00    -0.617 OA
ENDBRANCH  10  11
ENDBRANCH   9  10
ENDBRANCH   6   9
ENDBRANCH   3   6
BRANCH   4  15
HETATM   15  O9  UNL     1     -12.249  -6.449  10.480  1.00  0.00    -0.390 OA
ATOM     16  H9  UNL     1     -12.497  -6.142   9.616  1.00  0.00     0.210 HD
ENDBRANCH   4  15
BRANCH   1  17
HETATM   17  C1  UNL     1     -11.150  -8.925   8.602  1.00  0.00     0.235 C 
BRANCH  17  18
HETATM   18  O1  UNL     1     -10.234  -9.971   8.493  1.00  0.00    -0.395 OA
ATOM     19  H1  UNL     1      -9.360  -9.598   8.472  1.00  0.00     0.209 HD
ENDBRANCH  17  18
ENDBRANCH   1  17
BRANCH   1  20
HETATM   20  O2  UNL     1     -12.996 -10.464   8.599  1.00  0.00    -0.362 OA
ATOM     21  H2  UNL     1     -13.168 -11.225   9.142  1.00  0.00     0.213 HD
ENDBRANCH   1  20
BRANCH   5  22
HETATM   22  O10 UNL     1     -14.559  -9.002  10.016  1.00  0.00    -0.387 OA
ATOM     23  H10 UNL     1     -15.196  -8.929   9.316  1.00  0.00     0.210 HD
ENDBRANCH   5  22
TORSDOF 10
ENDMDL
