MODEL 11
REMARK VINA RESULT: -8.165641279      1.151      1.764
REMARK  10 active torsions:
REMARK  status: ('A' for Active; 'I' for Inactive)
REMARK    1  A    between atoms: O1_1  and  C1_3 
REMARK    2  A    between atoms: C1_3  and  C2_4 
REMARK    3  A    between atoms: C2_4  and  O2_5 
REMARK    4  A    between atoms: C3_8  and  C4_9 
REMARK    5  A    between atoms: C4_9  and  O4_10 
REMARK    6  A    between atoms: C4_9  and  C5_12 
REMARK    7  A    between atoms: C5_12  and  O5_13 
REMARK    8  A    between atoms: O5_13  and  P1_14 
REMARK    9  A    between atoms: C6_18  and  O9_19 
REMARK   10  A    between atoms: C7_21  and  O10_22 
ROOT
HETATM    1  C2  UNL     1     -13.437 -10.185  13.210  1.00  0.00     0.213 C 
HETATM    2  O3  UNL     1     -13.634 -10.172  11.834  1.00  0.00    -0.340 OA
HETATM    3  C3  UNL     1     -13.934  -8.859  11.545  1.00  0.00     0.187 C 
HETATM    4  C6  UNL     1     -13.103  -7.992  12.444  1.00  0.00     0.184 C 
HETATM    5  C7  UNL     1     -12.553  -8.998  13.429  1.00  0.00     0.213 C 
ENDROOT
BRANCH   3   6
HETATM    6  C4  UNL     1     -13.515  -8.585  10.094  1.00  0.00     0.174 C 
BRANCH   6   7
HETATM    7  O4  UNL     1     -14.637  -8.147   9.396  1.00  0.00    -0.391 OA
ATOM      8  H4  UNL     1     -14.351  -7.518   8.744  1.00  0.00     0.210 HD
ENDBRANCH   6   7
BRANCH   6   9
HETATM    9  C5  UNL     1     -12.983  -9.856   9.502  1.00  0.00     0.217 C 
BRANCH   9  10
HETATM   10  O5  UNL     1     -12.076  -9.660   8.500  1.00  0.00    -0.280 OA
BRANCH  10  11
HETATM   11  P1  UNL     1     -10.811  -8.716   8.743  1.00  0.00     0.422 P 
HETATM   12  O6  UNL     1     -10.159  -7.807   7.502  1.00  0.00    -0.617 OA
HETATM   13  O7  UNL     1      -9.760  -9.802   8.529  1.00  0.00    -0.617 OA
HETATM   14  O8  UNL     1     -10.199  -8.449  10.300  1.00  0.00    -0.617 OA
ENDBRANCH  10  11
ENDBRANCH   9  10
ENDBRANCH   6   9
ENDBRANCH   3   6
BRANCH   4  15
HETATM   15  O9  UNL     1     -13.836  -6.994  13.062  1.00  0.00    -0.390 OA
ATOM     16  H9  UNL     1     -13.307  -6.436  13.620  1.00  0.00     0.210 HD
ENDBRANCH   4  15
BRANCH   1  17
HETATM   17  C1  UNL     1     -14.783 -10.046  13.876  1.00  0.00     0.235 C 
BRANCH  17  18
HETATM   18  O1  UNL     1     -14.612  -9.317  15.052  1.00  0.00    -0.395 OA
ATOM     19  H1  UNL     1     -15.228  -9.646  15.696  1.00  0.00     0.209 HD
ENDBRANCH  17  18
ENDBRANCH   1  17
BRANCH   1  20
HETATM   20  O2  UNL     1     -12.761 -11.323  13.632  1.00  0.00    -0.362 OA
ATOM     21  H2  UNL     1     -11.820 -11.201  13.628  1.00  0.00     0.213 HD
ENDBRANCH   1  20
BRANCH   5  22
HETATM   22  O10 UNL     1     -11.271  -9.336  12.987  1.00  0.00    -0.387 OA
ATOM     23  H10 UNL     1     -10.686  -8.629  13.233  1.00  0.00     0.210 HD
ENDBRANCH   5  22
TORSDOF 10
ENDMDL
