MODEL 3
REMARK VINA RESULT: -8.515535602      1.423      2.697
REMARK  10 active torsions:
REMARK  status: ('A' for Active; 'I' for Inactive)
REMARK    1  A    between atoms: O1_1  and  C1_3 
REMARK    2  A    between atoms: C1_3  and  C2_4 
REMARK    3  A    between atoms: C2_4  and  O2_5 
REMARK    4  A    between atoms: C3_8  and  C4_9 
REMARK    5  A    between atoms: C4_9  and  O4_10 
REMARK    6  A    between atoms: C4_9  and  C5_12 
REMARK    7  A    between atoms: C5_12  and  O5_13 
REMARK    8  A    between atoms: O5_13  and  P1_14 
REMARK    9  A    between atoms: C6_18  and  O9_19 
REMARK   10  A    between atoms: C7_21  and  O10_22 
ROOT
HETATM    1  C2  UNL     1     -14.509  -9.768  13.654  1.00  0.00     0.213 C 
HETATM    2  O3  UNL     1     -14.580  -9.449  12.303  1.00  0.00    -0.340 OA
HETATM    3  C3  UNL     1     -13.438  -8.716  12.065  1.00  0.00     0.187 C 
HETATM    4  C6  UNL     1     -12.337  -9.304  12.896  1.00  0.00     0.184 C 
HETATM    5  C7  UNL     1     -13.097 -10.239  13.809  1.00  0.00     0.213 C 
ENDROOT
BRANCH   3   6
HETATM    6  C4  UNL     1     -13.066  -8.886  10.586  1.00  0.00     0.174 C 
BRANCH   6   7
HETATM    7  O4  UNL     1     -12.374 -10.087  10.450  1.00  0.00    -0.391 OA
ATOM      8  H4  UNL     1     -12.419 -10.351   9.538  1.00  0.00     0.210 HD
ENDBRANCH   6   7
BRANCH   6   9
HETATM    9  C5  UNL     1     -12.208  -7.729  10.171  1.00  0.00     0.217 C 
BRANCH   9  10
HETATM   10  O5  UNL     1     -11.011  -8.098   9.627  1.00  0.00    -0.280 OA
BRANCH  10  11
HETATM   11  P1  UNL     1     -10.949  -8.629   8.123  1.00  0.00     0.422 P 
HETATM   12  O6  UNL     1     -12.018  -9.787   7.569  1.00  0.00    -0.617 OA
HETATM   13  O7  UNL     1      -9.889  -9.698   8.376  1.00  0.00    -0.617 OA
HETATM   14  O8  UNL     1      -9.930  -7.909   6.977  1.00  0.00    -0.617 OA
ENDBRANCH  10  11
ENDBRANCH   9  10
ENDBRANCH   6   9
ENDBRANCH   3   6
BRANCH   4  15
HETATM   15  O9  UNL     1     -11.619  -8.350  13.596  1.00  0.00    -0.390 OA
ATOM     16  H9  UNL     1     -11.264  -8.679  14.414  1.00  0.00     0.210 HD
ENDBRANCH   4  15
BRANCH   1  17
HETATM   17  C1  UNL     1     -14.801  -8.518  14.446  1.00  0.00     0.235 C 
BRANCH  17  18
HETATM   18  O1  UNL     1     -14.086  -8.584  15.641  1.00  0.00    -0.395 OA
ATOM     19  H1  UNL     1     -14.427  -7.918  16.227  1.00  0.00     0.209 HD
ENDBRANCH  17  18
ENDBRANCH   1  17
BRANCH   1  20
HETATM   20  O2  UNL     1     -15.362 -10.811  13.993  1.00  0.00    -0.362 OA
ATOM     21  H2  UNL     1     -14.887 -11.578  14.288  1.00  0.00     0.213 HD
ENDBRANCH   1  20
BRANCH   5  22
HETATM   22  O10 UNL     1     -13.010 -11.513  13.242  1.00  0.00    -0.387 OA
ATOM     23  H10 UNL     1     -13.744 -12.023  13.566  1.00  0.00     0.210 HD
ENDBRANCH   5  22
TORSDOF 10
ENDMDL
