MODEL 17
REMARK VINA RESULT: -7.544477863      2.467      5.707
REMARK  10 active torsions:
REMARK  status: ('A' for Active; 'I' for Inactive)
REMARK    1  A    between atoms: O1_1  and  C1_3 
REMARK    2  A    between atoms: C1_3  and  C2_4 
REMARK    3  A    between atoms: C2_4  and  O2_5 
REMARK    4  A    between atoms: C3_8  and  C4_9 
REMARK    5  A    between atoms: C4_9  and  O4_10 
REMARK    6  A    between atoms: C4_9  and  C5_12 
REMARK    7  A    between atoms: C5_12  and  O5_13 
REMARK    8  A    between atoms: O5_13  and  P1_14 
REMARK    9  A    between atoms: C6_18  and  O9_19 
REMARK   10  A    between atoms: C7_21  and  O10_22 
ROOT
HETATM    1  C2  UNL     1     -13.284  -8.768   9.700  1.00  0.00     0.213 C 
HETATM    2  O3  UNL     1     -13.654  -9.029  11.014  1.00  0.00    -0.340 OA
HETATM    3  C3  UNL     1     -12.458  -9.177  11.683  1.00  0.00     0.187 C 
HETATM    4  C6  UNL     1     -11.483  -8.201  11.094  1.00  0.00     0.184 C 
HETATM    5  C7  UNL     1     -12.214  -7.733   9.858  1.00  0.00     0.213 C 
ENDROOT
BRANCH   3   6
HETATM    6  C4  UNL     1     -12.688  -8.799  13.152  1.00  0.00     0.174 C 
BRANCH   6   7
HETATM    7  O4  UNL     1     -11.481  -8.337  13.673  1.00  0.00    -0.391 OA
ATOM      8  H4  UNL     1     -10.867  -8.245  12.953  1.00  0.00     0.210 HD
ENDBRANCH   6   7
BRANCH   6   9
HETATM    9  C5  UNL     1     -13.154 -10.016  13.893  1.00  0.00     0.217 C 
BRANCH   9  10
HETATM   10  O5  UNL     1     -14.082  -9.751  14.860  1.00  0.00    -0.280 OA
BRANCH  10  11
HETATM   11  P1  UNL     1     -15.619  -9.577  14.463  1.00  0.00     0.422 P 
HETATM   12  O6  UNL     1     -16.074  -9.232  12.893  1.00  0.00    -0.617 OA
HETATM   13  O7  UNL     1     -15.712  -8.100  14.837  1.00  0.00    -0.617 OA
HETATM   14  O8  UNL     1     -16.856  -9.922  15.568  1.00  0.00    -0.617 OA
ENDBRANCH  10  11
ENDBRANCH   9  10
ENDBRANCH   6   9
ENDBRANCH   3   6
BRANCH   4  15
HETATM   15  O9  UNL     1     -10.257  -8.773  10.799  1.00  0.00    -0.390 OA
ATOM     16  H9  UNL     1      -9.528  -8.319  11.205  1.00  0.00     0.210 HD
ENDBRANCH   4  15
BRANCH   1  17
HETATM   17  C1  UNL     1     -12.773 -10.051   9.095  1.00  0.00     0.235 C 
BRANCH  17  18
HETATM   18  O1  UNL     1     -13.851 -10.714   8.509  1.00  0.00    -0.395 OA
ATOM     19  H1  UNL     1     -13.592 -10.987   7.636  1.00  0.00     0.209 HD
ENDBRANCH  17  18
ENDBRANCH   1  17
BRANCH   1  20
HETATM   20  O2  UNL     1     -14.324  -8.220   8.961  1.00  0.00    -0.362 OA
ATOM     21  H2  UNL     1     -14.528  -7.334   9.235  1.00  0.00     0.213 HD
ENDBRANCH   1  20
BRANCH   5  22
HETATM   22  O10 UNL     1     -12.836  -6.527  10.189  1.00  0.00    -0.387 OA
ATOM     23  H10 UNL     1     -13.769  -6.694  10.264  1.00  0.00     0.210 HD
ENDBRANCH   5  22
TORSDOF 10
ENDMDL
