MODEL 5
REMARK VINA RESULT: -9.109543146      1.222      1.496
REMARK  6 active torsions:
REMARK  status: ('A' for Active; 'I' for Inactive)
REMARK    1  A    between atoms: C5_6  and  C6_7 
REMARK       I    between atoms: C6_7  and  N2_9 
REMARK    2  A    between atoms: N2_9  and  C7_11 
REMARK    3  A    between atoms: C7_11  and  C8_12 
REMARK    4  A    between atoms: C7_11  and  C9_18 
REMARK       I    between atoms: C8_12  and  N3_14 
REMARK    5  A    between atoms: N3_14  and  O3_16 
REMARK    6  A    between atoms: C12_21  and  N4_22 
ROOT
HETATM    1  C7  UNL     1      87.488  73.953  31.010  1.00  0.00     0.212 C 
ENDROOT
BRANCH   1   2
HETATM    2  N2  UNL     1      88.050  72.859  30.233  1.00  0.00    -0.340 N 
HETATM    3  C6  UNL     1      89.420  72.573  30.376  1.00  0.00     0.252 C 
HETATM    4  O1  UNL     1      90.117  73.254  31.155  1.00  0.00    -0.268 OA
ATOM      5  H2  UNL     1      87.465  72.313  29.601  1.00  0.00     0.164 HD
BRANCH   3   6
HETATM    6  C5  UNL     1      90.025  71.496  29.624  1.00  0.00     0.033 A 
HETATM    7  C4  UNL     1      89.342  70.550  28.899  1.00  0.00     0.017 A 
HETATM    8  C3  UNL     1      89.943  69.525  28.186  1.00  0.00     0.003 A 
HETATM    9  C2  UNL     1      91.318  69.458  28.213  1.00  0.00     0.026 A 
HETATM   10  C1  UNL     1      92.038  70.401  28.940  1.00  0.00     0.047 A 
HETATM   11  N1  UNL     1      93.470  70.347  28.980  1.00  0.00    -0.102 NA
HETATM   12  C18 UNL     1      91.419  71.399  29.631  1.00  0.00     0.043 A 
ENDBRANCH   3   6
ENDBRANCH   1   2
BRANCH   1  13
HETATM   13  C8  UNL     1      87.503  75.238  30.322  1.00  0.00     0.268 C 
HETATM   14  O2  UNL     1      86.549  75.564  29.559  1.00  0.00    -0.269 OA
HETATM   15  N3  UNL     1      88.610  76.112  30.524  1.00  0.00    -0.235 N 
ATOM     16  H3  UNL     1      89.380  75.849  31.137  1.00  0.00     0.197 HD
BRANCH  15  17
HETATM   17  O3  UNL     1      88.609  77.308  29.874  1.00  0.00    -0.287 OA
ATOM     18  H3  UNL     1      88.097  77.385  29.077  1.00  0.00     0.244 HD
ENDBRANCH  15  17
ENDBRANCH   1  13
BRANCH   1  19
HETATM   19  C9  UNL     1      86.094  73.518  31.350  1.00  0.00    -0.026 A 
HETATM   20  C10 UNL     1      85.257  74.166  32.203  1.00  0.00     0.012 A 
HETATM   21  C11 UNL     1      83.977  73.684  32.467  1.00  0.00     0.032 A 
HETATM   22  C12 UNL     1      83.530  72.538  31.870  1.00  0.00     0.056 A 
HETATM   23  C16 UNL     1      84.398  71.899  31.009  1.00  0.00     0.032 A 
HETATM   24  C17 UNL     1      85.668  72.349  30.726  1.00  0.00     0.012 A 
BRANCH  22  25
HETATM   25  N4  UNL     1      82.234  71.982  32.090  1.00  0.00    -0.268 N 
HETATM   26  C13 UNL     1      81.579  71.112  31.294  1.00  0.00     0.118 A 
HETATM   27  C14 UNL     1      80.351  70.803  31.839  1.00  0.00     0.038 A 
HETATM   28  C15 UNL     1      80.279  71.524  33.009  1.00  0.00     0.109 A 
HETATM   29  N5  UNL     1      81.444  72.217  33.109  1.00  0.00    -0.305 N 
ATOM     30  H5  UNL     1      81.674  72.843  33.880  1.00  0.00     0.186 HD
ENDBRANCH  22  25
ENDBRANCH   1  19
TORSDOF 6
ENDMDL
