MODEL 9
REMARK VINA RESULT: -8.388568343      3.404      7.646
REMARK  6 active torsions:
REMARK  status: ('A' for Active; 'I' for Inactive)
REMARK    1  A    between atoms: C5_6  and  C6_7 
REMARK       I    between atoms: C6_7  and  N2_9 
REMARK    2  A    between atoms: N2_9  and  C7_11 
REMARK    3  A    between atoms: C7_11  and  C8_12 
REMARK    4  A    between atoms: C7_11  and  C9_18 
REMARK       I    between atoms: C8_12  and  N3_14 
REMARK    5  A    between atoms: N3_14  and  O3_16 
REMARK    6  A    between atoms: C12_21  and  N4_22 
ROOT
HETATM    1  C7  UNL     1      89.504  73.891  30.851  1.00  0.00     0.212 C 
ENDROOT
BRANCH   1   2
HETATM    2  N2  UNL     1      88.227  73.431  31.373  1.00  0.00    -0.340 N 
HETATM    3  C6  UNL     1      87.068  73.667  30.611  1.00  0.00     0.252 C 
HETATM    4  O1  UNL     1      87.157  74.260  29.517  1.00  0.00    -0.268 OA
ATOM      5  H2  UNL     1      88.173  72.948  32.270  1.00  0.00     0.164 HD
BRANCH   3   6
HETATM    6  C5  UNL     1      85.776  73.229  31.089  1.00  0.00     0.033 A 
HETATM    7  C4  UNL     1      85.000  73.893  32.007  1.00  0.00     0.017 A 
HETATM    8  C3  UNL     1      83.763  73.453  32.451  1.00  0.00     0.003 A 
HETATM    9  C2  UNL     1      83.289  72.270  31.931  1.00  0.00     0.026 A 
HETATM   10  C1  UNL     1      84.052  71.573  30.999  1.00  0.00     0.047 A 
HETATM   11  N1  UNL     1      83.575  70.339  30.447  1.00  0.00    -0.102 NA
HETATM   12  C18 UNL     1      85.265  72.031  30.580  1.00  0.00     0.043 A 
ENDBRANCH   3   6
ENDBRANCH   1   2
BRANCH   1  13
HETATM   13  C8  UNL     1      89.938  75.174  31.390  1.00  0.00     0.268 C 
HETATM   14  O2  UNL     1      90.907  75.230  32.200  1.00  0.00    -0.269 OA
HETATM   15  N3  UNL     1      89.249  76.355  30.992  1.00  0.00    -0.235 N 
ATOM     16  H3  UNL     1      88.465  76.310  30.341  1.00  0.00     0.197 HD
BRANCH  15  17
HETATM   17  O3  UNL     1      89.666  77.545  31.504  1.00  0.00    -0.287 OA
ATOM     18  H3  UNL     1      90.533  77.854  31.270  1.00  0.00     0.244 HD
ENDBRANCH  15  17
ENDBRANCH   1  13
BRANCH   1  19
HETATM   19  C9  UNL     1      90.477  72.794  31.167  1.00  0.00    -0.026 A 
HETATM   20  C10 UNL     1      91.645  72.570  30.510  1.00  0.00     0.012 A 
HETATM   21  C11 UNL     1      92.486  71.519  30.867  1.00  0.00     0.032 A 
HETATM   22  C12 UNL     1      92.153  70.682  31.895  1.00  0.00     0.056 A 
HETATM   23  C16 UNL     1      90.962  70.931  32.546  1.00  0.00     0.032 A 
HETATM   24  C17 UNL     1      90.109  71.960  32.219  1.00  0.00     0.012 A 
BRANCH  22  25
HETATM   25  N4  UNL     1      92.962  69.586  32.320  1.00  0.00    -0.268 N 
HETATM   26  C13 UNL     1      92.556  68.320  32.550  1.00  0.00     0.118 A 
HETATM   27  C14 UNL     1      93.624  67.545  32.946  1.00  0.00     0.038 A 
HETATM   28  C15 UNL     1      94.710  68.391  32.950  1.00  0.00     0.109 A 
HETATM   29  N5  UNL     1      94.250  69.610  32.563  1.00  0.00    -0.305 N 
ATOM     30  H5  UNL     1      94.834  70.441  32.473  1.00  0.00     0.186 HD
ENDBRANCH  22  25
ENDBRANCH   1  19
TORSDOF 6
ENDMDL
