MODEL 2
REMARK VINA RESULT: -9.181458283      1.230      1.657
REMARK  6 active torsions:
REMARK  status: ('A' for Active; 'I' for Inactive)
REMARK    1  A    between atoms: C5_6  and  C6_7 
REMARK       I    between atoms: C6_7  and  N2_9 
REMARK    2  A    between atoms: N2_9  and  C7_11 
REMARK    3  A    between atoms: C7_11  and  C8_12 
REMARK    4  A    between atoms: C7_11  and  C9_18 
REMARK       I    between atoms: C8_12  and  N3_14 
REMARK    5  A    between atoms: N3_14  and  O3_16 
REMARK    6  A    between atoms: C12_21  and  N4_22 
ROOT
HETATM    1  C7  UNL     1      87.510  73.642  31.050  1.00  0.00     0.212 C 
ENDROOT
BRANCH   1   2
HETATM    2  N2  UNL     1      88.274  72.542  30.483  1.00  0.00    -0.340 N 
HETATM    3  C6  UNL     1      89.676  72.571  30.602  1.00  0.00     0.252 C 
HETATM    4  O1  UNL     1      90.228  73.528  31.182  1.00  0.00    -0.268 OA
ATOM      5  H2  UNL     1      87.806  71.769  30.012  1.00  0.00     0.164 HD
BRANCH   3   6
HETATM    6  C5  UNL     1      90.479  71.501  30.055  1.00  0.00     0.033 A 
HETATM    7  C4  UNL     1      91.221  70.608  30.789  1.00  0.00     0.017 A 
HETATM    8  C3  UNL     1      91.984  69.588  30.243  1.00  0.00     0.003 A 
HETATM    9  C2  UNL     1      91.995  69.472  28.871  1.00  0.00     0.026 A 
HETATM   10  C1  UNL     1      91.254  70.362  28.100  1.00  0.00     0.047 A 
HETATM   11  N1  UNL     1      91.252  70.256  26.670  1.00  0.00    -0.102 NA
HETATM   12  C18 UNL     1      90.511  71.354  28.665  1.00  0.00     0.043 A 
ENDBRANCH   3   6
ENDBRANCH   1   2
BRANCH   1  13
HETATM   13  C8  UNL     1      87.489  74.840  30.218  1.00  0.00     0.268 C 
HETATM   14  O2  UNL     1      86.764  74.885  29.184  1.00  0.00    -0.269 OA
HETATM   15  N3  UNL     1      88.300  75.950  30.592  1.00  0.00    -0.235 N 
ATOM     16  H3  UNL     1      88.887  75.913  31.425  1.00  0.00     0.197 HD
BRANCH  15  17
HETATM   17  O3  UNL     1      88.270  77.060  29.805  1.00  0.00    -0.287 OA
ATOM     18  H3  UNL     1      88.097  77.897  30.219  1.00  0.00     0.244 HD
ENDBRANCH  15  17
ENDBRANCH   1  13
BRANCH   1  19
HETATM   19  C9  UNL     1      86.132  73.092  31.270  1.00  0.00    -0.026 A 
HETATM   20  C10 UNL     1      85.657  71.935  30.737  1.00  0.00     0.012 A 
HETATM   21  C11 UNL     1      84.357  71.504  30.990  1.00  0.00     0.032 A 
HETATM   22  C12 UNL     1      83.523  72.239  31.785  1.00  0.00     0.056 A 
HETATM   23  C16 UNL     1      84.030  73.408  32.314  1.00  0.00     0.032 A 
HETATM   24  C17 UNL     1      85.308  73.863  32.085  1.00  0.00     0.012 A 
BRANCH  22  25
HETATM   25  N4  UNL     1      82.180  71.863  32.090  1.00  0.00    -0.268 N 
HETATM   26  C13 UNL     1      81.376  71.065  31.359  1.00  0.00     0.118 A 
HETATM   27  C14 UNL     1      80.151  70.933  31.976  1.00  0.00     0.038 A 
HETATM   28  C15 UNL     1      80.236  71.688  33.124  1.00  0.00     0.109 A 
HETATM   29  N5  UNL     1      81.485  72.225  33.140  1.00  0.00    -0.305 N 
ATOM     30  H5  UNL     1      81.836  72.835  33.878  1.00  0.00     0.186 HD
ENDBRANCH  22  25
ENDBRANCH   1  19
TORSDOF 6
ENDMDL
