MODEL 4
REMARK VINA RESULT: -9.133166539      1.471      2.025
REMARK  6 active torsions:
REMARK  status: ('A' for Active; 'I' for Inactive)
REMARK    1  A    between atoms: C5_6  and  C6_7 
REMARK       I    between atoms: C6_7  and  N2_9 
REMARK    2  A    between atoms: N2_9  and  C7_11 
REMARK    3  A    between atoms: C7_11  and  C8_12 
REMARK    4  A    between atoms: C7_11  and  C9_18 
REMARK       I    between atoms: C8_12  and  N3_14 
REMARK    5  A    between atoms: N3_14  and  O3_16 
REMARK    6  A    between atoms: C12_21  and  N4_22 
ROOT
HETATM    1  C7  UNL     1      87.903  74.272  31.168  1.00  0.00     0.212 C 
ENDROOT
BRANCH   1   2
HETATM    2  N2  UNL     1      88.797  73.307  30.550  1.00  0.00    -0.340 N 
HETATM    3  C6  UNL     1      90.152  73.311  30.929  1.00  0.00     0.252 C 
HETATM    4  O1  UNL     1      90.555  74.133  31.777  1.00  0.00    -0.268 OA
ATOM      5  H2  UNL     1      88.451  72.642  29.858  1.00  0.00     0.164 HD
BRANCH   3   6
HETATM    6  C5  UNL     1      91.080  72.370  30.343  1.00  0.00     0.033 A 
HETATM    7  C4  UNL     1      92.255  71.949  30.916  1.00  0.00     0.017 A 
HETATM    8  C3  UNL     1      93.131  71.045  30.335  1.00  0.00     0.003 A 
HETATM    9  C2  UNL     1      92.791  70.542  29.099  1.00  0.00     0.026 A 
HETATM   10  C1  UNL     1      91.607  70.950  28.493  1.00  0.00     0.047 A 
HETATM   11  N1  UNL     1      91.237  70.436  27.206  1.00  0.00    -0.102 NA
HETATM   12  C18 UNL     1      90.765  71.839  29.089  1.00  0.00     0.043 A 
ENDBRANCH   3   6
ENDBRANCH   1   2
BRANCH   1  13
HETATM   13  C8  UNL     1      87.796  75.531  30.441  1.00  0.00     0.268 C 
HETATM   14  O2  UNL     1      86.847  75.718  29.627  1.00  0.00    -0.269 OA
HETATM   15  N3  UNL     1      88.779  76.539  30.662  1.00  0.00    -0.235 N 
ATOM     16  H3  UNL     1      89.546  76.387  31.317  1.00  0.00     0.197 HD
BRANCH  15  17
HETATM   17  O3  UNL     1      88.665  77.708  29.976  1.00  0.00    -0.287 OA
ATOM     18  H3  UNL     1      89.418  78.287  29.949  1.00  0.00     0.244 HD
ENDBRANCH  15  17
ENDBRANCH   1  13
BRANCH   1  19
HETATM   19  C9  UNL     1      86.581  73.573  31.272  1.00  0.00    -0.026 A 
HETATM   20  C10 UNL     1      86.257  72.411  30.646  1.00  0.00     0.012 A 
HETATM   21  C11 UNL     1      84.998  71.836  30.794  1.00  0.00     0.032 A 
HETATM   22  C12 UNL     1      84.050  72.432  31.578  1.00  0.00     0.056 A 
HETATM   23  C16 UNL     1      84.403  73.610  32.203  1.00  0.00     0.032 A 
HETATM   24  C17 UNL     1      85.638  74.204  32.079  1.00  0.00     0.012 A 
BRANCH  22  25
HETATM   25  N4  UNL     1      82.739  71.904  31.778  1.00  0.00    -0.268 N 
HETATM   26  C13 UNL     1      81.911  72.160  32.811  1.00  0.00     0.118 A 
HETATM   27  C14 UNL     1      80.730  71.466  32.655  1.00  0.00     0.038 A 
HETATM   28  C15 UNL     1      80.868  70.770  31.476  1.00  0.00     0.109 A 
HETATM   29  N5  UNL     1      82.101  71.073  30.990  1.00  0.00    -0.305 N 
ATOM     30  H5  UNL     1      82.482  70.700  30.121  1.00  0.00     0.186 HD
ENDBRANCH  22  25
ENDBRANCH   1  19
TORSDOF 6
ENDMDL
