MODEL 8
REMARK VINA RESULT: -8.589436673      3.393      7.829
REMARK  6 active torsions:
REMARK  status: ('A' for Active; 'I' for Inactive)
REMARK    1  A    between atoms: C5_6  and  C6_7 
REMARK       I    between atoms: C6_7  and  N2_9 
REMARK    2  A    between atoms: N2_9  and  C7_11 
REMARK    3  A    between atoms: C7_11  and  C8_12 
REMARK    4  A    between atoms: C7_11  and  C9_18 
REMARK       I    between atoms: C8_12  and  N3_14 
REMARK    5  A    between atoms: N3_14  and  O3_16 
REMARK    6  A    between atoms: C12_21  and  N4_22 
ROOT
HETATM    1  C7  UNL     1      89.124  74.126  30.626  1.00  0.00     0.212 C 
ENDROOT
BRANCH   1   2
HETATM    2  N2  UNL     1      87.920  73.614  31.260  1.00  0.00    -0.340 N 
HETATM    3  C6  UNL     1      86.726  73.598  30.514  1.00  0.00     0.252 C 
HETATM    4  O1  UNL     1      86.725  74.020  29.340  1.00  0.00    -0.268 OA
ATOM      5  H2  UNL     1      87.939  73.274  32.221  1.00  0.00     0.164 HD
BRANCH   3   6
HETATM    6  C5  UNL     1      85.503  73.098  31.101  1.00  0.00     0.033 A 
HETATM    7  C4  UNL     1      84.789  73.716  32.098  1.00  0.00     0.017 A 
HETATM    8  C3  UNL     1      83.617  73.218  32.646  1.00  0.00     0.003 A 
HETATM    9  C2  UNL     1      83.146  72.022  32.151  1.00  0.00     0.026 A 
HETATM   10  C1  UNL     1      83.848  71.372  31.141  1.00  0.00     0.047 A 
HETATM   11  N1  UNL     1      83.373  70.127  30.613  1.00  0.00    -0.102 NA
HETATM   12  C18 UNL     1      84.997  71.887  30.620  1.00  0.00     0.043 A 
ENDBRANCH   3   6
ENDBRANCH   1   2
BRANCH   1  13
HETATM   13  C8  UNL     1      89.329  75.557  30.812  1.00  0.00     0.268 C 
HETATM   14  O2  UNL     1      90.218  75.976  31.609  1.00  0.00    -0.269 OA
HETATM   15  N3  UNL     1      88.510  76.469  30.086  1.00  0.00    -0.235 N 
ATOM     16  H3  UNL     1      87.792  76.133  29.445  1.00  0.00     0.197 HD
BRANCH  15  17
HETATM   17  O3  UNL     1      88.714  77.802  30.271  1.00  0.00    -0.287 OA
ATOM     18  H3  UNL     1      88.538  78.167  31.130  1.00  0.00     0.244 HD
ENDBRANCH  15  17
ENDBRANCH   1  13
BRANCH   1  19
HETATM   19  C9  UNL     1      90.247  73.321  31.207  1.00  0.00    -0.026 A 
HETATM   20  C10 UNL     1      90.341  72.931  32.505  1.00  0.00     0.012 A 
HETATM   21  C11 UNL     1      91.429  72.189  32.961  1.00  0.00     0.032 A 
HETATM   22  C12 UNL     1      92.434  71.834  32.105  1.00  0.00     0.056 A 
HETATM   23  C16 UNL     1      92.315  72.242  30.793  1.00  0.00     0.032 A 
HETATM   24  C17 UNL     1      91.255  72.975  30.311  1.00  0.00     0.012 A 
BRANCH  22  25
HETATM   25  N4  UNL     1      93.579  71.076  32.497  1.00  0.00    -0.268 N 
HETATM   26  C13 UNL     1      94.755  71.558  32.947  1.00  0.00     0.118 A 
HETATM   27  C14 UNL     1      95.617  70.519  33.225  1.00  0.00     0.038 A 
HETATM   28  C15 UNL     1      94.918  69.372  32.925  1.00  0.00     0.109 A 
HETATM   29  N5  UNL     1      93.693  69.770  32.490  1.00  0.00    -0.305 N 
ATOM     30  H5  UNL     1      92.954  69.132  32.195  1.00  0.00     0.186 HD
ENDBRANCH  22  25
ENDBRANCH   1  19
TORSDOF 6
ENDMDL
