MODEL 7
REMARK VINA RESULT: -8.601505874      2.629      7.221
REMARK  6 active torsions:
REMARK  status: ('A' for Active; 'I' for Inactive)
REMARK    1  A    between atoms: C5_6  and  C6_7 
REMARK       I    between atoms: C6_7  and  N2_9 
REMARK    2  A    between atoms: N2_9  and  C7_11 
REMARK    3  A    between atoms: C7_11  and  C8_12 
REMARK    4  A    between atoms: C7_11  and  C9_18 
REMARK       I    between atoms: C8_12  and  N3_14 
REMARK    5  A    between atoms: N3_14  and  O3_16 
REMARK    6  A    between atoms: C12_21  and  N4_22 
ROOT
HETATM    1  C7  UNL     1      86.899  73.861  30.232  1.00  0.00     0.212 C 
ENDROOT
BRANCH   1   2
HETATM    2  N2  UNL     1      85.832  73.367  31.088  1.00  0.00    -0.340 N 
HETATM    3  C6  UNL     1      85.014  72.329  30.606  1.00  0.00     0.252 C 
HETATM    4  O1  UNL     1      85.218  71.858  29.468  1.00  0.00    -0.268 OA
ATOM      5  H2  UNL     1      85.680  73.763  32.016  1.00  0.00     0.164 HD
BRANCH   3   6
HETATM    6  C5  UNL     1      83.940  71.804  31.419  1.00  0.00     0.033 A 
HETATM    7  C4  UNL     1      83.131  72.547  32.244  1.00  0.00     0.017 A 
HETATM    8  C3  UNL     1      82.106  72.023  33.015  1.00  0.00     0.003 A 
HETATM    9  C2  UNL     1      81.893  70.665  32.945  1.00  0.00     0.026 A 
HETATM   10  C1  UNL     1      82.696  69.885  32.118  1.00  0.00     0.047 A 
HETATM   11  N1  UNL     1      82.489  68.469  32.031  1.00  0.00    -0.102 NA
HETATM   12  C18 UNL     1      83.697  70.429  31.369  1.00  0.00     0.043 A 
ENDBRANCH   3   6
ENDBRANCH   1   2
BRANCH   1  13
HETATM   13  C8  UNL     1      87.044  75.311  30.242  1.00  0.00     0.268 C 
HETATM   14  O2  UNL     1      86.035  76.051  30.423  1.00  0.00    -0.269 OA
HETATM   15  N3  UNL     1      88.337  75.874  30.043  1.00  0.00    -0.235 N 
ATOM     16  H3  UNL     1      89.151  75.278  29.895  1.00  0.00     0.197 HD
BRANCH  15  17
HETATM   17  O3  UNL     1      88.456  77.229  30.054  1.00  0.00    -0.287 OA
ATOM     18  H3  UNL     1      89.304  77.607  29.854  1.00  0.00     0.244 HD
ENDBRANCH  15  17
ENDBRANCH   1  13
BRANCH   1  19
HETATM   19  C9  UNL     1      88.141  73.172  30.715  1.00  0.00    -0.026 A 
HETATM   20  C10 UNL     1      88.583  73.165  32.001  1.00  0.00     0.012 A 
HETATM   21  C11 UNL     1      89.756  72.504  32.359  1.00  0.00     0.032 A 
HETATM   22  C12 UNL     1      90.494  71.842  31.418  1.00  0.00     0.056 A 
HETATM   23  C16 UNL     1      90.024  71.864  30.121  1.00  0.00     0.032 A 
HETATM   24  C17 UNL     1      88.870  72.507  29.734  1.00  0.00     0.012 A 
BRANCH  22  25
HETATM   25  N4  UNL     1      91.705  71.143  31.707  1.00  0.00    -0.268 N 
HETATM   26  C13 UNL     1      92.949  71.660  31.752  1.00  0.00     0.118 A 
HETATM   27  C14 UNL     1      93.861  70.675  32.065  1.00  0.00     0.038 A 
HETATM   28  C15 UNL     1      93.120  69.524  32.210  1.00  0.00     0.109 A 
HETATM   29  N5  UNL     1      91.825  69.867  31.983  1.00  0.00    -0.305 N 
ATOM     30  H5  UNL     1      91.043  69.213  32.022  1.00  0.00     0.186 HD
ENDBRANCH  22  25
ENDBRANCH   1  19
TORSDOF 6
ENDMDL
