MODEL 6
REMARK VINA RESULT: -8.685291183      2.026      2.106
REMARK  6 active torsions:
REMARK  status: ('A' for Active; 'I' for Inactive)
REMARK    1  A    between atoms: C5_6  and  C6_7 
REMARK       I    between atoms: C6_7  and  N2_9 
REMARK    2  A    between atoms: N2_9  and  C7_11 
REMARK    3  A    between atoms: C7_11  and  C8_12 
REMARK    4  A    between atoms: C7_11  and  C9_18 
REMARK       I    between atoms: C8_12  and  N3_14 
REMARK    5  A    between atoms: N3_14  and  O3_16 
REMARK    6  A    between atoms: C12_21  and  N4_22 
ROOT
HETATM    1  C7  UNL     1      87.387  73.690  31.346  1.00  0.00     0.212 C 
ENDROOT
BRANCH   1   2
HETATM    2  N2  UNL     1      88.066  72.441  31.037  1.00  0.00    -0.340 N 
HETATM    3  C6  UNL     1      89.268  72.150  31.709  1.00  0.00     0.252 C 
HETATM    4  O1  UNL     1      89.722  72.959  32.543  1.00  0.00    -0.268 OA
ATOM      5  H2  UNL     1      87.681  71.792  30.351  1.00  0.00     0.164 HD
BRANCH   3   6
HETATM    6  C5  UNL     1      89.980  70.922  31.436  1.00  0.00     0.033 A 
HETATM    7  C4  UNL     1      90.449  70.530  30.206  1.00  0.00     0.017 A 
HETATM    8  C3  UNL     1      91.130  69.347  29.968  1.00  0.00     0.003 A 
HETATM    9  C2  UNL     1      91.344  68.513  31.043  1.00  0.00     0.026 A 
HETATM   10  C1  UNL     1      90.880  68.882  32.302  1.00  0.00     0.047 A 
HETATM   11  N1  UNL     1      91.094  68.028  33.434  1.00  0.00    -0.102 NA
HETATM   12  C18 UNL     1      90.215  70.054  32.506  1.00  0.00     0.043 A 
ENDBRANCH   3   6
ENDBRANCH   1   2
BRANCH   1  13
HETATM   13  C8  UNL     1      87.505  74.702  30.303  1.00  0.00     0.268 C 
HETATM   14  O2  UNL     1      87.077  74.468  29.136  1.00  0.00    -0.269 OA
HETATM   15  N3  UNL     1      88.113  75.950  30.622  1.00  0.00    -0.235 N 
ATOM     16  H3  UNL     1      88.460  76.138  31.562  1.00  0.00     0.197 HD
BRANCH  15  17
HETATM   17  O3  UNL     1      88.215  76.884  29.638  1.00  0.00    -0.287 OA
ATOM     18  H3  UNL     1      87.440  77.384  29.411  1.00  0.00     0.244 HD
ENDBRANCH  15  17
ENDBRANCH   1  13
BRANCH   1  19
HETATM   19  C9  UNL     1      85.958  73.309  31.595  1.00  0.00    -0.026 A 
HETATM   20  C10 UNL     1      85.069  74.037  32.322  1.00  0.00     0.012 A 
HETATM   21  C11 UNL     1      83.760  73.601  32.509  1.00  0.00     0.032 A 
HETATM   22  C12 UNL     1      83.336  72.422  31.963  1.00  0.00     0.056 A 
HETATM   23  C16 UNL     1      84.257  71.703  31.230  1.00  0.00     0.032 A 
HETATM   24  C17 UNL     1      85.557  72.105  31.025  1.00  0.00     0.012 A 
BRANCH  22  25
HETATM   25  N4  UNL     1      82.012  71.910  32.111  1.00  0.00    -0.268 N 
HETATM   26  C13 UNL     1      81.343  71.127  31.239  1.00  0.00     0.118 A 
HETATM   27  C14 UNL     1      80.089  70.836  31.731  1.00  0.00     0.038 A 
HETATM   28  C15 UNL     1      80.014  71.475  32.947  1.00  0.00     0.109 A 
HETATM   29  N5  UNL     1      81.204  72.108  33.125  1.00  0.00    -0.305 N 
ATOM     30  H5  UNL     1      81.439  72.666  33.944  1.00  0.00     0.186 HD
ENDBRANCH  22  25
ENDBRANCH   1  19
TORSDOF 6
ENDMDL
