MODEL 3
REMARK VINA RESULT: -9.181387353      1.486      1.993
REMARK  6 active torsions:
REMARK  status: ('A' for Active; 'I' for Inactive)
REMARK    1  A    between atoms: C5_6  and  C6_7 
REMARK       I    between atoms: C6_7  and  N2_9 
REMARK    2  A    between atoms: N2_9  and  C7_11 
REMARK    3  A    between atoms: C7_11  and  C8_12 
REMARK    4  A    between atoms: C7_11  and  C9_18 
REMARK       I    between atoms: C8_12  and  N3_14 
REMARK    5  A    between atoms: N3_14  and  O3_16 
REMARK    6  A    between atoms: C12_21  and  N4_22 
ROOT
HETATM    1  C7  UNL     1      87.623  73.973  30.985  1.00  0.00     0.212 C 
ENDROOT
BRANCH   1   2
HETATM    2  N2  UNL     1      88.358  72.967  30.233  1.00  0.00    -0.340 N 
HETATM    3  C6  UNL     1      89.732  72.810  30.493  1.00  0.00     0.252 C 
HETATM    4  O1  UNL     1      90.286  73.527  31.351  1.00  0.00    -0.268 OA
ATOM      5  H2  UNL     1      87.888  72.390  29.535  1.00  0.00     0.164 HD
BRANCH   3   6
HETATM    6  C5  UNL     1      90.505  71.823  29.772  1.00  0.00     0.033 A 
HETATM    7  C4  UNL     1      89.985  70.835  28.972  1.00  0.00     0.017 A 
HETATM    8  C3  UNL     1      90.746  69.899  28.289  1.00  0.00     0.003 A 
HETATM    9  C2  UNL     1      92.113  69.972  28.431  1.00  0.00     0.026 A 
HETATM   10  C1  UNL     1      92.670  70.961  29.235  1.00  0.00     0.047 A 
HETATM   11  N1  UNL     1      94.092  71.053  29.394  1.00  0.00    -0.102 NA
HETATM   12  C18 UNL     1      91.896  71.870  29.894  1.00  0.00     0.043 A 
ENDBRANCH   3   6
ENDBRANCH   1   2
BRANCH   1  13
HETATM   13  C8  UNL     1      87.560  75.273  30.329  1.00  0.00     0.268 C 
HETATM   14  O2  UNL     1      86.554  75.586  29.628  1.00  0.00    -0.269 OA
HETATM   15  N3  UNL     1      88.648  76.178  30.489  1.00  0.00    -0.235 N 
ATOM     16  H3  UNL     1      89.460  75.926  31.051  1.00  0.00     0.197 HD
BRANCH  15  17
HETATM   17  O3  UNL     1      88.574  77.388  29.870  1.00  0.00    -0.287 OA
ATOM     18  H3  UNL     1      89.254  77.615  29.247  1.00  0.00     0.244 HD
ENDBRANCH  15  17
ENDBRANCH   1  13
BRANCH   1  19
HETATM   19  C9  UNL     1      86.259  73.387  31.197  1.00  0.00    -0.026 A 
HETATM   20  C10 UNL     1      85.781  72.273  30.583  1.00  0.00     0.012 A 
HETATM   21  C11 UNL     1      84.494  71.804  30.835  1.00  0.00     0.032 A 
HETATM   22  C12 UNL     1      83.676  72.459  31.712  1.00  0.00     0.056 A 
HETATM   23  C16 UNL     1      84.185  73.587  32.322  1.00  0.00     0.032 A 
HETATM   24  C17 UNL     1      85.451  74.077  32.096  1.00  0.00     0.012 A 
BRANCH  22  25
HETATM   25  N4  UNL     1      82.347  72.041  32.022  1.00  0.00    -0.268 N 
HETATM   26  C13 UNL     1      81.504  71.358  31.221  1.00  0.00     0.118 A 
HETATM   27  C14 UNL     1      80.309  71.135  31.870  1.00  0.00     0.038 A 
HETATM   28  C15 UNL     1      80.453  71.713  33.111  1.00  0.00     0.109 A 
HETATM   29  N5  UNL     1      81.704  72.244  33.147  1.00  0.00    -0.305 N 
ATOM     30  H5  UNL     1      82.094  72.740  33.948  1.00  0.00     0.186 HD
ENDBRANCH  22  25
ENDBRANCH   1  19
TORSDOF 6
ENDMDL
