MODEL 7
REMARK VINA RESULT: -6.225120649      7.013      8.817
REMARK  7 active torsions:
REMARK  status: ('A' for Active; 'I' for Inactive)
REMARK    1  A    between atoms: O1_1  and  C1_3 
REMARK    2  A    between atoms: C1_3  and  C2_4 
REMARK    3  A    between atoms: C3_6  and  O3_7 
REMARK    4  A    between atoms: C4_9  and  O4_10 
REMARK    5  A    between atoms: O4_10  and  P1_11 
REMARK    6  A    between atoms: C5_15  and  O8_16 
REMARK    7  A    between atoms: C6_18  and  O9_19 
ROOT
HETATM    1  C2  UNL     1     -14.928 -27.685  25.045  1.00  0.00     0.179 C 
HETATM    2  O2  UNL     1     -13.540 -27.682  25.196  1.00  0.00    -0.349 OA
HETATM    3  C3  UNL     1     -13.027 -28.628  24.337  1.00  0.00     0.289 C 
HETATM    4  C4  UNL     1     -13.367 -30.054  24.774  1.00  0.00     0.221 C 
HETATM    5  C5  UNL     1     -14.853 -30.194  24.897  1.00  0.00     0.183 C 
HETATM    6  C6  UNL     1     -15.536 -28.987  25.463  1.00  0.00     0.180 C 
ENDROOT
BRANCH   4   7
HETATM    7  O4  UNL     1     -12.921 -30.867  23.703  1.00  0.00    -0.270 OA
BRANCH   7   8
HETATM    8  P1  UNL     1     -11.589 -31.596  23.948  1.00  0.00     0.422 P 
HETATM    9  O5  UNL     1     -10.147 -32.101  24.181  1.00  0.00    -0.617 OA
HETATM   10  O6  UNL     1     -11.066 -30.906  22.511  1.00  0.00    -0.617 OA
HETATM   11  O7  UNL     1     -12.305 -33.041  23.890  1.00  0.00    -0.617 OA
ENDBRANCH   7   8
ENDBRANCH   4   7
BRANCH   3  12
HETATM   12  O3  UNL     1     -13.612 -28.491  23.055  1.00  0.00    -0.368 OA
ATOM     13  H3  UNL     1     -12.945 -28.558  22.382  1.00  0.00     0.212 HD
ENDBRANCH   3  12
BRANCH   5  14
HETATM   14  O8  UNL     1     -15.205 -31.284  25.711  1.00  0.00    -0.390 OA
ATOM     15  H8  UNL     1     -15.412 -32.054  25.195  1.00  0.00     0.210 HD
ENDBRANCH   5  14
BRANCH   6  16
HETATM   16  O9  UNL     1     -16.870 -29.006  25.129  1.00  0.00    -0.390 OA
ATOM     17  H9  UNL     1     -16.996 -29.518  24.339  1.00  0.00     0.210 HD
ENDBRANCH   6  16
BRANCH   1  18
HETATM   18  C1  UNL     1     -15.479 -26.596  25.943  1.00  0.00     0.198 C 
BRANCH  18  19
HETATM   19  O1  UNL     1     -16.786 -26.261  25.626  1.00  0.00    -0.398 OA
ATOM     20  H1  UNL     1     -17.156 -25.633  26.235  1.00  0.00     0.209 HD
ENDBRANCH  18  19
ENDBRANCH   1  18
TORSDOF 7
ENDMDL
