MODEL 13
REMARK VINA RESULT: -5.889665122      2.266      5.152
REMARK  7 active torsions:
REMARK  status: ('A' for Active; 'I' for Inactive)
REMARK    1  A    between atoms: O1_1  and  C1_3 
REMARK    2  A    between atoms: C1_3  and  C2_4 
REMARK    3  A    between atoms: C3_6  and  O3_7 
REMARK    4  A    between atoms: C4_9  and  O4_10 
REMARK    5  A    between atoms: O4_10  and  P1_11 
REMARK    6  A    between atoms: C5_15  and  O8_16 
REMARK    7  A    between atoms: C6_18  and  O9_19 
ROOT
HETATM    1  C2  UNL     1     -12.595 -27.770  20.607  1.00  0.00     0.179 C 
HETATM    2  O2  UNL     1     -12.202 -28.909  19.902  1.00  0.00    -0.349 OA
HETATM    3  C3  UNL     1     -12.437 -28.670  18.566  1.00  0.00     0.289 C 
HETATM    4  C4  UNL     1     -13.931 -28.622  18.239  1.00  0.00     0.221 C 
HETATM    5  C5  UNL     1     -14.591 -27.584  19.091  1.00  0.00     0.183 C 
HETATM    6  C6  UNL     1     -14.065 -27.516  20.492  1.00  0.00     0.180 C 
ENDROOT
BRANCH   4   7
HETATM    7  O4  UNL     1     -13.983 -28.202  16.888  1.00  0.00    -0.270 OA
BRANCH   7   8
HETATM    8  P1  UNL     1     -14.748 -29.142  15.940  1.00  0.00     0.422 P 
HETATM    9  O5  UNL     1     -15.302 -30.213  14.974  1.00  0.00    -0.617 OA
HETATM   10  O6  UNL     1     -13.556 -28.805  14.809  1.00  0.00    -0.617 OA
HETATM   11  O7  UNL     1     -16.059 -28.202  15.977  1.00  0.00    -0.617 OA
ENDBRANCH   7   8
ENDBRANCH   4   7
BRANCH   3  12
HETATM   12  O3  UNL     1     -11.944 -27.394  18.204  1.00  0.00    -0.368 OA
ATOM     13  H3  UNL     1     -12.006 -27.273  17.263  1.00  0.00     0.212 HD
ENDBRANCH   3  12
BRANCH   5  14
HETATM   14  O8  UNL     1     -15.978 -27.795  19.185  1.00  0.00    -0.390 OA
ATOM     15  H8  UNL     1     -16.327 -27.470  20.006  1.00  0.00     0.210 HD
ENDBRANCH   5  14
BRANCH   6  16
HETATM   16  O9  UNL     1     -14.372 -26.296  21.047  1.00  0.00    -0.390 OA
ATOM     17  H9  UNL     1     -15.315 -26.184  21.076  1.00  0.00     0.210 HD
ENDBRANCH   6  16
BRANCH   1  18
HETATM   18  C1  UNL     1     -12.270 -28.014  22.068  1.00  0.00     0.198 C 
BRANCH  18  19
HETATM   19  O1  UNL     1     -13.346 -28.537  22.767  1.00  0.00    -0.398 OA
ATOM     20  H1  UNL     1     -13.393 -28.209  23.657  1.00  0.00     0.209 HD
ENDBRANCH  18  19
ENDBRANCH   1  18
TORSDOF 7
ENDMDL
