MODEL 2
REMARK VINA RESULT: -6.988980256      1.268      2.616
REMARK  7 active torsions:
REMARK  status: ('A' for Active; 'I' for Inactive)
REMARK    1  A    between atoms: O1_1  and  C1_3 
REMARK    2  A    between atoms: C1_3  and  C2_4 
REMARK    3  A    between atoms: C3_6  and  O3_7 
REMARK    4  A    between atoms: C4_9  and  O4_10 
REMARK    5  A    between atoms: O4_10  and  P1_11 
REMARK    6  A    between atoms: C5_15  and  O8_16 
REMARK    7  A    between atoms: C6_18  and  O9_19 
ROOT
HETATM    1  C2  UNL     1     -14.825 -28.614  15.910  1.00  0.00     0.179 C 
HETATM    2  O2  UNL     1     -16.129 -28.569  16.410  1.00  0.00    -0.349 OA
HETATM    3  C3  UNL     1     -16.194 -27.520  17.300  1.00  0.00     0.289 C 
HETATM    4  C4  UNL     1     -15.398 -27.794  18.578  1.00  0.00     0.221 C 
HETATM    5  C5  UNL     1     -13.978 -28.102  18.221  1.00  0.00     0.183 C 
HETATM    6  C6  UNL     1     -13.824 -28.924  16.978  1.00  0.00     0.180 C 
ENDROOT
BRANCH   4   7
HETATM    7  O4  UNL     1     -15.434 -26.567  19.285  1.00  0.00    -0.270 OA
BRANCH   7   8
HETATM    8  P1  UNL     1     -15.669 -26.692  20.800  1.00  0.00     0.422 P 
HETATM    9  O5  UNL     1     -16.144 -26.857  22.261  1.00  0.00    -0.617 OA
HETATM   10  O6  UNL     1     -16.785 -25.452  20.625  1.00  0.00    -0.617 OA
HETATM   11  O7  UNL     1     -14.136 -26.304  21.126  1.00  0.00    -0.617 OA
ENDBRANCH   7   8
ENDBRANCH   4   7
BRANCH   3  12
HETATM   12  O3  UNL     1     -15.598 -26.366  16.740  1.00  0.00    -0.368 OA
ATOM     13  H3  UNL     1     -15.522 -26.460  15.798  1.00  0.00     0.212 HD
ENDBRANCH   3  12
BRANCH   5  14
HETATM   14  O8  UNL     1     -13.322 -28.794  19.253  1.00  0.00    -0.390 OA
ATOM     15  H8  UNL     1     -12.572 -29.278  18.929  1.00  0.00     0.210 HD
ENDBRANCH   5  14
BRANCH   6  16
HETATM   16  O9  UNL     1     -12.551 -28.780  16.478  1.00  0.00    -0.390 OA
ATOM     17  H9  UNL     1     -12.404 -29.413  15.785  1.00  0.00     0.210 HD
ENDBRANCH   6  16
BRANCH   1  18
HETATM   18  C1  UNL     1     -14.779 -29.726  14.881  1.00  0.00     0.198 C 
BRANCH  18  19
HETATM   19  O1  UNL     1     -13.612 -29.705  14.134  1.00  0.00    -0.398 OA
ATOM     20  H1  UNL     1     -13.181 -28.859  14.162  1.00  0.00     0.209 HD
ENDBRANCH  18  19
ENDBRANCH   1  18
TORSDOF 7
ENDMDL
