MODEL 3
REMARK VINA RESULT: -6.753118354      2.386      5.346
REMARK  7 active torsions:
REMARK  status: ('A' for Active; 'I' for Inactive)
REMARK    1  A    between atoms: O1_1  and  C1_3 
REMARK    2  A    between atoms: C1_3  and  C2_4 
REMARK    3  A    between atoms: C3_6  and  O3_7 
REMARK    4  A    between atoms: C4_9  and  O4_10 
REMARK    5  A    between atoms: O4_10  and  P1_11 
REMARK    6  A    between atoms: C5_15  and  O8_16 
REMARK    7  A    between atoms: C6_18  and  O9_19 
ROOT
HETATM    1  C2  UNL     1     -14.465 -26.821  21.198  1.00  0.00     0.179 C 
HETATM    2  O2  UNL     1     -13.780 -27.984  20.837  1.00  0.00    -0.349 OA
HETATM    3  C3  UNL     1     -13.566 -27.932  19.478  1.00  0.00     0.289 C 
HETATM    4  C4  UNL     1     -14.861 -28.093  18.679  1.00  0.00     0.221 C 
HETATM    5  C5  UNL     1     -15.839 -27.042  19.105  1.00  0.00     0.183 C 
HETATM    6  C6  UNL     1     -15.822 -26.750  20.574  1.00  0.00     0.180 C 
ENDROOT
BRANCH   4   7
HETATM    7  O4  UNL     1     -14.481 -27.844  17.338  1.00  0.00    -0.270 OA
BRANCH   7   8
HETATM    8  P1  UNL     1     -14.963 -28.889  16.317  1.00  0.00     0.422 P 
HETATM    9  O5  UNL     1     -15.230 -30.054  15.337  1.00  0.00    -0.617 OA
HETATM   10  O6  UNL     1     -13.559 -28.553  15.464  1.00  0.00    -0.617 OA
HETATM   11  O7  UNL     1     -16.289 -28.032  15.982  1.00  0.00    -0.617 OA
ENDBRANCH   7   8
ENDBRANCH   4   7
BRANCH   3  12
HETATM   12  O3  UNL     1     -13.067 -26.660  19.110  1.00  0.00    -0.368 OA
ATOM     13  H3  UNL     1     -12.217 -26.749  18.694  1.00  0.00     0.212 HD
ENDBRANCH   3  12
BRANCH   5  14
HETATM   14  O8  UNL     1     -17.158 -27.397  18.772  1.00  0.00    -0.390 OA
ATOM     15  H8  UNL     1     -17.753 -26.664  18.871  1.00  0.00     0.210 HD
ENDBRANCH   5  14
BRANCH   6  16
HETATM   16  O9  UNL     1     -16.381 -25.516  20.810  1.00  0.00    -0.390 OA
ATOM     17  H9  UNL     1     -15.794 -24.834  20.505  1.00  0.00     0.210 HD
ENDBRANCH   6  16
BRANCH   1  18
HETATM   18  C1  UNL     1     -14.637 -26.852  22.703  1.00  0.00     0.198 C 
BRANCH  18  19
HETATM   19  O1  UNL     1     -15.968 -26.934  23.080  1.00  0.00    -0.398 OA
ATOM     20  H1  UNL     1     -16.455 -27.555  22.551  1.00  0.00     0.209 HD
ENDBRANCH  18  19
ENDBRANCH   1  18
TORSDOF 7
ENDMDL
