MODEL 1
REMARK VINA RESULT: -12.503911593      0.000      0.000
REMARK  7 active torsions:
REMARK  status: ('A' for Active; 'I' for Inactive)
REMARK    1  A    between atoms: C2_2  and  O1_4 
REMARK    2  A    between atoms: C2_2  and  C4_6 
REMARK    3  A    between atoms: N1_8  and  C6_9 
REMARK    4  A    between atoms: C9_12  and  C10_13 
REMARK    5  A    between atoms: C14_17  and  S1_18 
REMARK    6  A    between atoms: C19_25  and  C20_26 
REMARK    7  A    between atoms: C20_26  and  C23_29 
ROOT
HETATM    1  C4  UNL     1     -23.510   8.873 -45.126  1.00  0.00     0.060 A 
HETATM    2  C5  UNL     1     -22.994  10.132 -44.956  1.00  0.00     0.127 A 
HETATM    3  N1  UNL     1     -23.143  10.543 -43.664  1.00  0.00    -0.309 N 
HETATM    4  C19 UNL     1     -23.755   9.533 -43.028  1.00  0.00     0.101 A 
HETATM    5  N2  UNL     1     -23.974   8.524 -43.923  1.00  0.00    -0.344 N 
ATOM      6  H2  UNL     1     -24.425   7.636 -43.705  1.00  0.00     0.167 HD
ENDROOT
BRANCH   3   7
HETATM    7  C6  UNL     1     -22.720  11.816 -43.157  1.00  0.00     0.040 A 
HETATM    8  C7  UNL     1     -23.644  12.848 -43.077  1.00  0.00     0.031 A 
HETATM    9  C8  UNL     1     -23.309  14.097 -42.608  1.00  0.00     0.014 A 
HETATM   10  C9  UNL     1     -22.026  14.380 -42.191  1.00  0.00    -0.026 A 
HETATM   11  C17 UNL     1     -21.106  13.358 -42.268  1.00  0.00     0.014 A 
HETATM   12  C18 UNL     1     -21.441  12.094 -42.743  1.00  0.00     0.031 A 
BRANCH  10  13
HETATM   13  C10 UNL     1     -21.659  15.718 -41.701  1.00  0.00    -0.025 A 
HETATM   14  C11 UNL     1     -21.065  15.937 -40.476  1.00  0.00     0.012 A 
HETATM   15  C12 UNL     1     -20.712  17.203 -40.042  1.00  0.00     0.002 A 
HETATM   16  C13 UNL     1     -20.950  18.305 -40.848  1.00  0.00     0.023 A 
HETATM   17  C14 UNL     1     -21.543  18.105 -42.077  1.00  0.00     0.059 A 
HETATM   18  C16 UNL     1     -21.893  16.819 -42.496  1.00  0.00     0.035 A 
BRANCH  17  19
HETATM   19  S1  UNL     1     -21.829  19.490 -43.092  1.00  0.00     0.171 S 
HETATM   20  C15 UNL     1     -23.207  19.267 -44.184  1.00  0.00     0.167 C 
HETATM   21  O2  UNL     1     -20.607  19.851 -43.897  1.00  0.00    -0.223 OA
HETATM   22  O3  UNL     1     -22.166  20.662 -42.185  1.00  0.00    -0.223 OA
ENDBRANCH  17  19
ENDBRANCH  10  13
ENDBRANCH   3   7
BRANCH   4  23
HETATM   23  C20 UNL     1     -24.135   9.513 -41.589  1.00  0.00     0.040 C 
HETATM   24  C21 UNL     1     -24.622   8.143 -41.156  1.00  0.00     0.028 C 
HETATM   25  C22 UNL     1     -25.132  10.558 -41.200  1.00  0.00     0.028 C 
BRANCH  23  26
HETATM   26  C23 UNL     1     -22.909   9.780 -40.797  1.00  0.00    -0.021 A 
HETATM   27  C24 UNL     1     -22.777  10.831 -39.917  1.00  0.00     0.010 A 
HETATM   28  C25 UNL     1     -21.604  11.060 -39.198  1.00  0.00     0.001 A 
HETATM   29  C26 UNL     1     -20.539  10.202 -39.375  1.00  0.00     0.002 A 
HETATM   30  C27 UNL     1     -20.645   9.143 -40.249  1.00  0.00     0.024 A 
HETATM   31  C28 UNL     1     -21.834   8.937 -40.957  1.00  0.00     0.041 A 
HETATM   32 CL1  UNL     1     -21.836   7.548 -42.032  1.00  0.00    -0.084 Cl
ENDBRANCH  23  26
ENDBRANCH   4  23
BRANCH   1  33
HETATM   33  C2  UNL     1     -23.573   8.040 -46.341  1.00  0.00     0.094 C 
HETATM   34  C1  UNL     1     -24.827   8.356 -47.162  1.00  0.00     0.052 C 
HETATM   35  C3  UNL     1     -23.657   6.582 -45.965  1.00  0.00     0.052 C 
BRANCH  33  36
HETATM   36  O1  UNL     1     -22.448   8.225 -47.170  1.00  0.00    -0.384 OA
ATOM     37  H1  UNL     1     -21.704   8.434 -46.617  1.00  0.00     0.211 HD
ENDBRANCH  33  36
ENDBRANCH   1  33
TORSDOF 7
ENDMDL
