MODEL 8
REMARK VINA RESULT: -11.583945887      0.935      1.723
REMARK  7 active torsions:
REMARK  status: ('A' for Active; 'I' for Inactive)
REMARK    1  A    between atoms: C2_2  and  O1_4 
REMARK    2  A    between atoms: C2_2  and  C4_6 
REMARK    3  A    between atoms: N1_8  and  C6_9 
REMARK    4  A    between atoms: C9_12  and  C10_13 
REMARK    5  A    between atoms: C14_17  and  S1_18 
REMARK    6  A    between atoms: C19_25  and  C20_26 
REMARK    7  A    between atoms: C20_26  and  C23_29 
ROOT
HETATM    1  C4  UNL     1     -23.054   8.875 -45.089  1.00  0.00     0.060 A 
HETATM    2  C5  UNL     1     -22.864  10.222 -44.911  1.00  0.00     0.127 A 
HETATM    3  N1  UNL     1     -22.457  10.486 -43.636  1.00  0.00    -0.309 N 
HETATM    4  C19 UNL     1     -22.394   9.296 -43.020  1.00  0.00     0.101 A 
HETATM    5  N2  UNL     1     -22.757   8.325 -43.909  1.00  0.00    -0.344 N 
ATOM      6  H2  UNL     1     -22.796   7.327 -43.702  1.00  0.00     0.167 HD
ENDROOT
BRANCH   3   7
HETATM    7  C6  UNL     1     -22.182  11.795 -43.120  1.00  0.00     0.040 A 
HETATM    8  C7  UNL     1     -23.231  12.691 -42.968  1.00  0.00     0.031 A 
HETATM    9  C8  UNL     1     -23.042  13.965 -42.486  1.00  0.00     0.014 A 
HETATM   10  C9  UNL     1     -21.789  14.413 -42.129  1.00  0.00    -0.026 A 
HETATM   11  C17 UNL     1     -20.745  13.526 -42.278  1.00  0.00     0.014 A 
HETATM   12  C18 UNL     1     -20.931  12.237 -42.766  1.00  0.00     0.031 A 
BRANCH  10  13
HETATM   13  C10 UNL     1     -21.578  15.780 -41.626  1.00  0.00    -0.025 A 
HETATM   14  C11 UNL     1     -21.141  16.055 -40.348  1.00  0.00     0.012 A 
HETATM   15  C12 UNL     1     -20.933  17.349 -39.900  1.00  0.00     0.002 A 
HETATM   16  C13 UNL     1     -21.164  18.421 -40.747  1.00  0.00     0.023 A 
HETATM   17  C14 UNL     1     -21.602  18.165 -42.029  1.00  0.00     0.059 A 
HETATM   18  C16 UNL     1     -21.806  16.851 -42.461  1.00  0.00     0.035 A 
BRANCH  17  19
HETATM   19  S1  UNL     1     -21.877  19.514 -43.094  1.00  0.00     0.171 S 
HETATM   20  C15 UNL     1     -23.275  19.274 -44.157  1.00  0.00     0.167 C 
HETATM   21  O2  UNL     1     -20.661  19.821 -43.929  1.00  0.00    -0.223 OA
HETATM   22  O3  UNL     1     -22.180  20.726 -42.229  1.00  0.00    -0.223 OA
ENDBRANCH  17  19
ENDBRANCH  10  13
ENDBRANCH   3   7
BRANCH   4  23
HETATM   23  C20 UNL     1     -21.996   9.070 -41.603  1.00  0.00     0.040 C 
HETATM   24  C21 UNL     1     -20.530   9.389 -41.375  1.00  0.00     0.028 C 
HETATM   25  C22 UNL     1     -22.310   7.703 -41.085  1.00  0.00     0.028 C 
BRANCH  23  26
HETATM   26  C23 UNL     1     -22.758  10.028 -40.764  1.00  0.00    -0.021 A 
HETATM   27  C24 UNL     1     -22.170  10.969 -39.947  1.00  0.00     0.010 A 
HETATM   28  C25 UNL     1     -22.917  11.846 -39.161  1.00  0.00     0.001 A 
HETATM   29  C26 UNL     1     -24.293  11.768 -39.204  1.00  0.00     0.002 A 
HETATM   30  C27 UNL     1     -24.906  10.837 -40.013  1.00  0.00     0.024 A 
HETATM   31  C28 UNL     1     -24.131   9.970 -40.791  1.00  0.00     0.041 A 
HETATM   32 CL1  UNL     1     -25.038   8.837 -41.781  1.00  0.00    -0.084 Cl
ENDBRANCH  23  26
ENDBRANCH   4  23
BRANCH   1  33
HETATM   33  C2  UNL     1     -23.491   8.140 -46.290  1.00  0.00     0.094 C 
HETATM   34  C1  UNL     1     -24.841   8.659 -46.793  1.00  0.00     0.052 C 
HETATM   35  C3  UNL     1     -23.683   6.681 -45.960  1.00  0.00     0.052 C 
BRANCH  33  36
HETATM   36  O1  UNL     1     -22.560   8.242 -47.343  1.00  0.00    -0.384 OA
ATOM     37  H1  UNL     1     -21.766   7.790 -47.083  1.00  0.00     0.211 HD
ENDBRANCH  33  36
ENDBRANCH   1  33
TORSDOF 7
ENDMDL
