MODEL 16
REMARK VINA RESULT: -9.196638150      3.190      8.112
REMARK  7 active torsions:
REMARK  status: ('A' for Active; 'I' for Inactive)
REMARK    1  A    between atoms: C2_2  and  O1_4 
REMARK    2  A    between atoms: C2_2  and  C4_6 
REMARK    3  A    between atoms: N1_8  and  C6_9 
REMARK    4  A    between atoms: C9_12  and  C10_13 
REMARK    5  A    between atoms: C14_17  and  S1_18 
REMARK    6  A    between atoms: C19_25  and  C20_26 
REMARK    7  A    between atoms: C20_26  and  C23_29 
ROOT
HETATM    1  C4  UNL     1     -21.361  15.045 -40.468  1.00  0.00     0.060 A 
HETATM    2  C5  UNL     1     -21.619  14.416 -41.659  1.00  0.00     0.127 A 
HETATM    3  N1  UNL     1     -22.076  13.148 -41.447  1.00  0.00    -0.309 N 
HETATM    4  C19 UNL     1     -22.101  12.989 -40.115  1.00  0.00     0.101 A 
HETATM    5  N2  UNL     1     -21.666  14.144 -39.530  1.00  0.00    -0.344 N 
ATOM      6  H2  UNL     1     -21.586  14.296 -38.524  1.00  0.00     0.167 HD
ENDROOT
BRANCH   3   7
HETATM    7  C6  UNL     1     -22.427  12.222 -42.483  1.00  0.00     0.040 A 
HETATM    8  C7  UNL     1     -21.432  11.440 -43.051  1.00  0.00     0.031 A 
HETATM    9  C8  UNL     1     -21.693  10.535 -44.053  1.00  0.00     0.014 A 
HETATM   10  C9  UNL     1     -22.970  10.363 -44.541  1.00  0.00    -0.026 A 
HETATM   11  C17 UNL     1     -23.961  11.137 -43.980  1.00  0.00     0.014 A 
HETATM   12  C18 UNL     1     -23.701  12.054 -42.967  1.00  0.00     0.031 A 
BRANCH  10  13
HETATM   13  C10 UNL     1     -23.253   9.406 -45.623  1.00  0.00    -0.025 A 
HETATM   14  C11 UNL     1     -24.519   8.936 -45.903  1.00  0.00     0.012 A 
HETATM   15  C12 UNL     1     -24.765   8.048 -46.937  1.00  0.00     0.002 A 
HETATM   16  C13 UNL     1     -23.723   7.604 -47.733  1.00  0.00     0.023 A 
HETATM   17  C14 UNL     1     -22.450   8.064 -47.469  1.00  0.00     0.059 A 
HETATM   18  C16 UNL     1     -22.222   8.959 -46.420  1.00  0.00     0.035 A 
BRANCH  17  19
HETATM   19  S1  UNL     1     -21.145   7.515 -48.481  1.00  0.00     0.171 S 
HETATM   20  C15 UNL     1     -19.805   8.672 -48.561  1.00  0.00     0.167 C 
HETATM   21  O2  UNL     1     -21.617   7.201 -49.877  1.00  0.00    -0.223 OA
HETATM   22  O3  UNL     1     -20.593   6.239 -47.865  1.00  0.00    -0.223 OA
ENDBRANCH  17  19
ENDBRANCH  10  13
ENDBRANCH   3   7
BRANCH   4  23
HETATM   23  C20 UNL     1     -22.531  11.759 -39.394  1.00  0.00     0.040 C 
HETATM   24  C21 UNL     1     -23.961  11.382 -39.732  1.00  0.00     0.028 C 
HETATM   25  C22 UNL     1     -22.352  11.820 -37.911  1.00  0.00     0.028 C 
BRANCH  23  26
HETATM   26  C23 UNL     1     -21.687  10.638 -39.878  1.00  0.00    -0.021 A 
HETATM   27  C24 UNL     1     -20.314  10.613 -39.781  1.00  0.00     0.010 A 
HETATM   28  C25 UNL     1     -19.550   9.548 -40.259  1.00  0.00     0.001 A 
HETATM   29  C26 UNL     1     -20.196   8.481 -40.849  1.00  0.00     0.002 A 
HETATM   30  C27 UNL     1     -21.569   8.481 -40.958  1.00  0.00     0.024 A 
HETATM   31  C28 UNL     1     -22.309   9.563 -40.470  1.00  0.00     0.041 A 
HETATM   32 CL1  UNL     1     -24.049   9.432 -40.668  1.00  0.00    -0.084 Cl
ENDBRANCH  23  26
ENDBRANCH   4  23
BRANCH   1  33
HETATM   33  C2  UNL     1     -20.854  16.405 -40.214  1.00  0.00     0.094 C 
HETATM   34  C1  UNL     1     -21.558  17.040 -39.012  1.00  0.00     0.052 C 
HETATM   35  C3  UNL     1     -21.139  17.291 -41.401  1.00  0.00     0.052 C 
BRANCH  33  36
HETATM   36  O1  UNL     1     -19.467  16.418 -39.969  1.00  0.00    -0.384 OA
ATOM     37  H1  UNL     1     -19.221  15.572 -39.613  1.00  0.00     0.211 HD
ENDBRANCH  33  36
ENDBRANCH   1  33
TORSDOF 7
ENDMDL
