MODEL 2
REMARK VINA RESULT: -12.482772807      1.117      1.640
REMARK  7 active torsions:
REMARK  status: ('A' for Active; 'I' for Inactive)
REMARK    1  A    between atoms: C2_2  and  O1_4 
REMARK    2  A    between atoms: C2_2  and  C4_6 
REMARK    3  A    between atoms: N1_8  and  C6_9 
REMARK    4  A    between atoms: C9_12  and  C10_13 
REMARK    5  A    between atoms: C14_17  and  S1_18 
REMARK    6  A    between atoms: C19_25  and  C20_26 
REMARK    7  A    between atoms: C20_26  and  C23_29 
ROOT
HETATM    1  C4  UNL     1     -23.580   8.810 -45.170  1.00  0.00     0.060 A 
HETATM    2  C5  UNL     1     -23.177  10.115 -45.045  1.00  0.00     0.127 A 
HETATM    3  N1  UNL     1     -23.305  10.537 -43.753  1.00  0.00    -0.309 N 
HETATM    4  C19 UNL     1     -23.790   9.487 -43.074  1.00  0.00     0.101 A 
HETATM    5  N2  UNL     1     -23.954   8.445 -43.941  1.00  0.00    -0.344 N 
ATOM      6  H2  UNL     1     -24.309   7.523 -43.687  1.00  0.00     0.167 HD
ENDROOT
BRANCH   3   7
HETATM    7  C6  UNL     1     -22.980  11.853 -43.287  1.00  0.00     0.040 A 
HETATM    8  C7  UNL     1     -21.712  12.091 -42.775  1.00  0.00     0.031 A 
HETATM    9  C8  UNL     1     -21.331  13.325 -42.304  1.00  0.00     0.014 A 
HETATM   10  C9  UNL     1     -22.202  14.393 -42.320  1.00  0.00    -0.026 A 
HETATM   11  C17 UNL     1     -23.462  14.161 -42.827  1.00  0.00     0.014 A 
HETATM   12  C18 UNL     1     -23.851  12.914 -43.304  1.00  0.00     0.031 A 
BRANCH  10  13
HETATM   13  C10 UNL     1     -21.805  15.713 -41.804  1.00  0.00    -0.025 A 
HETATM   14  C11 UNL     1     -21.062  15.881 -40.655  1.00  0.00     0.012 A 
HETATM   15  C12 UNL     1     -20.685  17.132 -40.197  1.00  0.00     0.002 A 
HETATM   16  C13 UNL     1     -21.052  18.269 -40.899  1.00  0.00     0.023 A 
HETATM   17  C14 UNL     1     -21.795  18.119 -42.051  1.00  0.00     0.059 A 
HETATM   18  C16 UNL     1     -22.166  16.847 -42.497  1.00  0.00     0.035 A 
BRANCH  17  19
HETATM   19  S1  UNL     1     -22.242  19.549 -42.939  1.00  0.00     0.171 S 
HETATM   20  C15 UNL     1     -20.984  20.075 -44.070  1.00  0.00     0.167 C 
HETATM   21  O2  UNL     1     -22.594  20.688 -42.018  1.00  0.00    -0.223 OA
HETATM   22  O3  UNL     1     -23.470  19.207 -43.768  1.00  0.00    -0.223 OA
ENDBRANCH  17  19
ENDBRANCH  10  13
ENDBRANCH   3   7
BRANCH   4  23
HETATM   23  C20 UNL     1     -24.100   9.461 -41.618  1.00  0.00     0.040 C 
HETATM   24  C21 UNL     1     -24.699   8.132 -41.196  1.00  0.00     0.028 C 
HETATM   25  C22 UNL     1     -24.968  10.586 -41.152  1.00  0.00     0.028 C 
BRANCH  23  26
HETATM   26  C23 UNL     1     -22.816   9.583 -40.883  1.00  0.00    -0.021 A 
HETATM   27  C24 UNL     1     -21.719   8.783 -41.116  1.00  0.00     0.010 A 
HETATM   28  C25 UNL     1     -20.532   8.916 -40.397  1.00  0.00     0.001 A 
HETATM   29  C26 UNL     1     -20.454   9.884 -39.418  1.00  0.00     0.002 A 
HETATM   30  C27 UNL     1     -21.536  10.697 -39.165  1.00  0.00     0.024 A 
HETATM   31  C28 UNL     1     -22.715  10.541 -39.902  1.00  0.00     0.041 A 
HETATM   32 CL1  UNL     1     -24.014  11.647 -39.483  1.00  0.00    -0.084 Cl
ENDBRANCH  23  26
ENDBRANCH   4  23
BRANCH   1  33
HETATM   33  C2  UNL     1     -23.621   7.952 -46.368  1.00  0.00     0.094 C 
HETATM   34  C1  UNL     1     -24.838   8.277 -47.239  1.00  0.00     0.052 C 
HETATM   35  C3  UNL     1     -23.752   6.505 -45.962  1.00  0.00     0.052 C 
BRANCH  33  36
HETATM   36  O1  UNL     1     -22.464   8.091 -47.160  1.00  0.00    -0.384 OA
ATOM     37  H1  UNL     1     -21.715   7.818 -46.642  1.00  0.00     0.211 HD
ENDBRANCH  33  36
ENDBRANCH   1  33
TORSDOF 7
ENDMDL
