MODEL 12
REMARK VINA RESULT: -9.559039912      3.106      8.208
REMARK  7 active torsions:
REMARK  status: ('A' for Active; 'I' for Inactive)
REMARK    1  A    between atoms: C2_2  and  O1_4 
REMARK    2  A    between atoms: C2_2  and  C4_6 
REMARK    3  A    between atoms: N1_8  and  C6_9 
REMARK    4  A    between atoms: C9_12  and  C10_13 
REMARK    5  A    between atoms: C14_17  and  S1_18 
REMARK    6  A    between atoms: C19_25  and  C20_26 
REMARK    7  A    between atoms: C20_26  and  C23_29 
ROOT
HETATM    1  C4  UNL     1     -21.112  15.143 -40.510  1.00  0.00     0.060 A 
HETATM    2  C5  UNL     1     -21.401  14.508 -41.691  1.00  0.00     0.127 A 
HETATM    3  N1  UNL     1     -21.584  13.171 -41.487  1.00  0.00    -0.309 N 
HETATM    4  C19 UNL     1     -21.408  12.977 -40.171  1.00  0.00     0.101 A 
HETATM    5  N2  UNL     1     -21.122  14.178 -39.587  1.00  0.00    -0.344 N 
ATOM      6  H2  UNL     1     -20.944  14.317 -38.592  1.00  0.00     0.167 HD
ENDROOT
BRANCH   3   7
HETATM    7  C6  UNL     1     -21.888  12.221 -42.516  1.00  0.00     0.040 A 
HETATM    8  C7  UNL     1     -23.173  12.185 -43.038  1.00  0.00     0.031 A 
HETATM    9  C8  UNL     1     -23.539  11.297 -44.022  1.00  0.00     0.014 A 
HETATM   10  C9  UNL     1     -22.635  10.394 -44.539  1.00  0.00    -0.026 A 
HETATM   11  C17 UNL     1     -21.358  10.428 -44.024  1.00  0.00     0.014 A 
HETATM   12  C18 UNL     1     -20.984  11.323 -43.028  1.00  0.00     0.031 A 
BRANCH  10  13
HETATM   13  C10 UNL     1     -23.025   9.432 -45.583  1.00  0.00    -0.025 A 
HETATM   14  C11 UNL     1     -24.325   9.021 -45.782  1.00  0.00     0.012 A 
HETATM   15  C12 UNL     1     -24.673   8.127 -46.781  1.00  0.00     0.002 A 
HETATM   16  C13 UNL     1     -23.699   7.616 -47.623  1.00  0.00     0.023 A 
HETATM   17  C14 UNL     1     -22.392   8.016 -47.440  1.00  0.00     0.059 A 
HETATM   18  C16 UNL     1     -22.063   8.919 -46.424  1.00  0.00     0.035 A 
BRANCH  17  19
HETATM   19  S1  UNL     1     -21.174   7.382 -48.509  1.00  0.00     0.171 S 
HETATM   20  C15 UNL     1     -19.725   8.401 -48.579  1.00  0.00     0.167 C 
HETATM   21  O2  UNL     1     -21.709   7.179 -49.903  1.00  0.00    -0.223 OA
HETATM   22  O3  UNL     1     -20.741   6.032 -47.961  1.00  0.00    -0.223 OA
ENDBRANCH  17  19
ENDBRANCH  10  13
ENDBRANCH   3   7
BRANCH   4  23
HETATM   23  C20 UNL     1     -21.506  11.670 -39.465  1.00  0.00     0.040 C 
HETATM   24  C21 UNL     1     -21.582  11.850 -37.960  1.00  0.00     0.028 C 
HETATM   25  C22 UNL     1     -20.422  10.699 -39.811  1.00  0.00     0.028 C 
BRANCH  23  26
HETATM   26  C23 UNL     1     -22.788  11.037 -39.866  1.00  0.00    -0.021 A 
HETATM   27  C24 UNL     1     -24.020  11.629 -39.702  1.00  0.00     0.010 A 
HETATM   28  C25 UNL     1     -25.207  11.000 -40.078  1.00  0.00     0.001 A 
HETATM   29  C26 UNL     1     -25.142   9.741 -40.635  1.00  0.00     0.002 A 
HETATM   30  C27 UNL     1     -23.921   9.126 -40.811  1.00  0.00     0.024 A 
HETATM   31  C28 UNL     1     -22.748   9.781 -40.424  1.00  0.00     0.041 A 
HETATM   32 CL1  UNL     1     -21.262   8.889 -40.709  1.00  0.00    -0.084 Cl
ENDBRANCH  23  26
ENDBRANCH   4  23
BRANCH   1  33
HETATM   33  C2  UNL     1     -20.838  16.569 -40.253  1.00  0.00     0.094 C 
HETATM   34  C1  UNL     1     -21.662  17.085 -39.071  1.00  0.00     0.052 C 
HETATM   35  C3  UNL     1     -21.234  17.394 -41.452  1.00  0.00     0.052 C 
BRANCH  33  36
HETATM   36  O1  UNL     1     -19.476  16.806 -39.977  1.00  0.00    -0.384 OA
ATOM     37  H1  UNL     1     -18.958  16.362 -40.638  1.00  0.00     0.211 HD
ENDBRANCH  33  36
ENDBRANCH   1  33
TORSDOF 7
ENDMDL
