MODEL 3
REMARK VINA RESULT: -12.464685189      0.911      1.211
REMARK  7 active torsions:
REMARK  status: ('A' for Active; 'I' for Inactive)
REMARK    1  A    between atoms: C2_2  and  O1_4 
REMARK    2  A    between atoms: C2_2  and  C4_6 
REMARK    3  A    between atoms: N1_8  and  C6_9 
REMARK    4  A    between atoms: C9_12  and  C10_13 
REMARK    5  A    between atoms: C14_17  and  S1_18 
REMARK    6  A    between atoms: C19_25  and  C20_26 
REMARK    7  A    between atoms: C20_26  and  C23_29 
ROOT
HETATM    1  C4  UNL     1     -23.600   8.977 -45.269  1.00  0.00     0.060 A 
HETATM    2  C5  UNL     1     -23.101  10.240 -45.081  1.00  0.00     0.127 A 
HETATM    3  N1  UNL     1     -23.187  10.602 -43.768  1.00  0.00    -0.309 N 
HETATM    4  C19 UNL     1     -23.743   9.556 -43.138  1.00  0.00     0.101 A 
HETATM    5  N2  UNL     1     -23.990   8.576 -44.056  1.00  0.00    -0.344 N 
ATOM      6  H2  UNL     1     -24.410   7.670 -43.845  1.00  0.00     0.167 HD
ENDROOT
BRANCH   3   7
HETATM    7  C6  UNL     1     -22.763  11.865 -43.239  1.00  0.00     0.040 A 
HETATM    8  C7  UNL     1     -23.641  12.939 -43.277  1.00  0.00     0.031 A 
HETATM    9  C8  UNL     1     -23.301  14.181 -42.794  1.00  0.00     0.014 A 
HETATM   10  C9  UNL     1     -22.059  14.416 -42.245  1.00  0.00    -0.026 A 
HETATM   11  C17 UNL     1     -21.184  13.352 -42.205  1.00  0.00     0.014 A 
HETATM   12  C18 UNL     1     -21.524  12.095 -42.693  1.00  0.00     0.031 A 
BRANCH  10  13
HETATM   13  C10 UNL     1     -21.684  15.746 -41.739  1.00  0.00    -0.025 A 
HETATM   14  C11 UNL     1     -21.101  15.949 -40.507  1.00  0.00     0.012 A 
HETATM   15  C12 UNL     1     -20.741  17.208 -40.058  1.00  0.00     0.002 A 
HETATM   16  C13 UNL     1     -20.962  18.319 -40.856  1.00  0.00     0.023 A 
HETATM   17  C14 UNL     1     -21.544  18.136 -42.093  1.00  0.00     0.059 A 
HETATM   18  C16 UNL     1     -21.901  16.856 -42.527  1.00  0.00     0.035 A 
BRANCH  17  19
HETATM   19  S1  UNL     1     -21.807  19.532 -43.099  1.00  0.00     0.171 S 
HETATM   20  C15 UNL     1     -23.182  19.333 -44.200  1.00  0.00     0.167 C 
HETATM   21  O2  UNL     1     -20.577  19.885 -43.893  1.00  0.00    -0.223 OA
HETATM   22  O3  UNL     1     -22.137  20.700 -42.184  1.00  0.00    -0.223 OA
ENDBRANCH  17  19
ENDBRANCH  10  13
ENDBRANCH   3   7
BRANCH   4  23
HETATM   23  C20 UNL     1     -24.043   9.478 -41.682  1.00  0.00     0.040 C 
HETATM   24  C21 UNL     1     -24.634   8.133 -41.303  1.00  0.00     0.028 C 
HETATM   25  C22 UNL     1     -24.911  10.583 -41.170  1.00  0.00     0.028 C 
BRANCH  23  26
HETATM   26  C23 UNL     1     -22.754   9.577 -40.952  1.00  0.00    -0.021 A 
HETATM   27  C24 UNL     1     -21.654   8.795 -41.226  1.00  0.00     0.010 A 
HETATM   28  C25 UNL     1     -20.462   8.906 -40.511  1.00  0.00     0.001 A 
HETATM   29  C26 UNL     1     -20.383   9.834 -39.494  1.00  0.00     0.002 A 
HETATM   30  C27 UNL     1     -21.469  10.629 -39.199  1.00  0.00     0.024 A 
HETATM   31  C28 UNL     1     -22.652  10.496 -39.934  1.00  0.00     0.041 A 
HETATM   32 CL1  UNL     1     -23.954  11.575 -39.459  1.00  0.00    -0.084 Cl
ENDBRANCH  23  26
ENDBRANCH   4  23
BRANCH   1  33
HETATM   33  C2  UNL     1     -23.713   8.187 -46.508  1.00  0.00     0.094 C 
HETATM   34  C1  UNL     1     -25.084   8.380 -47.162  1.00  0.00     0.052 C 
HETATM   35  C3  UNL     1     -23.585   6.717 -46.197  1.00  0.00     0.052 C 
BRANCH  33  36
HETATM   36  O1  UNL     1     -22.724   8.533 -47.450  1.00  0.00    -0.384 OA
ATOM     37  H1  UNL     1     -22.029   8.993 -46.994  1.00  0.00     0.211 HD
ENDBRANCH  33  36
ENDBRANCH   1  33
TORSDOF 7
ENDMDL
