MODEL 5
REMARK VINA RESULT: -12.245143707      0.995      1.370
REMARK  7 active torsions:
REMARK  status: ('A' for Active; 'I' for Inactive)
REMARK    1  A    between atoms: C2_2  and  O1_4 
REMARK    2  A    between atoms: C2_2  and  C4_6 
REMARK    3  A    between atoms: N1_8  and  C6_9 
REMARK    4  A    between atoms: C9_12  and  C10_13 
REMARK    5  A    between atoms: C14_17  and  S1_18 
REMARK    6  A    between atoms: C19_25  and  C20_26 
REMARK    7  A    between atoms: C20_26  and  C23_29 
ROOT
HETATM    1  C4  UNL     1     -22.659   8.591 -44.959  1.00  0.00     0.060 A 
HETATM    2  C5  UNL     1     -22.237   9.885 -44.784  1.00  0.00     0.127 A 
HETATM    3  N1  UNL     1     -22.763  10.412 -43.641  1.00  0.00    -0.309 N 
HETATM    4  C19 UNL     1     -23.516   9.440 -43.104  1.00  0.00     0.101 A 
HETATM    5  N2  UNL     1     -23.446   8.340 -43.910  1.00  0.00    -0.344 N 
ATOM      6  H2  UNL     1     -23.926   7.456 -43.737  1.00  0.00     0.167 HD
ENDROOT
BRANCH   3   7
HETATM    7  C6  UNL     1     -22.528  11.747 -43.174  1.00  0.00     0.040 A 
HETATM    8  C7  UNL     1     -21.306  12.049 -42.589  1.00  0.00     0.031 A 
HETATM    9  C8  UNL     1     -21.012  13.305 -42.112  1.00  0.00     0.014 A 
HETATM   10  C9  UNL     1     -21.929  14.331 -42.196  1.00  0.00    -0.026 A 
HETATM   11  C17 UNL     1     -23.143  14.035 -42.775  1.00  0.00     0.014 A 
HETATM   12  C18 UNL     1     -23.445  12.766 -43.258  1.00  0.00     0.031 A 
BRANCH  10  13
HETATM   13  C10 UNL     1     -21.626  15.673 -41.674  1.00  0.00    -0.025 A 
HETATM   14  C11 UNL     1     -20.965  15.888 -40.483  1.00  0.00     0.012 A 
HETATM   15  C12 UNL     1     -20.675  17.160 -40.019  1.00  0.00     0.002 A 
HETATM   16  C13 UNL     1     -21.048  18.271 -40.759  1.00  0.00     0.023 A 
HETATM   17  C14 UNL     1     -21.710  18.075 -41.953  1.00  0.00     0.059 A 
HETATM   18  C16 UNL     1     -21.994  16.782 -42.403  1.00  0.00     0.035 A 
BRANCH  17  19
HETATM   19  S1  UNL     1     -22.165  19.472 -42.886  1.00  0.00     0.171 S 
HETATM   20  C15 UNL     1     -20.867  20.036 -43.953  1.00  0.00     0.167 C 
HETATM   21  O2  UNL     1     -22.616  20.607 -42.004  1.00  0.00    -0.223 OA
HETATM   22  O3  UNL     1     -23.328  19.068 -43.778  1.00  0.00    -0.223 OA
ENDBRANCH  17  19
ENDBRANCH  10  13
ENDBRANCH   3   7
BRANCH   4  23
HETATM   23  C20 UNL     1     -24.298   9.543 -41.842  1.00  0.00     0.040 C 
HETATM   24  C21 UNL     1     -24.756   8.182 -41.353  1.00  0.00     0.028 C 
HETATM   25  C22 UNL     1     -25.460  10.481 -41.911  1.00  0.00     0.028 C 
BRANCH  23  26
HETATM   26  C23 UNL     1     -23.389  10.070 -40.792  1.00  0.00    -0.021 A 
HETATM   27  C24 UNL     1     -23.622  11.229 -40.087  1.00  0.00     0.010 A 
HETATM   28  C25 UNL     1     -22.740  11.703 -39.116  1.00  0.00     0.001 A 
HETATM   29  C26 UNL     1     -21.594  10.982 -38.853  1.00  0.00     0.002 A 
HETATM   30  C27 UNL     1     -21.338   9.818 -39.544  1.00  0.00     0.024 A 
HETATM   31  C28 UNL     1     -22.241   9.367 -40.512  1.00  0.00     0.041 A 
HETATM   32 CL1  UNL     1     -21.796   7.868 -41.313  1.00  0.00    -0.084 Cl
ENDBRANCH  23  26
ENDBRANCH   4  23
BRANCH   1  33
HETATM   33  C2  UNL     1     -22.350   7.642 -46.044  1.00  0.00     0.094 C 
HETATM   34  C1  UNL     1     -22.473   8.314 -47.415  1.00  0.00     0.052 C 
HETATM   35  C3  UNL     1     -23.338   6.502 -46.030  1.00  0.00     0.052 C 
BRANCH  33  36
HETATM   36  O1  UNL     1     -21.051   7.110 -45.930  1.00  0.00    -0.384 OA
ATOM     37  H1  UNL     1     -21.086   6.188 -46.158  1.00  0.00     0.211 HD
ENDBRANCH  33  36
ENDBRANCH   1  33
TORSDOF 7
ENDMDL
