MODEL 14
REMARK VINA RESULT: -9.302040826      3.535      8.748
REMARK  7 active torsions:
REMARK  status: ('A' for Active; 'I' for Inactive)
REMARK    1  A    between atoms: C2_2  and  O1_4 
REMARK    2  A    between atoms: C2_2  and  C4_6 
REMARK    3  A    between atoms: N1_8  and  C6_9 
REMARK    4  A    between atoms: C9_12  and  C10_13 
REMARK    5  A    between atoms: C14_17  and  S1_18 
REMARK    6  A    between atoms: C19_25  and  C20_26 
REMARK    7  A    between atoms: C20_26  and  C23_29 
ROOT
HETATM    1  C4  UNL     1     -21.119  14.658 -40.686  1.00  0.00     0.060 A 
HETATM    2  C5  UNL     1     -21.247  13.937 -41.846  1.00  0.00     0.127 A 
HETATM    3  N1  UNL     1     -21.385  12.607 -41.575  1.00  0.00    -0.309 N 
HETATM    4  C19 UNL     1     -21.344  12.502 -40.238  1.00  0.00     0.101 A 
HETATM    5  N2  UNL     1     -21.182  13.750 -39.708  1.00  0.00    -0.344 N 
ATOM      6  H2  UNL     1     -21.120  13.959 -38.711  1.00  0.00     0.167 HD
ENDROOT
BRANCH   3   7
HETATM    7  C6  UNL     1     -21.528  11.582 -42.566  1.00  0.00     0.040 A 
HETATM    8  C7  UNL     1     -22.724  11.484 -43.264  1.00  0.00     0.031 A 
HETATM    9  C8  UNL     1     -22.936  10.522 -44.224  1.00  0.00     0.014 A 
HETATM   10  C9  UNL     1     -21.959   9.603 -44.538  1.00  0.00    -0.026 A 
HETATM   11  C17 UNL     1     -20.770   9.696 -43.848  1.00  0.00     0.014 A 
HETATM   12  C18 UNL     1     -20.552  10.667 -42.876  1.00  0.00     0.031 A 
BRANCH  10  13
HETATM   13  C10 UNL     1     -22.185   8.562 -45.554  1.00  0.00    -0.025 A 
HETATM   14  C11 UNL     1     -22.122   8.805 -46.910  1.00  0.00     0.012 A 
HETATM   15  C12 UNL     1     -22.322   7.807 -47.849  1.00  0.00     0.002 A 
HETATM   16  C13 UNL     1     -22.594   6.512 -47.439  1.00  0.00     0.023 A 
HETATM   17  C14 UNL     1     -22.660   6.251 -46.086  1.00  0.00     0.059 A 
HETATM   18  C16 UNL     1     -22.456   7.273 -45.155  1.00  0.00     0.035 A 
BRANCH  17  19
HETATM   19  S1  UNL     1     -22.988   4.620 -45.574  1.00  0.00     0.171 S 
HETATM   20  C15 UNL     1     -24.351   4.516 -44.446  1.00  0.00     0.167 C 
HETATM   21  O2  UNL     1     -21.775   3.977 -44.952  1.00  0.00    -0.223 OA
HETATM   22  O3  UNL     1     -23.371   3.820 -46.809  1.00  0.00    -0.223 OA
ENDBRANCH  17  19
ENDBRANCH  10  13
ENDBRANCH   3   7
BRANCH   4  23
HETATM   23  C20 UNL     1     -21.453  11.237 -39.462  1.00  0.00     0.040 C 
HETATM   24  C21 UNL     1     -21.801  11.499 -38.008  1.00  0.00     0.028 C 
HETATM   25  C22 UNL     1     -20.250  10.353 -39.550  1.00  0.00     0.028 C 
BRANCH  23  26
HETATM   26  C23 UNL     1     -22.590  10.464 -40.021  1.00  0.00    -0.021 A 
HETATM   27  C24 UNL     1     -22.458   9.235 -40.629  1.00  0.00     0.010 A 
HETATM   28  C25 UNL     1     -23.547   8.542 -41.156  1.00  0.00     0.001 A 
HETATM   29  C26 UNL     1     -24.802   9.107 -41.063  1.00  0.00     0.002 A 
HETATM   30  C27 UNL     1     -24.962  10.335 -40.459  1.00  0.00     0.024 A 
HETATM   31  C28 UNL     1     -23.851  11.007 -39.939  1.00  0.00     0.041 A 
HETATM   32 CL1  UNL     1     -24.196  12.559 -39.191  1.00  0.00    -0.084 Cl
ENDBRANCH  23  26
ENDBRANCH   4  23
BRANCH   1  33
HETATM   33  C2  UNL     1     -20.945  16.109 -40.497  1.00  0.00     0.094 C 
HETATM   34  C1  UNL     1     -21.742  16.607 -39.288  1.00  0.00     0.052 C 
HETATM   35  C3  UNL     1     -21.469  16.854 -41.699  1.00  0.00     0.052 C 
BRANCH  33  36
HETATM   36  O1  UNL     1     -19.593  16.461 -40.307  1.00  0.00    -0.384 OA
ATOM     37  H1  UNL     1     -19.261  15.973 -39.563  1.00  0.00     0.211 HD
ENDBRANCH  33  36
ENDBRANCH   1  33
TORSDOF 7
ENDMDL
