MODEL 1
REMARK VINA RESULT: -9.365531635      0.000      0.000
REMARK  8 active torsions:
REMARK  status: ('A' for Active; 'I' for Inactive)
REMARK    1  A    between atoms: N4_10  and  C5_11 
REMARK    2  A    between atoms: C6_13  and  C7_14 
REMARK    3  A    between atoms: C7_14  and  O2_15 
REMARK    4  A    between atoms: O2_15  and  P1_16 
REMARK    5  A    between atoms: P1_16  and  O5_19 
REMARK    6  A    between atoms: O5_19  and  P2_20 
REMARK    7  A    between atoms: C8_24  and  O9_25 
REMARK    8  A    between atoms: C9_27  and  O10_28 
ROOT
HETATM    1  C5  UNL     1     -32.623 -24.030  18.857  1.00  0.00     0.262 C 
HETATM    2  O1  UNL     1     -32.232 -22.719  19.122  1.00  0.00    -0.353 OA
HETATM    3  C6  UNL     1     -32.901 -22.287  20.231  1.00  0.00     0.180 C 
HETATM    4  C8  UNL     1     -33.170 -23.470  21.122  1.00  0.00     0.182 C 
HETATM    5  C9  UNL     1     -32.828 -24.632  20.211  1.00  0.00     0.198 C 
ENDROOT
BRANCH   1   6
HETATM    6  N4  UNL     1     -31.506 -24.638  18.139  1.00  0.00    -0.297 N 
HETATM    7  C2  UNL     1     -31.619 -25.717  17.323  1.00  0.00     0.146 A 
HETATM    8  N2  UNL     1     -32.678 -26.470  16.968  1.00  0.00    -0.314 N 
HETATM    9  C3  UNL     1     -30.341 -25.966  16.849  1.00  0.00     0.146 A 
HETATM   10  C1  UNL     1     -32.476 -27.485  16.133  1.00  0.00     0.196 A 
ATOM     11  H2  UNL     1     -33.609 -26.268  17.330  1.00  0.00     0.170 HD
HETATM   12  N1  UNL     1     -33.578 -28.291  15.746  1.00  0.00    -0.063 NA
HETATM   13  N5  UNL     1     -31.251 -27.767  15.644  1.00  0.00    -0.295 N 
HETATM   14  C10 UNL     1     -30.174 -27.031  15.981  1.00  0.00     0.278 A 
ATOM     15  H5  UNL     1     -31.137 -28.554  15.005  1.00  0.00     0.171 HD
HETATM   16  O11 UNL     1     -29.014 -27.300  15.517  1.00  0.00    -0.265 OA
HETATM   17  N3  UNL     1     -29.474 -25.058  17.365  1.00  0.00    -0.345 N 
HETATM   18  C4  UNL     1     -30.206 -24.252  18.155  1.00  0.00     0.188 A 
ATOM     19  H3  UNL     1     -28.470 -25.000  17.190  1.00  0.00     0.167 HD
ENDBRANCH   1   6
BRANCH   5  20
HETATM   20  O10 UNL     1     -33.947 -25.492  20.247  1.00  0.00    -0.388 OA
ATOM     21  H10 UNL     1     -34.354 -25.513  21.104  1.00  0.00     0.210 HD
ENDBRANCH   5  20
BRANCH   3  22
HETATM   22  C7  UNL     1     -32.133 -21.272  21.030  1.00  0.00     0.216 C 
BRANCH  22  23
HETATM   23  O2  UNL     1     -30.817 -21.276  20.570  1.00  0.00    -0.287 OA
BRANCH  23  24
HETATM   24  P1  UNL     1     -30.319 -20.162  19.623  1.00  0.00     0.418 P 
HETATM   25  O3  UNL     1     -31.228 -19.067  20.459  1.00  0.00    -0.624 OA
HETATM   26  O4  UNL     1     -28.772 -20.494  20.200  1.00  0.00    -0.624 OA
BRANCH  24  27
HETATM   27  O5  UNL     1     -29.679 -19.014  18.824  1.00  0.00    -0.173 OA
BRANCH  27  28
HETATM   28  P2  UNL     1     -29.789 -17.484  18.929  1.00  0.00     0.431 P 
HETATM   29  O6  UNL     1     -30.132 -15.974  18.859  1.00  0.00    -0.616 OA
HETATM   30  O7  UNL     1     -29.852 -17.505  17.260  1.00  0.00    -0.616 OA
HETATM   31  O8  UNL     1     -28.318 -17.291  19.603  1.00  0.00    -0.616 OA
ENDBRANCH  27  28
ENDBRANCH  24  27
ENDBRANCH  23  24
ENDBRANCH  22  23
ENDBRANCH   3  22
BRANCH   4  32
HETATM   32  O9  UNL     1     -34.531 -23.441  21.443  1.00  0.00    -0.390 OA
ATOM     33  H9  UNL     1     -34.838 -24.340  21.435  1.00  0.00     0.210 HD
ENDBRANCH   4  32
TORSDOF 8
ENDMDL
