MODEL 2
REMARK VINA RESULT: -9.078211697      0.806      1.343
REMARK  8 active torsions:
REMARK  status: ('A' for Active; 'I' for Inactive)
REMARK    1  A    between atoms: N4_10  and  C5_11 
REMARK    2  A    between atoms: C6_13  and  C7_14 
REMARK    3  A    between atoms: C7_14  and  O2_15 
REMARK    4  A    between atoms: O2_15  and  P1_16 
REMARK    5  A    between atoms: P1_16  and  O5_19 
REMARK    6  A    between atoms: O5_19  and  P2_20 
REMARK    7  A    between atoms: C8_24  and  O9_25 
REMARK    8  A    between atoms: C9_27  and  O10_28 
ROOT
HETATM    1  C5  UNL     1     -32.167 -23.824  18.757  1.00  0.00     0.262 C 
HETATM    2  O1  UNL     1     -31.514 -22.750  19.359  1.00  0.00    -0.353 OA
HETATM    3  C6  UNL     1     -32.212 -22.396  20.478  1.00  0.00     0.180 C 
HETATM    4  C8  UNL     1     -32.883 -23.623  21.034  1.00  0.00     0.182 C 
HETATM    5  C9  UNL     1     -32.703 -24.617  19.905  1.00  0.00     0.198 C 
ENDROOT
BRANCH   1   6
HETATM    6  N4  UNL     1     -31.138 -24.545  18.012  1.00  0.00    -0.297 N 
HETATM    7  C2  UNL     1     -31.374 -25.644  17.252  1.00  0.00     0.146 A 
HETATM    8  N2  UNL     1     -32.503 -26.327  16.984  1.00  0.00    -0.314 N 
HETATM    9  C3  UNL     1     -30.145 -26.009  16.727  1.00  0.00     0.146 A 
HETATM   10  C1  UNL     1     -32.422 -27.389  16.186  1.00  0.00     0.196 A 
ATOM     11  H2  UNL     1     -33.397 -26.040  17.382  1.00  0.00     0.170 HD
HETATM   12  N1  UNL     1     -33.599 -28.122  15.891  1.00  0.00    -0.063 NA
HETATM   13  N5  UNL     1     -31.248 -27.783  15.650  1.00  0.00    -0.295 N 
HETATM   14  C10 UNL     1     -30.103 -27.119  15.901  1.00  0.00     0.278 A 
ATOM     15  H5  UNL     1     -31.228 -28.602  15.043  1.00  0.00     0.171 HD
HETATM   16  O11 UNL     1     -28.993 -27.495  15.393  1.00  0.00    -0.265 OA
HETATM   17  N3  UNL     1     -29.186 -25.151  17.158  1.00  0.00    -0.345 N 
HETATM   18  C4  UNL     1     -29.813 -24.259  17.947  1.00  0.00     0.188 A 
ATOM     19  H3  UNL     1     -28.191 -25.177  16.932  1.00  0.00     0.167 HD
ENDBRANCH   1   6
BRANCH   5  20
HETATM   20  O10 UNL     1     -33.989 -25.134  19.640  1.00  0.00    -0.388 OA
ATOM     21  H10 UNL     1     -34.406 -25.478  20.421  1.00  0.00     0.210 HD
ENDBRANCH   5  20
BRANCH   3  22
HETATM   22  C7  UNL     1     -31.345 -21.812  21.558  1.00  0.00     0.216 C 
BRANCH  22  23
HETATM   23  O2  UNL     1     -31.762 -20.500  21.775  1.00  0.00    -0.287 OA
BRANCH  23  24
HETATM   24  P1  UNL     1     -30.901 -19.317  21.278  1.00  0.00     0.418 P 
HETATM   25  O3  UNL     1     -29.637 -20.354  21.051  1.00  0.00    -0.624 OA
HETATM   26  O4  UNL     1     -32.014 -19.158  20.023  1.00  0.00    -0.624 OA
BRANCH  24  27
HETATM   27  O5  UNL     1     -30.100 -18.198  20.592  1.00  0.00    -0.173 OA
BRANCH  27  28
HETATM   28  P2  UNL     1     -30.009 -17.726  19.131  1.00  0.00     0.431 P 
HETATM   29  O6  UNL     1     -29.701 -17.449  17.637  1.00  0.00    -0.616 OA
HETATM   30  O7  UNL     1     -28.376 -17.540  19.431  1.00  0.00    -0.616 OA
HETATM   31  O8  UNL     1     -30.948 -16.414  19.355  1.00  0.00    -0.616 OA
ENDBRANCH  27  28
ENDBRANCH  24  27
ENDBRANCH  23  24
ENDBRANCH  22  23
ENDBRANCH   3  22
BRANCH   4  32
HETATM   32  O9  UNL     1     -34.229 -23.298  21.236  1.00  0.00    -0.390 OA
ATOM     33  H9  UNL     1     -34.615 -24.009  21.734  1.00  0.00     0.210 HD
ENDBRANCH   4  32
TORSDOF 8
ENDMDL
