MODEL 12
REMARK VINA RESULT: -8.119723226      5.403      7.792
REMARK  8 active torsions:
REMARK  status: ('A' for Active; 'I' for Inactive)
REMARK    1  A    between atoms: N4_10  and  C5_11 
REMARK    2  A    between atoms: C6_13  and  C7_14 
REMARK    3  A    between atoms: C7_14  and  O2_15 
REMARK    4  A    between atoms: O2_15  and  P1_16 
REMARK    5  A    between atoms: P1_16  and  O5_19 
REMARK    6  A    between atoms: O5_19  and  P2_20 
REMARK    7  A    between atoms: C8_24  and  O9_25 
REMARK    8  A    between atoms: C9_27  and  O10_28 
ROOT
HETATM    1  C5  UNL     1     -32.119 -21.085  22.252  1.00  0.00     0.262 C 
HETATM    2  O1  UNL     1     -30.823 -20.981  21.750  1.00  0.00    -0.353 OA
HETATM    3  C6  UNL     1     -30.899 -20.804  20.399  1.00  0.00     0.180 C 
HETATM    4  C8  UNL     1     -32.177 -20.076  20.080  1.00  0.00     0.182 C 
HETATM    5  C9  UNL     1     -32.918 -20.152  21.400  1.00  0.00     0.198 C 
ENDROOT
BRANCH   1   6
HETATM    6  N4  UNL     1     -32.041 -20.643  23.642  1.00  0.00    -0.297 N 
HETATM    7  C2  UNL     1     -31.353 -19.550  24.058  1.00  0.00     0.146 A 
HETATM    8  N2  UNL     1     -30.615 -18.643  23.391  1.00  0.00    -0.314 N 
HETATM    9  C3  UNL     1     -31.536 -19.490  25.430  1.00  0.00     0.146 A 
HETATM   10  C1  UNL     1     -30.047 -17.660  24.084  1.00  0.00     0.196 A 
ATOM     11  H2  UNL     1     -30.494 -18.708  22.380  1.00  0.00     0.170 HD
HETATM   12  N1  UNL     1     -29.266 -16.693  23.400  1.00  0.00    -0.063 NA
HETATM   13  N5  UNL     1     -30.197 -17.558  25.421  1.00  0.00    -0.295 N 
HETATM   14  C10 UNL     1     -30.930 -18.451  26.115  1.00  0.00     0.278 A 
ATOM     15  H5  UNL     1     -29.747 -16.789  25.916  1.00  0.00     0.171 HD
HETATM   16  O11 UNL     1     -31.069 -18.354  27.382  1.00  0.00    -0.265 OA
HETATM   17  N3  UNL     1     -32.318 -20.523  25.836  1.00  0.00    -0.345 N 
HETATM   18  C4  UNL     1     -32.618 -21.220  24.726  1.00  0.00     0.188 A 
ATOM     19  H3  UNL     1     -32.617 -20.729  26.790  1.00  0.00     0.167 HD
ENDBRANCH   1   6
BRANCH   5  20
HETATM   20  O10 UNL     1     -34.194 -20.671  21.094  1.00  0.00    -0.388 OA
ATOM     21  H10 UNL     1     -34.156 -21.344  20.426  1.00  0.00     0.210 HD
ENDBRANCH   5  20
BRANCH   3  22
HETATM   22  C7  UNL     1     -29.757 -20.002  19.840  1.00  0.00     0.216 C 
BRANCH  22  23
HETATM   23  O2  UNL     1     -30.284 -19.092  18.926  1.00  0.00    -0.287 OA
BRANCH  23  24
HETATM   24  P1  UNL     1     -29.981 -17.583  19.065  1.00  0.00     0.418 P 
HETATM   25  O3  UNL     1     -28.703 -17.948  20.044  1.00  0.00    -0.624 OA
HETATM   26  O4  UNL     1     -29.713 -17.581  17.402  1.00  0.00    -0.624 OA
BRANCH  24  27
HETATM   27  O5  UNL     1     -29.542 -16.110  19.049  1.00  0.00    -0.173 OA
BRANCH  27  28
HETATM   28  P2  UNL     1     -30.043 -14.865  19.801  1.00  0.00     0.431 P 
HETATM   29  O6  UNL     1     -30.816 -13.714  20.496  1.00  0.00    -0.616 OA
HETATM   30  O7  UNL     1     -30.989 -14.592  18.451  1.00  0.00    -0.616 OA
HETATM   31  O8  UNL     1     -28.588 -14.134  19.835  1.00  0.00    -0.616 OA
ENDBRANCH  27  28
ENDBRANCH  24  27
ENDBRANCH  23  24
ENDBRANCH  22  23
ENDBRANCH   3  22
BRANCH   4  32
HETATM   32  O9  UNL     1     -32.823 -20.802  19.075  1.00  0.00    -0.390 OA
ATOM     33  H9  UNL     1     -33.099 -21.626  19.460  1.00  0.00     0.210 HD
ENDBRANCH   4  32
TORSDOF 8
ENDMDL
