MODEL 10
REMARK VINA RESULT: -8.200238894      4.663      6.799
REMARK  8 active torsions:
REMARK  status: ('A' for Active; 'I' for Inactive)
REMARK    1  A    between atoms: N4_10  and  C5_11 
REMARK    2  A    between atoms: C6_13  and  C7_14 
REMARK    3  A    between atoms: C7_14  and  O2_15 
REMARK    4  A    between atoms: O2_15  and  P1_16 
REMARK    5  A    between atoms: P1_16  and  O5_19 
REMARK    6  A    between atoms: O5_19  and  P2_20 
REMARK    7  A    between atoms: C8_24  and  O9_25 
REMARK    8  A    between atoms: C9_27  and  O10_28 
ROOT
HETATM    1  C5  UNL     1     -32.559 -21.756  21.054  1.00  0.00     0.262 C 
HETATM    2  O1  UNL     1     -31.270 -21.245  21.199  1.00  0.00    -0.353 OA
HETATM    3  C6  UNL     1     -30.733 -21.078  19.956  1.00  0.00     0.180 C 
HETATM    4  C8  UNL     1     -31.845 -20.779  18.987  1.00  0.00     0.182 C 
HETATM    5  C9  UNL     1     -33.074 -21.104  19.811  1.00  0.00     0.198 C 
ENDROOT
BRANCH   1   6
HETATM    6  N4  UNL     1     -33.288 -21.335  22.249  1.00  0.00    -0.297 N 
HETATM    7  C2  UNL     1     -32.985 -21.737  23.509  1.00  0.00     0.146 A 
HETATM    8  N2  UNL     1     -32.028 -22.555  23.987  1.00  0.00    -0.314 N 
HETATM    9  C3  UNL     1     -33.907 -21.115  24.334  1.00  0.00     0.146 A 
HETATM   10  C1  UNL     1     -31.978 -22.765  25.300  1.00  0.00     0.196 A 
ATOM     11  H2  UNL     1     -31.360 -23.003  23.360  1.00  0.00     0.170 HD
HETATM   12  N1  UNL     1     -30.978 -23.623  25.824  1.00  0.00    -0.063 NA
HETATM   13  N5  UNL     1     -32.853 -22.181  26.144  1.00  0.00    -0.295 N 
HETATM   14  C10 UNL     1     -33.821 -21.358  25.694  1.00  0.00     0.278 A 
ATOM     15  H5  UNL     1     -32.781 -22.367  27.144  1.00  0.00     0.171 HD
HETATM   16  O11 UNL     1     -34.650 -20.807  26.495  1.00  0.00    -0.265 OA
HETATM   17  N3  UNL     1     -34.750 -20.352  23.591  1.00  0.00    -0.345 N 
HETATM   18  C4  UNL     1     -34.355 -20.500  22.313  1.00  0.00     0.188 A 
ATOM     19  H3  UNL     1     -35.525 -19.783  23.932  1.00  0.00     0.167 HD
ENDBRANCH   1   6
BRANCH   5  20
HETATM   20  O10 UNL     1     -33.841 -21.990  19.025  1.00  0.00    -0.388 OA
ATOM     21  H10 UNL     1     -33.651 -21.903  18.099  1.00  0.00     0.210 HD
ENDBRANCH   5  20
BRANCH   3  22
HETATM   22  C7  UNL     1     -29.741 -19.951  19.884  1.00  0.00     0.216 C 
BRANCH  22  23
HETATM   23  O2  UNL     1     -30.235 -19.006  18.987  1.00  0.00    -0.287 OA
BRANCH  23  24
HETATM   24  P1  UNL     1     -29.875 -17.513  19.151  1.00  0.00     0.418 P 
HETATM   25  O3  UNL     1     -28.571 -17.945  20.067  1.00  0.00    -0.624 OA
HETATM   26  O4  UNL     1     -29.675 -17.475  17.479  1.00  0.00    -0.624 OA
BRANCH  24  27
HETATM   27  O5  UNL     1     -29.387 -16.055  19.154  1.00  0.00    -0.173 OA
BRANCH  27  28
HETATM   28  P2  UNL     1     -30.029 -14.742  19.633  1.00  0.00     0.431 P 
HETATM   29  O6  UNL     1     -30.497 -13.447  20.347  1.00  0.00    -0.616 OA
HETATM   30  O7  UNL     1     -30.296 -15.549  21.071  1.00  0.00    -0.616 OA
HETATM   31  O8  UNL     1     -31.236 -14.776  18.539  1.00  0.00    -0.616 OA
ENDBRANCH  27  28
ENDBRANCH  24  27
ENDBRANCH  23  24
ENDBRANCH  22  23
ENDBRANCH   3  22
BRANCH   4  32
HETATM   32  O9  UNL     1     -31.694 -21.654  17.906  1.00  0.00    -0.390 OA
ATOM     33  H9  UNL     1     -32.251 -22.404  18.075  1.00  0.00     0.210 HD
ENDBRANCH   4  32
TORSDOF 8
ENDMDL
