MODEL 14
REMARK VINA RESULT: -8.032401763      1.465      1.613
REMARK  8 active torsions:
REMARK  status: ('A' for Active; 'I' for Inactive)
REMARK    1  A    between atoms: N4_10  and  C5_11 
REMARK    2  A    between atoms: C6_13  and  C7_14 
REMARK    3  A    between atoms: C7_14  and  O2_15 
REMARK    4  A    between atoms: O2_15  and  P1_16 
REMARK    5  A    between atoms: P1_16  and  O5_19 
REMARK    6  A    between atoms: O5_19  and  P2_20 
REMARK    7  A    between atoms: C8_24  and  O9_25 
REMARK    8  A    between atoms: C9_27  and  O10_28 
ROOT
HETATM    1  C5  UNL     1     -32.596 -24.292  20.582  1.00  0.00     0.262 C 
HETATM    2  O1  UNL     1     -32.538 -22.910  20.411  1.00  0.00    -0.353 OA
HETATM    3  C6  UNL     1     -32.523 -22.325  21.644  1.00  0.00     0.180 C 
HETATM    4  C8  UNL     1     -31.852 -23.262  22.613  1.00  0.00     0.182 C 
HETATM    5  C9  UNL     1     -31.780 -24.545  21.809  1.00  0.00     0.198 C 
ENDROOT
BRANCH   1   6
HETATM    6  N4  UNL     1     -31.992 -24.865  19.382  1.00  0.00    -0.297 N 
HETATM    7  C2  UNL     1     -32.609 -25.760  18.570  1.00  0.00     0.146 A 
HETATM    8  N2  UNL     1     -33.829 -26.329  18.619  1.00  0.00    -0.314 N 
HETATM    9  C3  UNL     1     -31.701 -26.042  17.562  1.00  0.00     0.146 A 
HETATM   10  C1  UNL     1     -34.161 -27.190  17.661  1.00  0.00     0.196 A 
ATOM     11  H2  UNL     1     -34.481 -26.106  19.371  1.00  0.00     0.170 HD
HETATM   12  N1  UNL     1     -35.441 -27.800  17.693  1.00  0.00    -0.063 NA
HETATM   13  N5  UNL     1     -33.311 -27.496  16.658  1.00  0.00    -0.295 N 
HETATM   14  C10 UNL     1     -32.085 -26.942  16.584  1.00  0.00     0.278 A 
ATOM     15  H5  UNL     1     -33.603 -28.160  15.942  1.00  0.00     0.171 HD
HETATM   16  O11 UNL     1     -31.281 -27.235  15.634  1.00  0.00    -0.265 OA
HETATM   17  N3  UNL     1     -30.560 -25.334  17.759  1.00  0.00    -0.345 N 
HETATM   18  C4  UNL     1     -30.756 -24.617  18.880  1.00  0.00     0.188 A 
ATOM     19  H3  UNL     1     -29.723 -25.342  17.175  1.00  0.00     0.167 HD
ENDBRANCH   1   6
BRANCH   5  20
HETATM   20  O10 UNL     1     -32.346 -25.544  22.629  1.00  0.00    -0.388 OA
ATOM     21  H10 UNL     1     -32.495 -26.353  22.155  1.00  0.00     0.210 HD
ENDBRANCH   5  20
BRANCH   3  22
HETATM   22  C7  UNL     1     -31.779 -21.019  21.672  1.00  0.00     0.216 C 
BRANCH  22  23
HETATM   23  O2  UNL     1     -30.643 -21.159  20.878  1.00  0.00    -0.287 OA
BRANCH  23  24
HETATM   24  P1  UNL     1     -30.307 -20.099  19.805  1.00  0.00     0.418 P 
HETATM   25  O3  UNL     1     -31.045 -18.950  20.733  1.00  0.00    -0.624 OA
HETATM   26  O4  UNL     1     -28.687 -20.433  20.119  1.00  0.00    -0.624 OA
BRANCH  24  27
HETATM   27  O5  UNL     1     -29.806 -19.001  18.852  1.00  0.00    -0.173 OA
BRANCH  27  28
HETATM   28  P2  UNL     1     -29.824 -17.465  18.930  1.00  0.00     0.431 P 
HETATM   29  O6  UNL     1     -30.073 -15.938  18.829  1.00  0.00    -0.616 OA
HETATM   30  O7  UNL     1     -29.857 -17.511  17.261  1.00  0.00    -0.616 OA
HETATM   31  O8  UNL     1     -28.357 -17.350  19.630  1.00  0.00    -0.616 OA
ENDBRANCH  27  28
ENDBRANCH  24  27
ENDBRANCH  23  24
ENDBRANCH  22  23
ENDBRANCH   3  22
BRANCH   4  32
HETATM   32  O9  UNL     1     -32.699 -23.384  23.718  1.00  0.00    -0.390 OA
ATOM     33  H9  UNL     1     -32.342 -22.834  24.406  1.00  0.00     0.210 HD
ENDBRANCH   4  32
TORSDOF 8
ENDMDL
