MODEL 3
REMARK VINA RESULT: -8.788098134      1.086      1.505
REMARK  8 active torsions:
REMARK  status: ('A' for Active; 'I' for Inactive)
REMARK    1  A    between atoms: N4_10  and  C5_11 
REMARK    2  A    between atoms: C6_13  and  C7_14 
REMARK    3  A    between atoms: C7_14  and  O2_15 
REMARK    4  A    between atoms: O2_15  and  P1_16 
REMARK    5  A    between atoms: P1_16  and  O5_19 
REMARK    6  A    between atoms: O5_19  and  P2_20 
REMARK    7  A    between atoms: C8_24  and  O9_25 
REMARK    8  A    between atoms: C9_27  and  O10_28 
ROOT
HETATM    1  C5  UNL     1     -32.129 -23.710  18.677  1.00  0.00     0.262 C 
HETATM    2  O1  UNL     1     -31.525 -22.502  19.023  1.00  0.00    -0.353 OA
HETATM    3  C6  UNL     1     -32.145 -22.016  20.138  1.00  0.00     0.180 C 
HETATM    4  C8  UNL     1     -32.644 -23.177  20.956  1.00  0.00     0.182 C 
HETATM    5  C9  UNL     1     -32.478 -24.334  19.990  1.00  0.00     0.198 C 
ENDROOT
BRANCH   1   6
HETATM    6  N4  UNL     1     -31.111 -24.467  17.953  1.00  0.00    -0.297 N 
HETATM    7  C2  UNL     1     -31.362 -25.588  17.232  1.00  0.00     0.146 A 
HETATM    8  N2  UNL     1     -32.500 -26.268  16.992  1.00  0.00    -0.314 N 
HETATM    9  C3  UNL     1     -30.140 -25.985  16.714  1.00  0.00     0.146 A 
HETATM   10  C1  UNL     1     -32.434 -27.356  16.230  1.00  0.00     0.196 A 
ATOM     11  H2  UNL     1     -33.388 -25.957  17.384  1.00  0.00     0.170 HD
HETATM   12  N1  UNL     1     -33.620 -28.087  15.965  1.00  0.00    -0.063 NA
HETATM   13  N5  UNL     1     -31.267 -27.782  15.703  1.00  0.00    -0.295 N 
HETATM   14  C10 UNL     1     -30.114 -27.122  15.926  1.00  0.00     0.278 A 
ATOM     15  H5  UNL     1     -31.258 -28.621  15.123  1.00  0.00     0.171 HD
HETATM   16  O11 UNL     1     -29.009 -27.528  15.426  1.00  0.00    -0.265 OA
HETATM   17  N3  UNL     1     -29.169 -25.123  17.112  1.00  0.00    -0.345 N 
HETATM   18  C4  UNL     1     -29.783 -24.198  17.872  1.00  0.00     0.188 A 
ATOM     19  H3  UNL     1     -28.176 -25.168  16.882  1.00  0.00     0.167 HD
ENDBRANCH   1   6
BRANCH   5  20
HETATM   20  O10 UNL     1     -33.730 -24.985  19.953  1.00  0.00    -0.388 OA
ATOM     21  H10 UNL     1     -33.641 -25.930  19.927  1.00  0.00     0.210 HD
ENDBRANCH   5  20
BRANCH   3  22
HETATM   22  C7  UNL     1     -31.240 -21.191  21.009  1.00  0.00     0.216 C 
BRANCH  22  23
HETATM   23  O2  UNL     1     -30.495 -20.356  20.178  1.00  0.00    -0.287 OA
BRANCH  23  24
HETATM   24  P1  UNL     1     -30.554 -18.823  20.359  1.00  0.00     0.418 P 
HETATM   25  O3  UNL     1     -30.493 -19.031  21.996  1.00  0.00    -0.624 OA
HETATM   26  O4  UNL     1     -29.092 -18.763  19.526  1.00  0.00    -0.624 OA
BRANCH  24  27
HETATM   27  O5  UNL     1     -30.406 -17.304  20.552  1.00  0.00    -0.173 OA
BRANCH  27  28
HETATM   28  P2  UNL     1     -30.840 -16.098  19.702  1.00  0.00     0.431 P 
HETATM   29  O6  UNL     1     -30.992 -14.810  18.853  1.00  0.00    -0.616 OA
HETATM   30  O7  UNL     1     -30.023 -15.176  20.830  1.00  0.00    -0.616 OA
HETATM   31  O8  UNL     1     -32.433 -16.323  19.954  1.00  0.00    -0.616 OA
ENDBRANCH  27  28
ENDBRANCH  24  27
ENDBRANCH  23  24
ENDBRANCH  22  23
ENDBRANCH   3  22
BRANCH   4  32
HETATM   32  O9  UNL     1     -33.989 -22.927  21.246  1.00  0.00    -0.390 OA
ATOM     33  H9  UNL     1     -34.008 -22.261  21.924  1.00  0.00     0.210 HD
ENDBRANCH   4  32
TORSDOF 8
ENDMDL
