MODEL 4
REMARK VINA RESULT: -8.666756811      1.022      1.391
REMARK  8 active torsions:
REMARK  status: ('A' for Active; 'I' for Inactive)
REMARK    1  A    between atoms: N4_10  and  C5_11 
REMARK    2  A    between atoms: C6_13  and  C7_14 
REMARK    3  A    between atoms: C7_14  and  O2_15 
REMARK    4  A    between atoms: O2_15  and  P1_16 
REMARK    5  A    between atoms: P1_16  and  O5_19 
REMARK    6  A    between atoms: O5_19  and  P2_20 
REMARK    7  A    between atoms: C8_24  and  O9_25 
REMARK    8  A    between atoms: C9_27  and  O10_28 
ROOT
HETATM    1  C5  UNL     1     -32.600 -24.225  18.971  1.00  0.00     0.262 C 
HETATM    2  O1  UNL     1     -32.777 -22.936  18.472  1.00  0.00    -0.353 OA
HETATM    3  C6  UNL     1     -33.338 -22.170  19.453  1.00  0.00     0.180 C 
HETATM    4  C8  UNL     1     -32.885 -22.693  20.790  1.00  0.00     0.182 C 
HETATM    5  C9  UNL     1     -32.254 -24.018  20.410  1.00  0.00     0.198 C 
ENDROOT
BRANCH   1   6
HETATM    6  N4  UNL     1     -31.493 -24.796  18.207  1.00  0.00    -0.297 N 
HETATM    7  C2  UNL     1     -31.617 -25.833  17.342  1.00  0.00     0.146 A 
HETATM    8  N2  UNL     1     -32.679 -26.571  16.967  1.00  0.00    -0.314 N 
HETATM    9  C3  UNL     1     -30.346 -26.056  16.837  1.00  0.00     0.146 A 
HETATM   10  C1  UNL     1     -32.489 -27.544  16.081  1.00  0.00     0.196 A 
ATOM     11  H2  UNL     1     -33.606 -26.389  17.352  1.00  0.00     0.170 HD
HETATM   12  N1  UNL     1     -33.595 -28.333  15.672  1.00  0.00    -0.063 NA
HETATM   13  N5  UNL     1     -31.270 -27.799  15.560  1.00  0.00    -0.295 N 
HETATM   14  C10 UNL     1     -30.190 -27.078  15.917  1.00  0.00     0.278 A 
ATOM     15  H5  UNL     1     -31.165 -28.554  14.883  1.00  0.00     0.171 HD
HETATM   16  O11 UNL     1     -29.036 -27.322  15.424  1.00  0.00    -0.265 OA
HETATM   17  N3  UNL     1     -29.472 -25.173  17.384  1.00  0.00    -0.345 N 
HETATM   18  C4  UNL     1     -30.193 -24.407  18.223  1.00  0.00     0.188 A 
ATOM     19  H3  UNL     1     -28.471 -25.104  17.197  1.00  0.00     0.167 HD
ENDBRANCH   1   6
BRANCH   5  20
HETATM   20  O10 UNL     1     -32.855 -24.983  21.246  1.00  0.00    -0.388 OA
ATOM     21  H10 UNL     1     -33.484 -24.597  21.844  1.00  0.00     0.210 HD
ENDBRANCH   5  20
BRANCH   3  22
HETATM   22  C7  UNL     1     -32.951 -20.720  19.368  1.00  0.00     0.216 C 
BRANCH  22  23
HETATM   23  O2  UNL     1     -32.241 -20.401  20.524  1.00  0.00    -0.287 OA
BRANCH  23  24
HETATM   24  P1  UNL     1     -31.168 -19.289  20.497  1.00  0.00     0.418 P 
HETATM   25  O3  UNL     1     -30.618 -19.878  19.056  1.00  0.00    -0.624 OA
HETATM   26  O4  UNL     1     -32.444 -18.191  20.455  1.00  0.00    -0.624 OA
BRANCH  24  27
HETATM   27  O5  UNL     1     -30.234 -18.076  20.353  1.00  0.00    -0.173 OA
BRANCH  27  28
HETATM   28  P2  UNL     1     -30.420 -16.686  19.724  1.00  0.00     0.431 P 
HETATM   29  O6  UNL     1     -30.579 -15.426  18.835  1.00  0.00    -0.616 OA
HETATM   30  O7  UNL     1     -29.027 -17.029  18.870  1.00  0.00    -0.616 OA
HETATM   31  O8  UNL     1     -30.238 -15.879  21.128  1.00  0.00    -0.616 OA
ENDBRANCH  27  28
ENDBRANCH  24  27
ENDBRANCH  23  24
ENDBRANCH  22  23
ENDBRANCH   3  22
BRANCH   4  32
HETATM   32  O9  UNL     1     -34.031 -22.864  21.573  1.00  0.00    -0.390 OA
ATOM     33  H9  UNL     1     -33.754 -23.267  22.388  1.00  0.00     0.210 HD
ENDBRANCH   4  32
TORSDOF 8
ENDMDL
