MODEL 5
REMARK VINA RESULT: -8.534497322      2.817      4.643
REMARK  8 active torsions:
REMARK  status: ('A' for Active; 'I' for Inactive)
REMARK    1  A    between atoms: N4_10  and  C5_11 
REMARK    2  A    between atoms: C6_13  and  C7_14 
REMARK    3  A    between atoms: C7_14  and  O2_15 
REMARK    4  A    between atoms: O2_15  and  P1_16 
REMARK    5  A    between atoms: P1_16  and  O5_19 
REMARK    6  A    between atoms: O5_19  and  P2_20 
REMARK    7  A    between atoms: C8_24  and  O9_25 
REMARK    8  A    between atoms: C9_27  and  O10_28 
ROOT
HETATM    1  C5  UNL     1     -32.955 -21.036  21.694  1.00  0.00     0.262 C 
HETATM    2  O1  UNL     1     -32.305 -20.851  20.475  1.00  0.00    -0.353 OA
HETATM    3  C6  UNL     1     -31.401 -19.839  20.620  1.00  0.00     0.180 C 
HETATM    4  C8  UNL     1     -30.918 -19.825  22.046  1.00  0.00     0.182 C 
HETATM    5  C9  UNL     1     -31.900 -20.763  22.718  1.00  0.00     0.198 C 
ENDROOT
BRANCH   1   6
HETATM    6  N4  UNL     1     -33.394 -22.429  21.701  1.00  0.00    -0.297 N 
HETATM    7  C2  UNL     1     -32.803 -23.419  20.985  1.00  0.00     0.146 A 
HETATM    8  N2  UNL     1     -31.751 -23.417  20.145  1.00  0.00    -0.314 N 
HETATM    9  C3  UNL     1     -33.518 -24.570  21.273  1.00  0.00     0.146 A 
HETATM   10  C1  UNL     1     -31.396 -24.567  19.578  1.00  0.00     0.196 A 
ATOM     11  H2  UNL     1     -31.239 -22.557  19.948  1.00  0.00     0.170 HD
HETATM   12  N1  UNL     1     -30.290 -24.587  18.690  1.00  0.00    -0.063 NA
HETATM   13  N5  UNL     1     -32.061 -25.714  19.828  1.00  0.00    -0.295 N 
HETATM   14  C10 UNL     1     -33.117 -25.746  20.664  1.00  0.00     0.278 A 
ATOM     15  H5  UNL     1     -31.757 -26.576  19.374  1.00  0.00     0.171 HD
HETATM   16  O11 UNL     1     -33.746 -26.833  20.898  1.00  0.00    -0.265 OA
HETATM   17  N3  UNL     1     -34.520 -24.284  22.144  1.00  0.00    -0.345 N 
HETATM   18  C4  UNL     1     -34.429 -22.966  22.395  1.00  0.00     0.188 A 
ATOM     19  H3  UNL     1     -35.203 -24.937  22.530  1.00  0.00     0.167 HD
ENDBRANCH   1   6
BRANCH   5  20
HETATM   20  O10 UNL     1     -32.408 -20.057  23.829  1.00  0.00    -0.388 OA
ATOM     21  H10 UNL     1     -31.718 -19.654  24.342  1.00  0.00     0.210 HD
ENDBRANCH   5  20
BRANCH   3  22
HETATM   22  C7  UNL     1     -30.201 -19.982  19.727  1.00  0.00     0.216 C 
BRANCH  22  23
HETATM   23  O2  UNL     1     -30.299 -19.016  18.726  1.00  0.00    -0.287 OA
BRANCH  23  24
HETATM   24  P1  UNL     1     -29.905 -17.550  19.017  1.00  0.00     0.418 P 
HETATM   25  O3  UNL     1     -28.621 -18.088  19.904  1.00  0.00    -0.624 OA
HETATM   26  O4  UNL     1     -29.689 -17.379  17.355  1.00  0.00    -0.624 OA
BRANCH  24  27
HETATM   27  O5  UNL     1     -29.385 -16.109  19.145  1.00  0.00    -0.173 OA
BRANCH  27  28
HETATM   28  P2  UNL     1     -30.020 -14.815  19.679  1.00  0.00     0.431 P 
HETATM   29  O6  UNL     1     -30.475 -13.544  20.442  1.00  0.00    -0.616 OA
HETATM   30  O7  UNL     1     -30.240 -15.664  21.100  1.00  0.00    -0.616 OA
HETATM   31  O8  UNL     1     -31.258 -14.827  18.620  1.00  0.00    -0.616 OA
ENDBRANCH  27  28
ENDBRANCH  24  27
ENDBRANCH  23  24
ENDBRANCH  22  23
ENDBRANCH   3  22
BRANCH   4  32
HETATM   32  O9  UNL     1     -31.049 -18.512  22.510  1.00  0.00    -0.390 OA
ATOM     33  H9  UNL     1     -30.733 -18.501  23.406  1.00  0.00     0.210 HD
ENDBRANCH   4  32
TORSDOF 8
ENDMDL
