MODEL 1
REMARK VINA RESULT: -9.243019331      0.000      0.000
REMARK  8 active torsions:
REMARK  status: ('A' for Active; 'I' for Inactive)
REMARK    1  A    between atoms: N4_10  and  C5_11 
REMARK    2  A    between atoms: C6_13  and  C7_14 
REMARK    3  A    between atoms: C7_14  and  O2_15 
REMARK    4  A    between atoms: O2_15  and  P1_16 
REMARK    5  A    between atoms: P1_16  and  O5_19 
REMARK    6  A    between atoms: O5_19  and  P2_20 
REMARK    7  A    between atoms: C8_24  and  O9_25 
REMARK    8  A    between atoms: C9_27  and  O10_28 
ROOT
HETATM    1  C5  UNL     1     -32.513 -20.699  22.427  1.00  0.00     0.262 C 
HETATM    2  O1  UNL     1     -31.232 -20.684  21.877  1.00  0.00    -0.353 OA
HETATM    3  C6  UNL     1     -31.347 -20.534  20.525  1.00  0.00     0.180 C 
HETATM    4  C8  UNL     1     -32.591 -19.738  20.234  1.00  0.00     0.182 C 
HETATM    5  C9  UNL     1     -33.287 -19.740  21.580  1.00  0.00     0.198 C 
ENDROOT
BRANCH   1   6
HETATM    6  N4  UNL     1     -32.358 -20.231  23.802  1.00  0.00    -0.297 N 
HETATM    7  C2  UNL     1     -31.608 -19.160  24.164  1.00  0.00     0.146 A 
HETATM    8  N2  UNL     1     -30.861 -18.300  23.446  1.00  0.00    -0.314 N 
HETATM    9  C3  UNL     1     -31.731 -19.062  25.541  1.00  0.00     0.146 A 
HETATM   10  C1  UNL     1     -30.224 -17.327  24.092  1.00  0.00     0.196 A 
ATOM     11  H2  UNL     1     -30.785 -18.392  22.433  1.00  0.00     0.170 HD
HETATM   12  N1  UNL     1     -29.433 -16.411  23.354  1.00  0.00    -0.063 NA
HETATM   13  N5  UNL     1     -30.314 -17.191  25.431  1.00  0.00    -0.295 N 
HETATM   14  C10 UNL     1     -31.053 -18.036  26.175  1.00  0.00     0.278 A 
ATOM     15  H5  UNL     1     -29.811 -16.431  25.890  1.00  0.00     0.171 HD
HETATM   16  O11 UNL     1     -31.136 -17.906  27.444  1.00  0.00    -0.265 OA
HETATM   17  N3  UNL     1     -32.538 -20.051  26.002  1.00  0.00    -0.345 N 
HETATM   18  C4  UNL     1     -32.913 -20.759  24.922  1.00  0.00     0.188 A 
ATOM     19  H3  UNL     1     -32.806 -20.223  26.972  1.00  0.00     0.167 HD
ENDBRANCH   1   6
BRANCH   5  20
HETATM   20  O10 UNL     1     -34.601 -20.190  21.333  1.00  0.00    -0.388 OA
ATOM     21  H10 UNL     1     -35.232 -19.796  21.925  1.00  0.00     0.210 HD
ENDBRANCH   5  20
BRANCH   3  22
HETATM   22  C7  UNL     1     -30.182 -19.814  19.907  1.00  0.00     0.216 C 
BRANCH  22  23
HETATM   23  O2  UNL     1     -30.690 -18.871  19.015  1.00  0.00    -0.287 OA
BRANCH  23  24
HETATM   24  P1  UNL     1     -30.401 -17.368  19.221  1.00  0.00     0.418 P 
HETATM   25  O3  UNL     1     -29.145 -17.763  20.218  1.00  0.00    -0.624 OA
HETATM   26  O4  UNL     1     -30.091 -17.297  17.568  1.00  0.00    -0.624 OA
BRANCH  24  27
HETATM   27  O5  UNL     1     -29.973 -15.892  19.276  1.00  0.00    -0.173 OA
BRANCH  27  28
HETATM   28  P2  UNL     1     -30.625 -14.638  19.883  1.00  0.00     0.431 P 
HETATM   29  O6  UNL     1     -31.225 -13.503  20.752  1.00  0.00    -0.616 OA
HETATM   30  O7  UNL     1     -31.560 -15.710  20.760  1.00  0.00    -0.616 OA
HETATM   31  O8  UNL     1     -31.245 -14.113  18.470  1.00  0.00    -0.616 OA
ENDBRANCH  27  28
ENDBRANCH  24  27
ENDBRANCH  23  24
ENDBRANCH  22  23
ENDBRANCH   3  22
BRANCH   4  32
HETATM   32  O9  UNL     1     -33.316 -20.448  19.270  1.00  0.00    -0.390 OA
ATOM     33  H9  UNL     1     -34.131 -19.980  19.134  1.00  0.00     0.210 HD
ENDBRANCH   4  32
TORSDOF 8
ENDMDL
