MODEL 4
REMARK VINA RESULT: -8.900439461      3.260      5.406
REMARK  8 active torsions:
REMARK  status: ('A' for Active; 'I' for Inactive)
REMARK    1  A    between atoms: N4_10  and  C5_11 
REMARK    2  A    between atoms: C6_13  and  C7_14 
REMARK    3  A    between atoms: C7_14  and  O2_15 
REMARK    4  A    between atoms: O2_15  and  P1_16 
REMARK    5  A    between atoms: P1_16  and  O5_19 
REMARK    6  A    between atoms: O5_19  and  P2_20 
REMARK    7  A    between atoms: C8_24  and  O9_25 
REMARK    8  A    between atoms: C9_27  and  O10_28 
ROOT
HETATM    1  C5  UNL     1     -33.366 -19.969  20.702  1.00  0.00     0.262 C 
HETATM    2  O1  UNL     1     -32.263 -19.806  19.866  1.00  0.00    -0.353 OA
HETATM    3  C6  UNL     1     -31.281 -19.170  20.568  1.00  0.00     0.180 C 
HETATM    4  C8  UNL     1     -31.413 -19.539  22.021  1.00  0.00     0.182 C 
HETATM    5  C9  UNL     1     -32.770 -20.213  22.051  1.00  0.00     0.198 C 
ENDROOT
BRANCH   1   6
HETATM    6  N4  UNL     1     -34.083 -21.133  20.189  1.00  0.00    -0.297 N 
HETATM    7  C2  UNL     1     -33.485 -22.204  19.610  1.00  0.00     0.146 A 
HETATM    8  N2  UNL     1     -32.192 -22.487  19.360  1.00  0.00    -0.314 N 
HETATM    9  C3  UNL     1     -34.511 -23.071  19.271  1.00  0.00     0.146 A 
HETATM   10  C1  UNL     1     -31.904 -23.642  18.766  1.00  0.00     0.196 A 
ATOM     11  H2  UNL     1     -31.453 -21.834  19.619  1.00  0.00     0.170 HD
HETATM   12  N1  UNL     1     -30.549 -23.959  18.494  1.00  0.00    -0.063 NA
HETATM   13  N5  UNL     1     -32.868 -24.519  18.417  1.00  0.00    -0.295 N 
HETATM   14  C10 UNL     1     -34.169 -24.262  18.655  1.00  0.00     0.278 A 
ATOM     15  H5  UNL     1     -32.606 -25.394  17.964  1.00  0.00     0.171 HD
HETATM   16  O11 UNL     1     -35.081 -25.094  18.322  1.00  0.00    -0.265 OA
HETATM   17  N3  UNL     1     -35.705 -22.537  19.636  1.00  0.00    -0.345 N 
HETATM   18  C4  UNL     1     -35.423 -21.348  20.198  1.00  0.00     0.188 A 
ATOM     19  H3  UNL     1     -36.628 -22.953  19.510  1.00  0.00     0.167 HD
ENDBRANCH   1   6
BRANCH   5  20
HETATM   20  O10 UNL     1     -33.495 -19.571  23.078  1.00  0.00    -0.388 OA
ATOM     21  H10 UNL     1     -33.099 -19.701  23.931  1.00  0.00     0.210 HD
ENDBRANCH   5  20
BRANCH   3  22
HETATM   22  C7  UNL     1     -29.895 -19.540  20.120  1.00  0.00     0.216 C 
BRANCH  22  23
HETATM   23  O2  UNL     1     -29.534 -18.670  19.094  1.00  0.00    -0.287 OA
BRANCH  23  24
HETATM   24  P1  UNL     1     -30.012 -17.200  19.113  1.00  0.00     0.418 P 
HETATM   25  O3  UNL     1     -28.514 -16.737  19.629  1.00  0.00    -0.624 OA
HETATM   26  O4  UNL     1     -30.252 -17.356  17.453  1.00  0.00    -0.624 OA
BRANCH  24  27
HETATM   27  O5  UNL     1     -30.405 -15.724  18.942  1.00  0.00    -0.173 OA
BRANCH  27  28
HETATM   28  P2  UNL     1     -31.010 -14.688  19.904  1.00  0.00     0.431 P 
HETATM   29  O6  UNL     1     -31.577 -13.455  20.654  1.00  0.00    -0.616 OA
HETATM   30  O7  UNL     1     -29.659 -13.769  19.557  1.00  0.00    -0.616 OA
HETATM   31  O8  UNL     1     -30.922 -15.654  21.213  1.00  0.00    -0.616 OA
ENDBRANCH  27  28
ENDBRANCH  24  27
ENDBRANCH  23  24
ENDBRANCH  22  23
ENDBRANCH   3  22
BRANCH   4  32
HETATM   32  O9  UNL     1     -31.406 -18.345  22.750  1.00  0.00    -0.390 OA
ATOM     33  H9  UNL     1     -32.310 -18.063  22.831  1.00  0.00     0.210 HD
ENDBRANCH   4  32
TORSDOF 8
ENDMDL
