MODEL 3
REMARK VINA RESULT: -9.123077435      5.518      7.897
REMARK  8 active torsions:
REMARK  status: ('A' for Active; 'I' for Inactive)
REMARK    1  A    between atoms: N4_10  and  C5_11 
REMARK    2  A    between atoms: C6_13  and  C7_14 
REMARK    3  A    between atoms: C7_14  and  O2_15 
REMARK    4  A    between atoms: O2_15  and  P1_16 
REMARK    5  A    between atoms: P1_16  and  O5_19 
REMARK    6  A    between atoms: O5_19  and  P2_20 
REMARK    7  A    between atoms: C8_24  and  O9_25 
REMARK    8  A    between atoms: C9_27  and  O10_28 
ROOT
HETATM    1  C5  UNL     1     -33.052 -23.779  18.857  1.00  0.00     0.262 C 
HETATM    2  O1  UNL     1     -32.608 -22.490  19.146  1.00  0.00    -0.353 OA
HETATM    3  C6  UNL     1     -33.319 -22.021  20.213  1.00  0.00     0.180 C 
HETATM    4  C8  UNL     1     -33.704 -23.186  21.085  1.00  0.00     0.182 C 
HETATM    5  C9  UNL     1     -33.369 -24.366  20.195  1.00  0.00     0.198 C 
ENDROOT
BRANCH   1   6
HETATM    6  N4  UNL     1     -31.927 -24.447  18.207  1.00  0.00    -0.297 N 
HETATM    7  C2  UNL     1     -32.038 -25.566  17.448  1.00  0.00     0.146 A 
HETATM    8  N2  UNL     1     -33.101 -26.317  17.102  1.00  0.00    -0.314 N 
HETATM    9  C3  UNL     1     -30.753 -25.865  17.027  1.00  0.00     0.146 A 
HETATM   10  C1  UNL     1     -32.897 -27.380  16.329  1.00  0.00     0.196 A 
ATOM     11  H2  UNL     1     -34.039 -26.077  17.424  1.00  0.00     0.170 HD
HETATM   12  N1  UNL     1     -34.003 -28.184  15.954  1.00  0.00    -0.063 NA
HETATM   13  N5  UNL     1     -31.664 -27.712  15.894  1.00  0.00    -0.295 N 
HETATM   14  C10 UNL     1     -30.582 -26.979  16.224  1.00  0.00     0.278 A 
ATOM     15  H5  UNL     1     -31.548 -28.535  15.302  1.00  0.00     0.171 HD
HETATM   16  O11 UNL     1     -29.415 -27.296  15.811  1.00  0.00    -0.265 OA
HETATM   17  N3  UNL     1     -29.882 -24.948  17.520  1.00  0.00    -0.345 N 
HETATM   18  C4  UNL     1     -30.619 -24.086  18.242  1.00  0.00     0.188 A 
ATOM     19  H3  UNL     1     -28.872 -24.919  17.373  1.00  0.00     0.167 HD
ENDBRANCH   1   6
BRANCH   5  20
HETATM   20  O10 UNL     1     -34.532 -25.165  20.162  1.00  0.00    -0.388 OA
ATOM     21  H10 UNL     1     -35.283 -24.691  19.823  1.00  0.00     0.210 HD
ENDBRANCH   5  20
BRANCH   3  22
HETATM   22  C7  UNL     1     -32.549 -21.046  21.058  1.00  0.00     0.216 C 
BRANCH  22  23
HETATM   23  O2  UNL     1     -31.221 -21.075  20.637  1.00  0.00    -0.287 OA
BRANCH  23  24
HETATM   24  P1  UNL     1     -30.665 -19.951  19.733  1.00  0.00     0.418 P 
HETATM   25  O3  UNL     1     -31.684 -18.880  20.466  1.00  0.00    -0.624 OA
HETATM   26  O4  UNL     1     -29.173 -20.232  20.463  1.00  0.00    -0.624 OA
BRANCH  24  27
HETATM   27  O5  UNL     1     -29.984 -18.789  18.991  1.00  0.00    -0.173 OA
BRANCH  27  28
HETATM   28  P2  UNL     1     -30.205 -17.267  19.013  1.00  0.00     0.431 P 
HETATM   29  O6  UNL     1     -30.641 -15.790  18.841  1.00  0.00    -0.616 OA
HETATM   30  O7  UNL     1     -30.119 -17.364  17.347  1.00  0.00    -0.616 OA
HETATM   31  O8  UNL     1     -28.816 -16.941  19.799  1.00  0.00    -0.616 OA
ENDBRANCH  27  28
ENDBRANCH  24  27
ENDBRANCH  23  24
ENDBRANCH  22  23
ENDBRANCH   3  22
BRANCH   4  32
HETATM   32  O9  UNL     1     -35.078 -23.084  21.322  1.00  0.00    -0.390 OA
ATOM     33  H9  UNL     1     -35.284 -23.685  22.029  1.00  0.00     0.210 HD
ENDBRANCH   4  32
TORSDOF 8
ENDMDL
