MODEL 5
REMARK VINA RESULT: -8.754942280      3.166      5.009
REMARK  8 active torsions:
REMARK  status: ('A' for Active; 'I' for Inactive)
REMARK    1  A    between atoms: N4_10  and  C5_11 
REMARK    2  A    between atoms: C6_13  and  C7_14 
REMARK    3  A    between atoms: C7_14  and  O2_15 
REMARK    4  A    between atoms: O2_15  and  P1_16 
REMARK    5  A    between atoms: P1_16  and  O5_19 
REMARK    6  A    between atoms: O5_19  and  P2_20 
REMARK    7  A    between atoms: C8_24  and  O9_25 
REMARK    8  A    between atoms: C9_27  and  O10_28 
ROOT
HETATM    1  C5  UNL     1     -32.951 -20.656  21.696  1.00  0.00     0.262 C 
HETATM    2  O1  UNL     1     -32.121 -20.488  20.589  1.00  0.00    -0.353 OA
HETATM    3  C6  UNL     1     -31.274 -19.448  20.842  1.00  0.00     0.180 C 
HETATM    4  C8  UNL     1     -31.022 -19.382  22.325  1.00  0.00     0.182 C 
HETATM    5  C9  UNL     1     -32.076 -20.329  22.864  1.00  0.00     0.198 C 
ENDROOT
BRANCH   1   6
HETATM    6  N4  UNL     1     -33.354 -22.060  21.677  1.00  0.00    -0.297 N 
HETATM    7  C2  UNL     1     -32.804 -23.002  20.870  1.00  0.00     0.146 A 
HETATM    8  N2  UNL     1     -31.828 -22.935  19.944  1.00  0.00    -0.314 N 
HETATM    9  C3  UNL     1     -33.464 -24.183  21.166  1.00  0.00     0.146 A 
HETATM   10  C1  UNL     1     -31.497 -24.049  19.298  1.00  0.00     0.196 A 
ATOM     11  H2  UNL     1     -31.356 -22.054  19.743  1.00  0.00     0.170 HD
HETATM   12  N1  UNL     1     -30.472 -24.001  18.319  1.00  0.00    -0.063 NA
HETATM   13  N5  UNL     1     -32.110 -25.224  19.551  1.00  0.00    -0.295 N 
HETATM   14  C10 UNL     1     -33.089 -25.320  20.472  1.00  0.00     0.278 A 
ATOM     15  H5  UNL     1     -31.827 -26.056  19.034  1.00  0.00     0.171 HD
HETATM   16  O11 UNL     1     -33.670 -26.434  20.709  1.00  0.00    -0.265 OA
HETATM   17  N3  UNL     1     -34.393 -23.963  22.131  1.00  0.00    -0.345 N 
HETATM   18  C4  UNL     1     -34.312 -22.654  22.432  1.00  0.00     0.188 A 
ATOM     19  H3  UNL     1     -35.025 -24.650  22.543  1.00  0.00     0.167 HD
ENDBRANCH   1   6
BRANCH   5  20
HETATM   20  O10 UNL     1     -32.767 -19.607  23.860  1.00  0.00    -0.388 OA
ATOM     21  H10 UNL     1     -33.013 -20.156  24.594  1.00  0.00     0.210 HD
ENDBRANCH   5  20
BRANCH   3  22
HETATM   22  C7  UNL     1     -29.945 -19.583  20.153  1.00  0.00     0.216 C 
BRANCH  22  23
HETATM   23  O2  UNL     1     -29.996 -18.828  18.982  1.00  0.00    -0.287 OA
BRANCH  23  24
HETATM   24  P1  UNL     1     -30.237 -17.303  19.048  1.00  0.00     0.418 P 
HETATM   25  O3  UNL     1     -28.788 -17.124  19.819  1.00  0.00    -0.624 OA
HETATM   26  O4  UNL     1     -30.227 -17.324  17.364  1.00  0.00    -0.624 OA
BRANCH  24  27
HETATM   27  O5  UNL     1     -30.363 -15.774  18.941  1.00  0.00    -0.173 OA
BRANCH  27  28
HETATM   28  P2  UNL     1     -30.922 -14.705  19.894  1.00  0.00     0.431 P 
HETATM   29  O6  UNL     1     -31.414 -13.438  20.641  1.00  0.00    -0.616 OA
HETATM   30  O7  UNL     1     -29.480 -13.903  19.629  1.00  0.00    -0.616 OA
HETATM   31  O8  UNL     1     -30.982 -15.695  21.186  1.00  0.00    -0.616 OA
ENDBRANCH  27  28
ENDBRANCH  24  27
ENDBRANCH  23  24
ENDBRANCH  22  23
ENDBRANCH   3  22
BRANCH   4  32
HETATM   32  O9  UNL     1     -31.252 -18.062  22.722  1.00  0.00    -0.390 OA
ATOM     33  H9  UNL     1     -30.759 -17.921  23.522  1.00  0.00     0.210 HD
ENDBRANCH   4  32
TORSDOF 8
ENDMDL
