MODEL 8
REMARK VINA RESULT: -7.873837439      5.520      7.978
REMARK  8 active torsions:
REMARK  status: ('A' for Active; 'I' for Inactive)
REMARK    1  A    between atoms: N4_10  and  C5_11 
REMARK    2  A    between atoms: C6_13  and  C7_14 
REMARK    3  A    between atoms: C7_14  and  O2_15 
REMARK    4  A    between atoms: O2_15  and  P1_16 
REMARK    5  A    between atoms: P1_16  and  O5_19 
REMARK    6  A    between atoms: O5_19  and  P2_20 
REMARK    7  A    between atoms: C8_24  and  O9_25 
REMARK    8  A    between atoms: C9_27  and  O10_28 
ROOT
HETATM    1  C5  UNL     1      -4.730  30.602   0.042  1.00  0.00     0.262 C 
HETATM    2  O1  UNL     1      -6.041  30.349  -0.360  1.00  0.00    -0.353 OA
HETATM    3  C6  UNL     1      -6.365  31.232  -1.348  1.00  0.00     0.180 C 
HETATM    4  C8  UNL     1      -5.115  31.582  -2.110  1.00  0.00     0.182 C 
HETATM    5  C9  UNL     1      -4.033  31.009  -1.217  1.00  0.00     0.198 C 
ENDROOT
BRANCH   1   6
HETATM    6  N4  UNL     1      -4.229  29.337   0.574  1.00  0.00    -0.297 N 
HETATM    7  C2  UNL     1      -4.598  28.115   0.114  1.00  0.00     0.146 A 
HETATM    8  N2  UNL     1      -5.444  27.739  -0.863  1.00  0.00    -0.314 N 
HETATM    9  C3  UNL     1      -3.899  27.197   0.882  1.00  0.00     0.146 A 
HETATM   10  C1  UNL     1      -5.607  26.439  -1.089  1.00  0.00     0.196 A 
ATOM     11  H2  UNL     1      -5.948  28.433  -1.415  1.00  0.00     0.170 HD
HETATM   12  N1  UNL     1      -6.494  26.022  -2.115  1.00  0.00    -0.063 NA
HETATM   13  N5  UNL     1      -4.949  25.507  -0.369  1.00  0.00    -0.295 N 
HETATM   14  C10 UNL     1      -4.096  25.854   0.614  1.00  0.00     0.278 A 
ATOM     15  H5  UNL     1      -5.100  24.520  -0.574  1.00  0.00     0.171 HD
HETATM   16  O11 UNL     1      -3.474  24.970   1.297  1.00  0.00    -0.265 OA
HETATM   17  N3  UNL     1      -3.124  27.849   1.786  1.00  0.00    -0.345 N 
HETATM   18  C4  UNL     1      -3.339  29.161   1.583  1.00  0.00     0.188 A 
ATOM     19  H3  UNL     1      -2.504  27.428   2.480  1.00  0.00     0.167 HD
ENDBRANCH   1   6
BRANCH   5  20
HETATM   20  O10 UNL     1      -3.116  32.059  -1.001  1.00  0.00    -0.388 OA
ATOM     21  H10 UNL     1      -3.545  32.857  -0.717  1.00  0.00     0.210 HD
ENDBRANCH   5  20
BRANCH   3  22
HETATM   22  C7  UNL     1      -7.366  30.687  -2.327  1.00  0.00     0.216 C 
BRANCH  22  23
HETATM   23  O2  UNL     1      -6.937  31.028  -3.608  1.00  0.00    -0.287 OA
BRANCH  23  24
HETATM   24  P1  UNL     1      -6.733  29.933  -4.679  1.00  0.00     0.418 P 
HETATM   25  O3  UNL     1      -7.971  29.070  -4.009  1.00  0.00    -0.624 OA
HETATM   26  O4  UNL     1      -7.128  31.107  -5.819  1.00  0.00    -0.624 OA
BRANCH  24  27
HETATM   27  O5  UNL     1      -6.681  28.938  -5.851  1.00  0.00    -0.173 OA
BRANCH  27  28
HETATM   28  P2  UNL     1      -5.705  27.807  -6.215  1.00  0.00     0.431 P 
HETATM   29  O6  UNL     1      -4.880  26.646  -6.829  1.00  0.00    -0.616 OA
HETATM   30  O7  UNL     1      -7.075  26.897  -6.507  1.00  0.00    -0.616 OA
HETATM   31  O8  UNL     1      -5.059  27.701  -4.723  1.00  0.00    -0.616 OA
ENDBRANCH  27  28
ENDBRANCH  24  27
ENDBRANCH  23  24
ENDBRANCH  22  23
ENDBRANCH   3  22
BRANCH   4  32
HETATM   32  O9  UNL     1      -5.052  32.978  -2.177  1.00  0.00    -0.390 OA
ATOM     33  H9  UNL     1      -4.548  33.270  -1.426  1.00  0.00     0.210 HD
ENDBRANCH   4  32
TORSDOF 8
ENDMDL
