MODEL 12
REMARK VINA RESULT: -7.696998662      1.808      2.055
REMARK  8 active torsions:
REMARK  status: ('A' for Active; 'I' for Inactive)
REMARK    1  A    between atoms: N4_10  and  C5_11 
REMARK    2  A    between atoms: C6_13  and  C7_14 
REMARK    3  A    between atoms: C7_14  and  O2_15 
REMARK    4  A    between atoms: O2_15  and  P1_16 
REMARK    5  A    between atoms: P1_16  and  O5_19 
REMARK    6  A    between atoms: O5_19  and  P2_20 
REMARK    7  A    between atoms: C8_24  and  O9_25 
REMARK    8  A    between atoms: C9_27  and  O10_28 
ROOT
HETATM    1  C5  UNL     1      -5.968  35.149  -0.212  1.00  0.00     0.262 C 
HETATM    2  O1  UNL     1      -5.964  34.437  -1.410  1.00  0.00    -0.353 OA
HETATM    3  C6  UNL     1      -5.130  33.365  -1.269  1.00  0.00     0.180 C 
HETATM    4  C8  UNL     1      -5.138  32.935   0.173  1.00  0.00     0.182 C 
HETATM    5  C9  UNL     1      -5.847  34.095   0.842  1.00  0.00     0.198 C 
ENDROOT
BRANCH   1   6
HETATM    6  N4  UNL     1      -7.254  35.839  -0.167  1.00  0.00    -0.297 N 
HETATM    7  C2  UNL     1      -7.413  37.135   0.204  1.00  0.00     0.146 A 
HETATM    8  N2  UNL     1      -6.531  38.073   0.600  1.00  0.00    -0.314 N 
HETATM    9  C3  UNL     1      -8.772  37.390   0.108  1.00  0.00     0.146 A 
HETATM   10  C1  UNL     1      -6.993  39.281   0.907  1.00  0.00     0.196 A 
ATOM     11  H2  UNL     1      -5.536  37.861   0.663  1.00  0.00     0.170 HD
HETATM   12  N1  UNL     1      -6.081  40.283   1.325  1.00  0.00    -0.063 NA
HETATM   13  N5  UNL     1      -8.307  39.578   0.828  1.00  0.00    -0.295 N 
HETATM   14  C10 UNL     1      -9.212  38.661   0.435  1.00  0.00     0.278 A 
ATOM     15  H5  UNL     1      -8.622  40.517   1.072  1.00  0.00     0.171 HD
HETATM   16  O11 UNL     1     -10.456  38.943   0.363  1.00  0.00    -0.265 OA
HETATM   17  N3  UNL     1      -9.421  36.274  -0.312  1.00  0.00    -0.345 N 
HETATM   18  C4  UNL     1      -8.475  35.333  -0.475  1.00  0.00     0.188 A 
ATOM     19  H3  UNL     1     -10.424  36.171  -0.471  1.00  0.00     0.167 HD
ENDBRANCH   1   6
BRANCH   5  20
HETATM   20  O10 UNL     1      -5.009  34.498   1.903  1.00  0.00    -0.388 OA
ATOM     21  H10 UNL     1      -4.831  35.430   1.885  1.00  0.00     0.210 HD
ENDBRANCH   5  20
BRANCH   3  22
HETATM   22  C7  UNL     1      -5.533  32.185  -2.107  1.00  0.00     0.216 C 
BRANCH  22  23
HETATM   23  O2  UNL     1      -6.114  31.242  -1.262  1.00  0.00    -0.287 OA
BRANCH  23  24
HETATM   24  P1  UNL     1      -6.191  29.758  -1.685  1.00  0.00     0.418 P 
HETATM   25  O3  UNL     1      -5.259  29.355  -0.384  1.00  0.00    -0.624 OA
HETATM   26  O4  UNL     1      -7.854  29.874  -1.447  1.00  0.00    -0.624 OA
BRANCH  24  27
HETATM   27  O5  UNL     1      -6.425  28.265  -1.973  1.00  0.00    -0.173 OA
BRANCH  27  28
HETATM   28  P2  UNL     1      -5.491  27.044  -1.972  1.00  0.00     0.431 P 
HETATM   29  O6  UNL     1      -4.344  26.004  -2.058  1.00  0.00    -0.616 OA
HETATM   30  O7  UNL     1      -5.086  27.516  -3.522  1.00  0.00    -0.616 OA
HETATM   31  O8  UNL     1      -6.694  25.955  -1.829  1.00  0.00    -0.616 OA
ENDBRANCH  27  28
ENDBRANCH  24  27
ENDBRANCH  23  24
ENDBRANCH  22  23
ENDBRANCH   3  22
BRANCH   4  32
HETATM   32  O9  UNL     1      -3.804  32.833   0.579  1.00  0.00    -0.390 OA
ATOM     33  H9  UNL     1      -3.620  33.589   1.124  1.00  0.00     0.210 HD
ENDBRANCH   4  32
TORSDOF 8
ENDMDL
