MODEL 4
REMARK VINA RESULT: -8.204818626      1.337      1.848
REMARK  8 active torsions:
REMARK  status: ('A' for Active; 'I' for Inactive)
REMARK    1  A    between atoms: N4_10  and  C5_11 
REMARK    2  A    between atoms: C6_13  and  C7_14 
REMARK    3  A    between atoms: C7_14  and  O2_15 
REMARK    4  A    between atoms: O2_15  and  P1_16 
REMARK    5  A    between atoms: P1_16  and  O5_19 
REMARK    6  A    between atoms: O5_19  and  P2_20 
REMARK    7  A    between atoms: C8_24  and  O9_25 
REMARK    8  A    between atoms: C9_27  and  O10_28 
ROOT
HETATM    1  C5  UNL     1      -6.344  34.740  -0.576  1.00  0.00     0.262 C 
HETATM    2  O1  UNL     1      -6.640  33.821  -1.582  1.00  0.00    -0.353 OA
HETATM    3  C6  UNL     1      -5.857  32.718  -1.399  1.00  0.00     0.180 C 
HETATM    4  C8  UNL     1      -5.576  32.565   0.071  1.00  0.00     0.182 C 
HETATM    5  C9  UNL     1      -6.057  33.893   0.622  1.00  0.00     0.198 C 
ENDROOT
BRANCH   1   6
HETATM    6  N4  UNL     1      -7.550  35.549  -0.412  1.00  0.00    -0.297 N 
HETATM    7  C2  UNL     1      -7.550  36.847  -0.019  1.00  0.00     0.146 A 
HETATM    8  N2  UNL     1      -6.551  37.691   0.304  1.00  0.00    -0.314 N 
HETATM    9  C3  UNL     1      -8.881  37.232   0.007  1.00  0.00     0.146 A 
HETATM   10  C1  UNL     1      -6.866  38.933   0.659  1.00  0.00     0.196 A 
ATOM     11  H2  UNL     1      -5.578  37.385   0.277  1.00  0.00     0.170 HD
HETATM   12  N1  UNL     1      -5.828  39.837   1.003  1.00  0.00    -0.063 NA
HETATM   13  N5  UNL     1      -8.146  39.355   0.700  1.00  0.00    -0.295 N 
HETATM   14  C10 UNL     1      -9.166  38.534   0.382  1.00  0.00     0.278 A 
ATOM     15  H5  UNL     1      -8.347  40.316   0.977  1.00  0.00     0.171 HD
HETATM   16  O11 UNL     1     -10.379  38.935   0.422  1.00  0.00    -0.265 OA
HETATM   17  N3  UNL     1      -9.669  36.190  -0.362  1.00  0.00    -0.345 N 
HETATM   18  C4  UNL     1      -8.835  35.166  -0.615  1.00  0.00     0.188 A 
ATOM     19  H3  UNL     1     -10.687  36.185  -0.433  1.00  0.00     0.167 HD
ENDBRANCH   1   6
BRANCH   5  20
HETATM   20  O10 UNL     1      -4.987  34.401   1.388  1.00  0.00    -0.388 OA
ATOM     21  H10 UNL     1      -4.184  33.912   1.251  1.00  0.00     0.210 HD
ENDBRANCH   5  20
BRANCH   3  22
HETATM   22  C7  UNL     1      -6.499  31.448  -1.883  1.00  0.00     0.216 C 
BRANCH  22  23
HETATM   23  O2  UNL     1      -6.572  31.511  -3.273  1.00  0.00    -0.287 OA
BRANCH  23  24
HETATM   24  P1  UNL     1      -6.475  30.222  -4.118  1.00  0.00     0.418 P 
HETATM   25  O3  UNL     1      -7.518  29.479  -3.076  1.00  0.00    -0.624 OA
HETATM   26  O4  UNL     1      -7.138  31.114  -5.383  1.00  0.00    -0.624 OA
BRANCH  24  27
HETATM   27  O5  UNL     1      -6.550  29.004  -5.054  1.00  0.00    -0.173 OA
BRANCH  27  28
HETATM   28  P2  UNL     1      -5.474  28.093  -5.669  1.00  0.00     0.431 P 
HETATM   29  O6  UNL     1      -4.523  27.236  -6.543  1.00  0.00    -0.616 OA
HETATM   30  O7  UNL     1      -6.749  27.300  -6.400  1.00  0.00    -0.616 OA
HETATM   31  O8  UNL     1      -4.966  27.501  -4.238  1.00  0.00    -0.616 OA
ENDBRANCH  27  28
ENDBRANCH  24  27
ENDBRANCH  23  24
ENDBRANCH  22  23
ENDBRANCH   3  22
BRANCH   4  32
HETATM   32  O9  UNL     1      -4.194  32.411   0.211  1.00  0.00    -0.390 OA
ATOM     33  H9  UNL     1      -4.040  31.514   0.487  1.00  0.00     0.210 HD
ENDBRANCH   4  32
TORSDOF 8
ENDMDL
