MODEL 14
REMARK VINA RESULT: -7.422959908      1.400      1.564
REMARK  8 active torsions:
REMARK  status: ('A' for Active; 'I' for Inactive)
REMARK    1  A    between atoms: N4_10  and  C5_11 
REMARK    2  A    between atoms: C6_13  and  C7_14 
REMARK    3  A    between atoms: C7_14  and  O2_15 
REMARK    4  A    between atoms: O2_15  and  P1_16 
REMARK    5  A    between atoms: P1_16  and  O5_19 
REMARK    6  A    between atoms: O5_19  and  P2_20 
REMARK    7  A    between atoms: C8_24  and  O9_25 
REMARK    8  A    between atoms: C9_27  and  O10_28 
ROOT
HETATM    1  C5  UNL     1      -5.426  34.238   1.460  1.00  0.00     0.262 C 
HETATM    2  O1  UNL     1      -5.029  33.671   0.250  1.00  0.00    -0.353 OA
HETATM    3  C6  UNL     1      -4.694  32.367   0.477  1.00  0.00     0.180 C 
HETATM    4  C8  UNL     1      -5.522  31.850   1.622  1.00  0.00     0.182 C 
HETATM    5  C9  UNL     1      -6.125  33.126   2.174  1.00  0.00     0.198 C 
ENDROOT
BRANCH   1   6
HETATM    6  N4  UNL     1      -6.330  35.330   1.106  1.00  0.00    -0.297 N 
HETATM    7  C2  UNL     1      -6.017  36.646   1.215  1.00  0.00     0.146 A 
HETATM    8  N2  UNL     1      -4.903  37.274   1.636  1.00  0.00    -0.314 N 
HETATM    9  C3  UNL     1      -7.137  37.336   0.781  1.00  0.00     0.146 A 
HETATM   10  C1  UNL     1      -4.890  38.604   1.630  1.00  0.00     0.196 A 
ATOM     11  H2  UNL     1      -4.090  36.745   1.951  1.00  0.00     0.170 HD
HETATM   12  N1  UNL     1      -3.726  39.285   2.069  1.00  0.00    -0.063 NA
HETATM   13  N5  UNL     1      -5.956  39.321   1.217  1.00  0.00    -0.295 N 
HETATM   14  C10 UNL     1      -7.083  38.719   0.790  1.00  0.00     0.278 A 
ATOM     15  H5  UNL     1      -5.906  40.339   1.227  1.00  0.00     0.171 HD
HETATM   16  O11 UNL     1      -8.092  39.400   0.400  1.00  0.00    -0.265 OA
HETATM   17  N3  UNL     1      -8.107  36.458   0.418  1.00  0.00    -0.345 N 
HETATM   18  C4  UNL     1      -7.594  35.232   0.624  1.00  0.00     0.188 A 
ATOM     19  H3  UNL     1      -9.036  36.683   0.061  1.00  0.00     0.167 HD
ENDBRANCH   1   6
BRANCH   5  20
HETATM   20  O10 UNL     1      -5.840  33.120   3.556  1.00  0.00    -0.388 OA
ATOM     21  H10 UNL     1      -5.862  32.244   3.922  1.00  0.00     0.210 HD
ENDBRANCH   5  20
BRANCH   3  22
HETATM   22  C7  UNL     1      -4.937  31.477  -0.709  1.00  0.00     0.216 C 
BRANCH  22  23
HETATM   23  O2  UNL     1      -6.300  31.512  -0.996  1.00  0.00    -0.287 OA
BRANCH  23  24
HETATM   24  P1  UNL     1      -6.809  31.153  -2.410  1.00  0.00     0.418 P 
HETATM   25  O3  UNL     1      -5.601  30.036  -2.543  1.00  0.00    -0.624 OA
HETATM   26  O4  UNL     1      -8.241  30.669  -1.668  1.00  0.00    -0.624 OA
BRANCH  24  27
HETATM   27  O5  UNL     1      -7.420  30.643  -3.725  1.00  0.00    -0.173 OA
BRANCH  27  28
HETATM   28  P2  UNL     1      -6.828  29.879  -4.922  1.00  0.00     0.431 P 
HETATM   29  O6  UNL     1      -6.062  29.346  -6.160  1.00  0.00    -0.616 OA
HETATM   30  O7  UNL     1      -7.123  31.275  -5.791  1.00  0.00    -0.616 OA
HETATM   31  O8  UNL     1      -7.996  28.742  -4.945  1.00  0.00    -0.616 OA
ENDBRANCH  27  28
ENDBRANCH  24  27
ENDBRANCH  23  24
ENDBRANCH  22  23
ENDBRANCH   3  22
BRANCH   4  32
HETATM   32  O9  UNL     1      -4.641  31.253   2.529  1.00  0.00    -0.390 OA
ATOM     33  H9  UNL     1      -3.787  31.644   2.386  1.00  0.00     0.210 HD
ENDBRANCH   4  32
TORSDOF 8
ENDMDL
