MODEL 2
REMARK VINA RESULT: -8.885954006      0.804      1.091
REMARK  8 active torsions:
REMARK  status: ('A' for Active; 'I' for Inactive)
REMARK    1  A    between atoms: N4_10  and  C5_11 
REMARK    2  A    between atoms: C6_13  and  C7_14 
REMARK    3  A    between atoms: C7_14  and  O2_15 
REMARK    4  A    between atoms: O2_15  and  P1_16 
REMARK    5  A    between atoms: P1_16  and  O5_19 
REMARK    6  A    between atoms: O5_19  and  P2_20 
REMARK    7  A    between atoms: C8_24  and  O9_25 
REMARK    8  A    between atoms: C9_27  and  O10_28 
ROOT
HETATM    1  C5  UNL     1      -5.778  35.045  -0.127  1.00  0.00     0.262 C 
HETATM    2  O1  UNL     1      -6.007  33.711  -0.460  1.00  0.00    -0.353 OA
HETATM    3  C6  UNL     1      -4.994  32.959   0.060  1.00  0.00     0.180 C 
HETATM    4  C8  UNL     1      -4.495  33.625   1.314  1.00  0.00     0.182 C 
HETATM    5  C9  UNL     1      -5.165  34.982   1.235  1.00  0.00     0.198 C 
ENDROOT
BRANCH   1   6
HETATM    6  N4  UNL     1      -7.094  35.680  -0.119  1.00  0.00    -0.297 N 
HETATM    7  C2  UNL     1      -7.309  36.985   0.184  1.00  0.00     0.146 A 
HETATM    8  N2  UNL     1      -6.469  37.980   0.531  1.00  0.00    -0.314 N 
HETATM    9  C3  UNL     1      -8.677  37.177   0.074  1.00  0.00     0.146 A 
HETATM   10  C1  UNL     1      -6.983  39.182   0.774  1.00  0.00     0.196 A 
ATOM     11  H2  UNL     1      -5.465  37.815   0.605  1.00  0.00     0.170 HD
HETATM   12  N1  UNL     1      -6.116  40.243   1.140  1.00  0.00    -0.063 NA
HETATM   13  N5  UNL     1      -8.308  39.418   0.679  1.00  0.00    -0.295 N 
HETATM   14  C10 UNL     1      -9.172  38.443   0.334  1.00  0.00     0.278 A 
ATOM     15  H5  UNL     1      -8.664  40.354   0.873  1.00  0.00     0.171 HD
HETATM   16  O11 UNL     1     -10.427  38.667   0.247  1.00  0.00    -0.265 OA
HETATM   17  N3  UNL     1      -9.277  36.014  -0.287  1.00  0.00    -0.345 N 
HETATM   18  C4  UNL     1      -8.290  35.106  -0.401  1.00  0.00     0.188 A 
ATOM     19  H3  UNL     1     -10.274  35.859  -0.441  1.00  0.00     0.167 HD
ENDBRANCH   1   6
BRANCH   5  20
HETATM   20  O10 UNL     1      -4.133  35.930   1.397  1.00  0.00    -0.388 OA
ATOM     21  H10 UNL     1      -3.871  36.023   2.306  1.00  0.00     0.210 HD
ENDBRANCH   5  20
BRANCH   3  22
HETATM   22  C7  UNL     1      -5.414  31.560   0.415  1.00  0.00     0.216 C 
BRANCH  22  23
HETATM   23  O2  UNL     1      -6.592  31.282  -0.275  1.00  0.00    -0.287 OA
BRANCH  23  24
HETATM   24  P1  UNL     1      -6.541  30.590  -1.656  1.00  0.00     0.418 P 
HETATM   25  O3  UNL     1      -5.963  29.224  -0.932  1.00  0.00    -0.624 OA
HETATM   26  O4  UNL     1      -8.212  30.794  -1.714  1.00  0.00    -0.624 OA
BRANCH  24  27
HETATM   27  O5  UNL     1      -6.677  29.824  -2.982  1.00  0.00    -0.173 OA
BRANCH  27  28
HETATM   28  P2  UNL     1      -6.800  30.284  -4.445  1.00  0.00     0.431 P 
HETATM   29  O6  UNL     1      -7.202  30.804  -5.849  1.00  0.00    -0.616 OA
HETATM   30  O7  UNL     1      -8.125  29.270  -4.516  1.00  0.00    -0.616 OA
HETATM   31  O8  UNL     1      -5.369  29.654  -4.903  1.00  0.00    -0.616 OA
ENDBRANCH  27  28
ENDBRANCH  24  27
ENDBRANCH  23  24
ENDBRANCH  22  23
ENDBRANCH   3  22
BRANCH   4  32
HETATM   32  O9  UNL     1      -3.105  33.721   1.203  1.00  0.00    -0.390 OA
ATOM     33  H9  UNL     1      -2.776  34.000   2.050  1.00  0.00     0.210 HD
ENDBRANCH   4  32
TORSDOF 8
ENDMDL
