MODEL 10
REMARK VINA RESULT: -7.777969082      5.647      8.227
REMARK  8 active torsions:
REMARK  status: ('A' for Active; 'I' for Inactive)
REMARK    1  A    between atoms: N4_10  and  C5_11 
REMARK    2  A    between atoms: C6_13  and  C7_14 
REMARK    3  A    between atoms: C7_14  and  O2_15 
REMARK    4  A    between atoms: O2_15  and  P1_16 
REMARK    5  A    between atoms: P1_16  and  O5_19 
REMARK    6  A    between atoms: O5_19  and  P2_20 
REMARK    7  A    between atoms: C8_24  and  O9_25 
REMARK    8  A    between atoms: C9_27  and  O10_28 
ROOT
HETATM    1  C5  UNL     1      -4.015  26.998  -2.152  1.00  0.00     0.262 C 
HETATM    2  O1  UNL     1      -4.059  26.817  -3.534  1.00  0.00    -0.353 OA
HETATM    3  C6  UNL     1      -4.503  25.552  -3.787  1.00  0.00     0.180 C 
HETATM    4  C8  UNL     1      -5.426  25.134  -2.675  1.00  0.00     0.182 C 
HETATM    5  C9  UNL     1      -5.185  26.218  -1.644  1.00  0.00     0.198 C 
ENDROOT
BRANCH   1   6
HETATM    6  N4  UNL     1      -4.166  28.435  -1.937  1.00  0.00    -0.297 N 
HETATM    7  C2  UNL     1      -5.099  29.205  -2.552  1.00  0.00     0.146 A 
HETATM    8  N2  UNL     1      -6.061  28.912  -3.448  1.00  0.00    -0.314 N 
HETATM    9  C3  UNL     1      -4.901  30.490  -2.073  1.00  0.00     0.146 A 
HETATM   10  C1  UNL     1      -6.841  29.898  -3.880  1.00  0.00     0.196 A 
ATOM     11  H2  UNL     1      -6.188  27.958  -3.786  1.00  0.00     0.170 HD
HETATM   12  N1  UNL     1      -7.860  29.610  -4.823  1.00  0.00    -0.063 NA
HETATM   13  N5  UNL     1      -6.687  31.166  -3.443  1.00  0.00    -0.295 N 
HETATM   14  C10 UNL     1      -5.734  31.489  -2.547  1.00  0.00     0.278 A 
ATOM     15  H5  UNL     1      -7.306  31.894  -3.798  1.00  0.00     0.171 HD
HETATM   16  O11 UNL     1      -5.589  32.690  -2.136  1.00  0.00    -0.265 OA
HETATM   17  N3  UNL     1      -3.872  30.498  -1.188  1.00  0.00    -0.345 N 
HETATM   18  C4  UNL     1      -3.433  29.229  -1.117  1.00  0.00     0.188 A 
ATOM     19  H3  UNL     1      -3.505  31.304  -0.680  1.00  0.00     0.167 HD
ENDBRANCH   1   6
BRANCH   5  20
HETATM   20  O10 UNL     1      -4.891  25.544  -0.439  1.00  0.00    -0.388 OA
ATOM     21  H10 UNL     1      -5.272  24.674  -0.413  1.00  0.00     0.210 HD
ENDBRANCH   5  20
BRANCH   3  22
HETATM   22  C7  UNL     1      -5.255  25.435  -5.083  1.00  0.00     0.216 C 
BRANCH  22  23
HETATM   23  O2  UNL     1      -5.544  26.724  -5.525  1.00  0.00    -0.287 OA
BRANCH  23  24
HETATM   24  P1  UNL     1      -5.303  27.114  -7.001  1.00  0.00     0.418 P 
HETATM   25  O3  UNL     1      -5.259  28.703  -6.556  1.00  0.00    -0.624 OA
HETATM   26  O4  UNL     1      -3.870  26.236  -6.900  1.00  0.00    -0.624 OA
BRANCH  24  27
HETATM   27  O5  UNL     1      -4.862  27.504  -8.421  1.00  0.00    -0.173 OA
BRANCH  27  28
HETATM   28  P2  UNL     1      -5.632  27.677  -9.741  1.00  0.00     0.431 P 
HETATM   29  O6  UNL     1      -6.647  27.844 -10.901  1.00  0.00    -0.616 OA
HETATM   30  O7  UNL     1      -6.524  26.355  -9.243  1.00  0.00    -0.616 OA
HETATM   31  O8  UNL     1      -4.342  27.375 -10.689  1.00  0.00    -0.616 OA
ENDBRANCH  27  28
ENDBRANCH  24  27
ENDBRANCH  23  24
ENDBRANCH  22  23
ENDBRANCH   3  22
BRANCH   4  32
HETATM   32  O9  UNL     1      -4.992  23.882  -2.229  1.00  0.00    -0.390 OA
ATOM     33  H9  UNL     1      -4.052  23.943  -2.100  1.00  0.00     0.210 HD
ENDBRANCH   4  32
TORSDOF 8
ENDMDL
