MODEL 1
REMARK VINA RESULT: -8.890891271      0.000      0.000
REMARK  8 active torsions:
REMARK  status: ('A' for Active; 'I' for Inactive)
REMARK    1  A    between atoms: N4_10  and  C5_11 
REMARK    2  A    between atoms: C6_13  and  C7_14 
REMARK    3  A    between atoms: C7_14  and  O2_15 
REMARK    4  A    between atoms: O2_15  and  P1_16 
REMARK    5  A    between atoms: P1_16  and  O5_19 
REMARK    6  A    between atoms: O5_19  and  P2_20 
REMARK    7  A    between atoms: C8_24  and  O9_25 
REMARK    8  A    between atoms: C9_27  and  O10_28 
ROOT
HETATM    1  C5  UNL     1      -5.593  35.193   0.115  1.00  0.00     0.262 C 
HETATM    2  O1  UNL     1      -5.593  34.182  -0.844  1.00  0.00    -0.353 OA
HETATM    3  C6  UNL     1      -4.684  33.236  -0.470  1.00  0.00     0.180 C 
HETATM    4  C8  UNL     1      -4.599  33.215   1.032  1.00  0.00     0.182 C 
HETATM    5  C9  UNL     1      -5.355  34.475   1.405  1.00  0.00     0.198 C 
ENDROOT
BRANCH   1   6
HETATM    6  N4  UNL     1      -6.920  35.800   0.051  1.00  0.00    -0.297 N 
HETATM    7  C2  UNL     1      -7.184  37.094   0.364  1.00  0.00     0.146 A 
HETATM    8  N2  UNL     1      -6.391  38.098   0.784  1.00  0.00    -0.314 N 
HETATM    9  C3  UNL     1      -8.546  37.258   0.170  1.00  0.00     0.146 A 
HETATM   10  C1  UNL     1      -6.947  39.284   1.016  1.00  0.00     0.196 A 
ATOM     11  H2  UNL     1      -5.391  37.954   0.920  1.00  0.00     0.170 HD
HETATM   12  N1  UNL     1      -6.130  40.355   1.458  1.00  0.00    -0.063 NA
HETATM   13  N5  UNL     1      -8.268  39.493   0.841  1.00  0.00    -0.295 N 
HETATM   14  C10 UNL     1      -9.085  38.507   0.421  1.00  0.00     0.278 A 
ATOM     15  H5  UNL     1      -8.657  40.417   1.029  1.00  0.00     0.171 HD
HETATM   16  O11 UNL     1     -10.337  38.706   0.257  1.00  0.00    -0.265 OA
HETATM   17  N3  UNL     1      -9.094  36.090  -0.253  1.00  0.00    -0.345 N 
HETATM   18  C4  UNL     1      -8.082  35.206  -0.320  1.00  0.00     0.188 A 
ATOM     19  H3  UNL     1     -10.076  35.917  -0.474  1.00  0.00     0.167 HD
ENDBRANCH   1   6
BRANCH   5  20
HETATM   20  O10 UNL     1      -4.499  35.196   2.265  1.00  0.00    -0.388 OA
ATOM     21  H10 UNL     1      -4.947  35.494   3.048  1.00  0.00     0.210 HD
ENDBRANCH   5  20
BRANCH   3  22
HETATM   22  C7  UNL     1      -5.043  31.851  -0.933  1.00  0.00     0.216 C 
BRANCH  22  23
HETATM   23  O2  UNL     1      -6.413  31.829  -1.182  1.00  0.00    -0.287 OA
BRANCH  23  24
HETATM   24  P1  UNL     1      -6.958  31.204  -2.486  1.00  0.00     0.418 P 
HETATM   25  O3  UNL     1      -5.550  30.358  -2.650  1.00  0.00    -0.624 OA
HETATM   26  O4  UNL     1      -8.173  30.522  -1.541  1.00  0.00    -0.624 OA
BRANCH  24  27
HETATM   27  O5  UNL     1      -7.559  30.423  -3.667  1.00  0.00    -0.173 OA
BRANCH  27  28
HETATM   28  P2  UNL     1      -6.931  29.744  -4.895  1.00  0.00     0.431 P 
HETATM   29  O6  UNL     1      -6.117  29.290  -6.134  1.00  0.00    -0.616 OA
HETATM   30  O7  UNL     1      -7.120  31.223  -5.647  1.00  0.00    -0.616 OA
HETATM   31  O8  UNL     1      -8.138  28.667  -5.085  1.00  0.00    -0.616 OA
ENDBRANCH  27  28
ENDBRANCH  24  27
ENDBRANCH  23  24
ENDBRANCH  22  23
ENDBRANCH   3  22
BRANCH   4  32
HETATM   32  O9  UNL     1      -3.244  33.299   1.368  1.00  0.00    -0.390 OA
ATOM     33  H9  UNL     1      -3.194  33.319   2.317  1.00  0.00     0.210 HD
ENDBRANCH   4  32
TORSDOF 8
ENDMDL
