MODEL 3
REMARK VINA RESULT: -5.664142550      1.441      2.911
REMARK  6 active torsions:
REMARK  status: ('A' for Active; 'I' for Inactive)
REMARK    1  A    between atoms: N1_2  and  C2_4 
REMARK    2  A    between atoms: N5_15  and  C7_16 
REMARK    3  A    between atoms: C8_18  and  C9_19 
REMARK    4  A    between atoms: C9_19  and  O2_20 
REMARK    5  A    between atoms: C10_22  and  O3_23 
REMARK    6  A    between atoms: C11_25  and  O4_26 
ROOT
HETATM    1  C2  UNL     1     -14.227 -27.903   9.942  1.00  0.00     0.132 A 
HETATM    2  N2  UNL     1     -15.147 -28.665  10.548  1.00  0.00    -0.337 N 
ATOM      3  H2  UNL     1     -16.128 -28.389  10.513  1.00  0.00     0.168 HD
HETATM    4  C3  UNL     1     -14.800 -29.786  11.199  1.00  0.00     0.183 A 
HETATM    5  N3  UNL     1     -13.510 -30.164  11.255  1.00  0.00    -0.336 N 
ATOM      6  H3  UNL     1     -13.271 -31.019  11.757  1.00  0.00     0.168 HD
HETATM    7  C4  UNL     1     -12.523 -29.461  10.677  1.00  0.00     0.142 A 
HETATM    8  C5  UNL     1     -12.906 -28.311  10.013  1.00  0.00     0.122 A 
HETATM    9  N4  UNL     1     -11.780 -27.761   9.511  1.00  0.00    -0.346 N 
ATOM     10  H4  UNL     1     -11.722 -26.901   8.966  1.00  0.00     0.167 HD
HETATM   11  C6  UNL     1     -10.742 -28.555   9.862  1.00  0.00     0.188 A 
HETATM   12  N5  UNL     1     -11.195 -29.596  10.576  1.00  0.00    -0.297 N 
ENDROOT
BRANCH  12  13
HETATM   13  C7  UNL     1     -10.425 -30.665  11.136  1.00  0.00     0.262 C 
HETATM   14  O1  UNL     1      -9.829 -30.355  12.326  1.00  0.00    -0.353 OA
HETATM   15  C8  UNL     1      -8.543 -30.872  12.323  1.00  0.00     0.179 C 
HETATM   16  C10 UNL     1      -8.100 -30.505  10.901  1.00  0.00     0.182 C 
HETATM   17  C11 UNL     1      -9.331 -31.014  10.145  1.00  0.00     0.198 C 
BRANCH  15  18
HETATM   18  C9  UNL     1      -7.659 -30.235  13.348  1.00  0.00     0.198 C 
BRANCH  18  19
HETATM   19  O2  UNL     1      -6.771 -29.328  12.776  1.00  0.00    -0.398 OA
ATOM     20  H2  UNL     1      -5.880 -29.466  13.078  1.00  0.00     0.209 HD
ENDBRANCH  18  19
ENDBRANCH  15  18
BRANCH  16  21
HETATM   21  O3  UNL     1      -6.953 -31.177  10.536  1.00  0.00    -0.390 OA
ATOM     22  H3  UNL     1      -7.147 -31.936  10.000  1.00  0.00     0.210 HD
ENDBRANCH  16  21
BRANCH  17  23
HETATM   23  O4  UNL     1      -9.195 -32.390  10.061  1.00  0.00    -0.388 OA
ATOM     24  H4  UNL     1      -8.509 -32.609   9.442  1.00  0.00     0.210 HD
ENDBRANCH  17  23
ENDBRANCH  12  13
BRANCH   1  25
HETATM   25  N1  UNL     1     -14.593 -26.711   9.249  1.00  0.00    -0.379 N 
HETATM   26  C1  UNL     1     -15.595 -25.845   9.834  1.00  0.00     0.147 C 
ATOM     27  H1  UNL     1     -14.157 -26.473   8.358  1.00  0.00     0.160 HD
ENDBRANCH   1  25
TORSDOF 6
ENDMDL
