MODEL 5
REMARK VINA RESULT: -5.416318157      2.004      3.862
REMARK  6 active torsions:
REMARK  status: ('A' for Active; 'I' for Inactive)
REMARK    1  A    between atoms: N1_2  and  C2_4 
REMARK    2  A    between atoms: N5_15  and  C7_16 
REMARK    3  A    between atoms: C8_18  and  C9_19 
REMARK    4  A    between atoms: C9_19  and  O2_20 
REMARK    5  A    between atoms: C10_22  and  O3_23 
REMARK    6  A    between atoms: C11_25  and  O4_26 
ROOT
HETATM    1  C2  UNL     1     -10.428 -28.686  10.226  1.00  0.00     0.132 A 
HETATM    2  N2  UNL     1     -11.575 -29.377  10.268  1.00  0.00    -0.337 N 
ATOM      3  H2  UNL     1     -12.446 -28.918  10.003  1.00  0.00     0.168 HD
HETATM    4  C3  UNL     1     -11.597 -30.663  10.653  1.00  0.00     0.183 A 
HETATM    5  N3  UNL     1     -10.455 -31.282  11.008  1.00  0.00    -0.336 N 
ATOM      6  H3  UNL     1     -10.499 -32.259  11.297  1.00  0.00     0.168 HD
HETATM    7  C4  UNL     1      -9.262 -30.667  10.995  1.00  0.00     0.142 A 
HETATM    8  C5  UNL     1      -9.266 -29.344  10.596  1.00  0.00     0.122 A 
HETATM    9  N4  UNL     1      -7.987 -28.918  10.654  1.00  0.00    -0.346 N 
ATOM     10  H4  UNL     1      -7.653 -27.983  10.420  1.00  0.00     0.167 HD
HETATM   11  C6  UNL     1      -7.227 -29.954  11.078  1.00  0.00     0.188 A 
HETATM   12  N5  UNL     1      -8.006 -31.026  11.288  1.00  0.00    -0.297 N 
ENDROOT
BRANCH  12  13
HETATM   13  C7  UNL     1      -7.598 -32.321  11.740  1.00  0.00     0.262 C 
HETATM   14  O1  UNL     1      -6.313 -32.367  12.204  1.00  0.00    -0.353 OA
HETATM   15  C8  UNL     1      -5.719 -33.530  11.741  1.00  0.00     0.179 C 
HETATM   16  C10 UNL     1      -6.219 -33.540  10.291  1.00  0.00     0.182 C 
HETATM   17  C11 UNL     1      -7.702 -33.273  10.564  1.00  0.00     0.198 C 
BRANCH  15  18
HETATM   18  C9  UNL     1      -4.225 -33.482  11.800  1.00  0.00     0.198 C 
BRANCH  18  19
HETATM   19  O2  UNL     1      -3.656 -34.736  11.589  1.00  0.00    -0.398 OA
ATOM     20  H2  UNL     1      -2.756 -34.771  11.892  1.00  0.00     0.209 HD
ENDBRANCH  18  19
ENDBRANCH  15  18
BRANCH  16  21
HETATM   21  O3  UNL     1      -6.014 -34.763   9.690  1.00  0.00    -0.390 OA
ATOM     22  H3  UNL     1      -6.173 -34.725   8.754  1.00  0.00     0.210 HD
ENDBRANCH  16  21
BRANCH  17  23
HETATM   23  O4  UNL     1      -8.244 -34.478  10.983  1.00  0.00    -0.388 OA
ATOM     24  H4  UNL     1      -7.809 -35.197  10.539  1.00  0.00     0.210 HD
ENDBRANCH  17  23
ENDBRANCH  12  13
BRANCH   1  25
HETATM   25  N1  UNL     1     -10.402 -27.320   9.818  1.00  0.00    -0.379 N 
HETATM   26  C1  UNL     1     -11.507 -26.804   9.038  1.00  0.00     0.147 C 
ATOM     27  H1  UNL     1      -9.619 -26.716  10.071  1.00  0.00     0.160 HD
ENDBRANCH   1  25
TORSDOF 6
ENDMDL
