MODEL 6
REMARK VINA RESULT: -5.245621190      5.588      7.318
REMARK  6 active torsions:
REMARK  status: ('A' for Active; 'I' for Inactive)
REMARK    1  A    between atoms: N1_2  and  C2_4 
REMARK    2  A    between atoms: N5_15  and  C7_16 
REMARK    3  A    between atoms: C8_18  and  C9_19 
REMARK    4  A    between atoms: C9_19  and  O2_20 
REMARK    5  A    between atoms: C10_22  and  O3_23 
REMARK    6  A    between atoms: C11_25  and  O4_26 
ROOT
HETATM    1  C2  UNL     1      -7.323 -36.018  10.442  1.00  0.00     0.132 A 
HETATM    2  N2  UNL     1      -7.266 -36.229   9.120  1.00  0.00    -0.337 N 
ATOM      3  H2  UNL     1      -7.411 -37.170   8.757  1.00  0.00     0.168 HD
HETATM    4  C3  UNL     1      -7.021 -35.223   8.267  1.00  0.00     0.183 A 
HETATM    5  N3  UNL     1      -6.826 -33.974   8.731  1.00  0.00    -0.336 N 
ATOM      6  H3  UNL     1      -6.641 -33.227   8.063  1.00  0.00     0.168 HD
HETATM    7  C4  UNL     1      -6.866 -33.673  10.039  1.00  0.00     0.142 A 
HETATM    8  C5  UNL     1      -7.119 -34.726  10.897  1.00  0.00     0.122 A 
HETATM    9  N4  UNL     1      -7.116 -34.217  12.147  1.00  0.00    -0.346 N 
ATOM     10  H4  UNL     1      -7.274 -34.738  13.009  1.00  0.00     0.167 HD
HETATM   11  C6  UNL     1      -6.867 -32.891  12.050  1.00  0.00     0.188 A 
HETATM   12  N5  UNL     1      -6.713 -32.556  10.760  1.00  0.00    -0.297 N 
ENDROOT
BRANCH  12  13
HETATM   13  C7  UNL     1      -6.437 -31.256  10.228  1.00  0.00     0.262 C 
HETATM   14  O1  UNL     1      -5.240 -31.165   9.577  1.00  0.00    -0.353 OA
HETATM   15  C8  UNL     1      -4.639 -29.966   9.924  1.00  0.00     0.179 C 
HETATM   16  C10 UNL     1      -4.918 -29.942  11.431  1.00  0.00     0.182 C 
HETATM   17  C11 UNL     1      -6.411 -30.279  11.388  1.00  0.00     0.198 C 
BRANCH  15  18
HETATM   18  C9  UNL     1      -3.169 -29.950   9.643  1.00  0.00     0.198 C 
BRANCH  18  19
HETATM   19  O2  UNL     1      -2.836 -29.010   8.672  1.00  0.00    -0.398 OA
ATOM     20  H2  UNL     1      -1.897 -28.875   8.618  1.00  0.00     0.209 HD
ENDBRANCH  18  19
ENDBRANCH  15  18
BRANCH  16  21
HETATM   21  O3  UNL     1      -4.683 -28.695  11.972  1.00  0.00    -0.390 OA
ATOM     22  H3  UNL     1      -5.482 -28.299  12.299  1.00  0.00     0.210 HD
ENDBRANCH  16  21
BRANCH  17  23
HETATM   23  O4  UNL     1      -7.065 -29.110  11.032  1.00  0.00    -0.388 OA
ATOM     24  H4  UNL     1      -6.940 -28.454  11.708  1.00  0.00     0.210 HD
ENDBRANCH  17  23
ENDBRANCH  12  13
BRANCH   1  25
HETATM   25  N1  UNL     1      -7.583 -37.086  11.351  1.00  0.00    -0.379 N 
HETATM   26  C1  UNL     1      -8.731 -37.937  11.117  1.00  0.00     0.147 C 
ATOM     27  H1  UNL     1      -6.971 -37.249  12.151  1.00  0.00     0.160 HD
ENDBRANCH   1  25
TORSDOF 6
ENDMDL
