MODEL 7
REMARK VINA RESULT: -5.095078962      2.429      4.066
REMARK  6 active torsions:
REMARK  status: ('A' for Active; 'I' for Inactive)
REMARK    1  A    between atoms: N1_2  and  C2_4 
REMARK    2  A    between atoms: N5_15  and  C7_16 
REMARK    3  A    between atoms: C8_18  and  C9_19 
REMARK    4  A    between atoms: C9_19  and  O2_20 
REMARK    5  A    between atoms: C10_22  and  O3_23 
REMARK    6  A    between atoms: C11_25  and  O4_26 
ROOT
HETATM    1  C2  UNL     1      -9.677 -29.268  10.413  1.00  0.00     0.132 A 
HETATM    2  N2  UNL     1     -10.538 -30.291  10.329  1.00  0.00    -0.337 N 
ATOM      3  H2  UNL     1     -11.524 -30.102  10.153  1.00  0.00     0.168 HD
HETATM    4  C3  UNL     1     -10.124 -31.559  10.472  1.00  0.00     0.183 A 
HETATM    5  N3  UNL     1      -8.825 -31.825  10.706  1.00  0.00    -0.336 N 
ATOM      6  H3  UNL     1      -8.536 -32.797  10.812  1.00  0.00     0.168 HD
HETATM    7  C4  UNL     1      -7.895 -30.862  10.805  1.00  0.00     0.142 A 
HETATM    8  C5  UNL     1      -8.346 -29.564  10.654  1.00  0.00     0.122 A 
HETATM    9  N4  UNL     1      -7.269 -28.762  10.788  1.00  0.00    -0.346 N 
ATOM     10  H4  UNL     1      -7.267 -27.744  10.728  1.00  0.00     0.167 HD
HETATM   11  C6  UNL     1      -6.194 -29.551  11.015  1.00  0.00     0.188 A 
HETATM   12  N5  UNL     1      -6.575 -30.837  11.026  1.00  0.00    -0.297 N 
ENDROOT
BRANCH  12  13
HETATM   13  C7  UNL     1      -5.747 -31.986  11.232  1.00  0.00     0.262 C 
HETATM   14  O1  UNL     1      -6.177 -33.106  10.578  1.00  0.00    -0.353 OA
HETATM   15  C8  UNL     1      -6.036 -34.193  11.426  1.00  0.00     0.179 C 
HETATM   16  C10 UNL     1      -6.549 -33.589  12.739  1.00  0.00     0.182 C 
HETATM   17  C11 UNL     1      -5.740 -32.288  12.719  1.00  0.00     0.198 C 
BRANCH  15  18
HETATM   18  C9  UNL     1      -6.866 -35.366  11.008  1.00  0.00     0.198 C 
BRANCH  18  19
HETATM   19  O2  UNL     1      -8.182 -35.002  10.739  1.00  0.00    -0.398 OA
ATOM     20  H2  UNL     1      -8.673 -34.836  11.535  1.00  0.00     0.209 HD
ENDBRANCH  18  19
ENDBRANCH  15  18
BRANCH  16  21
HETATM   21  O3  UNL     1      -6.231 -34.380  13.822  1.00  0.00    -0.390 OA
ATOM     22  H3  UNL     1      -5.304 -34.587  13.845  1.00  0.00     0.210 HD
ENDBRANCH  16  21
BRANCH  17  23
HETATM   23  O4  UNL     1      -4.458 -32.621  13.124  1.00  0.00    -0.388 OA
ATOM     24  H4  UNL     1      -4.497 -33.294  13.794  1.00  0.00     0.210 HD
ENDBRANCH  17  23
ENDBRANCH  12  13
BRANCH   1  25
HETATM   25  N1  UNL     1     -10.115 -27.918  10.261  1.00  0.00    -0.379 N 
HETATM   26  C1  UNL     1     -11.292 -27.653   9.463  1.00  0.00     0.147 C 
ATOM     27  H1  UNL     1      -9.607 -27.154  10.708  1.00  0.00     0.160 HD
ENDBRANCH   1  25
TORSDOF 6
ENDMDL
