MODEL 1
REMARK VINA RESULT: -7.223286169      0.000      0.000
REMARK  5 active torsions:
REMARK  status: ('A' for Active; 'I' for Inactive)
REMARK    1  A    between atoms: O1_1  and  C1_3 
REMARK    2  A    between atoms: C1_3  and  C2_4 
REMARK    3  A    between atoms: C3_5  and  O2_6 
REMARK    4  A    between atoms: C4_8  and  O3_9 
REMARK    5  A    between atoms: C5_11  and  O4_12 
ROOT
HETATM    1  C2  UNL     1       9.572  12.435  11.645  1.00  0.00     0.145 C 
HETATM    2  C3  UNL     1       8.924  11.195  11.078  1.00  0.00     0.175 C 
HETATM    3  C4  UNL     1       8.488  10.397  12.316  1.00  0.00     0.185 C 
HETATM    4  C5  UNL     1       7.300  11.132  12.880  1.00  0.00     0.217 C 
HETATM    5  C6  UNL     1       7.503  12.586  12.818  1.00  0.00     0.115 A 
HETATM    6  N1  UNL     1       6.657  13.533  13.330  1.00  0.00    -0.352 N 
ATOM      7  H1  UNL     1       5.783  13.335  13.817  1.00  0.00     0.166 HD
HETATM    8  C7  UNL     1       7.145  14.752  13.098  1.00  0.00     0.106 A 
HETATM    9  C8  UNL     1       8.330  14.551  12.422  1.00  0.00     0.110 A 
HETATM   10  N2  UNL     1       8.539  13.221  12.257  1.00  0.00    -0.334 N 
ENDROOT
BRANCH   1  11
HETATM   11  C1  UNL     1      10.416  13.164  10.660  1.00  0.00     0.192 C 
BRANCH  11  12
HETATM   12  O1  UNL     1       9.677  13.384   9.508  1.00  0.00    -0.399 OA
ATOM     13  H1  UNL     1      10.162  13.967   8.936  1.00  0.00     0.209 HD
ENDBRANCH  11  12
ENDBRANCH   1  11
BRANCH   2  14
HETATM   14  O2  UNL     1       9.760  10.467  10.270  1.00  0.00    -0.391 OA
ATOM     15  H2  UNL     1       9.425  10.354   9.388  1.00  0.00     0.210 HD
ENDBRANCH   2  14
BRANCH   3  16
HETATM   16  O3  UNL     1       8.246   9.082  12.023  1.00  0.00    -0.390 OA
ATOM     17  H3  UNL     1       7.441   8.770  12.420  1.00  0.00     0.210 HD
ENDBRANCH   3  16
BRANCH   4  18
HETATM   18  O4  UNL     1       6.173  10.842  12.085  1.00  0.00    -0.385 OA
ATOM     19  H4  UNL     1       5.992  11.593  11.531  1.00  0.00     0.210 HD
ENDBRANCH   4  18
TORSDOF 5
ENDMDL
