MODEL 14
REMARK VINA RESULT: -5.922210455      3.285      4.658
REMARK  5 active torsions:
REMARK  status: ('A' for Active; 'I' for Inactive)
REMARK    1  A    between atoms: O1_1  and  C1_3 
REMARK    2  A    between atoms: C1_3  and  C2_4 
REMARK    3  A    between atoms: C3_5  and  O2_6 
REMARK    4  A    between atoms: C4_8  and  O3_9 
REMARK    5  A    between atoms: C5_11  and  O4_12 
ROOT
HETATM    1  C2  UNL     1       5.195  13.632  12.175  1.00  0.00     0.145 C 
HETATM    2  C3  UNL     1       6.638  13.941  12.495  1.00  0.00     0.175 C 
HETATM    3  C4  UNL     1       7.316  12.564  12.548  1.00  0.00     0.185 C 
HETATM    4  C5  UNL     1       7.415  12.100  11.118  1.00  0.00     0.217 C 
HETATM    5  C6  UNL     1       6.192  12.432  10.373  1.00  0.00     0.115 A 
HETATM    6  N1  UNL     1       5.921  12.070   9.081  1.00  0.00    -0.352 N 
ATOM      7  H1  UNL     1       6.542  11.524   8.484  1.00  0.00     0.166 HD
HETATM    8  C7  UNL     1       4.725  12.536   8.718  1.00  0.00     0.106 A 
HETATM    9  C8  UNL     1       4.243  13.207   9.822  1.00  0.00     0.110 A 
HETATM   10  N2  UNL     1       5.149  13.136  10.830  1.00  0.00    -0.334 N 
ENDROOT
BRANCH   1  11
HETATM   11  C1  UNL     1       4.271  14.763  12.461  1.00  0.00     0.192 C 
BRANCH  11  12
HETATM   12  O1  UNL     1       3.833  14.665  13.773  1.00  0.00    -0.399 OA
ATOM     13  H1  UNL     1       3.601  13.762  13.954  1.00  0.00     0.209 HD
ENDBRANCH  11  12
ENDBRANCH   1  11
BRANCH   2  14
HETATM   14  O2  UNL     1       6.796  14.634  13.669  1.00  0.00    -0.391 OA
ATOM     15  H2  UNL     1       7.527  14.325  14.191  1.00  0.00     0.210 HD
ENDBRANCH   2  14
BRANCH   3  16
HETATM   16  O3  UNL     1       8.516  12.606  13.206  1.00  0.00    -0.390 OA
ATOM     17  H3  UNL     1       8.859  11.737  13.379  1.00  0.00     0.210 HD
ENDBRANCH   3  16
BRANCH   4  18
HETATM   18  O4  UNL     1       8.474  12.789  10.493  1.00  0.00    -0.385 OA
ATOM     19  H4  UNL     1       8.171  13.112   9.652  1.00  0.00     0.210 HD
ENDBRANCH   4  18
TORSDOF 5
ENDMDL
