MODEL 12
REMARK VINA RESULT: -5.970324753      3.127      3.965
REMARK  5 active torsions:
REMARK  status: ('A' for Active; 'I' for Inactive)
REMARK    1  A    between atoms: O1_1  and  C1_3 
REMARK    2  A    between atoms: C1_3  and  C2_4 
REMARK    3  A    between atoms: C3_5  and  O2_6 
REMARK    4  A    between atoms: C4_8  and  O3_9 
REMARK    5  A    between atoms: C5_11  and  O4_12 
ROOT
HETATM    1  C2  UNL     1       6.773  14.015  11.953  1.00  0.00     0.145 C 
HETATM    2  C3  UNL     1       7.110  13.472  10.586  1.00  0.00     0.175 C 
HETATM    3  C4  UNL     1       5.789  12.873  10.081  1.00  0.00     0.185 C 
HETATM    4  C5  UNL     1       4.911  14.048   9.735  1.00  0.00     0.217 C 
HETATM    5  C6  UNL     1       5.048  15.118  10.734  1.00  0.00     0.115 A 
HETATM    6  N1  UNL     1       4.323  16.278  10.765  1.00  0.00    -0.352 N 
ATOM      7  H1  UNL     1       3.599  16.534  10.093  1.00  0.00     0.166 HD
HETATM    8  C7  UNL     1       4.703  17.025  11.803  1.00  0.00     0.106 A 
HETATM    9  C8  UNL     1       5.693  16.301  12.432  1.00  0.00     0.110 A 
HETATM   10  N2  UNL     1       5.896  15.135  11.770  1.00  0.00    -0.334 N 
ENDROOT
BRANCH   1  11
HETATM   11  C1  UNL     1       7.971  14.285  12.794  1.00  0.00     0.192 C 
BRANCH  11  12
HETATM   12  O1  UNL     1       8.163  13.221  13.661  1.00  0.00    -0.399 OA
ATOM     13  H1  UNL     1       8.621  13.531  14.434  1.00  0.00     0.209 HD
ENDBRANCH  11  12
ENDBRANCH   1  11
BRANCH   2  14
HETATM   14  O2  UNL     1       8.119  12.542  10.604  1.00  0.00    -0.391 OA
ATOM     15  H2  UNL     1       8.986  12.929  10.616  1.00  0.00     0.210 HD
ENDBRANCH   2  14
BRANCH   3  16
HETATM   16  O3  UNL     1       5.982  11.996   9.048  1.00  0.00    -0.390 OA
ATOM     17  H3  UNL     1       6.539  11.267   9.297  1.00  0.00     0.210 HD
ENDBRANCH   3  16
BRANCH   4  18
HETATM   18  O4  UNL     1       5.339  14.582   8.502  1.00  0.00    -0.385 OA
ATOM     19  H4  UNL     1       4.612  14.553   7.891  1.00  0.00     0.210 HD
ENDBRANCH   4  18
TORSDOF 5
ENDMDL
