MODEL 15
REMARK VINA RESULT: -5.818251134      4.278      5.305
REMARK  5 active torsions:
REMARK  status: ('A' for Active; 'I' for Inactive)
REMARK    1  A    between atoms: O1_1  and  C1_3 
REMARK    2  A    between atoms: C1_3  and  C2_4 
REMARK    3  A    between atoms: C3_5  and  O2_6 
REMARK    4  A    between atoms: C4_8  and  O3_9 
REMARK    5  A    between atoms: C5_11  and  O4_12 
ROOT
HETATM    1  C2  UNL     1       3.883  13.771  10.757  1.00  0.00     0.145 C 
HETATM    2  C3  UNL     1       5.134  13.680  11.597  1.00  0.00     0.175 C 
HETATM    3  C4  UNL     1       5.347  12.172  11.794  1.00  0.00     0.185 C 
HETATM    4  C5  UNL     1       5.833  11.649  10.467  1.00  0.00     0.217 C 
HETATM    5  C6  UNL     1       5.105  12.280   9.356  1.00  0.00     0.115 A 
HETATM    6  N1  UNL     1       5.239  11.963   8.031  1.00  0.00    -0.352 N 
ATOM      7  H1  UNL     1       5.863  11.246   7.661  1.00  0.00     0.166 HD
HETATM    8  C7  UNL     1       4.432  12.729   7.296  1.00  0.00     0.106 A 
HETATM    9  C8  UNL     1       3.780  13.545   8.196  1.00  0.00     0.110 A 
HETATM   10  N2  UNL     1       4.199  13.261   9.454  1.00  0.00    -0.334 N 
ENDROOT
BRANCH   1  11
HETATM   11  C1  UNL     1       3.260  15.123  10.770  1.00  0.00     0.192 C 
BRANCH  11  12
HETATM   12  O1  UNL     1       4.249  16.076  10.582  1.00  0.00    -0.399 OA
ATOM     13  H1  UNL     1       4.903  15.730   9.986  1.00  0.00     0.209 HD
ENDBRANCH  11  12
ENDBRANCH   1  11
BRANCH   2  14
HETATM   14  O2  UNL     1       5.033  14.342  12.795  1.00  0.00    -0.391 OA
ATOM     15  H2  UNL     1       5.872  14.623  13.140  1.00  0.00     0.210 HD
ENDBRANCH   2  14
BRANCH   3  16
HETATM   16  O3  UNL     1       6.186  11.902  12.842  1.00  0.00    -0.390 OA
ATOM     17  H3  UNL     1       5.910  12.334  13.641  1.00  0.00     0.210 HD
ENDBRANCH   3  16
BRANCH   4  18
HETATM   18  O4  UNL     1       7.191  11.996  10.315  1.00  0.00    -0.385 OA
ATOM     19  H4  UNL     1       7.322  12.328   9.435  1.00  0.00     0.210 HD
ENDBRANCH   4  18
TORSDOF 5
ENDMDL
