MODEL 7
REMARK VINA RESULT: -5.620370169      1.496      3.156
REMARK  4 active torsions:
REMARK  status: ('A' for Active; 'I' for Inactive)
REMARK    1  A    between atoms: O1_1  and  C1_3 
REMARK    2  A    between atoms: C1_3  and  C2_4 
REMARK    3  A    between atoms: C5_10  and  O2_11 
REMARK    4  A    between atoms: C6_13  and  O3_14 
ROOT
HETATM    1  C2  UNL     1       9.514  12.964  11.600  1.00  0.00     0.066 C 
HETATM    2  C3  UNL     1       8.658  13.358  12.748  1.00  0.00     0.241 C 
HETATM    3  N1  UNL     1       7.699  12.367  13.151  1.00  0.00    -0.072 N 
ATOM      4  H11 UNL     1       6.908  12.355  12.507  1.00  0.00     0.277 HD
ATOM      5  H12 UNL     1       7.224  12.658  14.005  1.00  0.00     0.277 HD
HETATM    6  C4  UNL     1       8.235  11.052  13.304  1.00  0.00     0.266 C 
HETATM    7  C5  UNL     1       9.085  10.579  12.180  1.00  0.00     0.172 C 
HETATM    8  C6  UNL     1       9.228  11.588  11.067  1.00  0.00     0.156 C 
ENDROOT
BRANCH   1   9
HETATM    9  C1  UNL     1       9.370  13.943  10.428  1.00  0.00     0.173 C 
BRANCH   9  10
HETATM   10  O1  UNL     1       8.180  13.629   9.766  1.00  0.00    -0.400 OA
ATOM     11  H1  UNL     1       8.413  13.176   8.964  1.00  0.00     0.209 HD
ENDBRANCH   9  10
ENDBRANCH   1   9
BRANCH   8  12
HETATM   12  O3  UNL     1      10.339  11.197  10.307  1.00  0.00    -0.392 OA
ATOM     13  H3  UNL     1      10.355  10.247  10.300  1.00  0.00     0.210 HD
ENDBRANCH   8  12
BRANCH   7  14
HETATM   14  O2  UNL     1       8.668   9.374  11.622  1.00  0.00    -0.391 OA
ATOM     15  H2  UNL     1       9.303   8.978  11.037  1.00  0.00     0.210 HD
ENDBRANCH   7  14
TORSDOF 4
ENDMDL
