MODEL 3
REMARK VINA RESULT: -6.742434239      1.222      1.673
REMARK  10 active torsions:
REMARK  status: ('A' for Active; 'I' for Inactive)
REMARK    1  A    between atoms: C2_2  and  O1_5 
REMARK    2  A    between atoms: O1_5  and  C5_6 
REMARK       I    between atoms: C5_6  and  N1_8 
REMARK    3  A    between atoms: N1_8  and  C6_10 
REMARK    4  A    between atoms: C6_10  and  C7_11 
REMARK    5  A    between atoms: C7_11  and  C8_12 
REMARK    6  A    between atoms: C8_12  and  C9_13 
REMARK    7  A    between atoms: C9_13  and  O3_14 
REMARK    8  A    between atoms: O3_14  and  C10_15 
REMARK    9  A    between atoms: C13_18  and  S1_19 
REMARK   10  A    between atoms: S1_19  and  N2_20 
ROOT
HETATM    1  C9  UNL     1      16.439   6.940  12.581  1.00  0.00     0.175 C 
ENDROOT
BRANCH   1   2
HETATM    2  C8  UNL     1      16.749   5.971  11.505  1.00  0.00     0.028 C 
BRANCH   2   3
HETATM    3  C7  UNL     1      18.092   6.171  10.906  1.00  0.00     0.022 C 
BRANCH   3   4
HETATM    4  C6  UNL     1      19.104   5.119  11.167  1.00  0.00     0.125 C 
BRANCH   4   5
HETATM    5  N1  UNL     1      18.599   3.827  10.769  1.00  0.00    -0.337 N 
HETATM    6  C5  UNL     1      19.215   2.623  11.175  1.00  0.00     0.361 C 
HETATM    7  O2  UNL     1      20.224   2.578  11.891  1.00  0.00    -0.238 OA
ATOM      8  H1  UNL     1      17.770   3.781  10.176  1.00  0.00     0.164 HD
BRANCH   6   9
HETATM    9  O1  UNL     1      18.641   1.414  10.737  1.00  0.00    -0.294 OA
BRANCH   9  10
HETATM   10  C2  UNL     1      17.575   0.802  11.412  1.00  0.00     0.061 C 
HETATM   11  C1  UNL     1      17.349   1.423  12.764  1.00  0.00     0.046 C 
HETATM   12  C3  UNL     1      17.860  -0.678  11.534  1.00  0.00     0.046 C 
HETATM   13  C4  UNL     1      16.340   0.965  10.547  1.00  0.00     0.046 C 
ENDBRANCH   9  10
ENDBRANCH   6   9
ENDBRANCH   4   5
ENDBRANCH   3   4
ENDBRANCH   2   3
ENDBRANCH   1   2
BRANCH   1  14
HETATM   14  O3  UNL     1      17.070   6.701  13.809  1.00  0.00    -0.351 OA
BRANCH  14  15
HETATM   15  C10 UNL     1      16.676   5.630  14.579  1.00  0.00     0.068 A 
HETATM   16  C11 UNL     1      15.367   5.461  14.985  1.00  0.00     0.038 A 
HETATM   17  C12 UNL     1      15.004   4.375  15.757  1.00  0.00     0.028 A 
HETATM   18  C13 UNL     1      15.915   3.420  16.156  1.00  0.00     0.079 A 
HETATM   19  C14 UNL     1      17.226   3.587  15.750  1.00  0.00     0.028 A 
HETATM   20  C15 UNL     1      17.609   4.665  14.978  1.00  0.00     0.038 A 
BRANCH  18  21
HETATM   21  S1  UNL     1      15.463   2.036  17.138  1.00  0.00     0.256 S 
HETATM   22  O4  UNL     1      16.593   1.059  17.160  1.00  0.00    -0.201 OA
HETATM   23  O5  UNL     1      14.286   1.369  16.484  1.00  0.00    -0.201 OA
BRANCH  21  24
HETATM   24  N2  UNL     1      14.984   2.523  18.718  1.00  0.00    -0.324 N 
ATOM     25  H22 UNL     1      14.022   2.747  18.973  1.00  0.00     0.169 HD
ATOM     26  H21 UNL     1      15.782   2.554  19.352  1.00  0.00     0.169 HD
ENDBRANCH  21  24
ENDBRANCH  18  21
ENDBRANCH  14  15
ENDBRANCH   1  14
TORSDOF 10
ENDMDL
