MODEL 2
REMARK VINA RESULT: -6.796648758      1.197      1.827
REMARK  10 active torsions:
REMARK  status: ('A' for Active; 'I' for Inactive)
REMARK    1  A    between atoms: C2_2  and  O1_5 
REMARK    2  A    between atoms: O1_5  and  C5_6 
REMARK       I    between atoms: C5_6  and  N1_8 
REMARK    3  A    between atoms: N1_8  and  C6_10 
REMARK    4  A    between atoms: C6_10  and  C7_11 
REMARK    5  A    between atoms: C7_11  and  C8_12 
REMARK    6  A    between atoms: C8_12  and  C9_13 
REMARK    7  A    between atoms: C9_13  and  O3_14 
REMARK    8  A    between atoms: O3_14  and  C10_15 
REMARK    9  A    between atoms: C13_18  and  S1_19 
REMARK   10  A    between atoms: S1_19  and  N2_20 
ROOT
HETATM    1  C9  UNL     1      18.035   7.121  14.326  1.00  0.00     0.175 C 
ENDROOT
BRANCH   1   2
HETATM    2  C8  UNL     1      19.192   7.330  13.426  1.00  0.00     0.028 C 
BRANCH   2   3
HETATM    3  C7  UNL     1      20.094   6.155  13.348  1.00  0.00     0.022 C 
BRANCH   3   4
HETATM    4  C6  UNL     1      20.107   5.406  12.067  1.00  0.00     0.125 C 
BRANCH   4   5
HETATM    5  N1  UNL     1      18.995   4.487  12.012  1.00  0.00    -0.337 N 
HETATM    6  C5  UNL     1      18.538   3.936  10.795  1.00  0.00     0.361 C 
HETATM    7  O2  UNL     1      19.042   4.193   9.694  1.00  0.00    -0.238 OA
ATOM      8  H1  UNL     1      18.525   4.228  12.879  1.00  0.00     0.164 HD
BRANCH   6   9
HETATM    9  O1  UNL     1      17.449   3.045  10.849  1.00  0.00    -0.294 OA
BRANCH   9  10
HETATM   10  C2  UNL     1      17.584   1.720  11.287  1.00  0.00     0.061 C 
HETATM   11  C1  UNL     1      19.017   1.262  11.226  1.00  0.00     0.046 C 
HETATM   12  C3  UNL     1      16.693   0.834  10.446  1.00  0.00     0.046 C 
HETATM   13  C4  UNL     1      17.077   1.663  12.715  1.00  0.00     0.046 C 
ENDBRANCH   9  10
ENDBRANCH   6   9
ENDBRANCH   4   5
ENDBRANCH   3   4
ENDBRANCH   2   3
ENDBRANCH   1   2
BRANCH   1  14
HETATM   14  O3  UNL     1      17.084   6.193  13.880  1.00  0.00    -0.351 OA
BRANCH  14  15
HETATM   15  C10 UNL     1      16.610   5.235  14.748  1.00  0.00     0.068 A 
HETATM   16  C11 UNL     1      15.298   5.218  15.177  1.00  0.00     0.038 A 
HETATM   17  C12 UNL     1      14.855   4.243  16.048  1.00  0.00     0.028 A 
HETATM   18  C13 UNL     1      15.686   3.253  16.527  1.00  0.00     0.079 A 
HETATM   19  C14 UNL     1      17.000   3.268  16.099  1.00  0.00     0.028 A 
HETATM   20  C15 UNL     1      17.463   4.234  15.228  1.00  0.00     0.038 A 
BRANCH  18  21
HETATM   21  S1  UNL     1      15.131   2.008  17.635  1.00  0.00     0.256 S 
HETATM   22  O4  UNL     1      16.105   0.875  17.629  1.00  0.00    -0.201 OA
HETATM   23  O5  UNL     1      13.815   1.491  17.129  1.00  0.00    -0.201 OA
BRANCH  21  24
HETATM   24  N2  UNL     1      14.877   2.648  19.213  1.00  0.00    -0.324 N 
ATOM     25  H22 UNL     1      15.229   2.209  20.064  1.00  0.00     0.169 HD
ATOM     26  H21 UNL     1      14.335   3.511  19.178  1.00  0.00     0.169 HD
ENDBRANCH  21  24
ENDBRANCH  18  21
ENDBRANCH  14  15
ENDBRANCH   1  14
TORSDOF 10
ENDMDL
