MODEL 1
REMARK VINA RESULT: -7.094480264      0.000      0.000
REMARK  10 active torsions:
REMARK  status: ('A' for Active; 'I' for Inactive)
REMARK    1  A    between atoms: C2_2  and  O1_5 
REMARK    2  A    between atoms: O1_5  and  C5_6 
REMARK       I    between atoms: C5_6  and  N1_8 
REMARK    3  A    between atoms: N1_8  and  C6_10 
REMARK    4  A    between atoms: C6_10  and  C7_11 
REMARK    5  A    between atoms: C7_11  and  C8_12 
REMARK    6  A    between atoms: C8_12  and  C9_13 
REMARK    7  A    between atoms: C9_13  and  O3_14 
REMARK    8  A    between atoms: O3_14  and  C10_15 
REMARK    9  A    between atoms: C13_18  and  S1_19 
REMARK   10  A    between atoms: S1_19  and  N2_20 
ROOT
HETATM    1  C9  UNL     1      16.760   6.697  12.955  1.00  0.00     0.175 C 
ENDROOT
BRANCH   1   2
HETATM    2  C8  UNL     1      17.818   6.620  11.921  1.00  0.00     0.028 C 
BRANCH   2   3
HETATM    3  C7  UNL     1      19.188   6.557  12.489  1.00  0.00     0.022 C 
BRANCH   3   4
HETATM    4  C6  UNL     1      20.070   5.475  11.988  1.00  0.00     0.125 C 
BRANCH   4   5
HETATM    5  N1  UNL     1      19.567   4.187  12.401  1.00  0.00    -0.337 N 
HETATM    6  C5  UNL     1      19.149   3.212  11.469  1.00  0.00     0.361 C 
HETATM    7  O2  UNL     1      19.175   3.381  10.243  1.00  0.00    -0.238 OA
ATOM      8  H1  UNL     1      19.513   3.973  13.397  1.00  0.00     0.164 HD
BRANCH   6   9
HETATM    9  O1  UNL     1      18.678   1.984  11.973  1.00  0.00    -0.294 OA
BRANCH   9  10
HETATM   10  C2  UNL     1      17.313   1.668  12.027  1.00  0.00     0.061 C 
HETATM   11  C1  UNL     1      16.460   2.909  12.032  1.00  0.00     0.046 C 
HETATM   12  C3  UNL     1      17.055   0.825  13.254  1.00  0.00     0.046 C 
HETATM   13  C4  UNL     1      16.998   0.821  10.809  1.00  0.00     0.046 C 
ENDBRANCH   9  10
ENDBRANCH   6   9
ENDBRANCH   4   5
ENDBRANCH   3   4
ENDBRANCH   2   3
ENDBRANCH   1   2
BRANCH   1  14
HETATM   14  O3  UNL     1      17.186   6.479  14.272  1.00  0.00    -0.351 OA
BRANCH  14  15
HETATM   15  C10 UNL     1      16.755   5.361  14.950  1.00  0.00     0.068 A 
HETATM   16  C11 UNL     1      17.619   4.350  15.321  1.00  0.00     0.038 A 
HETATM   17  C12 UNL     1      17.155   3.241  16.001  1.00  0.00     0.028 A 
HETATM   18  C13 UNL     1      15.826   3.087  16.335  1.00  0.00     0.079 A 
HETATM   19  C14 UNL     1      14.959   4.099  15.963  1.00  0.00     0.028 A 
HETATM   20  C15 UNL     1      15.403   5.215  15.285  1.00  0.00     0.038 A 
BRANCH  18  21
HETATM   21  S1  UNL     1      15.226   1.681  17.198  1.00  0.00     0.256 S 
HETATM   22  O4  UNL     1      15.793   1.674  18.580  1.00  0.00    -0.201 OA
HETATM   23  O5  UNL     1      15.723   0.455  16.487  1.00  0.00    -0.201 OA
BRANCH  21  24
HETATM   24  N2  UNL     1      13.505   1.635  17.194  1.00  0.00    -0.324 N 
ATOM     25  H22 UNL     1      12.918   2.448  17.381  1.00  0.00     0.169 HD
ATOM     26  H21 UNL     1      13.162   0.698  16.982  1.00  0.00     0.169 HD
ENDBRANCH  21  24
ENDBRANCH  18  21
ENDBRANCH  14  15
ENDBRANCH   1  14
TORSDOF 10
ENDMDL
