MODEL 13
REMARK VINA RESULT: -5.830799754      2.099      2.540
REMARK  8 active torsions:
REMARK  status: ('A' for Active; 'I' for Inactive)
REMARK    1  A    between atoms: N1_1  and  S1_4 
REMARK    2  A    between atoms: S1_4  and  C1_7 
REMARK    3  A    between atoms: C4_10  and  O3_11 
REMARK    4  A    between atoms: O3_11  and  C5_12 
REMARK    5  A    between atoms: C5_12  and  C6_13 
REMARK    6  A    between atoms: C6_13  and  C7_14 
REMARK    7  A    between atoms: C7_14  and  C8_15 
REMARK    8  A    between atoms: C8_15  and  N2_16 
ROOT
HETATM    1  C1  UNL     1      -2.071   5.163  86.173  1.00  0.00     0.079 A 
HETATM    2  C2  UNL     1      -0.764   5.291  85.775  1.00  0.00     0.028 A 
HETATM    3  C3  UNL     1      -0.259   6.409  85.143  1.00  0.00     0.038 A 
HETATM    4  C4  UNL     1      -1.104   7.467  84.890  1.00  0.00     0.068 A 
HETATM    5  C9  UNL     1      -2.459   7.381  85.281  1.00  0.00     0.038 A 
HETATM    6  C10 UNL     1      -2.887   6.236  85.905  1.00  0.00     0.028 A 
ENDROOT
BRANCH   4   7
HETATM    7  O3  UNL     1      -0.731   8.630  84.276  1.00  0.00    -0.351 OA
BRANCH   7   8
HETATM    8  C5  UNL     1       0.396   8.896  83.560  1.00  0.00     0.175 C 
BRANCH   8   9
HETATM    9  C6  UNL     1       1.563   9.500  84.257  1.00  0.00     0.028 C 
BRANCH   9  10
HETATM   10  C7  UNL     1       1.091  10.583  85.232  1.00  0.00     0.029 C 
BRANCH  10  11
HETATM   11  C8  UNL     1       2.171  11.654  85.258  1.00  0.00     0.230 C 
BRANCH  11  12
HETATM   12  N2  UNL     1       1.751  12.705  84.368  1.00  0.00    -0.079 N 
ATOM     13  H23 UNL     1       2.527  13.272  84.025  1.00  0.00     0.274 HD
ATOM     14  H22 UNL     1       1.431  12.358  83.464  1.00  0.00     0.274 HD
ATOM     15  H21 UNL     1       1.044  13.251  84.859  1.00  0.00     0.274 HD
ENDBRANCH  11  12
ENDBRANCH  10  11
ENDBRANCH   9  10
ENDBRANCH   8   9
ENDBRANCH   7   8
ENDBRANCH   4   7
BRANCH   1  16
HETATM   16  S1  UNL     1      -2.652   3.714  86.974  1.00  0.00     0.256 S 
HETATM   17  O1  UNL     1      -2.129   3.729  88.378  1.00  0.00    -0.201 OA
HETATM   18  O2  UNL     1      -2.166   2.539  86.195  1.00  0.00    -0.201 OA
BRANCH  16  19
HETATM   19  N1  UNL     1      -4.379   3.692  86.932  1.00  0.00    -0.324 N 
ATOM     20  H12 UNL     1      -4.962   4.089  87.669  1.00  0.00     0.169 HD
ATOM     21  H11 UNL     1      -4.732   3.238  86.090  1.00  0.00     0.169 HD
ENDBRANCH  16  19
ENDBRANCH   1  16
TORSDOF 8
ENDMDL
