MODEL 12
REMARK VINA RESULT: -5.832064925      1.938      2.170
REMARK  8 active torsions:
REMARK  status: ('A' for Active; 'I' for Inactive)
REMARK    1  A    between atoms: N1_1  and  S1_4 
REMARK    2  A    between atoms: S1_4  and  C1_7 
REMARK    3  A    between atoms: C4_10  and  O3_11 
REMARK    4  A    between atoms: O3_11  and  C5_12 
REMARK    5  A    between atoms: C5_12  and  C6_13 
REMARK    6  A    between atoms: C6_13  and  C7_14 
REMARK    7  A    between atoms: C7_14  and  C8_15 
REMARK    8  A    between atoms: C8_15  and  N2_16 
ROOT
HETATM    1  C1  UNL     1      -2.048   5.217  86.134  1.00  0.00     0.079 A 
HETATM    2  C2  UNL     1      -2.884   6.280  85.904  1.00  0.00     0.028 A 
HETATM    3  C3  UNL     1      -2.484   7.453  85.295  1.00  0.00     0.038 A 
HETATM    4  C4  UNL     1      -1.174   7.579  84.890  1.00  0.00     0.068 A 
HETATM    5  C9  UNL     1      -0.276   6.509  85.107  1.00  0.00     0.038 A 
HETATM    6  C10 UNL     1      -0.747   5.375  85.719  1.00  0.00     0.028 A 
ENDROOT
BRANCH   4   7
HETATM    7  O3  UNL     1      -0.653   8.682  84.274  1.00  0.00    -0.351 OA
BRANCH   7   8
HETATM    8  C5  UNL     1       0.504   8.799  83.564  1.00  0.00     0.175 C 
BRANCH   8   9
HETATM    9  C6  UNL     1       1.628   9.577  84.147  1.00  0.00     0.028 C 
BRANCH   9  10
HETATM   10  C7  UNL     1       1.099  10.567  85.189  1.00  0.00     0.029 C 
BRANCH  10  11
HETATM   11  C8  UNL     1       2.191  11.603  85.408  1.00  0.00     0.230 C 
BRANCH  11  12
HETATM   12  N2  UNL     1       3.037  11.582  84.244  1.00  0.00    -0.079 N 
ATOM     13  H23 UNL     1       2.639  11.049  83.470  1.00  0.00     0.274 HD
ATOM     14  H22 UNL     1       3.088  12.484  83.771  1.00  0.00     0.274 HD
ATOM     15  H21 UNL     1       3.949  11.235  84.540  1.00  0.00     0.274 HD
ENDBRANCH  11  12
ENDBRANCH  10  11
ENDBRANCH   9  10
ENDBRANCH   8   9
ENDBRANCH   7   8
ENDBRANCH   4   7
BRANCH   1  16
HETATM   16  S1  UNL     1      -2.617   3.751  86.913  1.00  0.00     0.256 S 
HETATM   17  O1  UNL     1      -2.106   3.756  88.322  1.00  0.00    -0.201 OA
HETATM   18  O2  UNL     1      -2.111   2.591  86.125  1.00  0.00    -0.201 OA
BRANCH  16  19
HETATM   19  N1  UNL     1      -4.344   3.709  86.857  1.00  0.00    -0.324 N 
ATOM     20  H12 UNL     1      -4.869   3.069  86.260  1.00  0.00     0.169 HD
ATOM     21  H11 UNL     1      -4.760   4.395  87.486  1.00  0.00     0.169 HD
ENDBRANCH  16  19
ENDBRANCH   1  16
TORSDOF 8
ENDMDL
