MODEL 9
REMARK VINA RESULT: -5.882033807      3.135      5.877
REMARK  8 active torsions:
REMARK  status: ('A' for Active; 'I' for Inactive)
REMARK    1  A    between atoms: N1_1  and  S1_4 
REMARK    2  A    between atoms: S1_4  and  C1_7 
REMARK    3  A    between atoms: C4_10  and  O3_11 
REMARK    4  A    between atoms: O3_11  and  C5_12 
REMARK    5  A    between atoms: C5_12  and  C6_13 
REMARK    6  A    between atoms: C6_13  and  C7_14 
REMARK    7  A    between atoms: C7_14  and  C8_15 
REMARK    8  A    between atoms: C8_15  and  N2_16 
ROOT
HETATM    1  C1  UNL     1       0.545   6.338  82.912  1.00  0.00     0.079 A 
HETATM    2  C2  UNL     1       0.314   7.097  84.033  1.00  0.00     0.028 A 
HETATM    3  C3  UNL     1      -0.811   6.976  84.824  1.00  0.00     0.038 A 
HETATM    4  C4  UNL     1      -1.766   6.045  84.481  1.00  0.00     0.068 A 
HETATM    5  C9  UNL     1      -1.572   5.242  83.335  1.00  0.00     0.038 A 
HETATM    6  C10 UNL     1      -0.428   5.420  82.599  1.00  0.00     0.028 A 
ENDROOT
BRANCH   4   7
HETATM    7  O3  UNL     1      -2.921   5.823  85.180  1.00  0.00    -0.351 OA
BRANCH   7   8
HETATM    8  C5  UNL     1      -3.281   6.291  86.407  1.00  0.00     0.175 C 
BRANCH   8   9
HETATM    9  C6  UNL     1      -3.323   5.342  87.552  1.00  0.00     0.028 C 
BRANCH   9  10
HETATM   10  C7  UNL     1      -3.757   3.954  87.069  1.00  0.00     0.029 C 
BRANCH  10  11
HETATM   11  C8  UNL     1      -2.632   2.993  87.424  1.00  0.00     0.230 C 
BRANCH  11  12
HETATM   12  N2  UNL     1      -1.674   3.044  86.351  1.00  0.00    -0.079 N 
ATOM     13  H23 UNL     1      -0.765   3.405  86.643  1.00  0.00     0.274 HD
ATOM     14  H22 UNL     1      -1.359   2.120  86.053  1.00  0.00     0.274 HD
ATOM     15  H21 UNL     1      -2.094   3.585  85.596  1.00  0.00     0.274 HD
ENDBRANCH  11  12
ENDBRANCH  10  11
ENDBRANCH   9  10
ENDBRANCH   8   9
ENDBRANCH   7   8
ENDBRANCH   4   7
BRANCH   1  16
HETATM   16  S1  UNL     1       1.997   6.540  81.948  1.00  0.00     0.256 S 
HETATM   17  O1  UNL     1       1.573   6.876  80.551  1.00  0.00    -0.201 OA
HETATM   18  O2  UNL     1       2.771   5.267  82.021  1.00  0.00    -0.201 OA
BRANCH  16  19
HETATM   19  N1  UNL     1       2.973   7.787  82.641  1.00  0.00    -0.324 N 
ATOM     20  H12 UNL     1       3.878   8.066  82.260  1.00  0.00     0.169 HD
ATOM     21  H11 UNL     1       2.535   8.198  83.464  1.00  0.00     0.169 HD
ENDBRANCH  16  19
ENDBRANCH   1  16
TORSDOF 8
ENDMDL
