MODEL 14
REMARK VINA RESULT: -9.821787812      2.795      4.734
REMARK  5 active torsions:
REMARK  status: ('A' for Active; 'I' for Inactive)
REMARK    1  A    between atoms: C5_9  and  C6_10 
REMARK       I    between atoms: C6_10  and  N3_12 
REMARK    2  A    between atoms: N3_12  and  C7_14 
REMARK    3  A    between atoms: N5_18  and  C9_19 
REMARK    4  A    between atoms: C9_19  and  C10_20 
REMARK    5  A    between atoms: C9_19  and  C16_26 
ROOT
HETATM    1  C7  UNL     1      20.478  -2.901   6.994  1.00  0.00     0.069 A 
HETATM    2  C8  UNL     1      19.666  -4.039   7.079  1.00  0.00     0.138 A 
HETATM    3  N4  UNL     1      20.410  -5.142   7.022  1.00  0.00    -0.307 N 
ATOM      4  H4  UNL     1      20.059  -6.099   7.064  1.00  0.00     0.186 HD
HETATM    5  N5  UNL     1      21.674  -4.793   6.904  1.00  0.00    -0.291 N 
HETATM    6  C21 UNL     1      21.747  -3.427   6.883  1.00  0.00     0.142 A 
ENDROOT
BRANCH   1   7
HETATM    7  N3  UNL     1      20.033  -1.541   7.021  1.00  0.00    -0.319 N 
HETATM    8  C6  UNL     1      19.784  -0.761   5.891  1.00  0.00     0.274 C 
HETATM    9  O1  UNL     1      19.979  -1.301   4.755  1.00  0.00    -0.266 OA
ATOM     10  H3  UNL     1      19.886  -1.110   7.934  1.00  0.00     0.169 HD
BRANCH   8  11
HETATM   11  C5  UNL     1      19.331   0.604   5.904  1.00  0.00     0.124 A 
HETATM   12  N2  UNL     1      20.156   1.702   5.942  1.00  0.00    -0.295 N 
HETATM   13  N1  UNL     1      19.465   2.806   5.937  1.00  0.00    -0.304 N 
ATOM     14  H2  UNL     1      21.175   1.659   5.970  1.00  0.00     0.187 HD
HETATM   15  C4  UNL     1      18.133   2.499   5.894  1.00  0.00     0.035 A 
ATOM     16  H1  UNL     1      19.854   3.749   5.962  1.00  0.00     0.186 HD
HETATM   17  C3  UNL     1      16.928   3.334   5.896  1.00  0.00     0.075 C 
HETATM   18  C22 UNL     1      18.050   1.140   5.872  1.00  0.00     0.000 A 
HETATM   19  C2  UNL     1      15.757   2.728   5.242  1.00  0.00     0.037 A 
HETATM   20  C1  UNL     1      14.453   3.532   5.434  1.00  0.00     0.022 C 
HETATM   21  C24 UNL     1      15.611   1.291   5.284  1.00  0.00     0.077 A 
HETATM   22  C25 UNL     1      15.899   2.041   3.940  1.00  0.00     0.256 A 
HETATM   23  C23 UNL     1      16.739   0.450   5.786  1.00  0.00     0.055 C 
HETATM   24  F1  UNL     1      17.197   1.913   3.459  1.00  0.00    -0.205 F 
HETATM   25  F2  UNL     1      14.877   2.155   3.050  1.00  0.00    -0.205 F 
ENDBRANCH   8  11
ENDBRANCH   1   7
BRANCH   5  26
HETATM   26  C9  UNL     1      22.819  -5.650   6.807  1.00  0.00     0.159 C 
BRANCH  26  27
HETATM   27  C10 UNL     1      23.015  -6.468   8.032  1.00  0.00    -0.032 A 
HETATM   28  C11 UNL     1      23.300  -5.822   9.214  1.00  0.00     0.009 A 
HETATM   29  C12 UNL     1      23.497  -6.523  10.407  1.00  0.00     0.001 A 
HETATM   30  C13 UNL     1      23.393  -7.897  10.352  1.00  0.00     0.000 A 
HETATM   31  C14 UNL     1      23.106  -8.562   9.175  1.00  0.00     0.001 A 
HETATM   32  C15 UNL     1      22.917  -7.845   8.014  1.00  0.00     0.009 A 
ENDBRANCH  26  27
BRANCH  26  33
HETATM   33  C16 UNL     1      24.097  -4.945   6.494  1.00  0.00     0.137 C 
HETATM   34  C17 UNL     1      25.235  -5.911   6.740  1.00  0.00     0.022 C 
HETATM   35  C18 UNL     1      26.581  -5.241   6.688  1.00  0.00     0.002 C 
HETATM   36  C19 UNL     1      26.673  -4.159   5.670  1.00  0.00     0.015 C 
HETATM   37  C20 UNL     1      25.958  -4.479   4.374  1.00  0.00     0.141 C 
HETATM   38  S1  UNL     1      24.201  -4.518   4.754  1.00  0.00     0.150 S 
HETATM   39  O2  UNL     1      23.662  -3.162   4.494  1.00  0.00    -0.227 OA
HETATM   40  O3  UNL     1      23.569  -5.581   3.914  1.00  0.00    -0.227 OA
ENDBRANCH  26  33
ENDBRANCH   5  26
TORSDOF 5
ENDMDL
