MODEL 4
REMARK VINA RESULT: -11.046036140      1.570      2.090
REMARK  5 active torsions:
REMARK  status: ('A' for Active; 'I' for Inactive)
REMARK    1  A    between atoms: C5_9  and  C6_10 
REMARK       I    between atoms: C6_10  and  N3_12 
REMARK    2  A    between atoms: N3_12  and  C7_14 
REMARK    3  A    between atoms: N5_18  and  C9_19 
REMARK    4  A    between atoms: C9_19  and  C10_20 
REMARK    5  A    between atoms: C9_19  and  C16_26 
ROOT
HETATM    1  C7  UNL     1      21.513  -0.684   6.494  1.00  0.00     0.069 A 
HETATM    2  C8  UNL     1      21.084  -2.002   6.295  1.00  0.00     0.138 A 
HETATM    3  N4  UNL     1      22.130  -2.825   6.233  1.00  0.00    -0.307 N 
ATOM      4  H4  UNL     1      22.086  -3.834   6.095  1.00  0.00     0.186 HD
HETATM    5  N5  UNL     1      23.231  -2.118   6.382  1.00  0.00    -0.291 N 
HETATM    6  C21 UNL     1      22.886  -0.804   6.543  1.00  0.00     0.142 A 
ENDROOT
BRANCH   1   7
HETATM    7  N3  UNL     1      20.674   0.469   6.610  1.00  0.00    -0.319 N 
HETATM    8  C6  UNL     1      19.601   0.762   5.768  1.00  0.00     0.274 C 
HETATM    9  O1  UNL     1      19.360  -0.057   4.823  1.00  0.00    -0.266 OA
ATOM     10  H3  UNL     1      20.876   1.126   7.364  1.00  0.00     0.169 HD
BRANCH   8  11
HETATM   11  C5  UNL     1      18.746   1.914   5.877  1.00  0.00     0.124 A 
HETATM   12  N2  UNL     1      19.187   3.196   6.099  1.00  0.00    -0.295 N 
HETATM   13  N1  UNL     1      18.188   4.032   6.143  1.00  0.00    -0.304 N 
ATOM     14  H2  UNL     1      20.166   3.460   6.214  1.00  0.00     0.187 HD
HETATM   15  C4  UNL     1      17.022   3.345   5.951  1.00  0.00     0.035 A 
ATOM     16  H1  UNL     1      18.264   5.038   6.297  1.00  0.00     0.186 HD
HETATM   17  C3  UNL     1      15.619   3.770   5.928  1.00  0.00     0.075 C 
HETATM   18  C22 UNL     1      17.366   2.038   5.785  1.00  0.00     0.000 A 
HETATM   19  C2  UNL     1      14.732   2.924   5.114  1.00  0.00     0.037 A 
HETATM   20  C1  UNL     1      13.233   3.266   5.268  1.00  0.00     0.022 C 
HETATM   21  C24 UNL     1      15.037   1.517   4.998  1.00  0.00     0.077 A 
HETATM   22  C25 UNL     1      15.151   2.478   3.768  1.00  0.00     0.256 A 
HETATM   23  C23 UNL     1      16.341   1.000   5.513  1.00  0.00     0.055 C 
HETATM   24  F1  UNL     1      16.448   2.808   3.394  1.00  0.00    -0.205 F 
HETATM   25  F2  UNL     1      14.193   2.387   2.806  1.00  0.00    -0.205 F 
ENDBRANCH   8  11
ENDBRANCH   1   7
BRANCH   5  26
HETATM   26  C9  UNL     1      24.585  -2.588   6.382  1.00  0.00     0.159 C 
BRANCH  26  27
HETATM   27  C10 UNL     1      25.097  -2.829   5.008  1.00  0.00    -0.032 A 
HETATM   28  C11 UNL     1      26.052  -1.976   4.503  1.00  0.00     0.009 A 
HETATM   29  C12 UNL     1      26.581  -2.139   3.220  1.00  0.00     0.001 A 
HETATM   30  C13 UNL     1      26.105  -3.197   2.475  1.00  0.00     0.000 A 
HETATM   31  C14 UNL     1      25.147  -4.065   2.966  1.00  0.00     0.001 A 
HETATM   32  C15 UNL     1      24.643  -3.879   4.235  1.00  0.00     0.009 A 
ENDBRANCH  26  27
BRANCH  26  33
HETATM   33  C16 UNL     1      24.816  -3.816   7.200  1.00  0.00     0.137 C 
HETATM   34  C17 UNL     1      26.306  -4.072   7.248  1.00  0.00     0.022 C 
HETATM   35  C18 UNL     1      26.642  -5.412   7.843  1.00  0.00     0.002 C 
HETATM   36  C19 UNL     1      25.737  -5.819   8.952  1.00  0.00     0.015 C 
HETATM   37  C20 UNL     1      25.350  -4.680   9.872  1.00  0.00     0.141 C 
HETATM   38  S1  UNL     1      24.318  -3.569   8.907  1.00  0.00     0.150 S 
HETATM   39  O2  UNL     1      22.908  -3.972   9.125  1.00  0.00    -0.227 OA
HETATM   40  O3  UNL     1      24.611  -2.170   9.342  1.00  0.00    -0.227 OA
ENDBRANCH  26  33
ENDBRANCH   5  26
TORSDOF 5
ENDMDL
