MODEL 1
REMARK VINA RESULT: -11.670501449      0.000      0.000
REMARK  5 active torsions:
REMARK  status: ('A' for Active; 'I' for Inactive)
REMARK    1  A    between atoms: C5_9  and  C6_10 
REMARK       I    between atoms: C6_10  and  N3_12 
REMARK    2  A    between atoms: N3_12  and  C7_14 
REMARK    3  A    between atoms: N5_18  and  C9_19 
REMARK    4  A    between atoms: C9_19  and  C10_20 
REMARK    5  A    between atoms: C9_19  and  C16_26 
ROOT
HETATM    1  C7  UNL     1      21.387   0.366   6.381  1.00  0.00     0.069 A 
HETATM    2  C8  UNL     1      21.283  -0.852   5.699  1.00  0.00     0.138 A 
HETATM    3  N4  UNL     1      22.449  -1.497   5.723  1.00  0.00    -0.307 N 
ATOM      4  H4  UNL     1      22.635  -2.405   5.298  1.00  0.00     0.186 HD
HETATM    5  N5  UNL     1      23.320  -0.767   6.388  1.00  0.00    -0.291 N 
HETATM    6  C21 UNL     1      22.700   0.379   6.803  1.00  0.00     0.142 A 
ENDROOT
BRANCH   1   7
HETATM    7  N3  UNL     1      20.341   1.326   6.562  1.00  0.00    -0.319 N 
HETATM    8  C6  UNL     1      19.237   1.469   5.721  1.00  0.00     0.274 C 
HETATM    9  O1  UNL     1      19.165   0.692   4.715  1.00  0.00    -0.266 OA
ATOM     10  H3  UNL     1      20.408   1.951   7.366  1.00  0.00     0.169 HD
BRANCH   8  11
HETATM   11  C5  UNL     1      18.176   2.425   5.894  1.00  0.00     0.124 A 
HETATM   12  N2  UNL     1      18.353   3.723   6.308  1.00  0.00    -0.295 N 
HETATM   13  N1  UNL     1      17.214   4.354   6.366  1.00  0.00    -0.304 N 
ATOM     14  H2  UNL     1      19.256   4.139   6.538  1.00  0.00     0.187 HD
HETATM   15  C4  UNL     1      16.212   3.502   5.991  1.00  0.00     0.035 A 
ATOM     16  H1  UNL     1      17.089   5.327   6.647  1.00  0.00     0.186 HD
HETATM   17  C3  UNL     1      14.759   3.669   5.898  1.00  0.00     0.075 C 
HETATM   18  C22 UNL     1      16.806   2.312   5.698  1.00  0.00     0.000 A 
HETATM   19  C2  UNL     1      14.100   2.797   4.913  1.00  0.00     0.037 A 
HETATM   20  C1  UNL     1      12.557   2.843   4.977  1.00  0.00     0.022 C 
HETATM   21  C24 UNL     1      14.670   1.496   4.654  1.00  0.00     0.077 A 
HETATM   22  C25 UNL     1      14.679   2.620   3.564  1.00  0.00     0.256 A 
HETATM   23  C23 UNL     1      16.013   1.155   5.213  1.00  0.00     0.055 C 
HETATM   24  F1  UNL     1      15.913   3.223   3.348  1.00  0.00    -0.205 F 
HETATM   25  F2  UNL     1      13.819   2.490   2.519  1.00  0.00    -0.205 F 
ENDBRANCH   8  11
ENDBRANCH   1   7
BRANCH   5  26
HETATM   26  C9  UNL     1      24.695  -1.069   6.660  1.00  0.00     0.159 C 
BRANCH  26  27
HETATM   27  C10 UNL     1      25.624  -0.188   5.906  1.00  0.00    -0.032 A 
HETATM   28  C11 UNL     1      26.621   0.461   6.598  1.00  0.00     0.009 A 
HETATM   29  C12 UNL     1      27.533   1.305   5.958  1.00  0.00     0.001 A 
HETATM   30  C13 UNL     1      27.392   1.461   4.596  1.00  0.00     0.000 A 
HETATM   31  C14 UNL     1      26.398   0.818   3.884  1.00  0.00     0.001 A 
HETATM   32  C15 UNL     1      25.513  -0.009   4.542  1.00  0.00     0.009 A 
ENDBRANCH  26  27
BRANCH  26  33
HETATM   33  C16 UNL     1      25.078  -2.491   6.414  1.00  0.00     0.137 C 
HETATM   34  C17 UNL     1      26.568  -2.619   6.644  1.00  0.00     0.022 C 
HETATM   35  C18 UNL     1      27.108  -3.949   6.196  1.00  0.00     0.002 C 
HETATM   36  C19 UNL     1      26.175  -5.084   6.429  1.00  0.00     0.015 C 
HETATM   37  C20 UNL     1      25.426  -4.998   7.743  1.00  0.00     0.141 C 
HETATM   38  S1  UNL     1      24.314  -3.592   7.607  1.00  0.00     0.150 S 
HETATM   39  O2  UNL     1      23.012  -4.104   7.118  1.00  0.00    -0.227 OA
HETATM   40  O3  UNL     1      24.230  -2.937   8.948  1.00  0.00    -0.227 OA
ENDBRANCH  26  33
ENDBRANCH   5  26
TORSDOF 5
ENDMDL
