MODEL 8
REMARK VINA RESULT: -10.187279805      1.059      1.082
REMARK  5 active torsions:
REMARK  status: ('A' for Active; 'I' for Inactive)
REMARK    1  A    between atoms: C5_9  and  C6_10 
REMARK       I    between atoms: C6_10  and  N3_12 
REMARK    2  A    between atoms: N3_12  and  C7_14 
REMARK    3  A    between atoms: N5_18  and  C9_19 
REMARK    4  A    between atoms: C9_19  and  C10_20 
REMARK    5  A    between atoms: C9_19  and  C16_26 
ROOT
HETATM    1  C7  UNL     1      22.156  -0.036   6.212  1.00  0.00     0.069 A 
HETATM    2  C8  UNL     1      21.973  -1.303   5.645  1.00  0.00     0.138 A 
HETATM    3  N4  UNL     1      23.052  -2.059   5.846  1.00  0.00    -0.307 N 
ATOM      4  H4  UNL     1      23.170  -3.022   5.532  1.00  0.00     0.186 HD
HETATM    5  N5  UNL     1      23.940  -1.356   6.517  1.00  0.00    -0.291 N 
HETATM    6  C21 UNL     1      23.421  -0.113   6.755  1.00  0.00     0.142 A 
ENDROOT
BRANCH   1   7
HETATM    7  N3  UNL     1      21.214   1.041   6.195  1.00  0.00    -0.319 N 
HETATM    8  C6  UNL     1      19.827   0.887   6.176  1.00  0.00     0.274 C 
HETATM    9  O1  UNL     1      19.372  -0.302   6.164  1.00  0.00    -0.266 OA
ATOM     10  H3  UNL     1      21.583   1.992   6.197  1.00  0.00     0.169 HD
BRANCH   8  11
HETATM   11  C5  UNL     1      18.869   1.960   6.166  1.00  0.00     0.124 A 
HETATM   12  N2  UNL     1      19.177   3.285   6.362  1.00  0.00    -0.295 N 
HETATM   13  N1  UNL     1      18.109   4.027   6.290  1.00  0.00    -0.304 N 
ATOM     14  H2  UNL     1      20.116   3.640   6.541  1.00  0.00     0.187 HD
HETATM   15  C4  UNL     1      17.026   3.230   6.040  1.00  0.00     0.035 A 
ATOM     16  H1  UNL     1      18.083   5.041   6.403  1.00  0.00     0.186 HD
HETATM   17  C3  UNL     1      15.598   3.525   5.888  1.00  0.00     0.075 C 
HETATM   18  C22 UNL     1      17.495   1.954   5.961  1.00  0.00     0.000 A 
HETATM   19  C2  UNL     1      14.857   2.571   5.048  1.00  0.00     0.037 A 
HETATM   20  C1  UNL     1      13.327   2.783   5.069  1.00  0.00     0.022 C 
HETATM   21  C24 UNL     1      15.292   1.195   5.020  1.00  0.00     0.077 A 
HETATM   22  C25 UNL     1      15.422   2.114   3.760  1.00  0.00     0.256 A 
HETATM   23  C23 UNL     1      16.590   0.818   5.658  1.00  0.00     0.055 C 
HETATM   24  F1  UNL     1      16.712   2.545   3.474  1.00  0.00    -0.205 F 
HETATM   25  F2  UNL     1      14.558   1.899   2.731  1.00  0.00    -0.205 F 
ENDBRANCH   8  11
ENDBRANCH   1   7
BRANCH   5  26
HETATM   26  C9  UNL     1      25.243  -1.768   6.950  1.00  0.00     0.159 C 
BRANCH  26  27
HETATM   27  C10 UNL     1      26.326  -1.141   6.149  1.00  0.00    -0.032 A 
HETATM   28  C11 UNL     1      27.174  -0.253   6.770  1.00  0.00     0.009 A 
HETATM   29  C12 UNL     1      28.215   0.376   6.082  1.00  0.00     0.001 A 
HETATM   30  C13 UNL     1      28.361   0.067   4.747  1.00  0.00     0.000 A 
HETATM   31  C14 UNL     1      27.520  -0.823   4.105  1.00  0.00     0.001 A 
HETATM   32  C15 UNL     1      26.501  -1.428   4.809  1.00  0.00     0.009 A 
ENDBRANCH  26  27
BRANCH  26  33
HETATM   33  C16 UNL     1      25.453  -3.246   6.965  1.00  0.00     0.137 C 
HETATM   34  C17 UNL     1      26.906  -3.507   7.296  1.00  0.00     0.022 C 
HETATM   35  C18 UNL     1      27.291  -4.949   7.106  1.00  0.00     0.002 C 
HETATM   36  C19 UNL     1      26.215  -5.909   7.472  1.00  0.00     0.015 C 
HETATM   37  C20 UNL     1      25.437  -5.511   8.709  1.00  0.00     0.141 C 
HETATM   38  S1  UNL     1      24.515  -4.029   8.280  1.00  0.00     0.150 S 
HETATM   39  O2  UNL     1      23.178  -4.460   7.810  1.00  0.00    -0.227 OA
HETATM   40  O3  UNL     1      24.467  -3.148   9.486  1.00  0.00    -0.227 OA
ENDBRANCH  26  33
ENDBRANCH   5  26
TORSDOF 5
ENDMDL
