MODEL 20
REMARK VINA RESULT: -9.023424391      2.949      4.999
REMARK  5 active torsions:
REMARK  status: ('A' for Active; 'I' for Inactive)
REMARK    1  A    between atoms: C5_9  and  C6_10 
REMARK       I    between atoms: C6_10  and  N3_12 
REMARK    2  A    between atoms: N3_12  and  C7_14 
REMARK    3  A    between atoms: N5_18  and  C9_19 
REMARK    4  A    between atoms: C9_19  and  C10_20 
REMARK    5  A    between atoms: C9_19  and  C16_26 
ROOT
HETATM    1  C7  UNL     1      23.308  -2.986   6.632  1.00  0.00     0.069 A 
HETATM    2  C8  UNL     1      24.096  -3.608   5.655  1.00  0.00     0.138 A 
HETATM    3  N4  UNL     1      25.378  -3.591   6.015  1.00  0.00    -0.307 N 
ATOM      4  H4  UNL     1      26.152  -3.980   5.476  1.00  0.00     0.186 HD
HETATM    5  N5  UNL     1      25.480  -2.990   7.181  1.00  0.00    -0.291 N 
HETATM    6  C21 UNL     1      24.230  -2.608   7.584  1.00  0.00     0.142 A 
ENDROOT
BRANCH   1   7
HETATM    7  N3  UNL     1      21.888  -2.817   6.590  1.00  0.00    -0.319 N 
HETATM    8  C6  UNL     1      21.236  -1.663   6.154  1.00  0.00     0.274 C 
HETATM    9  O1  UNL     1      21.963  -0.690   5.774  1.00  0.00    -0.266 OA
ATOM     10  H3  UNL     1      21.309  -3.597   6.903  1.00  0.00     0.169 HD
BRANCH   8  11
HETATM   11  C5  UNL     1      19.810  -1.481   6.101  1.00  0.00     0.124 A 
HETATM   12  N2  UNL     1      18.894  -2.302   6.714  1.00  0.00    -0.295 N 
HETATM   13  N1  UNL     1      17.678  -1.887   6.498  1.00  0.00    -0.304 N 
ATOM     14  H2  UNL     1      19.134  -3.127   7.264  1.00  0.00     0.187 HD
HETATM   15  C4  UNL     1      17.721  -0.759   5.726  1.00  0.00     0.035 A 
ATOM     16  H1  UNL     1      16.829  -2.332   6.849  1.00  0.00     0.186 HD
HETATM   17  C3  UNL     1      16.668   0.096   5.171  1.00  0.00     0.075 C 
HETATM   18  C22 UNL     1      19.036  -0.507   5.482  1.00  0.00     0.000 A 
HETATM   19  C2  UNL     1      17.068   1.493   4.936  1.00  0.00     0.037 A 
HETATM   20  C1  UNL     1      16.015   2.320   4.166  1.00  0.00     0.022 C 
HETATM   21  C24 UNL     1      18.444   1.767   4.593  1.00  0.00     0.077 A 
HETATM   22  C25 UNL     1      17.838   2.232   5.960  1.00  0.00     0.256 A 
HETATM   23  C23 UNL     1      19.461   0.677   4.697  1.00  0.00     0.055 C 
HETATM   24  F1  UNL     1      18.244   1.495   7.066  1.00  0.00    -0.205 F 
HETATM   25  F2  UNL     1      17.575   3.558   6.114  1.00  0.00    -0.205 F 
ENDBRANCH   8  11
ENDBRANCH   1   7
BRANCH   5  26
HETATM   26  C9  UNL     1      26.669  -2.746   7.945  1.00  0.00     0.159 C 
BRANCH  26  27
HETATM   27  C10 UNL     1      26.561  -3.264   9.334  1.00  0.00    -0.032 A 
HETATM   28  C11 UNL     1      26.124  -2.411  10.322  1.00  0.00     0.009 A 
HETATM   29  C12 UNL     1      25.997  -2.826  11.650  1.00  0.00     0.001 A 
HETATM   30  C13 UNL     1      26.329  -4.133  11.933  1.00  0.00     0.000 A 
HETATM   31  C14 UNL     1      26.768  -5.005  10.955  1.00  0.00     0.001 A 
HETATM   32  C15 UNL     1      26.884  -4.568   9.653  1.00  0.00     0.009 A 
ENDBRANCH  26  27
BRANCH  26  33
HETATM   33  C16 UNL     1      27.087  -1.314   8.001  1.00  0.00     0.137 C 
HETATM   34  C17 UNL     1      28.508  -1.263   8.518  1.00  0.00     0.022 C 
HETATM   35  C18 UNL     1      28.954   0.137   8.841  1.00  0.00     0.002 C 
HETATM   36  C19 UNL     1      28.418   1.166   7.912  1.00  0.00     0.015 C 
HETATM   37  C20 UNL     1      28.380   0.721   6.464  1.00  0.00     0.141 C 
HETATM   38  S1  UNL     1      27.149  -0.585   6.362  1.00  0.00     0.150 S 
HETATM   39  O2  UNL     1      25.860   0.050   6.001  1.00  0.00    -0.227 OA
HETATM   40  O3  UNL     1      27.621  -1.588   5.359  1.00  0.00    -0.227 OA
ENDBRANCH  26  33
ENDBRANCH   5  26
TORSDOF 5
ENDMDL
