MODEL 1
REMARK VINA RESULT: -10.163589439      0.000      0.000
REMARK  5 active torsions:
REMARK  status: ('A' for Active; 'I' for Inactive)
REMARK    1  A    between atoms: C1_2  and  C2_4 
REMARK    2  A    between atoms: C4_6  and  O3_7 
REMARK    3  A    between atoms: C6_10  and  O4_11 
REMARK    4  A    between atoms: C8_14  and  O5_15 
REMARK    5  A    between atoms: C13_21  and  O6_22 
ROOT
HETATM    1  C2  UNL     1      -0.607   3.691   5.821  1.00  0.00     0.044 A 
HETATM    2  C3  UNL     1      -0.508   2.337   5.987  1.00  0.00     0.055 A 
HETATM    3  C4  UNL     1      -1.020   1.493   5.022  1.00  0.00     0.080 A 
HETATM    4  C5  UNL     1      -1.640   2.012   3.876  1.00  0.00     0.044 A 
HETATM    5  C6  UNL     1      -2.165   1.197   2.888  1.00  0.00     0.093 A 
HETATM    6  C7  UNL     1      -2.786   1.751   1.740  1.00  0.00     0.044 A 
HETATM    7  C8  UNL     1      -3.307   0.938   0.758  1.00  0.00     0.079 A 
HETATM    8  C9  UNL     1      -3.910   1.550  -0.353  1.00  0.00     0.037 A 
HETATM    9  C10 UNL     1      -3.964   2.923  -0.437  1.00  0.00     0.004 A 
HETATM   10  C11 UNL     1      -3.441   3.736   0.547  1.00  0.00     0.015 A 
HETATM   11  C12 UNL     1      -2.854   3.122   1.631  1.00  0.00     0.014 A 
HETATM   12  C13 UNL     1      -2.339   3.956   2.599  1.00  0.00     0.088 A 
HETATM   13  C14 UNL     1      -1.742   3.376   3.704  1.00  0.00     0.015 A 
HETATM   14  C15 UNL     1      -1.215   4.181   4.696  1.00  0.00     0.033 A 
ENDROOT
BRANCH   1  15
HETATM   15  C1  UNL     1      -0.056   4.591   6.857  1.00  0.00     0.209 C 
HETATM   16  O1  UNL     1       1.139   4.520   7.206  1.00  0.00    -0.644 OA
HETATM   17  O2  UNL     1      -0.867   5.531   7.454  1.00  0.00    -0.644 OA
ENDBRANCH   1  15
BRANCH   3  18
HETATM   18  O3  UNL     1      -0.917   0.124   5.199  1.00  0.00    -0.360 OA
ATOM     19  H3  UNL     1      -1.177  -0.455   4.492  1.00  0.00     0.217 HD
ENDBRANCH   3  18
BRANCH  12  20
HETATM   20  O6  UNL     1      -2.378   5.323   2.544  1.00  0.00    -0.359 OA
ATOM     21  H6  UNL     1      -2.872   5.871   3.142  1.00  0.00     0.217 HD
ENDBRANCH  12  20
BRANCH   5  22
HETATM   22  O4  UNL     1      -2.104  -0.145   2.983  1.00  0.00    -0.359 OA
ATOM     23  H4  UNL     1      -2.823  -0.693   2.690  1.00  0.00     0.217 HD
ENDBRANCH   5  22
BRANCH   7  24
HETATM   24  O5  UNL     1      -3.281  -0.391   0.791  1.00  0.00    -0.360 OA
ATOM     25  H5  UNL     1      -3.650  -0.952   0.119  1.00  0.00     0.217 HD
ENDBRANCH   7  24
TORSDOF 5
ENDMDL
