MODEL 4
REMARK VINA RESULT: -7.339163622      8.272     10.066
REMARK  5 active torsions:
REMARK  status: ('A' for Active; 'I' for Inactive)
REMARK    1  A    between atoms: C1_2  and  C2_4 
REMARK    2  A    between atoms: C4_6  and  O3_7 
REMARK    3  A    between atoms: C6_10  and  O4_11 
REMARK    4  A    between atoms: C8_14  and  O5_15 
REMARK    5  A    between atoms: C13_21  and  O6_22 
ROOT
HETATM    1  C2  UNL     1      -5.980  -6.148   9.787  1.00  0.00     0.044 A 
HETATM    2  C3  UNL     1      -4.708  -5.949  10.248  1.00  0.00     0.055 A 
HETATM    3  C4  UNL     1      -3.713  -5.584   9.363  1.00  0.00     0.080 A 
HETATM    4  C5  UNL     1      -3.996  -5.416   8.000  1.00  0.00     0.044 A 
HETATM    5  C6  UNL     1      -3.024  -5.051   7.084  1.00  0.00     0.093 A 
HETATM    6  C7  UNL     1      -3.340  -4.888   5.712  1.00  0.00     0.044 A 
HETATM    7  C8  UNL     1      -2.372  -4.525   4.803  1.00  0.00     0.079 A 
HETATM    8  C9  UNL     1      -2.750  -4.381   3.458  1.00  0.00     0.037 A 
HETATM    9  C10 UNL     1      -4.057  -4.601   3.084  1.00  0.00     0.004 A 
HETATM   10  C11 UNL     1      -5.026  -4.965   3.996  1.00  0.00     0.015 A 
HETATM   11  C12 UNL     1      -4.640  -5.103   5.311  1.00  0.00     0.014 A 
HETATM   12  C13 UNL     1      -5.627  -5.467   6.201  1.00  0.00     0.088 A 
HETATM   13  C14 UNL     1      -5.276  -5.616   7.531  1.00  0.00     0.015 A 
HETATM   14  C15 UNL     1      -6.240  -5.980   8.453  1.00  0.00     0.033 A 
ENDROOT
BRANCH   1  15
HETATM   15  C1  UNL     1      -7.044  -6.539  10.738  1.00  0.00     0.209 C 
HETATM   16  O1  UNL     1      -8.217  -6.722  10.356  1.00  0.00    -0.644 OA
HETATM   17  O2  UNL     1      -6.746  -6.708  12.072  1.00  0.00    -0.644 OA
ENDBRANCH   1  15
BRANCH   3  18
HETATM   18  O3  UNL     1      -2.428  -5.386   9.838  1.00  0.00    -0.360 OA
ATOM     19  H3  UNL     1      -1.709  -5.335   9.219  1.00  0.00     0.217 HD
ENDBRANCH   3  18
BRANCH  12  20
HETATM   20  O6  UNL     1      -6.932  -5.693   5.860  1.00  0.00    -0.359 OA
ATOM     21  H6  UNL     1      -7.392  -6.512   6.004  1.00  0.00     0.217 HD
ENDBRANCH  12  20
BRANCH   5  22
HETATM   22  O4  UNL     1      -1.750  -4.838   7.465  1.00  0.00    -0.359 OA
ATOM     23  H4  UNL     1      -1.145  -5.560   7.587  1.00  0.00     0.217 HD
ENDBRANCH   5  22
BRANCH   7  24
HETATM   24  O5  UNL     1      -1.098  -4.301   5.111  1.00  0.00    -0.360 OA
ATOM     25  H5  UNL     1      -0.794  -3.576   5.644  1.00  0.00     0.217 HD
ENDBRANCH   7  24
TORSDOF 5
ENDMDL
