MODEL 3
REMARK VINA RESULT: -7.675106136      8.625     11.385
REMARK  5 active torsions:
REMARK  status: ('A' for Active; 'I' for Inactive)
REMARK    1  A    between atoms: C1_2  and  C2_4 
REMARK    2  A    between atoms: C4_6  and  O3_7 
REMARK    3  A    between atoms: C6_10  and  O4_11 
REMARK    4  A    between atoms: C8_14  and  O5_15 
REMARK    5  A    between atoms: C13_21  and  O6_22 
ROOT
HETATM    1  C2  UNL     1      -7.329  -5.553   5.328  1.00  0.00     0.044 A 
HETATM    2  C3  UNL     1      -6.309  -5.076   4.552  1.00  0.00     0.055 A 
HETATM    3  C4  UNL     1      -5.042  -4.958   5.090  1.00  0.00     0.080 A 
HETATM    4  C5  UNL     1      -4.795  -5.324   6.420  1.00  0.00     0.044 A 
HETATM    5  C6  UNL     1      -3.538  -5.219   6.993  1.00  0.00     0.093 A 
HETATM    6  C7  UNL     1      -3.318  -5.597   8.342  1.00  0.00     0.044 A 
HETATM    7  C8  UNL     1      -2.068  -5.493   8.909  1.00  0.00     0.079 A 
HETATM    8  C9  UNL     1      -1.917  -5.883  10.249  1.00  0.00     0.037 A 
HETATM    9  C10 UNL     1      -3.002  -6.354  10.955  1.00  0.00     0.004 A 
HETATM   10  C11 UNL     1      -4.254  -6.458  10.385  1.00  0.00     0.015 A 
HETATM   11  C12 UNL     1      -4.387  -6.072   9.070  1.00  0.00     0.014 A 
HETATM   12  C13 UNL     1      -5.647  -6.186   8.525  1.00  0.00     0.088 A 
HETATM   13  C14 UNL     1      -5.820  -5.806   7.206  1.00  0.00     0.015 A 
HETATM   14  C15 UNL     1      -7.070  -5.907   6.626  1.00  0.00     0.033 A 
ENDROOT
BRANCH   1  15
HETATM   15  C1  UNL     1      -8.684  -5.678   4.748  1.00  0.00     0.209 C 
HETATM   16  O1  UNL     1      -9.110  -4.852   3.917  1.00  0.00    -0.644 OA
HETATM   17  O2  UNL     1      -9.500  -6.722   5.125  1.00  0.00    -0.644 OA
ENDBRANCH   1  15
BRANCH   3  18
HETATM   18  O3  UNL     1      -4.016  -4.472   4.298  1.00  0.00    -0.360 OA
ATOM     19  H3  UNL     1      -3.630  -5.039   3.641  1.00  0.00     0.217 HD
ENDBRANCH   3  18
BRANCH  12  20
HETATM   20  O6  UNL     1      -6.743  -6.650   9.200  1.00  0.00    -0.359 OA
ATOM     21  H6  UNL     1      -6.961  -6.419  10.095  1.00  0.00     0.217 HD
ENDBRANCH  12  20
BRANCH   5  22
HETATM   22  O4  UNL     1      -2.487  -4.757   6.291  1.00  0.00    -0.359 OA
ATOM     23  H4  UNL     1      -1.601  -5.044   6.482  1.00  0.00     0.217 HD
ENDBRANCH   5  22
BRANCH   7  24
HETATM   24  O5  UNL     1      -0.990  -5.045   8.273  1.00  0.00    -0.360 OA
ATOM     25  H5  UNL     1      -0.697  -5.359   7.425  1.00  0.00     0.217 HD
ENDBRANCH   7  24
TORSDOF 5
ENDMDL
