MODEL 2
REMARK VINA RESULT: -9.682174166      1.518      5.717
REMARK  5 active torsions:
REMARK  status: ('A' for Active; 'I' for Inactive)
REMARK    1  A    between atoms: C1_2  and  C2_4 
REMARK    2  A    between atoms: C4_6  and  O3_7 
REMARK    3  A    between atoms: C6_10  and  O4_11 
REMARK    4  A    between atoms: C8_14  and  O5_15 
REMARK    5  A    between atoms: C13_21  and  O6_22 
ROOT
HETATM    1  C2  UNL     1      -3.464   2.110   0.523  1.00  0.00     0.044 A 
HETATM    2  C3  UNL     1      -3.198   0.823   0.900  1.00  0.00     0.055 A 
HETATM    3  C4  UNL     1      -2.565   0.583   2.104  1.00  0.00     0.080 A 
HETATM    4  C5  UNL     1      -2.195   1.646   2.940  1.00  0.00     0.044 A 
HETATM    5  C6  UNL     1      -1.559   1.443   4.153  1.00  0.00     0.093 A 
HETATM    6  C7  UNL     1      -1.196   2.538   4.978  1.00  0.00     0.044 A 
HETATM    7  C8  UNL     1      -0.564   2.334   6.184  1.00  0.00     0.079 A 
HETATM    8  C9  UNL     1      -0.232   3.461   6.953  1.00  0.00     0.037 A 
HETATM    9  C10 UNL     1      -0.540   4.722   6.494  1.00  0.00     0.004 A 
HETATM   10  C11 UNL     1      -1.173   4.925   5.286  1.00  0.00     0.015 A 
HETATM   11  C12 UNL     1      -1.493   3.810   4.542  1.00  0.00     0.014 A 
HETATM   12  C13 UNL     1      -2.124   4.041   3.340  1.00  0.00     0.088 A 
HETATM   13  C14 UNL     1      -2.461   2.945   2.564  1.00  0.00     0.015 A 
HETATM   14  C15 UNL     1      -3.096   3.137   1.352  1.00  0.00     0.033 A 
ENDROOT
BRANCH   1  15
HETATM   15  C1  UNL     1      -4.143   2.364  -0.766  1.00  0.00     0.209 C 
HETATM   16  O1  UNL     1      -4.279   3.523  -1.208  1.00  0.00    -0.644 OA
HETATM   17  O2  UNL     1      -4.636   1.310  -1.503  1.00  0.00    -0.644 OA
ENDBRANCH   1  15
BRANCH   3  18
HETATM   18  O3  UNL     1      -2.298  -0.723   2.477  1.00  0.00    -0.360 OA
ATOM     19  H3  UNL     1      -1.418  -0.957   2.746  1.00  0.00     0.217 HD
ENDBRANCH   3  18
BRANCH  12  20
HETATM   20  O6  UNL     1      -2.443   5.281   2.857  1.00  0.00    -0.359 OA
ATOM     21  H6  UNL     1      -2.952   5.437   2.070  1.00  0.00     0.217 HD
ENDBRANCH  12  20
BRANCH   5  22
HETATM   22  O4  UNL     1      -1.264   0.204   4.589  1.00  0.00    -0.359 OA
ATOM     23  H4  UNL     1      -0.381  -0.142   4.532  1.00  0.00     0.217 HD
ENDBRANCH   5  22
BRANCH   7  24
HETATM   24  O5  UNL     1      -0.245   1.139   6.672  1.00  0.00    -0.360 OA
ATOM     25  H5  UNL     1       0.645   0.829   6.792  1.00  0.00     0.217 HD
ENDBRANCH   7  24
TORSDOF 5
ENDMDL
