MODEL 8
REMARK VINA RESULT: -6.175705968      1.588      5.584
REMARK  5 active torsions:
REMARK  status: ('A' for Active; 'I' for Inactive)
REMARK    1  A    between atoms: C1_2  and  C2_4 
REMARK    2  A    between atoms: C4_6  and  O3_7 
REMARK    3  A    between atoms: C6_10  and  O4_11 
REMARK    4  A    between atoms: C8_14  and  O5_15 
REMARK    5  A    between atoms: C13_21  and  O6_22 
ROOT
HETATM    1  C2  UNL     1      -3.503   3.462   0.369  1.00  0.00     0.044 A 
HETATM    2  C3  UNL     1      -3.391   2.106   0.229  1.00  0.00     0.055 A 
HETATM    3  C4  UNL     1      -2.810   1.364   1.238  1.00  0.00     0.080 A 
HETATM    4  C5  UNL     1      -2.336   1.987   2.401  1.00  0.00     0.044 A 
HETATM    5  C6  UNL     1      -1.747   1.275   3.432  1.00  0.00     0.093 A 
HETATM    6  C7  UNL     1      -1.277   1.933   4.597  1.00  0.00     0.044 A 
HETATM    7  C8  UNL     1      -0.693   1.223   5.621  1.00  0.00     0.079 A 
HETATM    8  C9  UNL     1      -0.248   1.935   6.747  1.00  0.00     0.037 A 
HETATM    9  C10 UNL     1      -0.403   3.302   6.802  1.00  0.00     0.004 A 
HETATM   10  C11 UNL     1      -0.989   4.012   5.775  1.00  0.00     0.015 A 
HETATM   11  C12 UNL     1      -1.420   3.300   4.677  1.00  0.00     0.014 A 
HETATM   12  C13 UNL     1      -2.001   4.033   3.666  1.00  0.00     0.088 A 
HETATM   13  C14 UNL     1      -2.447   3.353   2.546  1.00  0.00     0.015 A 
HETATM   14  C15 UNL     1      -3.035   4.055   1.511  1.00  0.00     0.033 A 
ENDROOT
BRANCH   1  15
HETATM   15  C1  UNL     1      -4.127   4.254  -0.714  1.00  0.00     0.209 C 
HETATM   16  O1  UNL     1      -5.366   4.383  -0.789  1.00  0.00    -0.644 OA
HETATM   17  O2  UNL     1      -3.337   4.867  -1.661  1.00  0.00    -0.644 OA
ENDBRANCH   1  15
BRANCH   3  18
HETATM   18  O3  UNL     1      -2.699  -0.008   1.087  1.00  0.00    -0.360 OA
ATOM     19  H3  UNL     1      -3.359  -0.571   1.473  1.00  0.00     0.217 HD
ENDBRANCH   3  18
BRANCH  12  20
HETATM   20  O6  UNL     1      -2.170   5.391   3.691  1.00  0.00    -0.359 OA
ATOM     21  H6  UNL     1      -2.996   5.827   3.863  1.00  0.00     0.217 HD
ENDBRANCH  12  20
BRANCH   5  22
HETATM   22  O4  UNL     1      -1.603  -0.062   3.365  1.00  0.00    -0.359 OA
ATOM     23  H4  UNL     1      -2.276  -0.612   2.981  1.00  0.00     0.217 HD
ENDBRANCH   5  22
BRANCH   7  24
HETATM   24  O5  UNL     1      -0.519  -0.095   5.618  1.00  0.00    -0.360 OA
ATOM     25  H5  UNL     1      -0.969  -0.695   5.034  1.00  0.00     0.217 HD
ENDBRANCH   7  24
TORSDOF 5
ENDMDL
