MODEL 2
REMARK VINA RESULT: -7.976530985      3.150      7.375
REMARK  14 active torsions:
REMARK  status: ('A' for Active; 'I' for Inactive)
REMARK    1  A    between atoms: N4_10  and  C5_11 
REMARK    2  A    between atoms: C5_11  and  C6_12 
REMARK    3  A    between atoms: C6_12  and  N5_13 
REMARK    4  A    between atoms: N5_13  and  C7_14 
REMARK    5  A    between atoms: N5_13  and  C13_26 
REMARK    6  A    between atoms: C7_14  and  C8_15 
REMARK    7  A    between atoms: C8_15  and  N6_16 
REMARK    8  A    between atoms: N6_16  and  C9_17 
REMARK    9  A    between atoms: N6_16  and  C11_20 
REMARK   10  A    between atoms: C9_17  and  C10_18 
REMARK   11  A    between atoms: C11_20  and  C12_21 
REMARK   12  A    between atoms: C12_21  and  P1_22 
REMARK   13  A    between atoms: C13_26  and  C14_27 
REMARK   14  A    between atoms: C14_27  and  P2_28 
ROOT
HETATM    1  N5  UNL     1      -3.803  12.985 126.041  1.00  0.00     0.092 N 
ENDROOT
BRANCH   1   2
HETATM    2  C6  UNL     1      -4.007  11.719 125.462  1.00  0.00     0.292 C 
BRANCH   2   3
HETATM    3  C5  UNL     1      -5.344  11.440 124.879  1.00  0.00     0.161 C 
BRANCH   3   4
HETATM    4  N4  UNL     1      -5.166  11.127 123.471  1.00  0.00    -0.326 N 
HETATM    5  C2  UNL     1      -4.932   9.913 122.940  1.00  0.00     0.143 A 
HETATM    6  N2  UNL     1      -4.810   8.724 123.586  1.00  0.00    -0.314 N 
HETATM    7  C3  UNL     1      -4.821  10.018 121.569  1.00  0.00     0.146 A 
HETATM    8  C1  UNL     1      -4.571   7.591 122.876  1.00  0.00     0.196 A 
ATOM      9  H2  UNL     1      -4.898   8.682 124.601  1.00  0.00     0.170 HD
HETATM   10  N1  UNL     1      -4.435   6.328 123.490  1.00  0.00    -0.063 NA
HETATM   11  N7  UNL     1      -4.465   7.702 121.539  1.00  0.00    -0.295 N 
HETATM   12  C15 UNL     1      -4.579   8.852 120.870  1.00  0.00     0.278 A 
ATOM     13  H7  UNL     1      -4.286   6.853 121.002  1.00  0.00     0.171 HD
HETATM   14  O8  UNL     1      -4.479   8.957 119.620  1.00  0.00    -0.265 OA
HETATM   15  N3  UNL     1      -4.992  11.314 121.274  1.00  0.00    -0.345 N 
HETATM   16  C4  UNL     1      -5.200  11.975 122.429  1.00  0.00     0.185 A 
ATOM     17  H3  UNL     1      -4.969  11.727 120.341  1.00  0.00     0.167 HD
ENDBRANCH   3   4
ENDBRANCH   2   3
ENDBRANCH   1   2
BRANCH   1  18
HETATM   18  C7  UNL     1      -3.077  13.807 125.060  1.00  0.00     0.302 C 
BRANCH  18  19
HETATM   19  C8  UNL     1      -3.839  15.082 124.773  1.00  0.00     0.303 C 
BRANCH  19  20
HETATM   20  N6  UNL     1      -4.132  15.136 123.328  1.00  0.00     0.097 N 
BRANCH  20  21
HETATM   21  C9  UNL     1      -3.094  15.910 122.712  1.00  0.00     0.341 C 
BRANCH  21  22
HETATM   22  C10 UNL     1      -2.607  15.348 121.425  1.00  0.00     0.261 C 
HETATM   23  O1  UNL     1      -3.054  14.378 120.871  1.00  0.00    -0.305 OA
ENDBRANCH  21  22
ENDBRANCH  20  21
BRANCH  20  24
HETATM   24  C11 UNL     1      -5.437  15.697 123.187  1.00  0.00     0.286 C 
BRANCH  24  25
HETATM   25  C12 UNL     1      -6.160  15.345 121.909  1.00  0.00     0.176 C 
BRANCH  25  26
HETATM   26  P1  UNL     1      -6.453  16.707 120.919  1.00  0.00     0.261 P 
HETATM   27  O2  UNL     1      -7.961  17.457 120.878  1.00  0.00    -0.640 OA
HETATM   28  O3  UNL     1      -5.956  17.840 121.817  1.00  0.00    -0.640 OA
HETATM   29  O4  UNL     1      -5.343  17.170 119.747  1.00  0.00    -0.640 OA
ENDBRANCH  25  26
ENDBRANCH  24  25
ENDBRANCH  20  24
ENDBRANCH  19  20
ENDBRANCH  18  19
ENDBRANCH   1  18
BRANCH   1  30
HETATM   30  C13 UNL     1      -3.094  13.045 127.265  1.00  0.00     0.286 C 
BRANCH  30  31
HETATM   31  C14 UNL     1      -4.079  12.788 128.423  1.00  0.00     0.176 C 
BRANCH  31  32
HETATM   32  P2  UNL     1      -4.969  14.218 128.761  1.00  0.00     0.261 P 
HETATM   33  O5  UNL     1      -4.370  15.716 128.295  1.00  0.00    -0.640 OA
HETATM   34  O6  UNL     1      -6.483  14.149 129.462  1.00  0.00    -0.640 OA
HETATM   35  O7  UNL     1      -4.368  14.503 130.156  1.00  0.00    -0.640 OA
ENDBRANCH  31  32
ENDBRANCH  30  31
ENDBRANCH   1  30
TORSDOF 14
ENDMDL
