MODEL 6
REMARK VINA RESULT: -7.815403581      2.730      8.101
REMARK  14 active torsions:
REMARK  status: ('A' for Active; 'I' for Inactive)
REMARK    1  A    between atoms: N4_10  and  C5_11 
REMARK    2  A    between atoms: C5_11  and  C6_12 
REMARK    3  A    between atoms: C6_12  and  N5_13 
REMARK    4  A    between atoms: N5_13  and  C7_14 
REMARK    5  A    between atoms: N5_13  and  C13_26 
REMARK    6  A    between atoms: C7_14  and  C8_15 
REMARK    7  A    between atoms: C8_15  and  N6_16 
REMARK    8  A    between atoms: N6_16  and  C9_17 
REMARK    9  A    between atoms: N6_16  and  C11_20 
REMARK   10  A    between atoms: C9_17  and  C10_18 
REMARK   11  A    between atoms: C11_20  and  C12_21 
REMARK   12  A    between atoms: C12_21  and  P1_22 
REMARK   13  A    between atoms: C13_26  and  C14_27 
REMARK   14  A    between atoms: C14_27  and  P2_28 
ROOT
HETATM    1  N5  UNL     1      -4.969  13.648 123.399  1.00  0.00     0.092 N 
ENDROOT
BRANCH   1   2
HETATM    2  C6  UNL     1      -4.133  12.957 124.294  1.00  0.00     0.292 C 
BRANCH   2   3
HETATM    3  C5  UNL     1      -3.005  13.711 124.898  1.00  0.00     0.161 C 
BRANCH   3   4
HETATM    4  N4  UNL     1      -3.461  14.269 126.160  1.00  0.00    -0.326 N 
HETATM    5  C2  UNL     1      -3.695  13.595 127.301  1.00  0.00     0.143 A 
HETATM    6  N2  UNL     1      -3.561  12.262 127.530  1.00  0.00    -0.314 N 
HETATM    7  C3  UNL     1      -4.114  14.470 128.282  1.00  0.00     0.146 A 
HETATM    8  C1  UNL     1      -3.846  11.756 128.758  1.00  0.00     0.196 A 
ATOM      9  H2  UNL     1      -3.247  11.643 126.782  1.00  0.00     0.170 HD
HETATM   10  N1  UNL     1      -3.728  10.383 129.056  1.00  0.00    -0.063 NA
HETATM   11  N7  UNL     1      -4.256  12.616 129.709  1.00  0.00    -0.295 N 
HETATM   12  C15 UNL     1      -4.398  13.931 129.521  1.00  0.00     0.278 A 
ATOM     13  H7  UNL     1      -4.470  12.240 130.632  1.00  0.00     0.171 HD
HETATM   14  O8  UNL     1      -4.781  14.736 130.409  1.00  0.00    -0.265 OA
HETATM   15  N3  UNL     1      -4.133  15.687 127.720  1.00  0.00    -0.345 N 
HETATM   16  C4  UNL     1      -3.736  15.555 126.440  1.00  0.00     0.185 A 
ATOM     17  H3  UNL     1      -4.399  16.558 128.180  1.00  0.00     0.167 HD
ENDBRANCH   3   4
ENDBRANCH   2   3
ENDBRANCH   1   2
BRANCH   1  18
HETATM   18  C7  UNL     1      -5.530  12.659 122.464  1.00  0.00     0.302 C 
BRANCH  18  19
HETATM   19  C8  UNL     1      -5.022  11.274 122.795  1.00  0.00     0.303 C 
BRANCH  19  20
HETATM   20  N6  UNL     1      -4.704  10.579 121.532  1.00  0.00     0.097 N 
BRANCH  20  21
HETATM   21  C9  UNL     1      -4.959  11.501 120.464  1.00  0.00     0.341 C 
BRANCH  21  22
HETATM   22  C10 UNL     1      -3.993  11.398 119.339  1.00  0.00     0.261 C 
HETATM   23  O1  UNL     1      -3.220  12.256 118.998  1.00  0.00    -0.305 OA
ENDBRANCH  21  22
ENDBRANCH  20  21
BRANCH  20  24
HETATM   24  C11 UNL     1      -5.511   9.403 121.489  1.00  0.00     0.286 C 
BRANCH  24  25
HETATM   25  C12 UNL     1      -5.667   8.674 122.803  1.00  0.00     0.176 C 
BRANCH  25  26
HETATM   26  P1  UNL     1      -4.327   7.679 123.169  1.00  0.00     0.261 P 
HETATM   27  O2  UNL     1      -4.524   6.072 123.633  1.00  0.00    -0.640 OA
HETATM   28  O3  UNL     1      -3.930   7.190 121.776  1.00  0.00    -0.640 OA
HETATM   29  O4  UNL     1      -2.794   8.340 123.357  1.00  0.00    -0.640 OA
ENDBRANCH  25  26
ENDBRANCH  24  25
ENDBRANCH  20  24
ENDBRANCH  19  20
ENDBRANCH  18  19
ENDBRANCH   1  18
BRANCH   1  30
HETATM   30  C13 UNL     1      -4.397  14.691 122.631  1.00  0.00     0.286 C 
BRANCH  30  31
HETATM   31  C14 UNL     1      -5.528  15.467 121.925  1.00  0.00     0.176 C 
BRANCH  31  32
HETATM   32  P2  UNL     1      -4.918  16.944 121.295  1.00  0.00     0.261 P 
HETATM   33  O5  UNL     1      -4.119  18.026 122.301  1.00  0.00    -0.640 OA
HETATM   34  O6  UNL     1      -5.012  17.293 119.664  1.00  0.00    -0.640 OA
HETATM   35  O7  UNL     1      -6.186  17.797 121.521  1.00  0.00    -0.640 OA
ENDBRANCH  31  32
ENDBRANCH  30  31
ENDBRANCH   1  30
TORSDOF 14
ENDMDL
