MODEL 1
REMARK VINA RESULT: -8.195943105      0.000      0.000
REMARK  14 active torsions:
REMARK  status: ('A' for Active; 'I' for Inactive)
REMARK    1  A    between atoms: N4_10  and  C5_11 
REMARK    2  A    between atoms: C5_11  and  C6_12 
REMARK    3  A    between atoms: C6_12  and  N5_13 
REMARK    4  A    between atoms: N5_13  and  C7_14 
REMARK    5  A    between atoms: N5_13  and  C13_26 
REMARK    6  A    between atoms: C7_14  and  C8_15 
REMARK    7  A    between atoms: C8_15  and  N6_16 
REMARK    8  A    between atoms: N6_16  and  C9_17 
REMARK    9  A    between atoms: N6_16  and  C11_20 
REMARK   10  A    between atoms: C9_17  and  C10_18 
REMARK   11  A    between atoms: C11_20  and  C12_21 
REMARK   12  A    between atoms: C12_21  and  P1_22 
REMARK   13  A    between atoms: C13_26  and  C14_27 
REMARK   14  A    between atoms: C14_27  and  P2_28 
ROOT
HETATM    1  N5  UNL     1      -5.055  10.331 123.699  1.00  0.00     0.092 N 
ENDROOT
BRANCH   1   2
HETATM    2  C6  UNL     1      -5.462  11.667 123.530  1.00  0.00     0.292 C 
BRANCH   2   3
HETATM    3  C5  UNL     1      -5.758  12.122 122.147  1.00  0.00     0.161 C 
BRANCH   3   4
HETATM    4  N4  UNL     1      -5.565  13.561 122.095  1.00  0.00    -0.326 N 
HETATM    5  C2  UNL     1      -6.420  14.471 121.591  1.00  0.00     0.143 A 
HETATM    6  N2  UNL     1      -7.637  14.255 121.026  1.00  0.00    -0.314 N 
HETATM    7  C3  UNL     1      -5.886  15.735 121.722  1.00  0.00     0.146 A 
HETATM    8  C1  UNL     1      -8.365  15.306 120.569  1.00  0.00     0.196 A 
ATOM      9  H2  UNL     1      -8.003  13.306 120.946  1.00  0.00     0.170 HD
HETATM   10  N1  UNL     1      -9.634  15.146 119.973  1.00  0.00    -0.063 NA
HETATM   11  N7  UNL     1      -7.836  16.537 120.701  1.00  0.00    -0.295 N 
HETATM   12  C15 UNL     1      -6.645  16.788 121.250  1.00  0.00     0.278 A 
ATOM     13  H7  UNL     1      -8.380  17.329 120.359  1.00  0.00     0.171 HD
HETATM   14  O8  UNL     1      -6.149  17.938 121.373  1.00  0.00    -0.265 OA
HETATM   15  N3  UNL     1      -4.692  15.582 122.313  1.00  0.00    -0.345 N 
HETATM   16  C4  UNL     1      -4.509  14.267 122.534  1.00  0.00     0.185 A 
ATOM     17  H3  UNL     1      -4.039  16.328 122.553  1.00  0.00     0.167 HD
ENDBRANCH   3   4
ENDBRANCH   2   3
ENDBRANCH   1   2
BRANCH   1  18
HETATM   18  C7  UNL     1      -4.443  10.223 125.033  1.00  0.00     0.302 C 
BRANCH  18  19
HETATM   19  C8  UNL     1      -4.681  11.487 125.828  1.00  0.00     0.303 C 
BRANCH  19  20
HETATM   20  N6  UNL     1      -3.377  11.997 126.296  1.00  0.00     0.097 N 
BRANCH  20  21
HETATM   21  C9  UNL     1      -2.756  10.947 127.049  1.00  0.00     0.341 C 
BRANCH  21  22
HETATM   22  C10 UNL     1      -1.275  11.057 127.125  1.00  0.00     0.261 C 
HETATM   23  O1  UNL     1      -0.492  10.225 126.746  1.00  0.00    -0.305 OA
ENDBRANCH  21  22
ENDBRANCH  20  21
BRANCH  20  24
HETATM   24  C11 UNL     1      -3.639  13.179 127.053  1.00  0.00     0.286 C 
BRANCH  24  25
HETATM   25  C12 UNL     1      -4.246  12.953 128.417  1.00  0.00     0.176 C 
BRANCH  25  26
HETATM   26  P1  UNL     1      -4.905  14.379 129.090  1.00  0.00     0.261 P 
HETATM   27  O2  UNL     1      -5.573  15.584 128.120  1.00  0.00    -0.640 OA
HETATM   28  O3  UNL     1      -6.323  13.920 129.431  1.00  0.00    -0.640 OA
HETATM   29  O4  UNL     1      -4.656  14.758 130.707  1.00  0.00    -0.640 OA
ENDBRANCH  25  26
ENDBRANCH  24  25
ENDBRANCH  20  24
ENDBRANCH  19  20
ENDBRANCH  18  19
ENDBRANCH   1  18
BRANCH   1  30
HETATM   30  C13 UNL     1      -4.141   9.795 122.760  1.00  0.00     0.286 C 
BRANCH  30  31
HETATM   31  C14 UNL     1      -4.693   8.452 122.241  1.00  0.00     0.176 C 
BRANCH  31  32
HETATM   32  P2  UNL     1      -3.641   7.172 122.696  1.00  0.00     0.261 P 
HETATM   33  O5  UNL     1      -3.574   5.768 121.778  1.00  0.00    -0.640 OA
HETATM   34  O6  UNL     1      -2.596   7.330 123.989  1.00  0.00    -0.640 OA
HETATM   35  O7  UNL     1      -4.627   6.422 123.620  1.00  0.00    -0.640 OA
ENDBRANCH  31  32
ENDBRANCH  30  31
ENDBRANCH   1  30
TORSDOF 14
ENDMDL
