MODEL 3
REMARK VINA RESULT: -7.880041086      0.900      2.099
REMARK  14 active torsions:
REMARK  status: ('A' for Active; 'I' for Inactive)
REMARK    1  A    between atoms: N4_10  and  C5_11 
REMARK    2  A    between atoms: C5_11  and  C6_12 
REMARK    3  A    between atoms: C6_12  and  N5_13 
REMARK    4  A    between atoms: N5_13  and  C7_14 
REMARK    5  A    between atoms: N5_13  and  C13_26 
REMARK    6  A    between atoms: C7_14  and  C8_15 
REMARK    7  A    between atoms: C8_15  and  N6_16 
REMARK    8  A    between atoms: N6_16  and  C9_17 
REMARK    9  A    between atoms: N6_16  and  C11_20 
REMARK   10  A    between atoms: C9_17  and  C10_18 
REMARK   11  A    between atoms: C11_20  and  C12_21 
REMARK   12  A    between atoms: C12_21  and  P1_22 
REMARK   13  A    between atoms: C13_26  and  C14_27 
REMARK   14  A    between atoms: C14_27  and  P2_28 
ROOT
HETATM    1  N5  UNL     1      -4.962  10.197 123.464  1.00  0.00     0.092 N 
ENDROOT
BRANCH   1   2
HETATM    2  C6  UNL     1      -5.348  11.535 123.264  1.00  0.00     0.292 C 
BRANCH   2   3
HETATM    3  C5  UNL     1      -4.739  12.258 122.118  1.00  0.00     0.161 C 
BRANCH   3   4
HETATM    4  N4  UNL     1      -5.514  13.466 121.886  1.00  0.00    -0.326 N 
HETATM    5  C2  UNL     1      -5.056  14.731 121.897  1.00  0.00     0.143 A 
HETATM    6  N2  UNL     1      -3.786  15.162 122.125  1.00  0.00    -0.314 N 
HETATM    7  C3  UNL     1      -6.090  15.604 121.633  1.00  0.00     0.146 A 
HETATM    8  C1  UNL     1      -3.509  16.491 122.096  1.00  0.00     0.196 A 
ATOM      9  H2  UNL     1      -3.045  14.489 122.316  1.00  0.00     0.170 HD
HETATM   10  N1  UNL     1      -2.213  16.998 122.325  1.00  0.00    -0.063 NA
HETATM   11  N7  UNL     1      -4.524  17.336 121.838  1.00  0.00    -0.295 N 
HETATM   12  C15 UNL     1      -5.783  16.950 121.609  1.00  0.00     0.278 A 
ATOM     13  H7  UNL     1      -4.320  18.335 121.815  1.00  0.00     0.171 HD
HETATM   14  O8  UNL     1      -6.733  17.739 121.368  1.00  0.00    -0.265 OA
HETATM   15  N3  UNL     1      -7.186  14.851 121.460  1.00  0.00    -0.345 N 
HETATM   16  C4  UNL     1      -6.827  13.563 121.615  1.00  0.00     0.185 A 
ATOM     17  H3  UNL     1      -8.123  15.193 121.250  1.00  0.00     0.167 HD
ENDBRANCH   3   4
ENDBRANCH   2   3
ENDBRANCH   1   2
BRANCH   1  18
HETATM   18  C7  UNL     1      -4.494  10.076 124.854  1.00  0.00     0.302 C 
BRANCH  18  19
HETATM   19  C8  UNL     1      -4.866  11.309 125.646  1.00  0.00     0.303 C 
BRANCH  19  20
HETATM   20  N6  UNL     1      -3.630  11.913 126.179  1.00  0.00     0.097 N 
BRANCH  20  21
HETATM   21  C9  UNL     1      -3.007  10.934 127.020  1.00  0.00     0.341 C 
BRANCH  21  22
HETATM   22  C10 UNL     1      -1.537  11.106 127.158  1.00  0.00     0.261 C 
HETATM   23  O1  UNL     1      -0.699  10.399 126.661  1.00  0.00    -0.305 OA
ENDBRANCH  21  22
ENDBRANCH  20  21
BRANCH  20  24
HETATM   24  C11 UNL     1      -4.010  13.108 126.862  1.00  0.00     0.286 C 
BRANCH  24  25
HETATM   25  C12 UNL     1      -4.479  12.920 128.286  1.00  0.00     0.176 C 
BRANCH  25  26
HETATM   26  P1  UNL     1      -4.978  14.382 129.016  1.00  0.00     0.261 P 
HETATM   27  O2  UNL     1      -5.590  15.658 128.102  1.00  0.00    -0.640 OA
HETATM   28  O3  UNL     1      -6.409  14.037 129.425  1.00  0.00    -0.640 OA
HETATM   29  O4  UNL     1      -4.613  14.706 130.622  1.00  0.00    -0.640 OA
ENDBRANCH  25  26
ENDBRANCH  24  25
ENDBRANCH  20  24
ENDBRANCH  19  20
ENDBRANCH  18  19
ENDBRANCH   1  18
BRANCH   1  30
HETATM   30  C13 UNL     1      -3.955   9.667 122.622  1.00  0.00     0.286 C 
BRANCH  30  31
HETATM   31  C14 UNL     1      -4.456   8.335 122.025  1.00  0.00     0.176 C 
BRANCH  31  32
HETATM   32  P2  UNL     1      -3.516   7.033 122.632  1.00  0.00     0.261 P 
HETATM   33  O5  UNL     1      -3.540   5.541 121.860  1.00  0.00    -0.640 OA
HETATM   34  O6  UNL     1      -2.486   7.241 123.931  1.00  0.00    -0.640 OA
HETATM   35  O7  UNL     1      -4.574   6.456 123.600  1.00  0.00    -0.640 OA
ENDBRANCH  31  32
ENDBRANCH  30  31
ENDBRANCH   1  30
TORSDOF 14
ENDMDL
