MODEL 2
REMARK VINA RESULT: -7.543207714      1.304      2.409
REMARK  10 active torsions:
REMARK  status: ('A' for Active; 'I' for Inactive)
REMARK    1  A    between atoms: C1_6  and  O3_7 
REMARK    2  A    between atoms: C5_12  and  N2_13 
REMARK    3  A    between atoms: C7_15  and  C8_16 
REMARK    4  A    between atoms: C8_16  and  O4_17 
REMARK    5  A    between atoms: O4_17  and  C9_18 
REMARK    6  A    between atoms: C10_20  and  C11_21 
REMARK    7  A    between atoms: C11_21  and  O6_22 
REMARK    8  A    between atoms: C12_24  and  O7_25 
REMARK    9  A    between atoms: C13_27  and  O8_28 
REMARK   10  A    between atoms: C14_30  and  O9_31 
ROOT
HETATM    1  N2  UNL     1      -0.463   5.885  82.437  1.00  0.00    -0.249 N 
HETATM    2  C6  UNL     1      -0.075   5.468  81.212  1.00  0.00     0.142 A 
HETATM    3  C7  UNL     1       0.285   6.545  80.431  1.00  0.00     0.065 A 
HETATM    4  N3  UNL     1       0.103   7.617  81.224  1.00  0.00    -0.284 N 
ATOM      5  H3  UNL     1       0.277   8.587  80.962  1.00  0.00     0.184 HD
HETATM    6  N4  UNL     1      -0.342   7.201  82.410  1.00  0.00    -0.015 NA
ENDROOT
BRANCH   3   7
HETATM    7  C8  UNL     1       0.767   6.486  79.027  1.00  0.00     0.230 C 
BRANCH   7   8
HETATM    8  O4  UNL     1       2.105   6.566  78.893  1.00  0.00    -0.353 OA
BRANCH   8   9
HETATM    9  C9  UNL     1       2.838   5.442  78.799  1.00  0.00     0.291 C 
HETATM   10  O5  UNL     1       3.051   4.959  80.113  1.00  0.00    -0.348 OA
HETATM   11  C10 UNL     1       3.837   5.922  80.741  1.00  0.00     0.179 C 
HETATM   12  C12 UNL     1       5.279   5.603  80.410  1.00  0.00     0.180 C 
HETATM   13  C13 UNL     1       5.287   4.993  79.023  1.00  0.00     0.183 C 
HETATM   14  C14 UNL     1       4.178   5.550  78.151  1.00  0.00     0.204 C 
BRANCH  11  15
HETATM   15  C11 UNL     1       3.601   5.943  82.235  1.00  0.00     0.198 C 
BRANCH  15  16
HETATM   16  O6  UNL     1       3.145   4.681  82.596  1.00  0.00    -0.398 OA
ATOM     17  H6  UNL     1       2.827   4.742  83.489  1.00  0.00     0.209 HD
ENDBRANCH  15  16
ENDBRANCH  11  15
BRANCH  12  18
HETATM   18  O7  UNL     1       5.679   4.577  81.290  1.00  0.00    -0.390 OA
ATOM     19  H7  UNL     1       5.188   3.801  81.044  1.00  0.00     0.210 HD
ENDBRANCH  12  18
BRANCH  13  20
HETATM   20  O8  UNL     1       6.499   5.247  78.370  1.00  0.00    -0.390 OA
ATOM     21  H8  UNL     1       6.349   5.601  77.502  1.00  0.00     0.210 HD
ENDBRANCH  13  20
BRANCH  14  22
HETATM   22  O9  UNL     1       4.210   4.790  76.964  1.00  0.00    -0.388 OA
ATOM     23  H9  UNL     1       4.677   5.261  76.283  1.00  0.00     0.210 HD
ENDBRANCH  14  22
ENDBRANCH   8   9
ENDBRANCH   7   8
ENDBRANCH   3   7
BRANCH   1  24
HETATM   24  C5  UNL     1      -0.914   5.083  83.543  1.00  0.00     0.055 A 
HETATM   25  C4  UNL     1      -1.805   5.581  84.474  1.00  0.00     0.032 A 
HETATM   26  C3  UNL     1      -2.242   4.823  85.534  1.00  0.00     0.015 A 
HETATM   27  C2  UNL     1      -1.785   3.516  85.691  1.00  0.00     0.014 A 
HETATM   28  C1  UNL     1      -2.130   2.569  86.763  1.00  0.00     0.264 C 
HETATM   29  C16 UNL     1      -0.905   3.030  84.768  1.00  0.00     0.092 A 
HETATM   30  N1  UNL     1      -2.061   1.216  86.250  1.00  0.00    -0.284 N 
HETATM   31  S1  UNL     1      -0.590   1.379  85.301  1.00  0.00     0.261 S 
ATOM     32  H1  UNL     1      -2.677   0.416  86.394  1.00  0.00     0.175 HD
HETATM   33  O1  UNL     1      -0.550   0.419  84.184  1.00  0.00    -0.200 OA
HETATM   34  O2  UNL     1       0.612   1.396  86.163  1.00  0.00    -0.200 OA
HETATM   35  C15 UNL     1      -0.482   3.791  83.723  1.00  0.00     0.057 A 
BRANCH  28  36
HETATM   36  O3  UNL     1      -1.193   2.687  87.796  1.00  0.00    -0.372 OA
ATOM     37  H3  UNL     1      -1.332   1.970  88.403  1.00  0.00     0.212 HD
ENDBRANCH  28  36
ENDBRANCH   1  24
TORSDOF 10
ENDMDL
