MODEL 1
REMARK VINA RESULT: -7.733635175      0.000      0.000
REMARK  10 active torsions:
REMARK  status: ('A' for Active; 'I' for Inactive)
REMARK    1  A    between atoms: C1_6  and  O3_7 
REMARK    2  A    between atoms: C5_12  and  N2_13 
REMARK    3  A    between atoms: C7_15  and  C8_16 
REMARK    4  A    between atoms: C8_16  and  O4_17 
REMARK    5  A    between atoms: O4_17  and  C9_18 
REMARK    6  A    between atoms: C10_20  and  C11_21 
REMARK    7  A    between atoms: C11_21  and  O6_22 
REMARK    8  A    between atoms: C12_24  and  O7_25 
REMARK    9  A    between atoms: C13_27  and  O8_28 
REMARK   10  A    between atoms: C14_30  and  O9_31 
ROOT
HETATM    1  N2  UNL     1      -0.503   6.038  82.692  1.00  0.00    -0.249 N 
HETATM    2  C6  UNL     1       0.763   6.423  82.417  1.00  0.00     0.142 A 
HETATM    3  C7  UNL     1       0.784   7.241  81.308  1.00  0.00     0.065 A 
HETATM    4  N3  UNL     1      -0.504   7.335  80.930  1.00  0.00    -0.284 N 
ATOM      5  H3  UNL     1      -0.852   7.871  80.135  1.00  0.00     0.184 HD
HETATM    6  N4  UNL     1      -1.249   6.612  81.766  1.00  0.00    -0.015 NA
ENDROOT
BRANCH   3   7
HETATM    7  C8  UNL     1       1.990   7.862  80.702  1.00  0.00     0.230 C 
BRANCH   7   8
HETATM    8  O4  UNL     1       2.790   7.000  80.044  1.00  0.00    -0.353 OA
BRANCH   8   9
HETATM    9  C9  UNL     1       2.253   5.963  79.377  1.00  0.00     0.291 C 
HETATM   10  O5  UNL     1       3.289   5.031  79.125  1.00  0.00    -0.348 OA
HETATM   11  C10 UNL     1       4.169   5.678  78.261  1.00  0.00     0.179 C 
HETATM   12  C12 UNL     1       3.652   5.455  76.855  1.00  0.00     0.180 C 
HETATM   13  C13 UNL     1       2.142   5.386  76.947  1.00  0.00     0.183 C 
HETATM   14  C14 UNL     1       1.602   6.255  78.067  1.00  0.00     0.204 C 
BRANCH  11  15
HETATM   15  C11 UNL     1       5.583   5.166  78.421  1.00  0.00     0.198 C 
BRANCH  15  16
HETATM   16  O6  UNL     1       5.507   3.961  79.109  1.00  0.00    -0.398 OA
ATOM     17  H6  UNL     1       5.119   4.146  79.956  1.00  0.00     0.209 HD
ENDBRANCH  15  16
ENDBRANCH  11  15
BRANCH  12  18
HETATM   18  O7  UNL     1       4.079   4.169  76.467  1.00  0.00    -0.390 OA
ATOM     19  H7  UNL     1       4.240   4.207  75.531  1.00  0.00     0.210 HD
ENDBRANCH  12  18
BRANCH  13  20
HETATM   20  O8  UNL     1       1.546   5.821  75.757  1.00  0.00    -0.390 OA
ATOM     21  H8  UNL     1       0.955   5.163  75.412  1.00  0.00     0.210 HD
ENDBRANCH  13  20
BRANCH  14  22
HETATM   22  O9  UNL     1       0.221   5.974  78.133  1.00  0.00    -0.388 OA
ATOM     23  H9  UNL     1      -0.159   5.977  77.261  1.00  0.00     0.210 HD
ENDBRANCH  14  22
ENDBRANCH   8   9
ENDBRANCH   7   8
ENDBRANCH   3   7
BRANCH   1  24
HETATM   24  C5  UNL     1      -0.956   5.187  83.760  1.00  0.00     0.055 A 
HETATM   25  C4  UNL     1      -1.853   5.641  84.708  1.00  0.00     0.032 A 
HETATM   26  C3  UNL     1      -2.293   4.836  85.732  1.00  0.00     0.015 A 
HETATM   27  C2  UNL     1      -1.832   3.525  85.834  1.00  0.00     0.014 A 
HETATM   28  C1  UNL     1      -2.179   2.530  86.862  1.00  0.00     0.264 C 
HETATM   29  C16 UNL     1      -0.946   3.082  84.895  1.00  0.00     0.092 A 
HETATM   30  N1  UNL     1      -2.103   1.202  86.291  1.00  0.00    -0.284 N 
HETATM   31  S1  UNL     1      -0.628   1.411  85.357  1.00  0.00     0.261 S 
ATOM     32  H1  UNL     1      -2.716   0.394  86.396  1.00  0.00     0.175 HD
HETATM   33  O1  UNL     1      -0.579   0.501  84.199  1.00  0.00    -0.200 OA
HETATM   34  O2  UNL     1       0.570   1.394  86.225  1.00  0.00    -0.200 OA
HETATM   35  C15 UNL     1      -0.520   3.890  83.887  1.00  0.00     0.057 A 
BRANCH  28  36
HETATM   36  O3  UNL     1      -1.248   2.607  87.904  1.00  0.00    -0.372 OA
ATOM     37  H3  UNL     1      -1.724   2.596  88.725  1.00  0.00     0.212 HD
ENDBRANCH  28  36
ENDBRANCH   1  24
TORSDOF 10
ENDMDL
