MODEL 3
REMARK VINA RESULT: -7.454843374      1.239      2.410
REMARK  10 active torsions:
REMARK  status: ('A' for Active; 'I' for Inactive)
REMARK    1  A    between atoms: C1_6  and  O3_7 
REMARK    2  A    between atoms: C5_12  and  N2_13 
REMARK    3  A    between atoms: C7_15  and  C8_16 
REMARK    4  A    between atoms: C8_16  and  O4_17 
REMARK    5  A    between atoms: O4_17  and  C9_18 
REMARK    6  A    between atoms: C10_20  and  C11_21 
REMARK    7  A    between atoms: C11_21  and  O6_22 
REMARK    8  A    between atoms: C12_24  and  O7_25 
REMARK    9  A    between atoms: C13_27  and  O8_28 
REMARK   10  A    between atoms: C14_30  and  O9_31 
ROOT
HETATM    1  N2  UNL     1      -0.636   6.121  82.853  1.00  0.00    -0.249 N 
HETATM    2  C6  UNL     1       0.204   5.874  81.824  1.00  0.00     0.142 A 
HETATM    3  C7  UNL     1       0.354   7.002  81.048  1.00  0.00     0.065 A 
HETATM    4  N3  UNL     1      -0.418   7.930  81.642  1.00  0.00    -0.284 N 
ATOM      5  H3  UNL     1      -0.540   8.892  81.327  1.00  0.00     0.184 HD
HETATM    6  N4  UNL     1      -0.996   7.384  82.712  1.00  0.00    -0.015 NA
ENDROOT
BRANCH   3   7
HETATM    7  C8  UNL     1       1.198   7.121  79.830  1.00  0.00     0.230 C 
BRANCH   7   8
HETATM    8  O4  UNL     1       2.214   6.239  79.769  1.00  0.00    -0.353 OA
BRANCH   8   9
HETATM    9  C9  UNL     1       3.462   6.631  80.085  1.00  0.00     0.291 C 
HETATM   10  O5  UNL     1       4.207   6.703  78.883  1.00  0.00    -0.348 OA
HETATM   11  C10 UNL     1       4.283   5.395  78.413  1.00  0.00     0.179 C 
HETATM   12  C12 UNL     1       5.474   4.750  79.090  1.00  0.00     0.180 C 
HETATM   13  C13 UNL     1       5.588   5.372  80.466  1.00  0.00     0.183 C 
HETATM   14  C14 UNL     1       4.234   5.767  81.025  1.00  0.00     0.204 C 
BRANCH  11  15
HETATM   15  C11 UNL     1       4.409   5.351  76.906  1.00  0.00     0.198 C 
BRANCH  15  16
HETATM   16  O6  UNL     1       4.582   4.020  76.548  1.00  0.00    -0.398 OA
ATOM     17  H6  UNL     1       5.499   3.907  76.324  1.00  0.00     0.209 HD
ENDBRANCH  15  16
ENDBRANCH  11  15
BRANCH  12  18
HETATM   18  O7  UNL     1       6.617   5.164  78.378  1.00  0.00    -0.390 OA
ATOM     19  H7  UNL     1       7.370   4.897  78.893  1.00  0.00     0.210 HD
ENDBRANCH  12  18
BRANCH  13  20
HETATM   20  O8  UNL     1       6.170   4.480  81.375  1.00  0.00    -0.390 OA
ATOM     21  H8  UNL     1       5.615   3.722  81.510  1.00  0.00     0.210 HD
ENDBRANCH  13  20
BRANCH  14  22
HETATM   22  O9  UNL     1       4.504   6.464  82.221  1.00  0.00    -0.388 OA
ATOM     23  H9  UNL     1       3.697   6.782  82.608  1.00  0.00     0.210 HD
ENDBRANCH  14  22
ENDBRANCH   8   9
ENDBRANCH   7   8
ENDBRANCH   3   7
BRANCH   1  24
HETATM   24  C5  UNL     1      -1.058   5.214  83.888  1.00  0.00     0.055 A 
HETATM   25  C4  UNL     1      -1.968   5.601  84.853  1.00  0.00     0.032 A 
HETATM   26  C3  UNL     1      -2.377   4.742  85.846  1.00  0.00     0.015 A 
HETATM   27  C2  UNL     1      -1.872   3.446  85.898  1.00  0.00     0.014 A 
HETATM   28  C1  UNL     1      -2.182   2.401  86.887  1.00  0.00     0.264 C 
HETATM   29  C16 UNL     1      -0.973   3.069  84.941  1.00  0.00     0.092 A 
HETATM   30  N1  UNL     1      -2.062   1.099  86.265  1.00  0.00    -0.284 N 
HETATM   31  S1  UNL     1      -0.597   1.393  85.340  1.00  0.00     0.261 S 
ATOM     32  H1  UNL     1      -2.647   0.267  86.341  1.00  0.00     0.175 HD
HETATM   33  O1  UNL     1      -0.519   0.530  84.147  1.00  0.00    -0.200 OA
HETATM   34  O2  UNL     1       0.603   1.385  86.205  1.00  0.00    -0.200 OA
HETATM   35  C15 UNL     1      -0.577   3.929  83.964  1.00  0.00     0.057 A 
BRANCH  28  36
HETATM   36  O3  UNL     1      -1.251   2.470  87.930  1.00  0.00    -0.372 OA
ATOM     37  H3  UNL     1      -1.613   2.010  88.678  1.00  0.00     0.212 HD
ENDBRANCH  28  36
ENDBRANCH   1  24
TORSDOF 10
ENDMDL
