MODEL 4
REMARK VINA RESULT: -6.019487819      1.765      2.132
REMARK  1 active torsions:
REMARK  status: ('A' for Active; 'I' for Inactive)
REMARK    1  A    between atoms: C1_6  and  O3_7 
ROOT
HETATM    1  O1  UNL     1      -3.643   1.001  87.359  1.00  0.00    -0.200 OA
HETATM    2  S1  UNL     1      -2.195   1.289  87.370  1.00  0.00     0.261 S 
HETATM    3  O2  UNL     1      -1.543   1.275  88.681  1.00  0.00    -0.200 OA
HETATM    4  N1  UNL     1      -1.394   0.246  86.208  1.00  0.00    -0.284 N 
ATOM      5  H1  UNL     1      -1.586  -0.732  85.995  1.00  0.00     0.175 HD
HETATM    6  C1  UNL     1      -0.394   1.119  85.625  1.00  0.00     0.264 C 
HETATM    7  C2  UNL     1      -0.908   2.489  85.583  1.00  0.00     0.014 A 
HETATM    8  C3  UNL     1      -0.486   3.529  84.728  1.00  0.00     0.013 A 
HETATM    9  C4  UNL     1      -1.076   4.764  84.826  1.00  0.00     0.001 A 
HETATM   10  C5  UNL     1      -2.077   5.037  85.736  1.00  0.00     0.002 A 
HETATM   11  C6  UNL     1      -2.498   4.038  86.572  1.00  0.00     0.026 A 
HETATM   12  C7  UNL     1      -1.899   2.788  86.472  1.00  0.00     0.090 A 
ENDROOT
BRANCH   6  13
HETATM   13  O3  UNL     1      -0.084   0.701  84.333  1.00  0.00    -0.372 OA
ATOM     14  H3  UNL     1       0.706   1.133  84.028  1.00  0.00     0.212 HD
ENDBRANCH   6  13
TORSDOF 1
ENDMDL
