MODEL 17
REMARK VINA RESULT: -4.956315648      2.633      3.111
REMARK  1 active torsions:
REMARK  status: ('A' for Active; 'I' for Inactive)
REMARK    1  A    between atoms: C1_6  and  O3_7 
ROOT
HETATM    1  O1  UNL     1      -0.530   2.119  81.799  1.00  0.00    -0.200 OA
HETATM    2  S1  UNL     1       0.036   3.224  82.599  1.00  0.00     0.261 S 
HETATM    3  O2  UNL     1       1.490   3.214  82.778  1.00  0.00    -0.200 OA
HETATM    4  N1  UNL     1      -0.554   4.751  81.965  1.00  0.00    -0.284 N 
ATOM      5  H1  UNL     1      -0.700   5.020  80.992  1.00  0.00     0.175 HD
HETATM    6  C1  UNL     1      -0.781   5.533  83.163  1.00  0.00     0.264 C 
HETATM    7  C2  UNL     1      -1.204   4.647  84.250  1.00  0.00     0.014 A 
HETATM    8  C3  UNL     1      -1.936   5.005  85.403  1.00  0.00     0.013 A 
HETATM    9  C4  UNL     1      -2.245   4.043  86.330  1.00  0.00     0.001 A 
HETATM   10  C5  UNL     1      -1.867   2.723  86.184  1.00  0.00     0.002 A 
HETATM   11  C6  UNL     1      -1.158   2.361  85.071  1.00  0.00     0.026 A 
HETATM   12  C7  UNL     1      -0.844   3.337  84.133  1.00  0.00     0.090 A 
ENDROOT
BRANCH   6  13
HETATM   13  O3  UNL     1      -1.769   6.489  82.935  1.00  0.00    -0.372 OA
ATOM     14  H3  UNL     1      -2.148   6.773  83.759  1.00  0.00     0.212 HD
ENDBRANCH   6  13
TORSDOF 1
ENDMDL
