MODEL 14
REMARK VINA RESULT: -5.141375806      3.522      4.591
REMARK  1 active torsions:
REMARK  status: ('A' for Active; 'I' for Inactive)
REMARK    1  A    between atoms: C1_6  and  O3_7 
ROOT
HETATM    1  O1  UNL     1       0.039   8.051  84.732  1.00  0.00    -0.200 OA
HETATM    2  S1  UNL     1       0.189   6.807  83.951  1.00  0.00     0.261 S 
HETATM    3  O2  UNL     1      -0.222   6.873  82.546  1.00  0.00    -0.200 OA
HETATM    4  N1  UNL     1       1.824   6.201  84.146  1.00  0.00    -0.284 N 
ATOM      5  H1  UNL     1       2.696   6.728  84.193  1.00  0.00     0.175 HD
HETATM    6  C1  UNL     1       1.631   4.766  84.223  1.00  0.00     0.264 C 
HETATM    7  C2  UNL     1       0.351   4.483  84.877  1.00  0.00     0.014 A 
HETATM    8  C3  UNL     1      -0.017   3.294  85.542  1.00  0.00     0.013 A 
HETATM    9  C4  UNL     1      -1.267   3.193  86.099  1.00  0.00     0.001 A 
HETATM   10  C5  UNL     1      -2.191   4.216  86.035  1.00  0.00     0.002 A 
HETATM   11  C6  UNL     1      -1.848   5.375  85.394  1.00  0.00     0.026 A 
HETATM   12  C7  UNL     1      -0.582   5.476  84.830  1.00  0.00     0.090 A 
ENDROOT
BRANCH   6  13
HETATM   13  O3  UNL     1       2.663   4.180  84.952  1.00  0.00    -0.372 OA
ATOM     14  H3  UNL     1       2.431   4.133  85.872  1.00  0.00     0.212 HD
ENDBRANCH   6  13
TORSDOF 1
ENDMDL
