MODEL 8
REMARK VINA RESULT: -7.506032862      1.776      3.018
REMARK  5 active torsions:
REMARK  status: ('A' for Active; 'I' for Inactive)
REMARK    1  A    between atoms: O1_2  and  C2_3 
REMARK    2  A    between atoms: N1_6  and  C5_7 
REMARK    3  A    between atoms: C8_12  and  N3_13 
REMARK    4  A    between atoms: N3_13  and  C9_15 
REMARK    5  A    between atoms: N4_21  and  C15_22 
ROOT
HETATM    1  N3  UNL     1     -52.871   1.434 -23.256  1.00  0.00    -0.328 N 
ATOM      2  H3  UNL     1     -52.885   2.316 -23.767  1.00  0.00     0.169 HD
ENDROOT
BRANCH   1   3
HETATM    3  C8  UNL     1     -52.908   1.515 -21.861  1.00  0.00     0.123 A 
HETATM    4  C7  UNL     1     -53.817   2.251 -21.169  1.00  0.00     0.067 A 
HETATM    5  C6  UNL     1     -53.787   2.277 -19.783  1.00  0.00     0.110 A 
HETATM    6  N2  UNL     1     -52.855   1.570 -19.144  1.00  0.00    -0.202 N 
HETATM    7  C5  UNL     1     -51.951   0.838 -19.805  1.00  0.00     0.681 A 
ATOM      8  H2  UNL     1     -52.830   1.588 -18.125  1.00  0.00     0.183 HD
HETATM    9  N6  UNL     1     -51.986   0.818 -21.123  1.00  0.00    -0.176 N 
ATOM     10  H6  UNL     1     -51.293   0.257 -21.618  1.00  0.00     0.186 HD
BRANCH   7  11
HETATM   11  N1  UNL     1     -50.954   0.081 -19.077  1.00  0.00    -0.217 N 
HETATM   12  C4  UNL     1     -49.761  -0.405 -19.733  1.00  0.00     0.143 C 
HETATM   13  C3  UNL     1     -49.715  -1.889 -19.629  1.00  0.00     0.052 C 
HETATM   14  C2  UNL     1     -50.592  -2.488 -18.589  1.00  0.00     0.123 C 
HETATM   15  C22 UNL     1     -50.789  -1.653 -17.370  1.00  0.00     0.052 C 
HETATM   16  C21 UNL     1     -51.118  -0.214 -17.674  1.00  0.00     0.143 C 
BRANCH  14  17
HETATM   17  O1  UNL     1     -51.850  -2.851 -19.073  1.00  0.00    -0.391 OA
HETATM   18  C1  UNL     1     -51.821  -3.244 -20.395  1.00  0.00     0.202 C 
ENDBRANCH  14  17
ENDBRANCH   7  11
ENDBRANCH   1   3
BRANCH   1  19
HETATM   19  C9  UNL     1     -52.819   0.273 -24.017  1.00  0.00     0.108 A 
HETATM   20  C10 UNL     1     -51.817  -0.668 -23.691  1.00  0.00     0.079 A 
HETATM   21  C11 UNL     1     -51.731  -1.832 -24.419  1.00  0.00     0.050 A 
HETATM   22  C12 UNL     1     -52.618  -2.049 -25.441  1.00  0.00     0.008 A 
HETATM   23  N4  UNL     1     -50.881  -2.901 -24.330  1.00  0.00    -0.351 N 
HETATM   24  C13 UNL     1     -52.320  -3.268 -25.998  1.00  0.00     0.032 A 
HETATM   25  C20 UNL     1     -53.608  -1.131 -25.771  1.00  0.00     0.103 A 
HETATM   26  C14 UNL     1     -51.242  -3.751 -25.278  1.00  0.00     0.092 A 
HETATM   27  N5  UNL     1     -53.645  -0.015 -25.030  1.00  0.00    -0.351 N 
ATOM     28  H5  UNL     1     -54.364   0.672 -25.257  1.00  0.00     0.166 HD
BRANCH  23  29
HETATM   29  C15 UNL     1     -49.834  -2.989 -23.364  1.00  0.00     0.089 C 
HETATM   30  C16 UNL     1     -49.326  -4.389 -23.132  1.00  0.00     0.026 C 
HETATM   31  C17 UNL     1     -48.029  -4.140 -22.363  1.00  0.00     0.002 C 
HETATM   32  C18 UNL     1     -47.606  -2.730 -22.689  1.00  0.00     0.002 C 
HETATM   33  C19 UNL     1     -48.556  -2.281 -23.809  1.00  0.00     0.026 C 
ENDBRANCH  23  29
ENDBRANCH   1  19
TORSDOF 5
ENDMDL
