MODEL 3
REMARK VINA RESULT: -7.662536408      1.996      5.766
REMARK  5 active torsions:
REMARK  status: ('A' for Active; 'I' for Inactive)
REMARK    1  A    between atoms: O1_2  and  C2_3 
REMARK    2  A    between atoms: N1_6  and  C5_7 
REMARK    3  A    between atoms: C8_12  and  N3_13 
REMARK    4  A    between atoms: N3_13  and  C9_15 
REMARK    5  A    between atoms: N4_21  and  C15_22 
ROOT
HETATM    1  N3  UNL     1     -54.323   2.079 -22.323  1.00  0.00    -0.328 N 
ATOM      2  H3  UNL     1     -54.839   2.951 -22.212  1.00  0.00     0.169 HD
ENDROOT
BRANCH   1   3
HETATM    3  C8  UNL     1     -54.486   1.402 -23.535  1.00  0.00     0.123 A 
HETATM    4  C7  UNL     1     -55.543   1.587 -24.370  1.00  0.00     0.067 A 
HETATM    5  C6  UNL     1     -55.630   0.876 -25.558  1.00  0.00     0.110 A 
HETATM    6  N2  UNL     1     -54.663   0.011 -25.864  1.00  0.00    -0.202 N 
HETATM    7  C5  UNL     1     -53.614  -0.187 -25.057  1.00  0.00     0.681 A 
ATOM      8  H2  UNL     1     -54.725  -0.513 -26.736  1.00  0.00     0.183 HD
HETATM    9  N6  UNL     1     -53.538   0.493 -23.931  1.00  0.00    -0.176 N 
ATOM     10  H6  UNL     1     -52.735   0.335 -23.322  1.00  0.00     0.186 HD
BRANCH   7  11
HETATM   11  N1  UNL     1     -52.582  -1.134 -25.425  1.00  0.00    -0.217 N 
HETATM   12  C4  UNL     1     -51.490  -0.748 -26.289  1.00  0.00     0.143 C 
HETATM   13  C3  UNL     1     -51.502  -1.604 -27.506  1.00  0.00     0.052 C 
HETATM   14  C2  UNL     1     -52.291  -2.860 -27.400  1.00  0.00     0.123 C 
HETATM   15  C22 UNL     1     -52.318  -3.478 -26.045  1.00  0.00     0.052 C 
HETATM   16  C21 UNL     1     -52.610  -2.494 -24.941  1.00  0.00     0.143 C 
BRANCH  14  17
HETATM   17  O1  UNL     1     -53.609  -2.720 -27.839  1.00  0.00    -0.391 OA
HETATM   18  C1  UNL     1     -53.746  -1.759 -28.819  1.00  0.00     0.202 C 
ENDBRANCH  14  17
ENDBRANCH   7  11
ENDBRANCH   1   3
BRANCH   1  19
HETATM   19  C9  UNL     1     -53.529   1.683 -21.255  1.00  0.00     0.108 A 
HETATM   20  C10 UNL     1     -52.350   0.966 -21.557  1.00  0.00     0.079 A 
HETATM   21  C11 UNL     1     -51.534   0.557 -20.528  1.00  0.00     0.050 A 
HETATM   22  C12 UNL     1     -51.885   0.855 -19.236  1.00  0.00     0.008 A 
HETATM   23  N4  UNL     1     -50.356  -0.138 -20.521  1.00  0.00    -0.351 N 
HETATM   24  C13 UNL     1     -50.914   0.341 -18.413  1.00  0.00     0.032 A 
HETATM   25  C20 UNL     1     -53.042   1.561 -18.927  1.00  0.00     0.103 A 
HETATM   26  C14 UNL     1     -49.995  -0.262 -19.254  1.00  0.00     0.092 A 
HETATM   27  N5  UNL     1     -53.799   1.933 -19.967  1.00  0.00    -0.351 N 
ATOM     28  H5  UNL     1     -54.653   2.452 -19.761  1.00  0.00     0.166 HD
BRANCH  23  29
HETATM   29  C15 UNL     1     -49.715  -0.601 -21.710  1.00  0.00     0.089 C 
HETATM   30  C16 UNL     1     -48.252  -0.922 -21.536  1.00  0.00     0.026 C 
HETATM   31  C17 UNL     1     -47.937  -1.702 -22.812  1.00  0.00     0.002 C 
HETATM   32  C18 UNL     1     -49.252  -2.246 -23.311  1.00  0.00     0.002 C 
HETATM   33  C19 UNL     1     -50.256  -1.946 -22.190  1.00  0.00     0.026 C 
ENDBRANCH  23  29
ENDBRANCH   1  19
TORSDOF 5
ENDMDL
