MODEL 2
REMARK VINA RESULT: -7.689678786      1.250      5.425
REMARK  5 active torsions:
REMARK  status: ('A' for Active; 'I' for Inactive)
REMARK    1  A    between atoms: O1_2  and  C2_3 
REMARK    2  A    between atoms: N1_6  and  C5_7 
REMARK    3  A    between atoms: C8_12  and  N3_13 
REMARK    4  A    between atoms: N3_13  and  C9_15 
REMARK    5  A    between atoms: N4_21  and  C15_22 
ROOT
HETATM    1  N3  UNL     1     -53.828   1.951 -23.154  1.00  0.00    -0.328 N 
ATOM      2  H3  UNL     1     -53.995   2.942 -23.322  1.00  0.00     0.169 HD
ENDROOT
BRANCH   1   3
HETATM    3  C8  UNL     1     -54.132   1.075 -24.200  1.00  0.00     0.123 A 
HETATM    4  C7  UNL     1     -55.307   1.091 -24.883  1.00  0.00     0.067 A 
HETATM    5  C6  UNL     1     -55.531   0.187 -25.911  1.00  0.00     0.110 A 
HETATM    6  N2  UNL     1     -54.577  -0.693 -26.216  1.00  0.00    -0.202 N 
HETATM    7  C5  UNL     1     -53.413  -0.726 -25.557  1.00  0.00     0.681 A 
ATOM      8  H2  UNL     1     -54.740  -1.359 -26.971  1.00  0.00     0.183 HD
HETATM    9  N6  UNL     1     -53.208   0.136 -24.581  1.00  0.00    -0.176 N 
ATOM     10  H6  UNL     1     -52.318   0.104 -24.085  1.00  0.00     0.186 HD
BRANCH   7  11
HETATM   11  N1  UNL     1     -52.400  -1.695 -25.917  1.00  0.00    -0.217 N 
HETATM   12  C4  UNL     1     -52.762  -2.989 -26.450  1.00  0.00     0.143 C 
HETATM   13  C3  UNL     1     -52.233  -4.053 -25.555  1.00  0.00     0.052 C 
HETATM   14  C2  UNL     1     -51.161  -3.629 -24.616  1.00  0.00     0.123 C 
HETATM   15  C22 UNL     1     -50.260  -2.558 -25.127  1.00  0.00     0.052 C 
HETATM   16  C21 UNL     1     -50.996  -1.402 -25.756  1.00  0.00     0.143 C 
BRANCH  14  17
HETATM   17  O1  UNL     1     -51.648  -3.228 -23.371  1.00  0.00    -0.391 OA
HETATM   18  C1  UNL     1     -51.861  -4.288 -22.514  1.00  0.00     0.202 C 
ENDBRANCH  14  17
ENDBRANCH   7  11
ENDBRANCH   1   3
BRANCH   1  19
HETATM   19  C9  UNL     1     -53.321   1.607 -21.907  1.00  0.00     0.108 A 
HETATM   20  C10 UNL     1     -52.215   0.728 -21.880  1.00  0.00     0.079 A 
HETATM   21  C11 UNL     1     -51.681   0.364 -20.666  1.00  0.00     0.050 A 
HETATM   22  C12 UNL     1     -52.234   0.861 -19.515  1.00  0.00     0.008 A 
HETATM   23  N4  UNL     1     -50.632  -0.454 -20.341  1.00  0.00    -0.351 N 
HETATM   24  C13 UNL     1     -51.523   0.349 -18.458  1.00  0.00     0.032 A 
HETATM   25  C20 UNL     1     -53.321   1.726 -19.529  1.00  0.00     0.103 A 
HETATM   26  C14 UNL     1     -50.548  -0.455 -19.021  1.00  0.00     0.092 A 
HETATM   27  N5  UNL     1     -53.801   2.047 -20.738  1.00  0.00    -0.351 N 
ATOM     28  H5  UNL     1     -54.600   2.680 -20.770  1.00  0.00     0.166 HD
BRANCH  23  29
HETATM   29  C15 UNL     1     -49.840  -1.133 -21.315  1.00  0.00     0.089 C 
HETATM   30  C16 UNL     1     -48.598  -0.385 -21.729  1.00  0.00     0.026 C 
HETATM   31  C17 UNL     1     -47.801  -1.462 -22.465  1.00  0.00     0.002 C 
HETATM   32  C18 UNL     1     -48.312  -2.787 -21.960  1.00  0.00     0.002 C 
HETATM   33  C19 UNL     1     -49.238  -2.434 -20.788  1.00  0.00     0.026 C 
ENDBRANCH  23  29
ENDBRANCH   1  19
TORSDOF 5
ENDMDL
