MODEL 5
REMARK VINA RESULT: -7.566159327      3.836      6.724
REMARK  5 active torsions:
REMARK  status: ('A' for Active; 'I' for Inactive)
REMARK    1  A    between atoms: O1_2  and  C2_3 
REMARK    2  A    between atoms: N1_6  and  C5_7 
REMARK    3  A    between atoms: C8_12  and  N3_13 
REMARK    4  A    between atoms: N3_13  and  C9_15 
REMARK    5  A    between atoms: N4_21  and  C15_22 
ROOT
HETATM    1  N3  UNL     1     -51.791  -5.747 -24.180  1.00  0.00    -0.328 N 
ATOM      2  H3  UNL     1     -52.513  -6.298 -23.719  1.00  0.00     0.169 HD
ENDROOT
BRANCH   1   3
HETATM    3  C8  UNL     1     -50.521  -6.323 -24.270  1.00  0.00     0.123 A 
HETATM    4  C7  UNL     1     -50.069  -7.293 -23.432  1.00  0.00     0.067 A 
HETATM    5  C6  UNL     1     -48.793  -7.815 -23.589  1.00  0.00     0.110 A 
HETATM    6  N2  UNL     1     -48.023  -7.351 -24.573  1.00  0.00    -0.202 N 
HETATM    7  C5  UNL     1     -48.447  -6.397 -25.409  1.00  0.00     0.681 A 
ATOM      8  H2  UNL     1     -47.084  -7.733 -24.690  1.00  0.00     0.183 HD
HETATM    9  N6  UNL     1     -49.661  -5.906 -25.253  1.00  0.00    -0.176 N 
ATOM     10  H6  UNL     1     -49.976  -5.179 -25.896  1.00  0.00     0.186 HD
BRANCH   7  11
HETATM   11  N1  UNL     1     -47.582  -5.918 -26.467  1.00  0.00    -0.217 N 
HETATM   12  C4  UNL     1     -47.874  -4.689 -27.170  1.00  0.00     0.143 C 
HETATM   13  C3  UNL     1     -48.045  -4.983 -28.619  1.00  0.00     0.052 C 
HETATM   14  C2  UNL     1     -47.498  -6.286 -29.079  1.00  0.00     0.123 C 
HETATM   15  C22 UNL     1     -46.283  -6.754 -28.354  1.00  0.00     0.052 C 
HETATM   16  C21 UNL     1     -46.401  -6.651 -26.855  1.00  0.00     0.143 C 
BRANCH  14  17
HETATM   17  O1  UNL     1     -48.440  -7.316 -29.057  1.00  0.00    -0.391 OA
HETATM   18  C1  UNL     1     -48.139  -8.333 -29.940  1.00  0.00     0.202 C 
ENDBRANCH  14  17
ENDBRANCH   7  11
ENDBRANCH   1   3
BRANCH   1  19
HETATM   19  C9  UNL     1     -52.169  -4.498 -24.657  1.00  0.00     0.108 A 
HETATM   20  C10 UNL     1     -51.989  -3.395 -23.792  1.00  0.00     0.079 A 
HETATM   21  C11 UNL     1     -52.349  -2.140 -24.225  1.00  0.00     0.050 A 
HETATM   22  C12 UNL     1     -52.872  -1.991 -25.484  1.00  0.00     0.008 A 
HETATM   23  N4  UNL     1     -52.290  -0.915 -23.618  1.00  0.00    -0.351 N 
HETATM   24  C13 UNL     1     -53.143  -0.658 -25.665  1.00  0.00     0.032 A 
HETATM   25  C20 UNL     1     -53.053  -3.068 -26.344  1.00  0.00     0.103 A 
HETATM   26  C14 UNL     1     -52.766  -0.039 -24.487  1.00  0.00     0.092 A 
HETATM   27  N5  UNL     1     -52.686  -4.266 -25.870  1.00  0.00    -0.351 N 
ATOM     28  H5  UNL     1     -52.811  -5.070 -26.485  1.00  0.00     0.166 HD
BRANCH  23  29
HETATM   29  C15 UNL     1     -51.792  -0.723 -22.294  1.00  0.00     0.089 C 
HETATM   30  C16 UNL     1     -50.293  -0.587 -22.214  1.00  0.00     0.026 C 
HETATM   31  C17 UNL     1     -50.091  -0.051 -20.797  1.00  0.00     0.002 C 
HETATM   32  C18 UNL     1     -51.395   0.593 -20.398  1.00  0.00     0.002 C 
HETATM   33  C19 UNL     1     -52.241   0.601 -21.679  1.00  0.00     0.026 C 
ENDBRANCH  23  29
ENDBRANCH   1  19
TORSDOF 5
ENDMDL
