MODEL 7
REMARK VINA RESULT: -7.529959033      1.745      5.609
REMARK  5 active torsions:
REMARK  status: ('A' for Active; 'I' for Inactive)
REMARK    1  A    between atoms: O1_2  and  C2_3 
REMARK    2  A    between atoms: N1_6  and  C5_7 
REMARK    3  A    between atoms: C8_12  and  N3_13 
REMARK    4  A    between atoms: N3_13  and  C9_15 
REMARK    5  A    between atoms: N4_21  and  C15_22 
ROOT
HETATM    1  N3  UNL     1     -54.865   2.074 -22.953  1.00  0.00    -0.328 N 
ATOM      2  H3  UNL     1     -55.384   2.949 -23.015  1.00  0.00     0.169 HD
ENDROOT
BRANCH   1   3
HETATM    3  C8  UNL     1     -54.925   1.227 -24.063  1.00  0.00     0.123 A 
HETATM    4  C7  UNL     1     -56.069   0.947 -24.740  1.00  0.00     0.067 A 
HETATM    5  C6  UNL     1     -56.043   0.096 -25.836  1.00  0.00     0.110 A 
HETATM    6  N2  UNL     1     -54.881  -0.441 -26.209  1.00  0.00    -0.202 N 
HETATM    7  C5  UNL     1     -53.743  -0.179 -25.556  1.00  0.00     0.681 A 
ATOM      8  H2  UNL     1     -54.860  -1.067 -27.013  1.00  0.00     0.183 HD
HETATM    9  N6  UNL     1     -53.776   0.632 -24.517  1.00  0.00    -0.176 N 
ATOM     10  H6  UNL     1     -52.903   0.826 -24.026  1.00  0.00     0.186 HD
BRANCH   7  11
HETATM   11  N1  UNL     1     -52.499  -0.779 -25.992  1.00  0.00    -0.217 N 
HETATM   12  C4  UNL     1     -52.412  -1.480 -27.253  1.00  0.00     0.143 C 
HETATM   13  C3  UNL     1     -52.002  -2.889 -27.003  1.00  0.00     0.052 C 
HETATM   14  C2  UNL     1     -51.394  -3.154 -25.673  1.00  0.00     0.123 C 
HETATM   15  C22 UNL     1     -50.603  -2.028 -25.102  1.00  0.00     0.052 C 
HETATM   16  C21 UNL     1     -51.307  -0.697 -25.182  1.00  0.00     0.143 C 
BRANCH  14  17
HETATM   17  O1  UNL     1     -52.324  -3.560 -24.714  1.00  0.00    -0.391 OA
HETATM   18  C1  UNL     1     -52.743  -4.862 -24.894  1.00  0.00     0.202 C 
ENDBRANCH  14  17
ENDBRANCH   7  11
ENDBRANCH   1   3
BRANCH   1  19
HETATM   19  C9  UNL     1     -54.170   1.844 -21.772  1.00  0.00     0.108 A 
HETATM   20  C10 UNL     1     -53.401   0.662 -21.696  1.00  0.00     0.079 A 
HETATM   21  C11 UNL     1     -52.696   0.396 -20.544  1.00  0.00     0.050 A 
HETATM   22  C12 UNL     1     -52.757   1.285 -19.502  1.00  0.00     0.008 A 
HETATM   23  N4  UNL     1     -51.884  -0.648 -20.194  1.00  0.00    -0.351 N 
HETATM   24  C13 UNL     1     -51.974   0.791 -18.489  1.00  0.00     0.032 A 
HETATM   25  C20 UNL     1     -53.509   2.452 -19.566  1.00  0.00     0.103 A 
HETATM   26  C14 UNL     1     -51.459  -0.402 -18.966  1.00  0.00     0.092 A 
HETATM   27  N5  UNL     1     -54.176   2.659 -20.710  1.00  0.00    -0.351 N 
ATOM     28  H5  UNL     1     -54.735   3.509 -20.777  1.00  0.00     0.166 HD
BRANCH  23  29
HETATM   29  C15 UNL     1     -51.609  -1.749 -21.060  1.00  0.00     0.089 C 
HETATM   30  C16 UNL     1     -50.150  -1.910 -21.407  1.00  0.00     0.026 C 
HETATM   31  C17 UNL     1     -50.115  -3.312 -22.015  1.00  0.00     0.002 C 
HETATM   32  C18 UNL     1     -51.328  -4.035 -21.485  1.00  0.00     0.002 C 
HETATM   33  C19 UNL     1     -51.910  -3.100 -20.416  1.00  0.00     0.026 C 
ENDBRANCH  23  29
ENDBRANCH   1  19
TORSDOF 5
ENDMDL
