MODEL 4
REMARK VINA RESULT: -7.652816706      1.649      5.837
REMARK  5 active torsions:
REMARK  status: ('A' for Active; 'I' for Inactive)
REMARK    1  A    between atoms: O1_2  and  C2_3 
REMARK    2  A    between atoms: N1_6  and  C5_7 
REMARK    3  A    between atoms: C8_12  and  N3_13 
REMARK    4  A    between atoms: N3_13  and  C9_15 
REMARK    5  A    between atoms: N4_21  and  C15_22 
ROOT
HETATM    1  N3  UNL     1     -52.920   1.621 -23.498  1.00  0.00    -0.328 N 
ATOM      2  H3  UNL     1     -52.509   2.495 -23.825  1.00  0.00     0.169 HD
ENDROOT
BRANCH   1   3
HETATM    3  C8  UNL     1     -53.700   0.912 -24.416  1.00  0.00     0.123 A 
HETATM    4  C7  UNL     1     -54.959   1.273 -24.777  1.00  0.00     0.067 A 
HETATM    5  C6  UNL     1     -55.668   0.515 -25.698  1.00  0.00     0.110 A 
HETATM    6  N2  UNL     1     -55.094  -0.570 -26.219  1.00  0.00    -0.202 N 
HETATM    7  C5  UNL     1     -53.855  -0.944 -25.878  1.00  0.00     0.681 A 
ATOM      8  H2  UNL     1     -55.613  -1.129 -26.896  1.00  0.00     0.183 HD
HETATM    9  N6  UNL     1     -53.189  -0.217 -25.003  1.00  0.00    -0.176 N 
ATOM     10  H6  UNL     1     -52.245  -0.510 -24.749  1.00  0.00     0.186 HD
BRANCH   7  11
HETATM   11  N1  UNL     1     -53.264  -2.127 -26.466  1.00  0.00    -0.217 N 
HETATM   12  C4  UNL     1     -52.718  -3.178 -25.637  1.00  0.00     0.143 C 
HETATM   13  C3  UNL     1     -51.274  -3.351 -25.953  1.00  0.00     0.052 C 
HETATM   14  C2  UNL     1     -50.825  -2.768 -27.244  1.00  0.00     0.123 C 
HETATM   15  C22 UNL     1     -51.841  -2.785 -28.334  1.00  0.00     0.052 C 
HETATM   16  C21 UNL     1     -53.199  -2.295 -27.898  1.00  0.00     0.143 C 
BRANCH  14  17
HETATM   17  O1  UNL     1     -50.343  -1.464 -27.121  1.00  0.00    -0.391 OA
HETATM   18  C1  UNL     1     -49.014  -1.418 -26.754  1.00  0.00     0.202 C 
ENDBRANCH  14  17
ENDBRANCH   7  11
ENDBRANCH   1   3
BRANCH   1  19
HETATM   19  C9  UNL     1     -52.648   1.256 -22.186  1.00  0.00     0.108 A 
HETATM   20  C10 UNL     1     -51.581   0.355 -21.975  1.00  0.00     0.079 A 
HETATM   21  C11 UNL     1     -51.278  -0.031 -20.690  1.00  0.00     0.050 A 
HETATM   22  C12 UNL     1     -52.017   0.467 -19.649  1.00  0.00     0.008 A 
HETATM   23  N4  UNL     1     -50.319  -0.873 -20.194  1.00  0.00    -0.351 N 
HETATM   24  C13 UNL     1     -51.515  -0.069 -18.489  1.00  0.00     0.032 A 
HETATM   25  C20 UNL     1     -53.069   1.354 -19.844  1.00  0.00     0.103 A 
HETATM   26  C14 UNL     1     -50.470  -0.888 -18.880  1.00  0.00     0.092 A 
HETATM   27  N5  UNL     1     -53.320   1.695 -21.115  1.00  0.00    -0.351 N 
ATOM     28  H5  UNL     1     -54.089   2.345 -21.280  1.00  0.00     0.166 HD
BRANCH  23  29
HETATM   29  C15 UNL     1     -49.379  -1.559 -21.021  1.00  0.00     0.089 C 
HETATM   30  C16 UNL     1     -50.002  -2.307 -22.172  1.00  0.00     0.026 C 
HETATM   31  C17 UNL     1     -48.790  -2.621 -23.048  1.00  0.00     0.002 C 
HETATM   32  C18 UNL     1     -47.729  -1.614 -22.682  1.00  0.00     0.002 C 
HETATM   33  C19 UNL     1     -48.437  -0.611 -21.760  1.00  0.00     0.026 C 
ENDBRANCH  23  29
ENDBRANCH   1  19
TORSDOF 5
ENDMDL
