MODEL 1
REMARK VINA RESULT: -7.697378743      0.000      0.000
REMARK  5 active torsions:
REMARK  status: ('A' for Active; 'I' for Inactive)
REMARK    1  A    between atoms: O1_2  and  C2_3 
REMARK    2  A    between atoms: N1_6  and  C5_7 
REMARK    3  A    between atoms: C8_12  and  N3_13 
REMARK    4  A    between atoms: N3_13  and  C9_15 
REMARK    5  A    between atoms: N4_21  and  C15_22 
ROOT
HETATM    1  N3  UNL     1     -52.655   1.767 -21.943  1.00  0.00    -0.328 N 
ATOM      2  H3  UNL     1     -52.754   2.775 -21.829  1.00  0.00     0.169 HD
ENDROOT
BRANCH   1   3
HETATM    3  C8  UNL     1     -51.981   1.082 -20.928  1.00  0.00     0.123 A 
HETATM    4  C7  UNL     1     -52.372   1.082 -19.626  1.00  0.00     0.067 A 
HETATM    5  C6  UNL     1     -51.647   0.374 -18.678  1.00  0.00     0.110 A 
HETATM    6  N2  UNL     1     -50.565  -0.302 -19.065  1.00  0.00    -0.202 N 
HETATM    7  C5  UNL     1     -50.162  -0.315 -20.341  1.00  0.00     0.681 A 
ATOM      8  H2  UNL     1     -50.031  -0.822 -18.370  1.00  0.00     0.183 HD
HETATM    9  N6  UNL     1     -50.856   0.360 -21.236  1.00  0.00    -0.176 N 
ATOM     10  H6  UNL     1     -50.542   0.344 -22.206  1.00  0.00     0.186 HD
BRANCH   7  11
HETATM   11  N1  UNL     1     -48.983  -1.062 -20.724  1.00  0.00    -0.217 N 
HETATM   12  C4  UNL     1     -48.233  -0.714 -21.910  1.00  0.00     0.143 C 
HETATM   13  C3  UNL     1     -48.216  -1.879 -22.837  1.00  0.00     0.052 C 
HETATM   14  C2  UNL     1     -48.564  -3.189 -22.229  1.00  0.00     0.123 C 
HETATM   15  C22 UNL     1     -48.155  -3.354 -20.805  1.00  0.00     0.052 C 
HETATM   16  C21 UNL     1     -48.517  -2.177 -19.936  1.00  0.00     0.143 C 
BRANCH  14  17
HETATM   17  O1  UNL     1     -49.921  -3.500 -22.328  1.00  0.00    -0.391 OA
HETATM   18  C1  UNL     1     -50.165  -4.856 -22.256  1.00  0.00     0.202 C 
ENDBRANCH  14  17
ENDBRANCH   7  11
ENDBRANCH   1   3
BRANCH   1  19
HETATM   19  C9  UNL     1     -53.204   1.213 -23.092  1.00  0.00     0.108 A 
HETATM   20  C10 UNL     1     -52.396   0.315 -23.825  1.00  0.00     0.079 A 
HETATM   21  C11 UNL     1     -52.903  -0.258 -24.969  1.00  0.00     0.050 A 
HETATM   22  C12 UNL     1     -54.176   0.057 -25.368  1.00  0.00     0.008 A 
HETATM   23  N4  UNL     1     -52.361  -1.144 -25.860  1.00  0.00    -0.351 N 
HETATM   24  C13 UNL     1     -54.433  -0.640 -26.522  1.00  0.00     0.032 A 
HETATM   25  C20 UNL     1     -54.979   0.938 -24.655  1.00  0.00     0.103 A 
HETATM   26  C14 UNL     1     -53.283  -1.365 -26.783  1.00  0.00     0.092 A 
HETATM   27  N5  UNL     1     -54.436   1.467 -23.550  1.00  0.00    -0.351 N 
ATOM     28  H5  UNL     1     -55.009   2.117 -23.013  1.00  0.00     0.166 HD
BRANCH  23  29
HETATM   29  C15 UNL     1     -51.041  -1.673 -25.732  1.00  0.00     0.089 C 
HETATM   30  C16 UNL     1     -50.978  -3.179 -25.743  1.00  0.00     0.026 C 
HETATM   31  C17 UNL     1     -49.486  -3.439 -25.951  1.00  0.00     0.002 C 
HETATM   32  C18 UNL     1     -48.923  -2.193 -26.585  1.00  0.00     0.002 C 
HETATM   33  C19 UNL     1     -50.148  -1.332 -26.923  1.00  0.00     0.026 C 
ENDBRANCH  23  29
ENDBRANCH   1  19
TORSDOF 5
ENDMDL
