MODEL 8
REMARK VINA RESULT: -5.111517141      7.189      9.418
REMARK  4 active torsions:
REMARK  status: ('A' for Active; 'I' for Inactive)
REMARK    1  A    between atoms: C2_3  and  N2_4 
REMARK       I    between atoms: N2_4  and  C3_6 
REMARK    2  A    between atoms: C3_6  and  O2_8 
REMARK    3  A    between atoms: O2_8  and  C4_9 
REMARK    4  A    between atoms: C4_9  and  C5_10 
ROOT
HETATM    1  N1  UNL     1       4.802  -6.935 -21.101  1.00  0.00    -0.196 NA
HETATM    2  C1  UNL     1       4.553  -6.427 -22.102  1.00  0.00     0.078 C 
HETATM    3  C2  UNL     1       4.263  -5.792 -23.358  1.00  0.00     0.249 C 
ENDROOT
BRANCH   3   4
HETATM    4  N2  UNL     1       5.351  -6.016 -24.314  1.00  0.00    -0.325 N 
HETATM    5  C3  UNL     1       6.413  -5.116 -24.483  1.00  0.00     0.361 C 
HETATM    6  O1  UNL     1       6.415  -4.067 -23.765  1.00  0.00    -0.238 OA
ATOM      7  H2  UNL     1       5.335  -6.863 -24.880  1.00  0.00     0.165 HD
BRANCH   5   8
HETATM    8  O2  UNL     1       7.460  -5.272 -25.363  1.00  0.00    -0.299 OA
BRANCH   8   9
HETATM    9  C4  UNL     1       7.872  -6.559 -25.770  1.00  0.00     0.219 C 
BRANCH   9  10
HETATM   10  C5  UNL     1       9.146  -6.973 -25.169  1.00  0.00    -0.034 A 
HETATM   11  C6  UNL     1      10.260  -6.161 -25.069  1.00  0.00     0.009 A 
HETATM   12  C7  UNL     1      11.433  -6.606 -24.493  1.00  0.00     0.001 A 
HETATM   13  C8  UNL     1      11.523  -7.898 -23.990  1.00  0.00     0.000 A 
HETATM   14  C9  UNL     1      10.422  -8.720 -24.080  1.00  0.00     0.001 A 
HETATM   15  C10 UNL     1       9.265  -8.249 -24.662  1.00  0.00     0.009 A 
ENDBRANCH   9  10
ENDBRANCH   8   9
ENDBRANCH   5   8
ENDBRANCH   3   4
TORSDOF 4
ENDMDL
