MODEL 7
REMARK VINA RESULT: -5.190600074      7.001      9.182
REMARK  4 active torsions:
REMARK  status: ('A' for Active; 'I' for Inactive)
REMARK    1  A    between atoms: C2_3  and  N2_4 
REMARK       I    between atoms: N2_4  and  C3_6 
REMARK    2  A    between atoms: C3_6  and  O2_8 
REMARK    3  A    between atoms: O2_8  and  C4_9 
REMARK    4  A    between atoms: C4_9  and  C5_10 
ROOT
HETATM    1  N1  UNL     1       5.171  -4.718 -22.181  1.00  0.00    -0.196 NA
HETATM    2  C1  UNL     1       5.190  -4.429 -23.293  1.00  0.00     0.078 C 
HETATM    3  C2  UNL     1       5.236  -4.067 -24.683  1.00  0.00     0.249 C 
ENDROOT
BRANCH   3   4
HETATM    4  N2  UNL     1       6.492  -4.514 -25.292  1.00  0.00    -0.325 N 
HETATM    5  C3  UNL     1       6.684  -5.818 -25.771  1.00  0.00     0.361 C 
HETATM    6  O1  UNL     1       5.714  -6.632 -25.664  1.00  0.00    -0.238 OA
ATOM      7  H2  UNL     1       7.259  -3.847 -25.372  1.00  0.00     0.165 HD
BRANCH   5   8
HETATM    8  O2  UNL     1       7.839  -6.294 -26.350  1.00  0.00    -0.299 OA
BRANCH   8   9
HETATM    9  C4  UNL     1       8.305  -7.594 -26.062  1.00  0.00     0.219 C 
BRANCH   9  10
HETATM   10  C5  UNL     1       9.484  -7.602 -25.187  1.00  0.00    -0.034 A 
HETATM   11  C6  UNL     1      10.464  -6.629 -25.193  1.00  0.00     0.009 A 
HETATM   12  C7  UNL     1      11.552  -6.690 -24.345  1.00  0.00     0.001 A 
HETATM   13  C8  UNL     1      11.689  -7.744 -23.451  1.00  0.00     0.000 A 
HETATM   14  C9  UNL     1      10.720  -8.723 -23.431  1.00  0.00     0.001 A 
HETATM   15  C10 UNL     1       9.646  -8.637 -24.290  1.00  0.00     0.009 A 
ENDBRANCH   9  10
ENDBRANCH   8   9
ENDBRANCH   5   8
ENDBRANCH   3   4
TORSDOF 4
ENDMDL
