MODEL 6
REMARK VINA RESULT: -5.196138237      6.796      9.058
REMARK  4 active torsions:
REMARK  status: ('A' for Active; 'I' for Inactive)
REMARK    1  A    between atoms: C2_3  and  N2_4 
REMARK       I    between atoms: N2_4  and  C3_6 
REMARK    2  A    between atoms: C3_6  and  O2_8 
REMARK    3  A    between atoms: O2_8  and  C4_9 
REMARK    4  A    between atoms: C4_9  and  C5_10 
ROOT
HETATM    1  N1  UNL     1       4.447  -6.480 -21.035  1.00  0.00    -0.196 NA
HETATM    2  C1  UNL     1       4.234  -6.618 -22.157  1.00  0.00     0.078 C 
HETATM    3  C2  UNL     1       3.989  -6.796 -23.562  1.00  0.00     0.249 C 
ENDROOT
BRANCH   3   4
HETATM    4  N2  UNL     1       4.986  -7.694 -24.151  1.00  0.00    -0.325 N 
HETATM    5  C3  UNL     1       6.165  -7.232 -24.754  1.00  0.00     0.361 C 
HETATM    6  O1  UNL     1       6.359  -5.976 -24.780  1.00  0.00    -0.238 OA
ATOM      7  H2  UNL     1       4.816  -8.698 -24.120  1.00  0.00     0.165 HD
BRANCH   5   8
HETATM    8  O2  UNL     1       7.135  -8.026 -25.323  1.00  0.00    -0.299 OA
BRANCH   8   9
HETATM    9  C4  UNL     1       8.265  -7.449 -25.944  1.00  0.00     0.219 C 
BRANCH   9  10
HETATM   10  C5  UNL     1       9.475  -7.520 -25.116  1.00  0.00    -0.034 A 
HETATM   11  C6  UNL     1      10.469  -6.561 -25.108  1.00  0.00     0.009 A 
HETATM   12  C7  UNL     1      11.587  -6.682 -24.307  1.00  0.00     0.001 A 
HETATM   13  C8  UNL     1      11.741  -7.785 -23.477  1.00  0.00     0.000 A 
HETATM   14  C9  UNL     1      10.759  -8.751 -23.472  1.00  0.00     0.001 A 
HETATM   15  C10 UNL     1       9.655  -8.604 -24.283  1.00  0.00     0.009 A 
ENDBRANCH   9  10
ENDBRANCH   8   9
ENDBRANCH   5   8
ENDBRANCH   3   4
TORSDOF 4
ENDMDL
