MODEL 2
REMARK VINA RESULT: -8.705621882      2.615      3.316
REMARK  14 active torsions:
REMARK  status: ('A' for Active; 'I' for Inactive)
REMARK    1  A    between atoms: N1_1  and  S1_4 
REMARK    2  A    between atoms: S1_4  and  C1_7 
REMARK    3  A    between atoms: C2_12  and  N4_13 
REMARK    4  A    between atoms: N4_13  and  C3_14 
REMARK    5  A    between atoms: N4_13  and  C12_27 
REMARK    6  A    between atoms: C3_14  and  C4_15 
REMARK    7  A    between atoms: N5_17  and  C6_18 
REMARK    8  A    between atoms: C12_27  and  C13_28 
REMARK    9  A    between atoms: N8_30  and  C15_31 
REMARK   10  A    between atoms: C16_33  and  C17_34 
REMARK   11  A    between atoms: C17_34  and  O4_35 
REMARK   12  A    between atoms: C18_37  and  O5_38 
REMARK   13  A    between atoms: C19_40  and  O6_41 
REMARK   14  A    between atoms: C20_43  and  O7_44 
ROOT
HETATM    1  N4  UNL     1      17.160   4.578  12.813  1.00  0.00    -0.349 N 
ENDROOT
BRANCH   1   2
HETATM    2  C2  UNL     1      16.734   3.647  13.823  1.00  0.00     0.164 A 
HETATM    3  N3  UNL     1      17.259   2.473  14.152  1.00  0.00    -0.278 N 
HETATM    4  N2  UNL     1      16.740   1.788  15.078  1.00  0.00    -0.281 N 
ATOM      5  H3  UNL     1      18.079   2.124  13.657  1.00  0.00     0.189 HD
HETATM    6  C1  UNL     1      15.670   2.248  15.720  1.00  0.00     0.208 A 
ATOM      7  H2  UNL     1      17.140   0.885  15.334  1.00  0.00     0.188 HD
HETATM    8  S2  UNL     1      15.424   3.740  14.926  1.00  0.00    -0.020 SA
BRANCH   6   9
HETATM    9  S1  UNL     1      14.806   1.450  17.030  1.00  0.00     0.280 S 
HETATM   10  O1  UNL     1      13.354   1.344  16.663  1.00  0.00    -0.199 OA
HETATM   11  O2  UNL     1      15.371   0.063  17.148  1.00  0.00    -0.199 OA
BRANCH   9  12
HETATM   12  N1  UNL     1      15.037   2.249  18.526  1.00  0.00    -0.323 N 
ATOM     13  H12 UNL     1      14.455   3.026  18.838  1.00  0.00     0.169 HD
ATOM     14  H11 UNL     1      15.816   1.857  19.056  1.00  0.00     0.169 HD
ENDBRANCH   9  12
ENDBRANCH   6   9
ENDBRANCH   1   2
BRANCH   1  15
HETATM   15  C3  UNL     1      17.128   5.982  13.079  1.00  0.00     0.185 C 
BRANCH  15  16
HETATM   16  C4  UNL     1      15.943   6.647  12.460  1.00  0.00     0.059 A 
HETATM   17  C5  UNL     1      15.883   7.196  11.197  1.00  0.00     0.142 A 
HETATM   18  N5  UNL     1      14.661   7.706  10.981  1.00  0.00    -0.249 N 
HETATM   19  N6  UNL     1      13.967   7.480  12.088  1.00  0.00    -0.015 NA
HETATM   20  N7  UNL     1      14.719   6.846  12.985  1.00  0.00    -0.285 N 
ATOM     21  H7  UNL     1      14.418   6.558  13.916  1.00  0.00     0.184 HD
BRANCH  18  22
HETATM   22  C6  UNL     1      14.165   8.363   9.818  1.00  0.00     0.054 A 
HETATM   23  C7  UNL     1      13.150   7.847   9.043  1.00  0.00     0.031 A 
HETATM   24  C8  UNL     1      12.684   8.496   7.923  1.00  0.00     0.002 A 
HETATM   25  C9  UNL     1      13.218   9.709   7.519  1.00  0.00     0.000 A 
HETATM   26  C10 UNL     1      14.235  10.231   8.290  1.00  0.00     0.002 A 
HETATM   27  C11 UNL     1      14.698   9.575   9.412  1.00  0.00     0.031 A 
ENDBRANCH  18  22
ENDBRANCH  15  16
ENDBRANCH   1  15
BRANCH   1  28
HETATM   28  C12 UNL     1      17.603   4.040  11.566  1.00  0.00     0.185 C 
BRANCH  28  29
HETATM   29  C13 UNL     1      19.095   4.209  11.496  1.00  0.00     0.062 A 
HETATM   30  C14 UNL     1      19.779   5.145  10.759  1.00  0.00     0.143 A 
HETATM   31  N8  UNL     1      21.085   4.961  10.969  1.00  0.00    -0.255 N 
HETATM   32  N9  UNL     1      21.219   3.951  11.802  1.00  0.00    -0.238 N 
HETATM   33  N10 UNL     1      20.025   3.476  12.139  1.00  0.00    -0.287 N 
ATOM     34  H9  UNL     1      22.111   3.587  12.140  1.00  0.00     0.208 HD
ATOM     35  H10 UNL     1      19.845   2.695  12.771  1.00  0.00     0.188 HD
BRANCH  31  36
HETATM   36  C15 UNL     1      22.138   5.747  10.372  1.00  0.00     0.276 C 
HETATM   37  O3  UNL     1      23.005   4.894   9.689  1.00  0.00    -0.352 OA
HETATM   38  C16 UNL     1      24.102   5.563   9.193  1.00  0.00     0.179 C 
HETATM   39  C18 UNL     1      24.962   6.114  10.303  1.00  0.00     0.180 C 
HETATM   40  C19 UNL     1      24.249   5.844  11.622  1.00  0.00     0.182 C 
HETATM   41  C20 UNL     1      22.869   6.485  11.487  1.00  0.00     0.200 C 
BRANCH  38  42
HETATM   42  C17 UNL     1      24.885   4.623   8.302  1.00  0.00     0.198 C 
BRANCH  42  43
HETATM   43  O4  UNL     1      24.982   3.342   8.843  1.00  0.00    -0.398 OA
ATOM     44  H4  UNL     1      25.551   2.778   8.331  1.00  0.00     0.209 HD
ENDBRANCH  42  43
ENDBRANCH  38  42
BRANCH  39  45
HETATM   45  O5  UNL     1      25.031   7.494  10.153  1.00  0.00    -0.390 OA
ATOM     46  H5  UNL     1      25.592   7.839  10.839  1.00  0.00     0.210 HD
ENDBRANCH  39  45
BRANCH  40  47
HETATM   47  O6  UNL     1      24.062   4.490  11.832  1.00  0.00    -0.390 OA
ATOM     48  H6  UNL     1      23.252   4.184  11.441  1.00  0.00     0.210 HD
ENDBRANCH  40  47
BRANCH  41  49
HETATM   49  O7  UNL     1      22.953   7.815  11.144  1.00  0.00    -0.388 OA
ATOM     50  H7  UNL     1      23.031   8.325  11.942  1.00  0.00     0.210 HD
ENDBRANCH  41  49
ENDBRANCH  31  36
ENDBRANCH  28  29
ENDBRANCH   1  28
TORSDOF 14
ENDMDL
