MODEL 3
REMARK VINA RESULT: -8.643516430      2.028      4.107
REMARK  14 active torsions:
REMARK  status: ('A' for Active; 'I' for Inactive)
REMARK    1  A    between atoms: N1_1  and  S1_4 
REMARK    2  A    between atoms: S1_4  and  C1_7 
REMARK    3  A    between atoms: C2_12  and  N4_13 
REMARK    4  A    between atoms: N4_13  and  C3_14 
REMARK    5  A    between atoms: N4_13  and  C12_27 
REMARK    6  A    between atoms: C3_14  and  C4_15 
REMARK    7  A    between atoms: N5_17  and  C6_18 
REMARK    8  A    between atoms: C12_27  and  C13_28 
REMARK    9  A    between atoms: N8_30  and  C15_31 
REMARK   10  A    between atoms: C16_33  and  C17_34 
REMARK   11  A    between atoms: C17_34  and  O4_35 
REMARK   12  A    between atoms: C18_37  and  O5_38 
REMARK   13  A    between atoms: C19_40  and  O6_41 
REMARK   14  A    between atoms: C20_43  and  O7_44 
ROOT
HETATM    1  N4  UNL     1      16.942   4.341  12.463  1.00  0.00    -0.349 N 
ENDROOT
BRANCH   1   2
HETATM    2  C2  UNL     1      16.618   3.532  13.608  1.00  0.00     0.164 A 
HETATM    3  N3  UNL     1      17.281   2.501  14.116  1.00  0.00    -0.278 N 
HETATM    4  N2  UNL     1      16.836   1.908  15.140  1.00  0.00    -0.281 N 
ATOM      5  H3  UNL     1      18.148   2.186  13.681  1.00  0.00     0.189 HD
HETATM    6  C1  UNL     1      15.706   2.322  15.703  1.00  0.00     0.208 A 
ATOM      7  H2  UNL     1      17.343   1.115  15.533  1.00  0.00     0.188 HD
HETATM    8  S2  UNL     1      15.288   3.629  14.685  1.00  0.00    -0.020 SA
BRANCH   6   9
HETATM    9  S1  UNL     1      14.925   1.635  17.124  1.00  0.00     0.280 S 
HETATM   10  O1  UNL     1      13.592   1.072  16.724  1.00  0.00    -0.199 OA
HETATM   11  O2  UNL     1      15.797   0.508  17.601  1.00  0.00    -0.199 OA
BRANCH   9  12
HETATM   12  N1  UNL     1      14.790   2.777  18.392  1.00  0.00    -0.323 N 
ATOM     13  H12 UNL     1      13.903   3.198  18.670  1.00  0.00     0.169 HD
ATOM     14  H11 UNL     1      15.691   2.980  18.826  1.00  0.00     0.169 HD
ENDBRANCH   9  12
ENDBRANCH   6   9
ENDBRANCH   1   2
BRANCH   1  15
HETATM   15  C3  UNL     1      16.526   5.708  12.416  1.00  0.00     0.185 C 
BRANCH  15  16
HETATM   16  C4  UNL     1      17.299   6.565  13.364  1.00  0.00     0.059 A 
HETATM   17  C5  UNL     1      18.398   7.338  13.055  1.00  0.00     0.142 A 
HETATM   18  N5  UNL     1      18.831   7.973  14.155  1.00  0.00    -0.249 N 
HETATM   19  N6  UNL     1      18.018   7.604  15.135  1.00  0.00    -0.015 NA
HETATM   20  N7  UNL     1      17.094   6.763  14.680  1.00  0.00    -0.285 N 
ATOM     21  H7  UNL     1      16.352   6.338  15.236  1.00  0.00     0.184 HD
BRANCH  18  22
HETATM   22  C6  UNL     1      19.933   8.866  14.289  1.00  0.00     0.054 A 
HETATM   23  C7  UNL     1      20.967   8.919  13.382  1.00  0.00     0.031 A 
HETATM   24  C8  UNL     1      22.023   9.788  13.528  1.00  0.00     0.002 A 
HETATM   25  C9  UNL     1      22.097  10.658  14.604  1.00  0.00     0.000 A 
HETATM   26  C10 UNL     1      21.065  10.609  15.517  1.00  0.00     0.002 A 
HETATM   27  C11 UNL     1      20.008   9.736  15.364  1.00  0.00     0.031 A 
ENDBRANCH  18  22
ENDBRANCH  15  16
ENDBRANCH   1  15
BRANCH   1  28
HETATM   28  C12 UNL     1      17.678   3.723  11.407  1.00  0.00     0.185 C 
BRANCH  28  29
HETATM   29  C13 UNL     1      19.098   4.209  11.490  1.00  0.00     0.062 A 
HETATM   30  C14 UNL     1      19.801   4.856  10.502  1.00  0.00     0.143 A 
HETATM   31  N8  UNL     1      21.024   5.117  10.971  1.00  0.00    -0.255 N 
HETATM   32  N9  UNL     1      21.091   4.655  12.201  1.00  0.00    -0.238 N 
HETATM   33  N10 UNL     1      19.934   4.098  12.542  1.00  0.00    -0.287 N 
ATOM     34  H9  UNL     1      21.912   4.715  12.804  1.00  0.00     0.208 HD
ATOM     35  H10 UNL     1      19.717   3.665  13.440  1.00  0.00     0.188 HD
BRANCH  31  36
HETATM   36  C15 UNL     1      22.067   5.789  10.232  1.00  0.00     0.276 C 
HETATM   37  O3  UNL     1      22.816   4.836   9.543  1.00  0.00    -0.352 OA
HETATM   38  C16 UNL     1      23.905   5.395   8.910  1.00  0.00     0.179 C 
HETATM   39  C18 UNL     1      24.891   5.961   9.902  1.00  0.00     0.180 C 
HETATM   40  C19 UNL     1      24.282   5.827  11.291  1.00  0.00     0.182 C 
HETATM   41  C20 UNL     1      22.937   6.549  11.226  1.00  0.00     0.200 C 
BRANCH  38  42
HETATM   42  C17 UNL     1      24.547   4.347   8.027  1.00  0.00     0.198 C 
BRANCH  42  43
HETATM   43  O4  UNL     1      25.133   3.321   8.767  1.00  0.00    -0.398 OA
ATOM     44  H4  UNL     1      26.081   3.331   8.708  1.00  0.00     0.209 HD
ENDBRANCH  42  43
ENDBRANCH  38  42
BRANCH  39  45
HETATM   45  O5  UNL     1      25.031   7.320   9.647  1.00  0.00    -0.390 OA
ATOM     46  H5  UNL     1      24.517   7.796  10.288  1.00  0.00     0.210 HD
ENDBRANCH  39  45
BRANCH  40  47
HETATM   47  O6  UNL     1      24.032   4.506  11.613  1.00  0.00    -0.390 OA
ATOM     48  H6  UNL     1      23.718   4.417  12.506  1.00  0.00     0.210 HD
ENDBRANCH  40  47
BRANCH  41  49
HETATM   49  O7  UNL     1      23.072   7.845  10.782  1.00  0.00    -0.388 OA
ATOM     50  H7  UNL     1      23.067   7.837   9.832  1.00  0.00     0.210 HD
ENDBRANCH  41  49
ENDBRANCH  31  36
ENDBRANCH  28  29
ENDBRANCH   1  28
TORSDOF 14
ENDMDL
