MODEL 1
REMARK VINA RESULT: -8.727601522      0.000      0.000
REMARK  14 active torsions:
REMARK  status: ('A' for Active; 'I' for Inactive)
REMARK    1  A    between atoms: N1_1  and  S1_4 
REMARK    2  A    between atoms: S1_4  and  C1_7 
REMARK    3  A    between atoms: C2_12  and  N4_13 
REMARK    4  A    between atoms: N4_13  and  C3_14 
REMARK    5  A    between atoms: N4_13  and  C12_27 
REMARK    6  A    between atoms: C3_14  and  C4_15 
REMARK    7  A    between atoms: N5_17  and  C6_18 
REMARK    8  A    between atoms: C12_27  and  C13_28 
REMARK    9  A    between atoms: N8_30  and  C15_31 
REMARK   10  A    between atoms: C16_33  and  C17_34 
REMARK   11  A    between atoms: C17_34  and  O4_35 
REMARK   12  A    between atoms: C18_37  and  O5_38 
REMARK   13  A    between atoms: C19_40  and  O6_41 
REMARK   14  A    between atoms: C20_43  and  O7_44 
ROOT
HETATM    1  N4  UNL     1      17.319   5.536  13.715  1.00  0.00    -0.349 N 
ENDROOT
BRANCH   1   2
HETATM    2  C2  UNL     1      17.019   4.396  14.540  1.00  0.00     0.164 A 
HETATM    3  N3  UNL     1      17.853   3.585  15.179  1.00  0.00    -0.278 N 
HETATM    4  N2  UNL     1      17.398   2.625  15.863  1.00  0.00    -0.281 N 
ATOM      5  H3  UNL     1      18.860   3.736  15.118  1.00  0.00     0.189 HD
HETATM    6  C1  UNL     1      16.084   2.433  15.939  1.00  0.00     0.208 A 
ATOM      7  H2  UNL     1      18.035   1.999  16.356  1.00  0.00     0.188 HD
HETATM    8  S2  UNL     1      15.506   3.713  14.967  1.00  0.00    -0.020 SA
BRANCH   6   9
HETATM    9  S1  UNL     1      15.257   1.162  16.834  1.00  0.00     0.280 S 
HETATM   10  O1  UNL     1      15.567  -0.162  16.198  1.00  0.00    -0.199 OA
HETATM   11  O2  UNL     1      15.821   1.167  18.226  1.00  0.00    -0.199 OA
BRANCH   9  12
HETATM   12  N1  UNL     1      13.573   1.449  16.940  1.00  0.00    -0.323 N 
ATOM     13  H12 UNL     1      13.049   1.959  16.229  1.00  0.00     0.169 HD
ATOM     14  H11 UNL     1      13.168   1.053  17.789  1.00  0.00     0.169 HD
ENDBRANCH   9  12
ENDBRANCH   6   9
ENDBRANCH   1   2
BRANCH   1  15
HETATM   15  C3  UNL     1      16.484   5.847  12.598  1.00  0.00     0.185 C 
BRANCH  15  16
HETATM   16  C4  UNL     1      16.991   5.246  11.329  1.00  0.00     0.059 A 
HETATM   17  C5  UNL     1      17.620   5.916  10.302  1.00  0.00     0.142 A 
HETATM   18  N5  UNL     1      17.936   5.055   9.324  1.00  0.00    -0.249 N 
HETATM   19  N6  UNL     1      17.512   3.866   9.729  1.00  0.00    -0.015 NA
HETATM   20  N7  UNL     1      16.944   3.961  10.928  1.00  0.00    -0.285 N 
ATOM     21  H7  UNL     1      16.540   3.188  11.458  1.00  0.00     0.184 HD
BRANCH  18  22
HETATM   22  C6  UNL     1      18.591   5.318   8.085  1.00  0.00     0.054 A 
HETATM   23  C7  UNL     1      19.926   5.052   7.875  1.00  0.00     0.031 A 
HETATM   24  C8  UNL     1      20.542   5.313   6.673  1.00  0.00     0.002 A 
HETATM   25  C9  UNL     1      19.842   5.859   5.609  1.00  0.00     0.000 A 
HETATM   26  C10 UNL     1      18.505   6.128   5.813  1.00  0.00     0.002 A 
HETATM   27  C11 UNL     1      17.894   5.864   7.021  1.00  0.00     0.031 A 
ENDBRANCH  18  22
ENDBRANCH  15  16
ENDBRANCH   1  15
BRANCH   1  28
HETATM   28  C12 UNL     1      18.463   6.317  14.063  1.00  0.00     0.185 C 
BRANCH  28  29
HETATM   29  C13 UNL     1      19.608   5.868  13.199  1.00  0.00     0.062 A 
HETATM   30  C14 UNL     1      20.431   6.671  12.447  1.00  0.00     0.143 A 
HETATM   31  N8  UNL     1      21.317   5.888  11.827  1.00  0.00    -0.255 N 
HETATM   32  N9  UNL     1      21.065   4.644  12.173  1.00  0.00    -0.238 N 
HETATM   33  N10 UNL     1      20.031   4.603  13.006  1.00  0.00    -0.287 N 
ATOM     34  H9  UNL     1      21.588   3.830  11.848  1.00  0.00     0.208 HD
ATOM     35  H10 UNL     1      19.630   3.764  13.426  1.00  0.00     0.188 HD
BRANCH  31  36
HETATM   36  C15 UNL     1      22.356   6.354  10.940  1.00  0.00     0.276 C 
HETATM   37  O3  UNL     1      22.735   5.307  10.100  1.00  0.00    -0.352 OA
HETATM   38  C16 UNL     1      23.809   5.647   9.305  1.00  0.00     0.179 C 
HETATM   39  C18 UNL     1      25.048   5.898  10.127  1.00  0.00     0.180 C 
HETATM   40  C19 UNL     1      24.658   5.807  11.597  1.00  0.00     0.182 C 
HETATM   41  C20 UNL     1      23.532   6.821  11.791  1.00  0.00     0.200 C 
BRANCH  38  42
HETATM   42  C17 UNL     1      24.031   4.546   8.291  1.00  0.00     0.198 C 
BRANCH  42  43
HETATM   43  O4  UNL     1      24.631   3.421   8.855  1.00  0.00    -0.398 OA
ATOM     44  H4  UNL     1      25.090   3.625   9.662  1.00  0.00     0.209 HD
ENDBRANCH  42  43
ENDBRANCH  38  42
BRANCH  39  45
HETATM   45  O5  UNL     1      25.464   7.203   9.895  1.00  0.00    -0.390 OA
ATOM     46  H5  UNL     1      26.202   7.384  10.466  1.00  0.00     0.210 HD
ENDBRANCH  39  45
BRANCH  40  47
HETATM   47  O6  UNL     1      24.156   4.559  11.915  1.00  0.00    -0.390 OA
ATOM     48  H6  UNL     1      24.835   3.984  12.248  1.00  0.00     0.210 HD
ENDBRANCH  40  47
BRANCH  41  49
HETATM   49  O7  UNL     1      23.897   8.080  11.371  1.00  0.00    -0.388 OA
ATOM     50  H7  UNL     1      24.518   7.989  10.658  1.00  0.00     0.210 HD
ENDBRANCH  41  49
ENDBRANCH  31  36
ENDBRANCH  28  29
ENDBRANCH   1  28
TORSDOF 14
ENDMDL
