MODEL 3
REMARK VINA RESULT: -7.283847550      1.837      3.539
REMARK  1 active torsions:
REMARK  status: ('A' for Active; 'I' for Inactive)
REMARK    1  A    between atoms: O1_1  and  C1_3 
ROOT
HETATM    1  C1  UNL     1      49.666  80.668  77.162  1.00  0.00     0.112 A 
HETATM    2  C2  UNL     1      50.576  81.609  77.592  1.00  0.00     0.092 A 
HETATM    3 CL1  UNL     1      50.998  82.915  76.491  1.00  0.00    -0.079 Cl
HETATM    4  C3  UNL     1      51.152  81.549  78.839  1.00  0.00     0.082 A 
HETATM    5 CL2  UNL     1      52.304  82.762  79.348  1.00  0.00    -0.081 Cl
HETATM    6  C4  UNL     1      50.839  80.537  79.721  1.00  0.00     0.081 A 
HETATM    7 CL3  UNL     1      51.558  80.438  81.319  1.00  0.00    -0.081 Cl
HETATM    8  C5  UNL     1      49.927  79.607  79.275  1.00  0.00     0.082 A 
HETATM    9 CL4  UNL     1      49.505  78.309  80.364  1.00  0.00    -0.081 Cl
HETATM   10  C6  UNL     1      49.344  79.652  78.035  1.00  0.00     0.092 A 
HETATM   11 CL5  UNL     1      48.183  78.437  77.510  1.00  0.00    -0.079 Cl
ENDROOT
BRANCH   1  12
HETATM   12  O1  UNL     1      49.086  80.742  75.885  1.00  0.00    -0.357 OA
ATOM     13  H1  UNL     1      48.463  80.090  75.587  1.00  0.00     0.217 HD
ENDBRANCH   1  12
TORSDOF 1
ENDMDL
