MODEL 6
REMARK VINA RESULT: -7.237078667      1.376      2.588
REMARK  1 active torsions:
REMARK  status: ('A' for Active; 'I' for Inactive)
REMARK    1  A    between atoms: O1_1  and  C1_3 
ROOT
HETATM    1  C1  UNL     1      49.441  79.644  76.982  1.00  0.00     0.112 A 
HETATM    2  C2  UNL     1      49.514  79.177  78.277  1.00  0.00     0.092 A 
HETATM    3 CL1  UNL     1      48.660  77.690  78.668  1.00  0.00    -0.079 Cl
HETATM    4  C3  UNL     1      50.226  79.838  79.250  1.00  0.00     0.082 A 
HETATM    5 CL2  UNL     1      50.294  79.214  80.883  1.00  0.00    -0.081 Cl
HETATM    6  C4  UNL     1      50.904  81.004  78.969  1.00  0.00     0.081 A 
HETATM    7 CL3  UNL     1      51.821  81.866  80.194  1.00  0.00    -0.081 Cl
HETATM    8  C5  UNL     1      50.820  81.456  77.671  1.00  0.00     0.082 A 
HETATM    9 CL4  UNL     1      51.667  82.931  77.277  1.00  0.00    -0.081 Cl
HETATM   10  C6  UNL     1      50.115  80.809  76.689  1.00  0.00     0.092 A 
HETATM   11 CL5  UNL     1      50.038  81.426  75.042  1.00  0.00    -0.079 Cl
ENDROOT
BRANCH   1  12
HETATM   12  O1  UNL     1      48.709  78.959  75.998  1.00  0.00    -0.357 OA
ATOM     13  H1  UNL     1      47.762  78.895  76.042  1.00  0.00     0.217 HD
ENDBRANCH   1  12
TORSDOF 1
ENDMDL
