MODEL 10
REMARK VINA RESULT: -7.109304091      1.882      4.285
REMARK  1 active torsions:
REMARK  status: ('A' for Active; 'I' for Inactive)
REMARK    1  A    between atoms: O1_1  and  C1_3 
ROOT
HETATM    1  C1  UNL     1      50.265  80.848  76.656  1.00  0.00     0.112 A 
HETATM    2  C2  UNL     1      49.667  79.638  76.937  1.00  0.00     0.092 A 
HETATM    3 CL1  UNL     1      48.846  78.797  75.628  1.00  0.00    -0.079 Cl
HETATM    4  C3  UNL     1      49.699  79.086  78.196  1.00  0.00     0.082 A 
HETATM    5 CL2  UNL     1      48.928  77.549  78.515  1.00  0.00    -0.081 Cl
HETATM    6  C4  UNL     1      50.335  79.724  79.238  1.00  0.00     0.081 A 
HETATM    7 CL3  UNL     1      50.391  79.040  80.855  1.00  0.00    -0.081 Cl
HETATM    8  C5  UNL     1      50.927  80.931  78.939  1.00  0.00     0.082 A 
HETATM    9 CL4  UNL     1      51.744  81.770  80.235  1.00  0.00    -0.081 Cl
HETATM   10  C6  UNL     1      50.905  81.495  77.689  1.00  0.00     0.092 A 
HETATM   11 CL5  UNL     1      51.676  83.042  77.355  1.00  0.00    -0.079 Cl
ENDROOT
BRANCH   1  12
HETATM   12  O1  UNL     1      50.224  81.400  75.365  1.00  0.00    -0.357 OA
ATOM     13  H1  UNL     1      50.833  81.125  74.690  1.00  0.00     0.217 HD
ENDBRANCH   1  12
TORSDOF 1
ENDMDL
