MODEL 5
REMARK VINA RESULT: -7.243279326      1.386      3.434
REMARK  1 active torsions:
REMARK  status: ('A' for Active; 'I' for Inactive)
REMARK    1  A    between atoms: O1_1  and  C1_3 
ROOT
HETATM    1  C1  UNL     1      49.429  79.648  77.043  1.00  0.00     0.112 A 
HETATM    2  C2  UNL     1      50.101  80.815  76.750  1.00  0.00     0.092 A 
HETATM    3 CL1  UNL     1      50.010  81.431  75.105  1.00  0.00    -0.079 Cl
HETATM    4  C3  UNL     1      50.829  81.493  77.699  1.00  0.00     0.082 A 
HETATM    5 CL2  UNL     1      51.669  82.972  77.289  1.00  0.00    -0.081 Cl
HETATM    6  C4  UNL     1      50.917  81.032  78.994  1.00  0.00     0.081 A 
HETATM    7 CL3  UNL     1      51.838  81.880  80.225  1.00  0.00    -0.081 Cl
HETATM    8  C5  UNL     1      50.239  79.865  79.269  1.00  0.00     0.082 A 
HETATM    9 CL4  UNL     1      50.327  79.250  80.901  1.00  0.00    -0.081 Cl
HETATM   10  C6  UNL     1      49.509  79.177  78.335  1.00  0.00     0.092 A 
HETATM   11 CL5  UNL     1      48.659  77.687  78.734  1.00  0.00    -0.079 Cl
ENDROOT
BRANCH   1  12
HETATM   12  O1  UNL     1      48.691  78.965  76.063  1.00  0.00    -0.357 OA
ATOM     13  H1  UNL     1      47.741  78.979  76.061  1.00  0.00     0.217 HD
ENDBRANCH   1  12
TORSDOF 1
ENDMDL
