MODEL 4
REMARK VINA RESULT: -7.262336429      1.841      3.740
REMARK  1 active torsions:
REMARK  status: ('A' for Active; 'I' for Inactive)
REMARK    1  A    between atoms: O1_1  and  C1_3 
ROOT
HETATM    1  C1  UNL     1      49.734  80.664  77.169  1.00  0.00     0.112 A 
HETATM    2  C2  UNL     1      49.408  79.645  78.037  1.00  0.00     0.092 A 
HETATM    3 CL1  UNL     1      48.265  78.425  77.489  1.00  0.00    -0.079 Cl
HETATM    4  C3  UNL     1      49.947  79.563  79.300  1.00  0.00     0.082 A 
HETATM    5 CL2  UNL     1      49.508  78.254  80.374  1.00  0.00    -0.081 Cl
HETATM    6  C4  UNL     1      50.844  80.505  79.754  1.00  0.00     0.081 A 
HETATM    7 CL3  UNL     1      51.548  80.424  81.361  1.00  0.00    -0.081 Cl
HETATM    8  C5  UNL     1      51.159  81.516  78.873  1.00  0.00     0.082 A 
HETATM    9 CL4  UNL     1      52.293  82.729  79.413  1.00  0.00    -0.081 Cl
HETATM   10  C6  UNL     1      50.630  81.611  77.611  1.00  0.00     0.092 A 
HETATM   11 CL5  UNL     1      51.064  82.924  76.521  1.00  0.00    -0.079 Cl
ENDROOT
BRANCH   1  12
HETATM   12  O1  UNL     1      49.175  80.735  75.883  1.00  0.00    -0.357 OA
ATOM     13  H1  UNL     1      48.239  80.834  75.755  1.00  0.00     0.217 HD
ENDBRANCH   1  12
TORSDOF 1
ENDMDL
