MODEL 12
REMARK VINA RESULT: -3.996314668      1.522      2.825
REMARK  1 active torsions:
REMARK  status: ('A' for Active; 'I' for Inactive)
REMARK    1  A    between atoms: O1_1  and  C1_3 
ROOT
HETATM    1  C1  UNL     1     -31.824 -12.041  19.764  1.00  0.00     0.109 A 
HETATM    2  C2  UNL     1     -32.798 -12.738  20.481  1.00  0.00     0.070 A 
HETATM    3 CL1  UNL     1     -33.884 -11.775  21.463  1.00  0.00    -0.081 Cl
HETATM    4  C3  UNL     1     -32.882 -14.113  20.407  1.00  0.00     0.050 A 
HETATM    5  C4  UNL     1     -32.016 -14.852  19.626  1.00  0.00     0.037 A 
HETATM    6 CL2  UNL     1     -32.104 -16.600  19.514  1.00  0.00    -0.084 Cl
HETATM    7  C5  UNL     1     -31.042 -14.171  18.906  1.00  0.00     0.050 A 
HETATM    8  C6  UNL     1     -30.973 -12.793  18.994  1.00  0.00     0.070 A 
HETATM    9 CL3  UNL     1     -29.733 -11.943  18.076  1.00  0.00    -0.081 Cl
ENDROOT
BRANCH   1  10
HETATM   10  O1  UNL     1     -31.713 -10.660  19.816  1.00  0.00    -0.357 OA
ATOM     11  H1  UNL     1     -31.094 -10.180  19.278  1.00  0.00     0.217 HD
ENDBRANCH   1  10
TORSDOF 1
ENDMDL
