MODEL 14
REMARK VINA RESULT: -3.779657439      1.711      1.972
REMARK  1 active torsions:
REMARK  status: ('A' for Active; 'I' for Inactive)
REMARK    1  A    between atoms: O1_1  and  C1_3 
ROOT
HETATM    1  C1  UNL     1     -30.866 -11.570  20.324  1.00  0.00     0.109 A 
HETATM    2  C2  UNL     1     -29.470 -11.584  20.338  1.00  0.00     0.070 A 
HETATM    3 CL1  UNL     1     -28.673 -10.023  20.374  1.00  0.00    -0.081 Cl
HETATM    4  C3  UNL     1     -28.775 -12.775  20.322  1.00  0.00     0.050 A 
HETATM    5  C4  UNL     1     -29.423 -13.993  20.294  1.00  0.00     0.037 A 
HETATM    6 CL2  UNL     1     -28.562 -15.521  20.275  1.00  0.00    -0.084 Cl
HETATM    7  C5  UNL     1     -30.812 -13.994  20.281  1.00  0.00     0.050 A 
HETATM    8  C6  UNL     1     -31.492 -12.790  20.296  1.00  0.00     0.070 A 
HETATM    9 CL3  UNL     1     -33.253 -12.807  20.278  1.00  0.00    -0.081 Cl
ENDROOT
BRANCH   1  10
HETATM   10  O1  UNL     1     -31.595 -10.390  20.339  1.00  0.00    -0.357 OA
ATOM     11  H1  UNL     1     -32.215 -10.186  21.029  1.00  0.00     0.217 HD
ENDBRANCH   1  10
TORSDOF 1
ENDMDL
