MODEL 2
REMARK VINA RESULT: -6.940076969      0.058      2.826
REMARK  1 active torsions:
REMARK  status: ('A' for Active; 'I' for Inactive)
REMARK    1  A    between atoms: O1_1  and  C1_3 
ROOT
HETATM    1  C1  UNL     1     -30.627 -12.120  20.106  1.00  0.00     0.109 A 
HETATM    2  C2  UNL     1     -31.971 -12.477  19.997  1.00  0.00     0.070 A 
HETATM    3 CL1  UNL     1     -33.126 -11.161  19.926  1.00  0.00    -0.081 Cl
HETATM    4  C3  UNL     1     -32.350 -13.803  19.951  1.00  0.00     0.050 A 
HETATM    5  C4  UNL     1     -31.422 -14.824  20.009  1.00  0.00     0.037 A 
HETATM    6 CL2  UNL     1     -31.877 -16.517  19.951  1.00  0.00    -0.084 Cl
HETATM    7  C5  UNL     1     -30.080 -14.482  20.117  1.00  0.00     0.050 A 
HETATM    8  C6  UNL     1     -29.720 -13.148  20.163  1.00  0.00     0.070 A 
HETATM    9 CL3  UNL     1     -28.015 -12.731  20.300  1.00  0.00    -0.081 Cl
ENDROOT
BRANCH   1  10
HETATM   10  O1  UNL     1     -30.214 -10.797  20.155  1.00  0.00    -0.357 OA
ATOM     11  H1  UNL     1     -29.933 -10.324  19.380  1.00  0.00     0.217 HD
ENDBRANCH   1  10
TORSDOF 1
ENDMDL
