MODEL 1
REMARK VINA RESULT: -6.959076429      0.000      0.000
REMARK  1 active torsions:
REMARK  status: ('A' for Active; 'I' for Inactive)
REMARK    1  A    between atoms: O1_1  and  C1_3 
ROOT
HETATM    1  C1  UNL     1     -30.621 -12.094  20.130  1.00  0.00     0.109 A 
HETATM    2  C2  UNL     1     -29.677 -13.120  20.196  1.00  0.00     0.070 A 
HETATM    3 CL1  UNL     1     -28.001 -12.632  20.356  1.00  0.00    -0.081 Cl
HETATM    4  C3  UNL     1     -30.064 -14.443  20.136  1.00  0.00     0.050 A 
HETATM    5  C4  UNL     1     -31.390 -14.805  20.010  1.00  0.00     0.037 A 
HETATM    6 CL2  UNL     1     -31.908 -16.479  19.933  1.00  0.00    -0.084 Cl
HETATM    7  C5  UNL     1     -32.341 -13.794  19.944  1.00  0.00     0.050 A 
HETATM    8  C6  UNL     1     -31.933 -12.474  20.005  1.00  0.00     0.070 A 
HETATM    9 CL3  UNL     1     -33.150 -11.203  19.920  1.00  0.00    -0.081 Cl
ENDROOT
BRANCH   1  10
HETATM   10  O1  UNL     1     -30.264 -10.755  20.188  1.00  0.00    -0.357 OA
ATOM     11  H1  UNL     1     -30.908 -10.057  20.168  1.00  0.00     0.217 HD
ENDBRANCH   1  10
TORSDOF 1
ENDMDL
