MODEL 5
REMARK VINA RESULT: -5.649003837      1.067      2.981
REMARK  1 active torsions:
REMARK  status: ('A' for Active; 'I' for Inactive)
REMARK    1  A    between atoms: O1_1  and  C1_3 
ROOT
HETATM    1  C1  UNL     1     -30.407 -12.467  19.002  1.00  0.00     0.109 A 
HETATM    2  C2  UNL     1     -31.738 -12.861  18.861  1.00  0.00     0.070 A 
HETATM    3 CL1  UNL     1     -32.817 -11.711  18.097  1.00  0.00    -0.081 Cl
HETATM    4  C3  UNL     1     -32.162 -14.096  19.308  1.00  0.00     0.050 A 
HETATM    5  C4  UNL     1     -31.294 -14.986  19.908  1.00  0.00     0.037 A 
HETATM    6 CL2  UNL     1     -31.808 -16.562  20.483  1.00  0.00    -0.084 Cl
HETATM    7  C5  UNL     1     -29.966 -14.607  20.053  1.00  0.00     0.050 A 
HETATM    8  C6  UNL     1     -29.560 -13.366  19.600  1.00  0.00     0.070 A 
HETATM    9 CL3  UNL     1     -27.873 -12.899  19.792  1.00  0.00    -0.081 Cl
ENDROOT
BRANCH   1  10
HETATM   10  O1  UNL     1     -29.949 -11.234  18.563  1.00  0.00    -0.357 OA
ATOM     11  H1  UNL     1     -29.843 -11.030  17.641  1.00  0.00     0.217 HD
ENDBRANCH   1  10
TORSDOF 1
ENDMDL
