MODEL 9
REMARK VINA RESULT: -6.462305102      3.297      6.601
REMARK  3 active torsions:
REMARK  status: ('A' for Active; 'I' for Inactive)
REMARK    1  A    between atoms: S1_2  and  N1_4 
REMARK    2  A    between atoms: S1_2  and  C8_17 
REMARK    3  A    between atoms: N1_4  and  C1_6 
ROOT
HETATM    1  N1  UNL     1     -12.438  18.777  -8.393  1.00  0.00    -0.260 N 
ATOM      2  H1  UNL     1     -12.841  19.041  -7.493  1.00  0.00     0.181 HD
ENDROOT
BRANCH   1   3
HETATM    3  S1  UNL     1     -12.218  19.934  -9.640  1.00  0.00     0.266 S 
HETATM    4  O1  UNL     1     -11.836  21.239  -9.014  1.00  0.00    -0.200 OA
HETATM    5  O2  UNL     1     -11.083  19.519 -10.540  1.00  0.00    -0.200 OA
BRANCH   3   6
HETATM    6  C8  UNL     1     -13.708  20.120 -10.613  1.00  0.00     0.098 A 
HETATM    7  C9  UNL     1     -14.529  21.188 -10.389  1.00  0.00     0.076 A 
HETATM    8  S3  UNL     1     -15.780  20.966 -11.521  1.00  0.00    -0.100 SA
HETATM    9  C10 UNL     1     -15.231  19.524 -12.253  1.00  0.00     0.016 A 
HETATM   10  C11 UNL     1     -15.735  18.712 -13.287  1.00  0.00     0.019 A 
HETATM   11  C15 UNL     1     -14.070  19.252 -11.585  1.00  0.00     0.005 A 
HETATM   12  C12 UNL     1     -15.069  17.576 -13.686  1.00  0.00     0.001 A 
HETATM   13  C13 UNL     1     -13.905  17.308 -13.010  1.00  0.00     0.001 A 
HETATM   14  C14 UNL     1     -13.390  18.080 -12.000  1.00  0.00     0.014 A 
ENDBRANCH   3   6
ENDBRANCH   1   3
BRANCH   1  15
HETATM   15  C1  UNL     1     -12.032  17.413  -8.658  1.00  0.00     0.159 A 
HETATM   16  N2  UNL     1     -10.867  16.984  -9.103  1.00  0.00    -0.335 N 
HETATM   17  C2  UNL     1     -10.673  15.711  -9.295  1.00  0.00     0.051 A 
ATOM     18  H2  UNL     1     -10.118  17.649  -9.297  1.00  0.00     0.168 HD
HETATM   19  C3  UNL     1      -9.483  15.118  -9.765  1.00  0.00     0.032 A 
HETATM   20  C7  UNL     1     -11.713  14.864  -9.020  1.00  0.00     0.036 A 
HETATM   21  C4  UNL     1      -9.424  13.767  -9.918  1.00  0.00     0.026 A 
HETATM   22  C5  UNL     1     -10.446  12.888  -9.653  1.00  0.00     0.035 A 
HETATM   23 CL1  UNL     1     -10.356  11.174  -9.853  1.00  0.00    -0.084 Cl
HETATM   24  C6  UNL     1     -11.622  13.473  -9.188  1.00  0.00     0.045 A 
HETATM   25  S2  UNL     1     -12.918  15.963  -8.496  1.00  0.00    -0.051 SA
ENDBRANCH   1  15
TORSDOF 3
ENDMDL
