MODEL 3
REMARK VINA RESULT: -7.001399669      2.072      2.903
REMARK  3 active torsions:
REMARK  status: ('A' for Active; 'I' for Inactive)
REMARK    1  A    between atoms: S1_2  and  N1_4 
REMARK    2  A    between atoms: S1_2  and  C8_17 
REMARK    3  A    between atoms: N1_4  and  C1_6 
ROOT
HETATM    1  N1  UNL     1      -9.884  18.584  -9.128  1.00  0.00    -0.260 N 
ATOM      2  H1  UNL     1      -9.579  19.523  -8.871  1.00  0.00     0.181 HD
ENDROOT
BRANCH   1   3
HETATM    3  S1  UNL     1      -9.121  17.194  -8.474  1.00  0.00     0.266 S 
HETATM    4  O1  UNL     1      -8.094  16.714  -9.450  1.00  0.00    -0.200 OA
HETATM    5  O2  UNL     1      -8.397  17.549  -7.200  1.00  0.00    -0.200 OA
BRANCH   3   6
HETATM    6  C8  UNL     1     -10.314  15.904  -8.137  1.00  0.00     0.098 A 
HETATM    7  C9  UNL     1     -11.304  16.126  -7.224  1.00  0.00     0.076 A 
HETATM    8  S3  UNL     1     -12.185  14.670  -7.237  1.00  0.00    -0.100 SA
HETATM    9  C10 UNL     1     -11.276  13.814  -8.402  1.00  0.00     0.016 A 
HETATM   10  C11 UNL     1     -11.386  12.525  -8.958  1.00  0.00     0.019 A 
HETATM   11  C15 UNL     1     -10.297  14.701  -8.754  1.00  0.00     0.005 A 
HETATM   12  C12 UNL     1     -10.491  12.082  -9.905  1.00  0.00     0.001 A 
HETATM   13  C13 UNL     1      -9.510  12.977 -10.252  1.00  0.00     0.001 A 
HETATM   14  C14 UNL     1      -9.379  14.238  -9.729  1.00  0.00     0.014 A 
ENDBRANCH   3   6
ENDBRANCH   1   3
BRANCH   1  15
HETATM   15  C1  UNL     1     -10.976  18.381 -10.056  1.00  0.00     0.159 A 
HETATM   16  N2  UNL     1     -12.214  18.015  -9.786  1.00  0.00    -0.335 N 
HETATM   17  C2  UNL     1     -13.074  17.871 -10.753  1.00  0.00     0.051 A 
ATOM     18  H2  UNL     1     -12.498  17.846  -8.821  1.00  0.00     0.168 HD
HETATM   19  C3  UNL     1     -14.424  17.486 -10.608  1.00  0.00     0.032 A 
HETATM   20  C7  UNL     1     -12.640  18.110 -12.029  1.00  0.00     0.036 A 
HETATM   21  C4  UNL     1     -15.210  17.375 -11.713  1.00  0.00     0.026 A 
HETATM   22  C5  UNL     1     -14.808  17.606 -13.006  1.00  0.00     0.035 A 
HETATM   23 CL1  UNL     1     -15.819  17.460 -14.400  1.00  0.00    -0.084 Cl
HETATM   24  C6  UNL     1     -13.476  17.986 -13.150  1.00  0.00     0.045 A 
HETATM   25  S2  UNL     1     -11.002  18.533 -11.757  1.00  0.00    -0.051 SA
ENDBRANCH   1  15
TORSDOF 3
ENDMDL
