MODEL 6
REMARK VINA RESULT: -6.673929413      1.813      2.513
REMARK  3 active torsions:
REMARK  status: ('A' for Active; 'I' for Inactive)
REMARK    1  A    between atoms: S1_2  and  N1_4 
REMARK    2  A    between atoms: S1_2  and  C8_17 
REMARK    3  A    between atoms: N1_4  and  C1_6 
ROOT
HETATM    1  N1  UNL     1     -10.685  18.495  -8.794  1.00  0.00    -0.260 N 
ATOM      2  H1  UNL     1     -10.826  19.181  -8.052  1.00  0.00     0.181 HD
ENDROOT
BRANCH   1   3
HETATM    3  S1  UNL     1      -9.651  17.145  -8.567  1.00  0.00     0.266 S 
HETATM    4  O1  UNL     1      -8.803  16.987  -9.790  1.00  0.00    -0.200 OA
HETATM    5  O2  UNL     1      -8.722  17.390  -7.406  1.00  0.00    -0.200 OA
BRANCH   3   6
HETATM    6  C8  UNL     1     -10.595  15.655  -8.265  1.00  0.00     0.098 A 
HETATM    7  C9  UNL     1     -11.623  15.682  -7.366  1.00  0.00     0.076 A 
HETATM    8  S3  UNL     1     -12.224  14.090  -7.411  1.00  0.00    -0.100 SA
HETATM    9  C10 UNL     1     -11.159  13.430  -8.570  1.00  0.00     0.016 A 
HETATM   10  C11 UNL     1     -11.025  12.150  -9.142  1.00  0.00     0.019 A 
HETATM   11  C15 UNL     1     -10.351  14.484  -8.895  1.00  0.00     0.005 A 
HETATM   12  C12 UNL     1     -10.050  11.890 -10.079  1.00  0.00     0.001 A 
HETATM   13  C13 UNL     1      -9.243  12.953 -10.400  1.00  0.00     0.001 A 
HETATM   14  C14 UNL     1      -9.351  14.209  -9.859  1.00  0.00     0.014 A 
ENDBRANCH   3   6
ENDBRANCH   1   3
BRANCH   1  15
HETATM   15  C1  UNL     1     -11.351  18.628 -10.072  1.00  0.00     0.159 A 
HETATM   16  N2  UNL     1     -12.368  17.928 -10.535  1.00  0.00    -0.335 N 
HETATM   17  C2  UNL     1     -12.843  18.178 -11.721  1.00  0.00     0.051 A 
ATOM     18  H2  UNL     1     -12.783  17.191  -9.964  1.00  0.00     0.168 HD
HETATM   19  C3  UNL     1     -13.922  17.510 -12.337  1.00  0.00     0.032 A 
HETATM   20  C7  UNL     1     -12.248  19.176 -12.444  1.00  0.00     0.036 A 
HETATM   21  C4  UNL     1     -14.311  17.878 -13.587  1.00  0.00     0.026 A 
HETATM   22  C5  UNL     1     -13.737  18.874 -14.341  1.00  0.00     0.035 A 
HETATM   23 CL1  UNL     1     -14.243  19.331 -15.929  1.00  0.00    -0.084 Cl
HETATM   24  C6  UNL     1     -12.672  19.534 -13.734  1.00  0.00     0.045 A 
HETATM   25  S2  UNL     1     -11.028  19.700 -11.361  1.00  0.00    -0.051 SA
ENDBRANCH   1  15
TORSDOF 3
ENDMDL
