MODEL 14
REMARK VINA RESULT: -6.112293995      3.201      6.299
REMARK  3 active torsions:
REMARK  status: ('A' for Active; 'I' for Inactive)
REMARK    1  A    between atoms: S1_2  and  N1_4 
REMARK    2  A    between atoms: S1_2  and  C8_17 
REMARK    3  A    between atoms: N1_4  and  C1_6 
ROOT
HETATM    1  N1  UNL     1     -12.674  18.717  -8.832  1.00  0.00    -0.260 N 
ATOM      2  H1  UNL     1     -13.448  18.947  -8.208  1.00  0.00     0.181 HD
ENDROOT
BRANCH   1   3
HETATM    3  S1  UNL     1     -11.887  19.933  -9.751  1.00  0.00     0.266 S 
HETATM    4  O1  UNL     1     -12.483  21.258  -9.394  1.00  0.00    -0.200 OA
HETATM    5  O2  UNL     1     -10.423  19.989  -9.394  1.00  0.00    -0.200 OA
BRANCH   3   6
HETATM    6  C8  UNL     1     -12.057  19.623 -11.505  1.00  0.00     0.098 A 
HETATM    7  C9  UNL     1     -11.018  19.911 -12.342  1.00  0.00     0.076 A 
HETATM    8  S3  UNL     1     -11.608  19.457 -13.873  1.00  0.00    -0.100 SA
HETATM    9  C10 UNL     1     -13.159  18.911 -13.413  1.00  0.00     0.016 A 
HETATM   10  C11 UNL     1     -14.248  18.377 -14.129  1.00  0.00     0.019 A 
HETATM   11  C15 UNL     1     -13.174  19.101 -12.060  1.00  0.00     0.005 A 
HETATM   12  C12 UNL     1     -15.409  18.012 -13.488  1.00  0.00     0.001 A 
HETATM   13  C13 UNL     1     -15.417  18.206 -12.129  1.00  0.00     0.001 A 
HETATM   14  C14 UNL     1     -14.373  18.723 -11.406  1.00  0.00     0.014 A 
ENDBRANCH   3   6
ENDBRANCH   1   3
BRANCH   1  15
HETATM   15  C1  UNL     1     -12.203  17.356  -8.970  1.00  0.00     0.159 A 
HETATM   16  N2  UNL     1     -10.997  16.944  -9.310  1.00  0.00    -0.335 N 
HETATM   17  C2  UNL     1     -10.746  15.669  -9.395  1.00  0.00     0.051 A 
ATOM     18  H2  UNL     1     -10.262  17.623  -9.507  1.00  0.00     0.168 HD
HETATM   19  C3  UNL     1      -9.507  15.092  -9.746  1.00  0.00     0.032 A 
HETATM   20  C7  UNL     1     -11.770  14.802  -9.121  1.00  0.00     0.036 A 
HETATM   21  C4  UNL     1      -9.390  13.738  -9.795  1.00  0.00     0.026 A 
HETATM   22  C5  UNL     1     -10.394  12.839  -9.528  1.00  0.00     0.035 A 
HETATM   23 CL1  UNL     1     -10.230  11.120  -9.594  1.00  0.00    -0.084 Cl
HETATM   24  C6  UNL     1     -11.618  13.408  -9.180  1.00  0.00     0.045 A 
HETATM   25  S2  UNL     1     -13.044  15.885  -8.755  1.00  0.00    -0.051 SA
ENDBRANCH   1  15
TORSDOF 3
ENDMDL
