MODEL 5
REMARK VINA RESULT: -6.719074175      1.881      2.448
REMARK  3 active torsions:
REMARK  status: ('A' for Active; 'I' for Inactive)
REMARK    1  A    between atoms: S1_2  and  N1_4 
REMARK    2  A    between atoms: S1_2  and  C8_17 
REMARK    3  A    between atoms: N1_4  and  C1_6 
ROOT
HETATM    1  N1  UNL     1     -10.650  18.532  -8.619  1.00  0.00    -0.260 N 
ATOM      2  H1  UNL     1     -10.584  19.412  -8.106  1.00  0.00     0.181 HD
ENDROOT
BRANCH   1   3
HETATM    3  S1  UNL     1      -9.613  17.215  -8.257  1.00  0.00     0.266 S 
HETATM    4  O1  UNL     1      -8.603  17.091  -9.353  1.00  0.00    -0.200 OA
HETATM    5  O2  UNL     1      -8.858  17.483  -6.980  1.00  0.00    -0.200 OA
BRANCH   3   6
HETATM    6  C8  UNL     1     -10.541  15.694  -8.087  1.00  0.00     0.098 A 
HETATM    7  C9  UNL     1     -11.571  15.631  -7.192  1.00  0.00     0.076 A 
HETATM    8  S3  UNL     1     -12.154  14.043  -7.375  1.00  0.00    -0.100 SA
HETATM    9  C10 UNL     1     -11.078  13.497  -8.583  1.00  0.00     0.016 A 
HETATM   10  C11 UNL     1     -10.928  12.273  -9.263  1.00  0.00     0.019 A 
HETATM   11  C15 UNL     1     -10.282  14.584  -8.814  1.00  0.00     0.005 A 
HETATM   12  C12 UNL     1      -9.949  12.105 -10.215  1.00  0.00     0.001 A 
HETATM   13  C13 UNL     1      -9.153  13.200 -10.441  1.00  0.00     0.001 A 
HETATM   14  C14 UNL     1      -9.276  14.404  -9.795  1.00  0.00     0.014 A 
ENDBRANCH   3   6
ENDBRANCH   1   3
BRANCH   1  15
HETATM   15  C1  UNL     1     -11.622  18.354  -9.677  1.00  0.00     0.159 A 
HETATM   16  N2  UNL     1     -11.445  18.502 -10.976  1.00  0.00    -0.335 N 
HETATM   17  C2  UNL     1     -12.439  18.308 -11.793  1.00  0.00     0.051 A 
ATOM     18  H2  UNL     1     -10.530  18.768 -11.340  1.00  0.00     0.168 HD
HETATM   19  C3  UNL     1     -12.391  18.431 -13.198  1.00  0.00     0.032 A 
HETATM   20  C7  UNL     1     -13.646  17.954 -11.251  1.00  0.00     0.036 A 
HETATM   21  C4  UNL     1     -13.514  18.197 -13.929  1.00  0.00     0.026 A 
HETATM   22  C5  UNL     1     -14.740  17.841 -13.419  1.00  0.00     0.035 A 
HETATM   23 CL1  UNL     1     -16.158  17.547 -14.361  1.00  0.00    -0.084 Cl
HETATM   24  C6  UNL     1     -14.788  17.719 -12.032  1.00  0.00     0.045 A 
HETATM   25  S2  UNL     1     -13.271  17.921  -9.580  1.00  0.00    -0.051 SA
ENDBRANCH   1  15
TORSDOF 3
ENDMDL
