MODEL 13
REMARK VINA RESULT: -6.220998581      3.236      6.480
REMARK  3 active torsions:
REMARK  status: ('A' for Active; 'I' for Inactive)
REMARK    1  A    between atoms: S1_2  and  N1_4 
REMARK    2  A    between atoms: S1_2  and  C8_17 
REMARK    3  A    between atoms: N1_4  and  C1_6 
ROOT
HETATM    1  N1  UNL     1     -11.361  19.274  -8.411  1.00  0.00    -0.260 N 
ATOM      2  H1  UNL     1     -10.688  19.821  -7.873  1.00  0.00     0.181 HD
ENDROOT
BRANCH   1   3
HETATM    3  S1  UNL     1     -12.709  20.018  -9.165  1.00  0.00     0.266 S 
HETATM    4  O1  UNL     1     -13.955  19.340  -8.687  1.00  0.00    -0.200 OA
HETATM    5  O2  UNL     1     -12.802  21.466  -8.754  1.00  0.00    -0.200 OA
BRANCH   3   6
HETATM    6  C8  UNL     1     -12.587  19.916 -10.947  1.00  0.00     0.098 A 
HETATM    7  C9  UNL     1     -11.691  20.709 -11.606  1.00  0.00     0.076 A 
HETATM    8  S3  UNL     1     -11.910  20.276 -13.237  1.00  0.00    -0.100 SA
HETATM    9  C10 UNL     1     -13.132  19.099 -13.045  1.00  0.00     0.016 A 
HETATM   10  C11 UNL     1     -13.839  18.282 -13.947  1.00  0.00     0.019 A 
HETATM   11  C15 UNL     1     -13.338  19.076 -11.693  1.00  0.00     0.005 A 
HETATM   12  C12 UNL     1     -14.797  17.399 -13.505  1.00  0.00     0.001 A 
HETATM   13  C13 UNL     1     -14.999  17.381 -12.148  1.00  0.00     0.001 A 
HETATM   14  C14 UNL     1     -14.326  18.164 -11.245  1.00  0.00     0.014 A 
ENDBRANCH   3   6
ENDBRANCH   1   3
BRANCH   1  15
HETATM   15  C1  UNL     1     -11.209  17.842  -8.562  1.00  0.00     0.159 A 
HETATM   16  N2  UNL     1     -11.790  16.885  -7.864  1.00  0.00    -0.335 N 
HETATM   17  C2  UNL     1     -11.531  15.638  -8.131  1.00  0.00     0.051 A 
ATOM     18  H2  UNL     1     -12.442  17.122  -7.116  1.00  0.00     0.168 HD
HETATM   19  C3  UNL     1     -12.079  14.519  -7.468  1.00  0.00     0.032 A 
HETATM   20  C7  UNL     1     -10.648  15.377  -9.144  1.00  0.00     0.036 A 
HETATM   21  C4  UNL     1     -11.715  13.267  -7.855  1.00  0.00     0.026 A 
HETATM   22  C5  UNL     1     -10.832  12.969  -8.866  1.00  0.00     0.035 A 
HETATM   23 CL1  UNL     1     -10.379  11.372  -9.347  1.00  0.00    -0.084 Cl
HETATM   24  C6  UNL     1     -10.291  14.072  -9.521  1.00  0.00     0.045 A 
HETATM   25  S2  UNL     1     -10.240  16.959  -9.656  1.00  0.00    -0.051 SA
ENDBRANCH   1  15
TORSDOF 3
ENDMDL
