MODEL 13
REMARK VINA RESULT: -6.627239151      2.318      3.667
REMARK  1 active torsions:
REMARK  status: ('A' for Active; 'I' for Inactive)
REMARK    1  A    between atoms: C5_5  and  C6_6 
ROOT
HETATM    1  C1  UNL     1      29.890  69.194  47.129  1.00  0.00     0.014 C 
HETATM    2  C2  UNL     1      30.472  68.123  46.622  1.00  0.00    -0.084 C 
HETATM    3  C3  UNL     1      31.742  68.075  45.841  1.00  0.00     0.034 C 
HETATM    4  C4  UNL     1      31.437  66.955  44.852  1.00  0.00     0.015 C 
HETATM    5  C5  UNL     1      30.742  65.928  45.699  1.00  0.00    -0.029 A 
HETATM    6  C9  UNL     1      31.108  65.748  47.127  1.00  0.00     0.020 A 
HETATM    7  C10 UNL     1      30.011  66.704  46.699  1.00  0.00     0.023 A 
ENDROOT
BRANCH   5   8
HETATM    8  C6  UNL     1      30.187  64.749  44.982  1.00  0.00    -0.014 C 
HETATM    9  C7  UNL     1      28.765  65.005  44.505  1.00  0.00     0.010 C 
HETATM   10  C8  UNL     1      30.991  64.325  43.780  1.00  0.00     0.010 C 
ENDBRANCH   5   8
TORSDOF 1
ENDMDL
