MODEL 12
REMARK VINA RESULT: -6.628400963      2.171      3.533
REMARK  1 active torsions:
REMARK  status: ('A' for Active; 'I' for Inactive)
REMARK    1  A    between atoms: C5_5  and  C6_6 
ROOT
HETATM    1  C1  UNL     1      28.441  67.707  48.246  1.00  0.00     0.014 C 
HETATM    2  C2  UNL     1      29.245  67.172  47.345  1.00  0.00    -0.084 C 
HETATM    3  C3  UNL     1      30.416  67.821  46.686  1.00  0.00     0.034 C 
HETATM    4  C4  UNL     1      30.342  67.213  45.290  1.00  0.00     0.015 C 
HETATM    5  C5  UNL     1      30.015  65.772  45.559  1.00  0.00    -0.029 A 
HETATM    6  C9  UNL     1      30.528  65.092  46.774  1.00  0.00     0.020 A 
HETATM    7  C10 UNL     1      29.185  65.797  46.762  1.00  0.00     0.023 A 
ENDROOT
BRANCH   5   8
HETATM    8  C6  UNL     1      29.737  64.926  44.367  1.00  0.00    -0.014 C 
HETATM    9  C7  UNL     1      31.005  64.273  43.838  1.00  0.00     0.010 C 
HETATM   10  C8  UNL     1      28.738  63.825  44.614  1.00  0.00     0.010 C 
ENDBRANCH   5   8
TORSDOF 1
ENDMDL
