MODEL 8
REMARK VINA RESULT: -6.740585580      2.256      3.771
REMARK  1 active torsions:
REMARK  status: ('A' for Active; 'I' for Inactive)
REMARK    1  A    between atoms: C5_5  and  C6_6 
ROOT
HETATM    1  C1  UNL     1      29.902  69.278  47.202  1.00  0.00     0.014 C 
HETATM    2  C2  UNL     1      30.388  68.245  46.539  1.00  0.00    -0.084 C 
HETATM    3  C3  UNL     1      31.727  68.143  45.891  1.00  0.00     0.034 C 
HETATM    4  C4  UNL     1      31.397  67.300  44.664  1.00  0.00     0.015 C 
HETATM    5  C5  UNL     1      30.464  66.256  45.205  1.00  0.00    -0.029 A 
HETATM    6  C9  UNL     1      30.617  65.747  46.591  1.00  0.00     0.020 A 
HETATM    7  C10 UNL     1      29.727  66.932  46.271  1.00  0.00     0.023 A 
ENDROOT
BRANCH   5   8
HETATM    8  C6  UNL     1      29.845  65.345  44.206  1.00  0.00    -0.014 C 
HETATM    9  C7  UNL     1      30.779  64.202  43.837  1.00  0.00     0.010 C 
HETATM   10  C8  UNL     1      28.545  64.729  44.658  1.00  0.00     0.010 C 
ENDBRANCH   5   8
TORSDOF 1
ENDMDL
