MODEL 12
REMARK VINA RESULT: -10.151517614      0.844      1.347
REMARK  15 active torsions:
REMARK  status: ('A' for Active; 'I' for Inactive)
REMARK    1  A    between atoms: C1_2  and  C2_4 
REMARK    2  A    between atoms: N2_8  and  C6_9 
REMARK    3  A    between atoms: C7_11  and  C8_12 
REMARK    4  A    between atoms: C8_12  and  O3_13 
REMARK    5  A    between atoms: O3_13  and  P1_14 
REMARK    6  A    between atoms: P1_14  and  O6_17 
REMARK    7  A    between atoms: O6_17  and  P2_18 
REMARK    8  A    between atoms: P2_18  and  O9_21 
REMARK    9  A    between atoms: O9_21  and  C9_22 
REMARK   10  A    between atoms: C9_22  and  C10_23 
REMARK   11  A    between atoms: C11_25  and  N3_26 
REMARK   12  A    between atoms: C17_39  and  O11_40 
REMARK   13  A    between atoms: C18_42  and  O12_43 
REMARK   14  A    between atoms: C19_45  and  O13_46 
REMARK   15  A    between atoms: C20_48  and  O14_49 
ROOT
HETATM    1  P2  UNL     1     -30.769  54.436 -25.018  1.00  0.00     0.417 P 
HETATM    2  O7  UNL     1     -31.154  55.270 -26.203  1.00  0.00    -0.624 OA
HETATM    3  O8  UNL     1     -32.021  54.716 -23.829  1.00  0.00    -0.624 OA
ENDROOT
BRANCH   1   4
HETATM    4  O6  UNL     1     -30.653  52.857 -25.327  1.00  0.00    -0.180 OA
BRANCH   4   5
HETATM    5  P1  UNL     1     -29.487  52.352 -26.385  1.00  0.00     0.417 P 
HETATM    6  O4  UNL     1     -29.527  50.921 -26.711  1.00  0.00    -0.624 OA
HETATM    7  O5  UNL     1     -27.918  52.542 -25.537  1.00  0.00    -0.624 OA
BRANCH   5   8
HETATM    8  O3  UNL     1     -29.367  53.372 -27.661  1.00  0.00    -0.287 OA
BRANCH   8   9
HETATM    9  C8  UNL     1     -29.278  52.717 -28.909  1.00  0.00     0.216 C 
BRANCH   9  10
HETATM   10  C7  UNL     1     -29.599  53.904 -29.869  1.00  0.00     0.180 C 
HETATM   11  O2  UNL     1     -28.419  54.443 -30.318  1.00  0.00    -0.353 OA
HETATM   12  C6  UNL     1     -28.446  54.631 -31.681  1.00  0.00     0.259 C 
HETATM   13  C20 UNL     1     -29.941  54.638 -32.019  1.00  0.00     0.198 C 
HETATM   14  C19 UNL     1     -30.421  53.536 -31.029  1.00  0.00     0.182 C 
BRANCH  12  15
HETATM   15  N2  UNL     1     -27.905  53.376 -32.247  1.00  0.00    -0.336 N 
HETATM   16  C5  UNL     1     -26.799  52.808 -31.763  1.00  0.00     0.093 A 
HETATM   17  C4  UNL     1     -26.257  51.693 -32.400  1.00  0.00     0.018 A 
HETATM   18  C3  UNL     1     -26.860  51.190 -33.517  1.00  0.00     0.019 A 
HETATM   19  C2  UNL     1     -27.992  51.800 -33.987  1.00  0.00     0.044 A 
HETATM   20  C21 UNL     1     -28.512  52.901 -33.341  1.00  0.00     0.110 A 
BRANCH  19  21
HETATM   21  C1  UNL     1     -28.642  51.332 -35.197  1.00  0.00     0.266 C 
HETATM   22  N1  UNL     1     -28.144  51.716 -36.462  1.00  0.00    -0.057 NA
HETATM   23  O1  UNL     1     -29.671  50.574 -35.184  1.00  0.00    -0.271 OA
ENDBRANCH  19  21
ENDBRANCH  12  15
BRANCH  13  24
HETATM   24  O14 UNL     1     -30.521  55.820 -31.561  1.00  0.00    -0.388 OA
ATOM     25  H14 UNL     1     -31.285  56.027 -32.086  1.00  0.00     0.210 HD
ENDBRANCH  13  24
BRANCH  14  26
HETATM   26  O13 UNL     1     -31.804  53.632 -30.833  1.00  0.00    -0.390 OA
ATOM     27  H13 UNL     1     -32.237  52.818 -30.603  1.00  0.00     0.210 HD
ENDBRANCH  14  26
ENDBRANCH   9  10
ENDBRANCH   8   9
ENDBRANCH   5   8
ENDBRANCH   4   5
ENDBRANCH   1   4
BRANCH   1  28
HETATM   28  O9  UNL     1     -29.412  55.235 -24.303  1.00  0.00    -0.287 OA
BRANCH  28  29
HETATM   29  C9  UNL     1     -29.288  56.412 -25.113  1.00  0.00     0.216 C 
BRANCH  29  30
HETATM   30  C10 UNL     1     -29.521  57.594 -24.273  1.00  0.00     0.180 C 
HETATM   31  O10 UNL     1     -30.576  58.363 -24.841  1.00  0.00    -0.353 OA
HETATM   32  C11 UNL     1     -30.672  59.373 -23.861  1.00  0.00     0.262 C 
HETATM   33  C17 UNL     1     -31.026  58.427 -22.681  1.00  0.00     0.198 C 
HETATM   34  C18 UNL     1     -29.908  57.363 -22.875  1.00  0.00     0.182 C 
BRANCH  32  35
HETATM   35  N3  UNL     1     -31.716  60.260 -24.200  1.00  0.00    -0.297 N 
HETATM   36  C12 UNL     1     -33.054  59.987 -24.369  1.00  0.00     0.188 A 
HETATM   37  N4  UNL     1     -33.724  61.098 -24.678  1.00  0.00    -0.346 N 
HETATM   38  C13 UNL     1     -32.807  62.111 -24.700  1.00  0.00     0.119 A 
ATOM     39  H4  UNL     1     -34.723  61.176 -24.862  1.00  0.00     0.167 HD
HETATM   40  C14 UNL     1     -32.946  63.441 -24.969  1.00  0.00     0.148 A 
HETATM   41  C16 UNL     1     -31.567  61.566 -24.404  1.00  0.00     0.142 A 
HETATM   42  N5  UNL     1     -34.224  64.008 -25.237  1.00  0.00    -0.080 NA
HETATM   43  N6  UNL     1     -31.867  64.240 -24.960  1.00  0.00    -0.339 N 
HETATM   44  C15 UNL     1     -30.658  63.739 -24.689  1.00  0.00     0.183 A 
ATOM     45  H6  UNL     1     -31.970  65.235 -25.162  1.00  0.00     0.167 HD
HETATM   46  N7  UNL     1     -30.525  62.406 -24.412  1.00  0.00    -0.336 N 
ATOM     47  H7  UNL     1     -29.597  62.039 -24.204  1.00  0.00     0.168 HD
ENDBRANCH  32  35
BRANCH  33  48
HETATM   48  O11 UNL     1     -31.031  59.027 -21.470  1.00  0.00    -0.388 OA
ATOM     49  H11 UNL     1     -31.887  59.327 -21.186  1.00  0.00     0.210 HD
ENDBRANCH  33  48
BRANCH  34  50
HETATM   50  O12 UNL     1     -28.849  57.786 -22.013  1.00  0.00    -0.390 OA
ATOM     51  H12 UNL     1     -28.852  57.256 -21.225  1.00  0.00     0.210 HD
ENDBRANCH  34  50
ENDBRANCH  29  30
ENDBRANCH  28  29
ENDBRANCH   1  28
TORSDOF 15
ENDMDL
