MODEL 2
REMARK VINA RESULT: -10.727698381      1.198      1.989
REMARK  15 active torsions:
REMARK  status: ('A' for Active; 'I' for Inactive)
REMARK    1  A    between atoms: C1_2  and  C2_4 
REMARK    2  A    between atoms: N2_8  and  C6_9 
REMARK    3  A    between atoms: C7_11  and  C8_12 
REMARK    4  A    between atoms: C8_12  and  O3_13 
REMARK    5  A    between atoms: O3_13  and  P1_14 
REMARK    6  A    between atoms: P1_14  and  O6_17 
REMARK    7  A    between atoms: O6_17  and  P2_18 
REMARK    8  A    between atoms: P2_18  and  O9_21 
REMARK    9  A    between atoms: O9_21  and  C9_22 
REMARK   10  A    between atoms: C9_22  and  C10_23 
REMARK   11  A    between atoms: C11_25  and  N3_26 
REMARK   12  A    between atoms: C17_39  and  O11_40 
REMARK   13  A    between atoms: C18_42  and  O12_43 
REMARK   14  A    between atoms: C19_45  and  O13_46 
REMARK   15  A    between atoms: C20_48  and  O14_49 
ROOT
HETATM    1  P2  UNL     1     -30.334  55.029 -24.878  1.00  0.00     0.417 P 
HETATM    2  O7  UNL     1     -29.031  55.634 -25.308  1.00  0.00    -0.624 OA
HETATM    3  O8  UNL     1     -31.549  55.785 -25.885  1.00  0.00    -0.624 OA
ENDROOT
BRANCH   1   4
HETATM    4  O6  UNL     1     -30.409  53.426 -25.043  1.00  0.00    -0.180 OA
BRANCH   4   5
HETATM    5  P1  UNL     1     -29.472  52.716 -26.206  1.00  0.00     0.417 P 
HETATM    6  O4  UNL     1     -29.717  51.282 -26.406  1.00  0.00    -0.624 OA
HETATM    7  O5  UNL     1     -27.785  52.768 -25.598  1.00  0.00    -0.624 OA
BRANCH   5   8
HETATM    8  O3  UNL     1     -29.426  53.630 -27.565  1.00  0.00    -0.287 OA
BRANCH   8   9
HETATM    9  C8  UNL     1     -29.276  52.880 -28.752  1.00  0.00     0.216 C 
BRANCH   9  10
HETATM   10  C7  UNL     1     -29.610  53.972 -29.814  1.00  0.00     0.180 C 
HETATM   11  O2  UNL     1     -28.436  54.490 -30.302  1.00  0.00    -0.353 OA
HETATM   12  C6  UNL     1     -28.456  54.558 -31.675  1.00  0.00     0.259 C 
HETATM   13  C20 UNL     1     -29.947  54.509 -32.022  1.00  0.00     0.198 C 
HETATM   14  C19 UNL     1     -30.416  53.488 -30.943  1.00  0.00     0.182 C 
BRANCH  12  15
HETATM   15  N2  UNL     1     -27.889  53.268 -32.126  1.00  0.00    -0.336 N 
HETATM   16  C5  UNL     1     -26.808  52.738 -31.550  1.00  0.00     0.093 A 
HETATM   17  C4  UNL     1     -26.236  51.582 -32.081  1.00  0.00     0.018 A 
HETATM   18  C3  UNL     1     -26.783  51.002 -33.189  1.00  0.00     0.019 A 
HETATM   19  C2  UNL     1     -27.891  51.575 -33.754  1.00  0.00     0.044 A 
HETATM   20  C21 UNL     1     -28.441  52.716 -33.213  1.00  0.00     0.110 A 
BRANCH  19  21
HETATM   21  C1  UNL     1     -28.481  51.023 -34.959  1.00  0.00     0.266 C 
HETATM   22  N1  UNL     1     -29.281  49.860 -34.888  1.00  0.00    -0.057 NA
HETATM   23  O1  UNL     1     -28.311  51.540 -36.116  1.00  0.00    -0.271 OA
ENDBRANCH  19  21
ENDBRANCH  12  15
BRANCH  13  24
HETATM   24  O14 UNL     1     -30.552  55.715 -31.674  1.00  0.00    -0.388 OA
ATOM     25  H14 UNL     1     -31.492  55.649 -31.790  1.00  0.00     0.210 HD
ENDBRANCH  13  24
BRANCH  14  26
HETATM   26  O13 UNL     1     -31.802  53.577 -30.765  1.00  0.00    -0.390 OA
ATOM     27  H13 UNL     1     -32.323  53.144 -31.431  1.00  0.00     0.210 HD
ENDBRANCH  14  26
ENDBRANCH   9  10
ENDBRANCH   8   9
ENDBRANCH   5   8
ENDBRANCH   4   5
ENDBRANCH   1   4
BRANCH   1  28
HETATM   28  O9  UNL     1     -30.678  55.713 -23.327  1.00  0.00    -0.287 OA
BRANCH  28  29
HETATM   29  C9  UNL     1     -31.684  56.686 -23.639  1.00  0.00     0.216 C 
BRANCH  29  30
HETATM   30  C10 UNL     1     -31.258  57.993 -23.119  1.00  0.00     0.180 C 
HETATM   31  O10 UNL     1     -31.496  58.984 -24.113  1.00  0.00    -0.353 OA
HETATM   32  C11 UNL     1     -31.095  60.128 -23.391  1.00  0.00     0.262 C 
HETATM   33  C17 UNL     1     -32.143  59.983 -22.253  1.00  0.00     0.198 C 
HETATM   34  C18 UNL     1     -31.919  58.483 -21.903  1.00  0.00     0.182 C 
BRANCH  32  35
HETATM   35  N3  UNL     1     -31.289  61.277 -24.186  1.00  0.00    -0.297 N 
HETATM   36  C12 UNL     1     -32.135  61.448 -25.257  1.00  0.00     0.188 A 
HETATM   37  N4  UNL     1     -32.036  62.688 -25.740  1.00  0.00    -0.346 N 
HETATM   38  C13 UNL     1     -31.118  63.335 -24.963  1.00  0.00     0.119 A 
ATOM     39  H4  UNL     1     -32.545  63.076 -26.533  1.00  0.00     0.167 HD
HETATM   40  C14 UNL     1     -30.631  64.609 -25.020  1.00  0.00     0.148 A 
HETATM   41  C16 UNL     1     -30.665  62.438 -24.007  1.00  0.00     0.142 A 
HETATM   42  N5  UNL     1     -31.122  65.541 -25.977  1.00  0.00    -0.080 NA
HETATM   43  N6  UNL     1     -29.689  65.003 -24.148  1.00  0.00    -0.339 N 
HETATM   44  C15 UNL     1     -29.227  64.156 -23.224  1.00  0.00     0.183 A 
ATOM     45  H6  UNL     1     -29.325  65.955 -24.191  1.00  0.00     0.167 HD
HETATM   46  N7  UNL     1     -29.724  62.883 -23.165  1.00  0.00    -0.336 N 
ATOM     47  H7  UNL     1     -29.363  62.248 -22.453  1.00  0.00     0.168 HD
ENDBRANCH  32  35
BRANCH  33  48
HETATM   48  O11 UNL     1     -31.964  60.836 -21.221  1.00  0.00    -0.388 OA
ATOM     49  H11 UNL     1     -31.132  60.738 -20.772  1.00  0.00     0.210 HD
ENDBRANCH  33  48
BRANCH  34  50
HETATM   50  O12 UNL     1     -30.981  58.497 -20.825  1.00  0.00    -0.390 OA
ATOM     51  H12 UNL     1     -31.444  58.387 -20.003  1.00  0.00     0.210 HD
ENDBRANCH  34  50
ENDBRANCH  29  30
ENDBRANCH  28  29
ENDBRANCH   1  28
TORSDOF 15
ENDMDL
