MODEL 5
REMARK VINA RESULT: -10.423514802      2.595      9.984
REMARK  15 active torsions:
REMARK  status: ('A' for Active; 'I' for Inactive)
REMARK    1  A    between atoms: C1_2  and  C2_4 
REMARK    2  A    between atoms: N2_8  and  C6_9 
REMARK    3  A    between atoms: C7_11  and  C8_12 
REMARK    4  A    between atoms: C8_12  and  O3_13 
REMARK    5  A    between atoms: O3_13  and  P1_14 
REMARK    6  A    between atoms: P1_14  and  O6_17 
REMARK    7  A    between atoms: O6_17  and  P2_18 
REMARK    8  A    between atoms: P2_18  and  O9_21 
REMARK    9  A    between atoms: O9_21  and  C9_22 
REMARK   10  A    between atoms: C9_22  and  C10_23 
REMARK   11  A    between atoms: C11_25  and  N3_26 
REMARK   12  A    between atoms: C17_39  and  O11_40 
REMARK   13  A    between atoms: C18_42  and  O12_43 
REMARK   14  A    between atoms: C19_45  and  O13_46 
REMARK   15  A    between atoms: C20_48  and  O14_49 
ROOT
HETATM    1  P2  UNL     1     -29.633  52.249 -25.189  1.00  0.00     0.417 P 
HETATM    2  O7  UNL     1     -29.040  51.580 -23.986  1.00  0.00    -0.624 OA
HETATM    3  O8  UNL     1     -30.065  50.948 -26.276  1.00  0.00    -0.624 OA
ENDROOT
BRANCH   1   4
HETATM    4  O6  UNL     1     -30.933  53.151 -24.874  1.00  0.00    -0.180 OA
BRANCH   4   5
HETATM    5  P1  UNL     1     -31.198  53.619 -23.311  1.00  0.00     0.417 P 
HETATM    6  O4  UNL     1     -30.109  54.395 -22.705  1.00  0.00    -0.624 OA
HETATM    7  O5  UNL     1     -31.231  52.115 -22.332  1.00  0.00    -0.624 OA
BRANCH   5   8
HETATM    8  O3  UNL     1     -32.704  54.237 -23.127  1.00  0.00    -0.287 OA
BRANCH   8   9
HETATM    9  C8  UNL     1     -32.971  55.345 -23.961  1.00  0.00     0.216 C 
BRANCH   9  10
HETATM   10  C7  UNL     1     -33.747  56.260 -22.964  1.00  0.00     0.180 C 
HETATM   11  O2  UNL     1     -32.926  56.557 -21.904  1.00  0.00    -0.353 OA
HETATM   12  C6  UNL     1     -32.953  57.901 -21.616  1.00  0.00     0.259 C 
HETATM   13  C20 UNL     1     -34.256  58.387 -22.259  1.00  0.00     0.198 C 
HETATM   14  C19 UNL     1     -34.230  57.517 -23.551  1.00  0.00     0.182 C 
BRANCH  12  15
HETATM   15  N2  UNL     1     -31.858  58.483 -22.421  1.00  0.00    -0.336 N 
HETATM   16  C5  UNL     1     -30.765  57.782 -22.730  1.00  0.00     0.093 A 
HETATM   17  C4  UNL     1     -29.705  58.403 -23.389  1.00  0.00     0.018 A 
HETATM   18  C3  UNL     1     -29.790  59.727 -23.711  1.00  0.00     0.019 A 
HETATM   19  C2  UNL     1     -30.926  60.416 -23.377  1.00  0.00     0.044 A 
HETATM   20  C21 UNL     1     -31.962  59.782 -22.727  1.00  0.00     0.110 A 
BRANCH  19  21
HETATM   21  C1  UNL     1     -31.044  61.835 -23.656  1.00  0.00     0.266 C 
HETATM   22  N1  UNL     1     -30.525  62.782 -22.744  1.00  0.00    -0.057 NA
HETATM   23  O1  UNL     1     -31.610  62.291 -24.707  1.00  0.00    -0.271 OA
ENDBRANCH  19  21
ENDBRANCH  12  15
BRANCH  13  24
HETATM   24  O14 UNL     1     -35.346  57.921 -21.526  1.00  0.00    -0.388 OA
ATOM     25  H14 UNL     1     -35.942  58.639 -21.346  1.00  0.00     0.210 HD
ENDBRANCH  13  24
BRANCH  14  26
HETATM   26  O13 UNL     1     -35.509  57.456 -24.118  1.00  0.00    -0.390 OA
ATOM     27  H13 UNL     1     -35.600  56.849 -24.844  1.00  0.00     0.210 HD
ENDBRANCH  14  26
ENDBRANCH   9  10
ENDBRANCH   8   9
ENDBRANCH   5   8
ENDBRANCH   4   5
ENDBRANCH   1   4
BRANCH   1  28
HETATM   28  O9  UNL     1     -28.305  52.983 -26.019  1.00  0.00    -0.287 OA
BRANCH  28  29
HETATM   29  C9  UNL     1     -28.441  54.363 -25.654  1.00  0.00     0.216 C 
BRANCH  29  30
HETATM   30  C10 UNL     1     -28.879  55.126 -26.830  1.00  0.00     0.180 C 
HETATM   31  O10 UNL     1     -28.823  54.282 -27.975  1.00  0.00    -0.353 OA
HETATM   32  C11 UNL     1     -29.340  55.173 -28.938  1.00  0.00     0.262 C 
HETATM   33  C17 UNL     1     -30.722  55.370 -28.257  1.00  0.00     0.198 C 
HETATM   34  C18 UNL     1     -30.241  55.675 -26.809  1.00  0.00     0.182 C 
BRANCH  32  35
HETATM   35  N3  UNL     1     -29.421  54.521 -30.187  1.00  0.00    -0.297 N 
HETATM   36  C12 UNL     1     -30.532  54.018 -30.824  1.00  0.00     0.188 A 
HETATM   37  N4  UNL     1     -30.197  53.481 -31.998  1.00  0.00    -0.346 N 
HETATM   38  C13 UNL     1     -28.848  53.646 -32.130  1.00  0.00     0.119 A 
ATOM     39  H4  UNL     1     -30.825  53.035 -32.666  1.00  0.00     0.167 HD
HETATM   40  C14 UNL     1     -27.990  53.277 -33.125  1.00  0.00     0.148 A 
HETATM   41  C16 UNL     1     -28.387  54.290 -30.992  1.00  0.00     0.142 A 
HETATM   42  N5  UNL     1     -28.468  52.649 -34.311  1.00  0.00    -0.080 NA
HETATM   43  N6  UNL     1     -26.677  53.527 -33.002  1.00  0.00    -0.339 N 
HETATM   44  C15 UNL     1     -26.205  54.136 -31.911  1.00  0.00     0.183 A 
ATOM     45  H6  UNL     1     -26.036  53.250 -33.746  1.00  0.00     0.167 HD
HETATM   46  N7  UNL     1     -27.069  54.512 -30.919  1.00  0.00    -0.336 N 
ATOM     47  H7  UNL     1     -26.694  54.978 -30.093  1.00  0.00     0.168 HD
ENDBRANCH  32  35
BRANCH  33  48
HETATM   48  O11 UNL     1     -31.484  56.337 -28.815  1.00  0.00    -0.388 OA
ATOM     49  H11 UNL     1     -32.276  56.019 -29.231  1.00  0.00     0.210 HD
ENDBRANCH  33  48
BRANCH  34  50
HETATM   50  O12 UNL     1     -30.178  57.101 -26.739  1.00  0.00    -0.390 OA
ATOM     51  H12 UNL     1     -31.051  57.461 -26.839  1.00  0.00     0.210 HD
ENDBRANCH  34  50
ENDBRANCH  29  30
ENDBRANCH  28  29
ENDBRANCH   1  28
TORSDOF 15
ENDMDL
