MODEL 7
REMARK VINA RESULT: -10.374145961      1.536      2.226
REMARK  15 active torsions:
REMARK  status: ('A' for Active; 'I' for Inactive)
REMARK    1  A    between atoms: C1_2  and  C2_4 
REMARK    2  A    between atoms: N2_8  and  C6_9 
REMARK    3  A    between atoms: C7_11  and  C8_12 
REMARK    4  A    between atoms: C8_12  and  O3_13 
REMARK    5  A    between atoms: O3_13  and  P1_14 
REMARK    6  A    between atoms: P1_14  and  O6_17 
REMARK    7  A    between atoms: O6_17  and  P2_18 
REMARK    8  A    between atoms: P2_18  and  O9_21 
REMARK    9  A    between atoms: O9_21  and  C9_22 
REMARK   10  A    between atoms: C9_22  and  C10_23 
REMARK   11  A    between atoms: C11_25  and  N3_26 
REMARK   12  A    between atoms: C17_39  and  O11_40 
REMARK   13  A    between atoms: C18_42  and  O12_43 
REMARK   14  A    between atoms: C19_45  and  O13_46 
REMARK   15  A    between atoms: C20_48  and  O14_49 
ROOT
HETATM    1  P2  UNL     1     -30.152  54.899 -24.518  1.00  0.00     0.417 P 
HETATM    2  O7  UNL     1     -31.235  54.960 -25.554  1.00  0.00    -0.624 OA
HETATM    3  O8  UNL     1     -30.982  54.666 -22.995  1.00  0.00    -0.624 OA
ENDROOT
BRANCH   1   4
HETATM    4  O6  UNL     1     -29.083  53.713 -24.743  1.00  0.00    -0.180 OA
BRANCH   4   5
HETATM    5  P1  UNL     1     -29.261  52.743 -26.071  1.00  0.00     0.417 P 
HETATM    6  O4  UNL     1     -30.453  51.884 -26.053  1.00  0.00    -0.624 OA
HETATM    7  O5  UNL     1     -27.904  51.571 -26.026  1.00  0.00    -0.624 OA
BRANCH   5   8
HETATM    8  O3  UNL     1     -29.007  53.583 -27.454  1.00  0.00    -0.287 OA
BRANCH   8   9
HETATM    9  C8  UNL     1     -29.275  52.844 -28.627  1.00  0.00     0.216 C 
BRANCH   9  10
HETATM   10  C7  UNL     1     -29.598  54.005 -29.617  1.00  0.00     0.180 C 
HETATM   11  O2  UNL     1     -28.419  54.536 -30.079  1.00  0.00    -0.353 OA
HETATM   12  C6  UNL     1     -28.444  54.689 -31.445  1.00  0.00     0.259 C 
HETATM   13  C20 UNL     1     -29.938  54.683 -31.786  1.00  0.00     0.198 C 
HETATM   14  C19 UNL     1     -30.417  53.604 -30.770  1.00  0.00     0.182 C 
BRANCH  12  15
HETATM   15  N2  UNL     1     -27.898  53.422 -31.978  1.00  0.00    -0.336 N 
HETATM   16  C5  UNL     1     -26.829  52.836 -31.436  1.00  0.00     0.093 A 
HETATM   17  C4  UNL     1     -26.276  51.708 -32.040  1.00  0.00     0.018 A 
HETATM   18  C3  UNL     1     -26.829  51.211 -33.185  1.00  0.00     0.019 A 
HETATM   19  C2  UNL     1     -27.924  51.841 -33.715  1.00  0.00     0.044 A 
HETATM   20  C21 UNL     1     -28.456  52.953 -33.101  1.00  0.00     0.110 A 
BRANCH  19  21
HETATM   21  C1  UNL     1     -28.518  51.380 -34.956  1.00  0.00     0.266 C 
HETATM   22  N1  UNL     1     -28.128  51.956 -36.186  1.00  0.00    -0.057 NA
HETATM   23  O1  UNL     1     -29.403  50.459 -35.002  1.00  0.00    -0.271 OA
ENDBRANCH  19  21
ENDBRANCH  12  15
BRANCH  13  24
HETATM   24  O14 UNL     1     -30.523  55.874 -31.360  1.00  0.00    -0.388 OA
ATOM     25  H14 UNL     1     -30.660  55.846 -30.419  1.00  0.00     0.210 HD
ENDBRANCH  13  24
BRANCH  14  26
HETATM   26  O13 UNL     1     -31.801  53.701 -30.579  1.00  0.00    -0.390 OA
ATOM     27  H13 UNL     1     -32.180  53.029 -30.024  1.00  0.00     0.210 HD
ENDBRANCH  14  26
ENDBRANCH   9  10
ENDBRANCH   8   9
ENDBRANCH   5   8
ENDBRANCH   4   5
ENDBRANCH   1   4
BRANCH   1  28
HETATM   28  O9  UNL     1     -29.563  56.517 -24.361  1.00  0.00    -0.287 OA
BRANCH  28  29
HETATM   29  C9  UNL     1     -30.773  57.287 -24.381  1.00  0.00     0.216 C 
BRANCH  29  30
HETATM   30  C10 UNL     1     -30.588  58.487 -23.555  1.00  0.00     0.180 C 
HETATM   31  O10 UNL     1     -30.755  59.640 -24.371  1.00  0.00    -0.353 OA
HETATM   32  C11 UNL     1     -30.611  60.638 -23.385  1.00  0.00     0.262 C 
HETATM   33  C17 UNL     1     -31.819  60.190 -22.518  1.00  0.00     0.198 C 
HETATM   34  C18 UNL     1     -31.499  58.671 -22.418  1.00  0.00     0.182 C 
BRANCH  32  35
HETATM   35  N3  UNL     1     -30.786  61.909 -23.973  1.00  0.00    -0.297 N 
HETATM   36  C12 UNL     1     -31.854  62.379 -24.702  1.00  0.00     0.188 A 
HETATM   37  N4  UNL     1     -31.645  63.641 -25.080  1.00  0.00    -0.346 N 
HETATM   38  C13 UNL     1     -30.427  64.000 -24.578  1.00  0.00     0.119 A 
ATOM     39  H4  UNL     1     -32.273  64.223 -25.634  1.00  0.00     0.167 HD
HETATM   40  C14 UNL     1     -29.725  65.167 -24.672  1.00  0.00     0.148 A 
HETATM   41  C16 UNL     1     -29.910  62.907 -23.898  1.00  0.00     0.142 A 
HETATM   42  N5  UNL     1     -30.271  66.300 -25.339  1.00  0.00    -0.080 NA
HETATM   43  N6  UNL     1     -28.509  65.262 -24.111  1.00  0.00    -0.339 N 
HETATM   44  C15 UNL     1     -27.983  64.221 -23.459  1.00  0.00     0.183 A 
ATOM     45  H6  UNL     1     -27.984  66.133 -24.182  1.00  0.00     0.167 HD
HETATM   46  N7  UNL     1     -28.693  63.056 -23.360  1.00  0.00    -0.336 N 
ATOM     47  H7  UNL     1     -28.280  62.271 -22.857  1.00  0.00     0.168 HD
ENDBRANCH  32  35
BRANCH  33  48
HETATM   48  O11 UNL     1     -31.916  60.826 -21.329  1.00  0.00    -0.388 OA
ATOM     49  H11 UNL     1     -32.791  60.833 -20.960  1.00  0.00     0.210 HD
ENDBRANCH  33  48
BRANCH  34  50
HETATM   50  O12 UNL     1     -30.770  58.531 -21.197  1.00  0.00    -0.390 OA
ATOM     51  H12 UNL     1     -31.375  58.549 -20.464  1.00  0.00     0.210 HD
ENDBRANCH  34  50
ENDBRANCH  29  30
ENDBRANCH  28  29
ENDBRANCH   1  28
TORSDOF 15
ENDMDL
