MODEL 3
REMARK VINA RESULT: -10.587013892      2.842      9.827
REMARK  15 active torsions:
REMARK  status: ('A' for Active; 'I' for Inactive)
REMARK    1  A    between atoms: C1_2  and  C2_4 
REMARK    2  A    between atoms: N2_8  and  C6_9 
REMARK    3  A    between atoms: C7_11  and  C8_12 
REMARK    4  A    between atoms: C8_12  and  O3_13 
REMARK    5  A    between atoms: O3_13  and  P1_14 
REMARK    6  A    between atoms: P1_14  and  O6_17 
REMARK    7  A    between atoms: O6_17  and  P2_18 
REMARK    8  A    between atoms: P2_18  and  O9_21 
REMARK    9  A    between atoms: O9_21  and  C9_22 
REMARK   10  A    between atoms: C9_22  and  C10_23 
REMARK   11  A    between atoms: C11_25  and  N3_26 
REMARK   12  A    between atoms: C17_39  and  O11_40 
REMARK   13  A    between atoms: C18_42  and  O12_43 
REMARK   14  A    between atoms: C19_45  and  O13_46 
REMARK   15  A    between atoms: C20_48  and  O14_49 
ROOT
HETATM    1  P2  UNL     1     -29.672  52.233 -25.201  1.00  0.00     0.417 P 
HETATM    2  O7  UNL     1     -29.005  51.534 -24.055  1.00  0.00    -0.624 OA
HETATM    3  O8  UNL     1     -30.135  50.962 -26.311  1.00  0.00    -0.624 OA
ENDROOT
BRANCH   1   4
HETATM    4  O6  UNL     1     -30.970  53.096 -24.788  1.00  0.00    -0.180 OA
BRANCH   4   5
HETATM    5  P1  UNL     1     -31.176  53.481 -23.193  1.00  0.00     0.417 P 
HETATM    6  O4  UNL     1     -30.118  54.322 -22.619  1.00  0.00    -0.624 OA
HETATM    7  O5  UNL     1     -31.027  51.944 -22.279  1.00  0.00    -0.624 OA
BRANCH   5   8
HETATM    8  O3  UNL     1     -32.713  53.965 -22.897  1.00  0.00    -0.287 OA
BRANCH   8   9
HETATM    9  C8  UNL     1     -33.164  54.991 -23.756  1.00  0.00     0.216 C 
BRANCH   9  10
HETATM   10  C7  UNL     1     -34.153  55.732 -22.805  1.00  0.00     0.180 C 
HETATM   11  O2  UNL     1     -33.445  56.268 -21.758  1.00  0.00    -0.353 OA
HETATM   12  C6  UNL     1     -33.804  57.577 -21.533  1.00  0.00     0.259 C 
HETATM   13  C20 UNL     1     -35.177  57.699 -22.202  1.00  0.00     0.198 C 
HETATM   14  C19 UNL     1     -34.921  56.805 -23.452  1.00  0.00     0.182 C 
BRANCH  12  15
HETATM   15  N2  UNL     1     -32.873  58.372 -22.362  1.00  0.00    -0.336 N 
HETATM   16  C5  UNL     1     -33.282  59.445 -23.042  1.00  0.00     0.093 A 
HETATM   17  C4  UNL     1     -32.400  60.097 -23.904  1.00  0.00     0.018 A 
HETATM   18  C3  UNL     1     -31.125  59.631 -24.050  1.00  0.00     0.019 A 
HETATM   19  C2  UNL     1     -30.742  58.525 -23.338  1.00  0.00     0.044 A 
HETATM   20  C21 UNL     1     -31.629  57.897 -22.491  1.00  0.00     0.110 A 
BRANCH  19  21
HETATM   21  C1  UNL     1     -29.413  57.964 -23.495  1.00  0.00     0.266 C 
HETATM   22  N1  UNL     1     -28.759  58.030 -24.746  1.00  0.00    -0.057 NA
HETATM   23  O1  UNL     1     -28.783  57.393 -22.541  1.00  0.00    -0.271 OA
ENDBRANCH  19  21
ENDBRANCH  12  15
BRANCH  13  24
HETATM   24  O14 UNL     1     -36.130  57.013 -21.450  1.00  0.00    -0.388 OA
ATOM     25  H14 UNL     1     -37.002  57.248 -21.746  1.00  0.00     0.210 HD
ENDBRANCH  13  24
BRANCH  14  26
HETATM   26  O13 UNL     1     -36.138  56.407 -24.018  1.00  0.00    -0.390 OA
ATOM     27  H13 UNL     1     -36.317  56.761 -24.881  1.00  0.00     0.210 HD
ENDBRANCH  14  26
ENDBRANCH   9  10
ENDBRANCH   8   9
ENDBRANCH   5   8
ENDBRANCH   4   5
ENDBRANCH   1   4
BRANCH   1  28
HETATM   28  O9  UNL     1     -28.402  53.022 -26.071  1.00  0.00    -0.287 OA
BRANCH  28  29
HETATM   29  C9  UNL     1     -28.599  54.398 -25.718  1.00  0.00     0.216 C 
BRANCH  29  30
HETATM   30  C10 UNL     1     -29.001  55.144 -26.918  1.00  0.00     0.180 C 
HETATM   31  O10 UNL     1     -28.898  54.288 -28.050  1.00  0.00    -0.353 OA
HETATM   32  C11 UNL     1     -29.388  55.163 -29.042  1.00  0.00     0.262 C 
HETATM   33  C17 UNL     1     -30.795  55.358 -28.412  1.00  0.00     0.198 C 
HETATM   34  C18 UNL     1     -30.367  55.683 -26.952  1.00  0.00     0.182 C 
BRANCH  32  35
HETATM   35  N3  UNL     1     -29.419  54.496 -30.284  1.00  0.00    -0.297 N 
HETATM   36  C12 UNL     1     -30.503  53.972 -30.951  1.00  0.00     0.188 A 
HETATM   37  N4  UNL     1     -30.123  53.426 -32.107  1.00  0.00    -0.346 N 
HETATM   38  C13 UNL     1     -28.772  53.609 -32.198  1.00  0.00     0.119 A 
ATOM     39  H4  UNL     1     -30.723  52.964 -32.789  1.00  0.00     0.167 HD
HETATM   40  C14 UNL     1     -27.879  53.241 -33.161  1.00  0.00     0.148 A 
HETATM   41  C16 UNL     1     -28.357  54.272 -31.053  1.00  0.00     0.142 A 
HETATM   42  N5  UNL     1     -28.310  52.592 -34.354  1.00  0.00    -0.080 NA
HETATM   43  N6  UNL     1     -26.574  53.510 -33.000  1.00  0.00    -0.339 N 
HETATM   44  C15 UNL     1     -26.145  54.138 -31.901  1.00  0.00     0.183 A 
ATOM     45  H6  UNL     1     -25.906  53.234 -33.719  1.00  0.00     0.167 HD
HETATM   46  N7  UNL     1     -27.045  54.513 -30.942  1.00  0.00    -0.336 N 
ATOM     47  H7  UNL     1     -26.703  54.994 -30.110  1.00  0.00     0.168 HD
ENDBRANCH  32  35
BRANCH  33  48
HETATM   48  O11 UNL     1     -31.542  56.313 -29.008  1.00  0.00    -0.388 OA
ATOM     49  H11 UNL     1     -32.019  56.870 -28.403  1.00  0.00     0.210 HD
ENDBRANCH  33  48
BRANCH  34  50
HETATM   50  O12 UNL     1     -30.316  57.110 -26.896  1.00  0.00    -0.390 OA
ATOM     51  H12 UNL     1     -31.074  57.435 -26.424  1.00  0.00     0.210 HD
ENDBRANCH  34  50
ENDBRANCH  29  30
ENDBRANCH  28  29
ENDBRANCH   1  28
TORSDOF 15
ENDMDL
