MODEL 4
REMARK VINA RESULT: -10.454529139      3.023     10.615
REMARK  15 active torsions:
REMARK  status: ('A' for Active; 'I' for Inactive)
REMARK    1  A    between atoms: C1_2  and  C2_4 
REMARK    2  A    between atoms: N2_8  and  C6_9 
REMARK    3  A    between atoms: C7_11  and  C8_12 
REMARK    4  A    between atoms: C8_12  and  O3_13 
REMARK    5  A    between atoms: O3_13  and  P1_14 
REMARK    6  A    between atoms: P1_14  and  O6_17 
REMARK    7  A    between atoms: O6_17  and  P2_18 
REMARK    8  A    between atoms: P2_18  and  O9_21 
REMARK    9  A    between atoms: O9_21  and  C9_22 
REMARK   10  A    between atoms: C9_22  and  C10_23 
REMARK   11  A    between atoms: C11_25  and  N3_26 
REMARK   12  A    between atoms: C17_39  and  O11_40 
REMARK   13  A    between atoms: C18_42  and  O12_43 
REMARK   14  A    between atoms: C19_45  and  O13_46 
REMARK   15  A    between atoms: C20_48  and  O14_49 
ROOT
HETATM    1  P2  UNL     1     -29.342  52.042 -25.289  1.00  0.00     0.417 P 
HETATM    2  O7  UNL     1     -27.885  51.804 -25.547  1.00  0.00    -0.624 OA
HETATM    3  O8  UNL     1     -30.186  50.914 -26.327  1.00  0.00    -0.624 OA
ENDROOT
BRANCH   1   4
HETATM    4  O6  UNL     1     -29.792  51.815 -23.758  1.00  0.00    -0.180 OA
BRANCH   4   5
HETATM    5  P1  UNL     1     -30.613  53.032 -22.996  1.00  0.00     0.417 P 
HETATM    6  O4  UNL     1     -29.772  54.132 -22.506  1.00  0.00    -0.624 OA
HETATM    7  O5  UNL     1     -31.288  52.323 -21.493  1.00  0.00    -0.624 OA
BRANCH   5   8
HETATM    8  O3  UNL     1     -31.940  53.473 -23.850  1.00  0.00    -0.287 OA
BRANCH   8   9
HETATM    9  C8  UNL     1     -32.738  54.442 -23.204  1.00  0.00     0.216 C 
BRANCH   9  10
HETATM   10  C7  UNL     1     -32.750  55.561 -24.290  1.00  0.00     0.180 C 
HETATM   11  O2  UNL     1     -33.915  56.279 -24.175  1.00  0.00    -0.353 OA
HETATM   12  C6  UNL     1     -33.668  57.632 -24.201  1.00  0.00     0.259 C 
HETATM   13  C20 UNL     1     -32.286  57.740 -24.854  1.00  0.00     0.198 C 
HETATM   14  C19 UNL     1     -31.614  56.490 -24.212  1.00  0.00     0.182 C 
BRANCH  12  15
HETATM   15  N2  UNL     1     -33.482  58.010 -22.783  1.00  0.00    -0.336 N 
HETATM   16  C5  UNL     1     -32.436  58.735 -22.383  1.00  0.00     0.093 A 
HETATM   17  C4  UNL     1     -32.234  58.969 -21.023  1.00  0.00     0.018 A 
HETATM   18  C3  UNL     1     -33.106  58.452 -20.109  1.00  0.00     0.019 A 
HETATM   19  C2  UNL     1     -34.167  57.710 -20.556  1.00  0.00     0.044 A 
HETATM   20  C21 UNL     1     -34.348  57.492 -21.905  1.00  0.00     0.110 A 
BRANCH  19  21
HETATM   21  C1  UNL     1     -35.094  57.099 -19.622  1.00  0.00     0.266 C 
HETATM   22  N1  UNL     1     -35.123  57.522 -18.274  1.00  0.00    -0.057 NA
HETATM   23  O1  UNL     1     -35.907  56.171 -19.957  1.00  0.00    -0.271 OA
ENDBRANCH  19  21
ENDBRANCH  12  15
BRANCH  13  24
HETATM   24  O14 UNL     1     -32.384  57.446 -26.213  1.00  0.00    -0.388 OA
ATOM     25  H14 UNL     1     -32.291  56.510 -26.347  1.00  0.00     0.210 HD
ENDBRANCH  13  24
BRANCH  14  26
HETATM   26  O13 UNL     1     -30.487  56.114 -24.952  1.00  0.00    -0.390 OA
ATOM     27  H13 UNL     1     -30.165  56.771 -25.559  1.00  0.00     0.210 HD
ENDBRANCH  14  26
ENDBRANCH   9  10
ENDBRANCH   8   9
ENDBRANCH   5   8
ENDBRANCH   4   5
ENDBRANCH   1   4
BRANCH   1  28
HETATM   28  O9  UNL     1     -29.708  53.558 -26.037  1.00  0.00    -0.287 OA
BRANCH  28  29
HETATM   29  C9  UNL     1     -28.546  53.789 -26.846  1.00  0.00     0.216 C 
BRANCH  29  30
HETATM   30  C10 UNL     1     -28.923  54.628 -27.991  1.00  0.00     0.180 C 
HETATM   31  O10 UNL     1     -28.904  53.833 -29.171  1.00  0.00    -0.353 OA
HETATM   32  C11 UNL     1     -29.355  54.795 -30.099  1.00  0.00     0.262 C 
HETATM   33  C17 UNL     1     -30.730  55.048 -29.423  1.00  0.00     0.198 C 
HETATM   34  C18 UNL     1     -30.249  55.259 -27.959  1.00  0.00     0.182 C 
BRANCH  32  35
HETATM   35  N3  UNL     1     -29.459  54.204 -31.376  1.00  0.00    -0.297 N 
HETATM   36  C12 UNL     1     -30.526  54.220 -32.245  1.00  0.00     0.188 A 
HETATM   37  N4  UNL     1     -30.232  53.553 -33.362  1.00  0.00    -0.346 N 
HETATM   38  C13 UNL     1     -28.949  53.105 -33.220  1.00  0.00     0.119 A 
ATOM     39  H4  UNL     1     -30.844  53.406 -34.164  1.00  0.00     0.167 HD
HETATM   40  C14 UNL     1     -28.159  52.365 -34.051  1.00  0.00     0.148 A 
HETATM   41  C16 UNL     1     -28.492  53.518 -31.978  1.00  0.00     0.142 A 
HETATM   42  N5  UNL     1     -28.615  51.972 -35.341  1.00  0.00    -0.080 NA
HETATM   43  N6  UNL     1     -26.922  52.017 -33.661  1.00  0.00    -0.339 N 
HETATM   44  C15 UNL     1     -26.460  52.392 -32.465  1.00  0.00     0.183 A 
ATOM     45  H6  UNL     1     -26.332  51.463 -34.282  1.00  0.00     0.167 HD
HETATM   46  N7  UNL     1     -27.253  53.141 -31.639  1.00  0.00    -0.336 N 
ATOM     47  H7  UNL     1     -26.886  53.422 -30.729  1.00  0.00     0.168 HD
ENDBRANCH  32  35
BRANCH  33  48
HETATM   48  O11 UNL     1     -31.423  56.084 -29.945  1.00  0.00    -0.388 OA
ATOM     49  H11 UNL     1     -31.377  56.883 -29.432  1.00  0.00     0.210 HD
ENDBRANCH  33  48
BRANCH  34  50
HETATM   50  O12 UNL     1     -30.098  56.674 -27.825  1.00  0.00    -0.390 OA
ATOM     51  H12 UNL     1     -29.986  57.062 -28.684  1.00  0.00     0.210 HD
ENDBRANCH  34  50
ENDBRANCH  29  30
ENDBRANCH  28  29
ENDBRANCH   1  28
TORSDOF 15
ENDMDL
