MODEL 2
REMARK VINA RESULT: -8.329219591      2.798      5.972
REMARK  3 active torsions:
REMARK  status: ('A' for Active; 'I' for Inactive)
REMARK    1  A    between atoms: S1_2  and  N1_4 
REMARK    2  A    between atoms: S1_2  and  C8_17 
REMARK    3  A    between atoms: N1_4  and  C1_6 
ROOT
HETATM    1  N1  UNL     1     -11.694  18.229  -6.655  1.00  0.00    -0.259 N 
ATOM      2  H1  UNL     1     -11.322  18.428  -5.726  1.00  0.00     0.181 HD
ENDROOT
BRANCH   1   3
HETATM    3  S1  UNL     1     -12.560  19.410  -7.516  1.00  0.00     0.271 S 
HETATM    4  O1  UNL     1     -11.872  20.725  -7.565  1.00  0.00    -0.200 OA
HETATM    5  O2  UNL     1     -13.874  19.635  -6.779  1.00  0.00    -0.200 OA
BRANCH   3   6
HETATM    6  C8  UNL     1     -12.989  18.906  -9.131  1.00  0.00     0.122 A 
HETATM    7  C9  UNL     1     -14.088  18.272  -9.607  1.00  0.00     0.045 A 
HETATM    8  C10 UNL     1     -14.132  18.010 -10.938  1.00  0.00    -0.017 A 
HETATM    9  C11 UNL     1     -15.161  17.369 -11.650  1.00  0.00     0.013 A 
HETATM   10  C15 UNL     1     -13.060  18.409 -11.682  1.00  0.00     0.016 A 
HETATM   11  C12 UNL     1     -15.100  17.157 -13.000  1.00  0.00     0.001 A 
HETATM   12  C13 UNL     1     -14.012  17.564 -13.742  1.00  0.00     0.001 A 
HETATM   13  C14 UNL     1     -12.990  18.194 -13.068  1.00  0.00     0.019 A 
HETATM   14  S3  UNL     1     -12.034  19.130 -10.518  1.00  0.00    -0.076 SA
ENDBRANCH   3   6
ENDBRANCH   1   3
BRANCH   1  15
HETATM   15  C1  UNL     1     -11.499  16.962  -7.258  1.00  0.00     0.159 A 
HETATM   16  N2  UNL     1     -10.552  16.643  -8.113  1.00  0.00    -0.335 N 
HETATM   17  C2  UNL     1     -10.483  15.437  -8.596  1.00  0.00     0.051 A 
ATOM     18  H2  UNL     1      -9.868  17.344  -8.399  1.00  0.00     0.168 HD
HETATM   19  C3  UNL     1      -9.528  14.956  -9.514  1.00  0.00     0.032 A 
HETATM   20  C7  UNL     1     -11.421  14.529  -8.185  1.00  0.00     0.036 A 
HETATM   21  C4  UNL     1      -9.586  13.663  -9.929  1.00  0.00     0.026 A 
HETATM   22  C5  UNL     1     -10.522  12.733  -9.528  1.00  0.00     0.035 A 
HETATM   23 CL1  UNL     1     -10.562  11.079 -10.083  1.00  0.00    -0.084 Cl
HETATM   24  C6  UNL     1     -11.459  13.205  -8.626  1.00  0.00     0.045 A 
HETATM   25  S2  UNL     1     -12.361  15.495  -7.106  1.00  0.00    -0.051 SA
ENDBRANCH   1  15
TORSDOF 3
ENDMDL
