MODEL 6
REMARK VINA RESULT: -7.934483144      2.756      6.071
REMARK  3 active torsions:
REMARK  status: ('A' for Active; 'I' for Inactive)
REMARK    1  A    between atoms: S1_2  and  N1_4 
REMARK    2  A    between atoms: S1_2  and  C8_17 
REMARK    3  A    between atoms: N1_4  and  C1_6 
ROOT
HETATM    1  N1  UNL     1     -11.002  18.840  -7.223  1.00  0.00    -0.259 N 
ATOM      2  H1  UNL     1     -10.333  19.231  -6.559  1.00  0.00     0.181 HD
ENDROOT
BRANCH   1   3
HETATM    3  S1  UNL     1     -12.305  19.769  -7.794  1.00  0.00     0.271 S 
HETATM    4  O1  UNL     1     -12.019  21.225  -7.826  1.00  0.00    -0.200 OA
HETATM    5  O2  UNL     1     -13.460  19.574  -6.821  1.00  0.00    -0.200 OA
BRANCH   3   6
HETATM    6  C8  UNL     1     -12.889  19.246  -9.353  1.00  0.00     0.122 A 
HETATM    7  C9  UNL     1     -13.910  18.422  -9.694  1.00  0.00     0.045 A 
HETATM    8  C10 UNL     1     -14.122  18.203 -11.018  1.00  0.00    -0.017 A 
HETATM    9  C11 UNL     1     -15.113  17.395 -11.603  1.00  0.00     0.013 A 
HETATM   10  C15 UNL     1     -13.284  18.835 -11.890  1.00  0.00     0.016 A 
HETATM   11  C12 UNL     1     -15.235  17.247 -12.957  1.00  0.00     0.001 A 
HETATM   12  C13 UNL     1     -14.384  17.890 -13.830  1.00  0.00     0.001 A 
HETATM   13  C14 UNL     1     -13.404  18.687 -13.281  1.00  0.00     0.019 A 
HETATM   14  S3  UNL     1     -12.237  19.705 -10.853  1.00  0.00    -0.076 SA
ENDBRANCH   3   6
ENDBRANCH   1   3
BRANCH   1  15
HETATM   15  C1  UNL     1     -10.866  17.510  -7.691  1.00  0.00     0.159 A 
HETATM   16  N2  UNL     1     -11.600  16.478  -7.332  1.00  0.00    -0.335 N 
HETATM   17  C2  UNL     1     -11.371  15.303  -7.839  1.00  0.00     0.051 A 
ATOM     18  H2  UNL     1     -12.352  16.602  -6.654  1.00  0.00     0.168 HD
HETATM   19  C3  UNL     1     -12.074  14.115  -7.549  1.00  0.00     0.032 A 
HETATM   20  C7  UNL     1     -10.353  15.184  -8.746  1.00  0.00     0.036 A 
HETATM   21  C4  UNL     1     -11.716  12.956  -8.164  1.00  0.00     0.026 A 
HETATM   22  C5  UNL     1     -10.694  12.815  -9.079  1.00  0.00     0.035 A 
HETATM   23 CL1  UNL     1     -10.266  11.308  -9.846  1.00  0.00    -0.084 Cl
HETATM   24  C6  UNL     1     -10.005  13.981  -9.363  1.00  0.00     0.045 A 
HETATM   25  S2  UNL     1      -9.779  16.811  -8.808  1.00  0.00    -0.051 SA
ENDBRANCH   1  15
TORSDOF 3
ENDMDL
