MODEL 7
REMARK VINA RESULT: -7.881076238      2.814      6.104
REMARK  3 active torsions:
REMARK  status: ('A' for Active; 'I' for Inactive)
REMARK    1  A    between atoms: S1_2  and  N1_4 
REMARK    2  A    between atoms: S1_2  and  C8_17 
REMARK    3  A    between atoms: N1_4  and  C1_6 
ROOT
HETATM    1  N1  UNL     1     -11.573  18.276  -6.797  1.00  0.00    -0.259 N 
ATOM      2  H1  UNL     1     -11.116  18.511  -5.916  1.00  0.00     0.181 HD
ENDROOT
BRANCH   1   3
HETATM    3  S1  UNL     1     -12.545  19.413  -7.603  1.00  0.00     0.271 S 
HETATM    4  O1  UNL     1     -11.896  20.740  -7.751  1.00  0.00    -0.200 OA
HETATM    5  O2  UNL     1     -13.789  19.630  -6.751  1.00  0.00    -0.200 OA
BRANCH   3   6
HETATM    6  C8  UNL     1     -13.111  18.854  -9.156  1.00  0.00     0.122 A 
HETATM    7  C9  UNL     1     -12.618  19.038 -10.405  1.00  0.00     0.045 A 
HETATM    8  C10 UNL     1     -13.294  18.467 -11.435  1.00  0.00    -0.017 A 
HETATM    9  C11 UNL     1     -12.974  18.522 -12.804  1.00  0.00     0.013 A 
HETATM   10  C15 UNL     1     -14.414  17.755 -11.119  1.00  0.00     0.016 A 
HETATM   11  C12 UNL     1     -13.731  17.904 -13.761  1.00  0.00     0.001 A 
HETATM   12  C13 UNL     1     -14.861  17.186 -13.431  1.00  0.00     0.001 A 
HETATM   13  C14 UNL     1     -15.196  17.118 -12.097  1.00  0.00     0.019 A 
HETATM   14  S3  UNL     1     -14.492  17.900  -9.416  1.00  0.00    -0.076 SA
ENDBRANCH   3   6
ENDBRANCH   1   3
BRANCH   1  15
HETATM   15  C1  UNL     1     -11.414  16.994  -7.377  1.00  0.00     0.159 A 
HETATM   16  N2  UNL     1     -10.498  16.644  -8.255  1.00  0.00    -0.335 N 
HETATM   17  C2  UNL     1     -10.459  15.427  -8.713  1.00  0.00     0.051 A 
ATOM     18  H2  UNL     1      -9.816  17.331  -8.578  1.00  0.00     0.168 HD
HETATM   19  C3  UNL     1      -9.539  14.915  -9.651  1.00  0.00     0.032 A 
HETATM   20  C7  UNL     1     -11.394  14.540  -8.252  1.00  0.00     0.036 A 
HETATM   21  C4  UNL     1      -9.625  13.613 -10.034  1.00  0.00     0.026 A 
HETATM   22  C5  UNL     1     -10.559  12.704  -9.582  1.00  0.00     0.035 A 
HETATM   23 CL1  UNL     1     -10.636  11.039 -10.099  1.00  0.00    -0.084 Cl
HETATM   24  C6  UNL     1     -11.461  13.207  -8.662  1.00  0.00     0.045 A 
HETATM   25  S2  UNL     1     -12.287  15.541  -7.165  1.00  0.00    -0.051 SA
ENDBRANCH   1  15
TORSDOF 3
ENDMDL
