MODEL 10
REMARK VINA RESULT: -7.495475393      1.168      1.901
REMARK  3 active torsions:
REMARK  status: ('A' for Active; 'I' for Inactive)
REMARK    1  A    between atoms: S1_2  and  N1_4 
REMARK    2  A    between atoms: S1_2  and  C8_17 
REMARK    3  A    between atoms: N1_4  and  C1_6 
ROOT
HETATM    1  N1  UNL     1     -13.457  18.085  -8.153  1.00  0.00    -0.259 N 
ATOM      2  H1  UNL     1     -14.286  18.189  -7.569  1.00  0.00     0.181 HD
ENDROOT
BRANCH   1   3
HETATM    3  S1  UNL     1     -11.989  17.541  -7.491  1.00  0.00     0.271 S 
HETATM    4  O1  UNL     1     -12.016  17.438  -6.010  1.00  0.00    -0.200 OA
HETATM    5  O2  UNL     1     -10.926  18.576  -7.836  1.00  0.00    -0.200 OA
BRANCH   3   6
HETATM    6  C8  UNL     1     -11.442  16.034  -8.180  1.00  0.00     0.122 A 
HETATM    7  C9  UNL     1     -10.476  15.767  -9.092  1.00  0.00     0.045 A 
HETATM    8  C10 UNL     1     -10.281  14.468  -9.435  1.00  0.00    -0.017 A 
HETATM    9  C11 UNL     1      -9.345  13.956 -10.351  1.00  0.00     0.013 A 
HETATM   10  C15 UNL     1     -11.079  13.542  -8.828  1.00  0.00     0.016 A 
HETATM   11  C12 UNL     1      -9.234  12.620 -10.620  1.00  0.00     0.001 A 
HETATM   12  C13 UNL     1     -10.046  11.693 -10.001  1.00  0.00     0.001 A 
HETATM   13  C14 UNL     1     -10.972  12.169  -9.100  1.00  0.00     0.019 A 
HETATM   14  S3  UNL     1     -12.067  14.498  -7.808  1.00  0.00    -0.076 SA
ENDBRANCH   3   6
ENDBRANCH   1   3
BRANCH   1  15
HETATM   15  C1  UNL     1     -13.500  18.391  -9.536  1.00  0.00     0.159 A 
HETATM   16  N2  UNL     1     -12.747  19.269 -10.164  1.00  0.00    -0.335 N 
HETATM   17  C2  UNL     1     -12.888  19.456 -11.443  1.00  0.00     0.051 A 
ATOM     18  H2  UNL     1     -12.051  19.804  -9.645  1.00  0.00     0.168 HD
HETATM   19  C3  UNL     1     -12.154  20.357 -12.242  1.00  0.00     0.032 A 
HETATM   20  C7  UNL     1     -13.834  18.716 -12.098  1.00  0.00     0.036 A 
HETATM   21  C4  UNL     1     -12.416  20.441 -13.574  1.00  0.00     0.026 A 
HETATM   22  C5  UNL     1     -13.365  19.705 -14.253  1.00  0.00     0.035 A 
HETATM   23 CL1  UNL     1     -13.671  19.842 -15.965  1.00  0.00    -0.084 Cl
HETATM   24  C6  UNL     1     -14.084  18.821 -13.468  1.00  0.00     0.045 A 
HETATM   25  S2  UNL     1     -14.474  17.778 -10.798  1.00  0.00    -0.051 SA
ENDBRANCH   1  15
TORSDOF 3
ENDMDL
