MODEL 3
REMARK VINA RESULT: -8.315473481      0.720      1.228
REMARK  3 active torsions:
REMARK  status: ('A' for Active; 'I' for Inactive)
REMARK    1  A    between atoms: S1_2  and  N1_4 
REMARK    2  A    between atoms: S1_2  and  C8_17 
REMARK    3  A    between atoms: N1_4  and  C1_6 
ROOT
HETATM    1  N1  UNL     1     -13.418  18.041  -7.851  1.00  0.00    -0.259 N 
ATOM      2  H1  UNL     1     -14.218  18.203  -7.239  1.00  0.00     0.181 HD
ENDROOT
BRANCH   1   3
HETATM    3  S1  UNL     1     -11.956  17.439  -7.229  1.00  0.00     0.271 S 
HETATM    4  O1  UNL     1     -11.980  17.242  -5.758  1.00  0.00    -0.200 OA
HETATM    5  O2  UNL     1     -10.881  18.481  -7.511  1.00  0.00    -0.200 OA
BRANCH   3   6
HETATM    6  C8  UNL     1     -11.429  15.972  -8.014  1.00  0.00     0.122 A 
HETATM    7  C9  UNL     1     -10.446  15.747  -8.919  1.00  0.00     0.045 A 
HETATM    8  C10 UNL     1     -10.274  14.471  -9.353  1.00  0.00    -0.017 A 
HETATM    9  C11 UNL     1      -9.327  14.003 -10.281  1.00  0.00     0.013 A 
HETATM   10  C15 UNL     1     -11.111  13.526  -8.835  1.00  0.00     0.016 A 
HETATM   11  C12 UNL     1      -9.243  12.688 -10.646  1.00  0.00     0.001 A 
HETATM   12  C13 UNL     1     -10.093  11.740 -10.117  1.00  0.00     0.001 A 
HETATM   13  C14 UNL     1     -11.030  12.174  -9.206  1.00  0.00     0.019 A 
HETATM   14  S3  UNL     1     -12.101  14.430  -7.772  1.00  0.00    -0.076 SA
ENDBRANCH   3   6
ENDBRANCH   1   3
BRANCH   1  15
HETATM   15  C1  UNL     1     -13.499  18.312  -9.239  1.00  0.00     0.159 A 
HETATM   16  N2  UNL     1     -14.214  17.649 -10.122  1.00  0.00    -0.335 N 
HETATM   17  C2  UNL     1     -14.202  18.002 -11.374  1.00  0.00     0.051 A 
ATOM     18  H2  UNL     1     -14.781  16.855  -9.824  1.00  0.00     0.168 HD
HETATM   19  C3  UNL     1     -14.915  17.387 -12.424  1.00  0.00     0.032 A 
HETATM   20  C7  UNL     1     -13.428  19.073 -11.729  1.00  0.00     0.036 A 
HETATM   21  C4  UNL     1     -14.800  17.874 -13.689  1.00  0.00     0.026 A 
HETATM   22  C5  UNL     1     -14.026  18.950 -14.067  1.00  0.00     0.035 A 
HETATM   23 CL1  UNL     1     -13.906  19.545 -15.703  1.00  0.00    -0.084 Cl
HETATM   24  C6  UNL     1     -13.327  19.553 -13.037  1.00  0.00     0.045 A 
HETATM   25  S2  UNL     1     -12.754  19.510 -10.202  1.00  0.00    -0.051 SA
ENDBRANCH   1  15
TORSDOF 3
ENDMDL
