MODEL 4
REMARK VINA RESULT: -8.297143524      1.736      2.223
REMARK  3 active torsions:
REMARK  status: ('A' for Active; 'I' for Inactive)
REMARK    1  A    between atoms: S1_2  and  N1_4 
REMARK    2  A    between atoms: S1_2  and  C8_17 
REMARK    3  A    between atoms: N1_4  and  C1_6 
ROOT
HETATM    1  N1  UNL     1     -10.180  19.227  -9.159  1.00  0.00    -0.259 N 
ATOM      2  H1  UNL     1      -9.741  20.146  -9.211  1.00  0.00     0.181 HD
ENDROOT
BRANCH   1   3
HETATM    3  S1  UNL     1      -9.704  18.102  -7.978  1.00  0.00     0.271 S 
HETATM    4  O1  UNL     1     -10.357  18.320  -6.662  1.00  0.00    -0.200 OA
HETATM    5  O2  UNL     1      -8.208  18.283  -7.757  1.00  0.00    -0.200 OA
BRANCH   3   6
HETATM    6  C8  UNL     1      -9.924  16.445  -8.480  1.00  0.00     0.122 A 
HETATM    7  C9  UNL     1      -9.213  15.668  -9.333  1.00  0.00     0.045 A 
HETATM    8  C10 UNL     1      -9.641  14.394  -9.523  1.00  0.00    -0.017 A 
HETATM    9  C11 UNL     1      -9.068  13.414 -10.353  1.00  0.00     0.013 A 
HETATM   10  C15 UNL     1     -10.755  14.007  -8.836  1.00  0.00     0.016 A 
HETATM   11  C12 UNL     1      -9.587  12.153 -10.468  1.00  0.00     0.001 A 
HETATM   12  C13 UNL     1     -10.712  11.773  -9.769  1.00  0.00     0.001 A 
HETATM   13  C14 UNL     1     -11.293  12.715  -8.950  1.00  0.00     0.019 A 
HETATM   14  S3  UNL     1     -11.168  15.414  -7.954  1.00  0.00    -0.076 SA
ENDBRANCH   3   6
ENDBRANCH   1   3
BRANCH   1  15
HETATM   15  C1  UNL     1     -11.201  18.857 -10.069  1.00  0.00     0.159 A 
HETATM   16  N2  UNL     1     -12.364  18.325  -9.762  1.00  0.00    -0.335 N 
HETATM   17  C2  UNL     1     -13.218  18.031 -10.698  1.00  0.00     0.051 A 
ATOM     18  H2  UNL     1     -12.598  18.143  -8.785  1.00  0.00     0.168 HD
HETATM   19  C3  UNL     1     -14.495  17.460 -10.516  1.00  0.00     0.032 A 
HETATM   20  C7  UNL     1     -12.863  18.292 -11.993  1.00  0.00     0.036 A 
HETATM   21  C4  UNL     1     -15.278  17.209 -11.599  1.00  0.00     0.026 A 
HETATM   22  C5  UNL     1     -14.940  17.464 -12.911  1.00  0.00     0.035 A 
HETATM   23 CL1  UNL     1     -15.975  17.127 -14.274  1.00  0.00    -0.084 Cl
HETATM   24  C6  UNL     1     -13.687  18.024 -13.088  1.00  0.00     0.045 A 
HETATM   25  S2  UNL     1     -11.287  18.960 -11.772  1.00  0.00    -0.051 SA
ENDBRANCH   1  15
TORSDOF 3
ENDMDL
