MODEL 5
REMARK VINA RESULT: -8.264110470      1.430      1.682
REMARK  3 active torsions:
REMARK  status: ('A' for Active; 'I' for Inactive)
REMARK    1  A    between atoms: S1_2  and  N1_4 
REMARK    2  A    between atoms: S1_2  and  C8_17 
REMARK    3  A    between atoms: N1_4  and  C1_6 
ROOT
HETATM    1  N1  UNL     1     -11.223  19.319  -8.337  1.00  0.00    -0.259 N 
ATOM      2  H1  UNL     1     -10.897  20.281  -8.246  1.00  0.00     0.181 HD
ENDROOT
BRANCH   1   3
HETATM    3  S1  UNL     1     -10.709  18.119  -7.250  1.00  0.00     0.271 S 
HETATM    4  O1  UNL     1     -11.584  17.992  -6.057  1.00  0.00    -0.200 OA
HETATM    5  O2  UNL     1      -9.334  18.531  -6.739  1.00  0.00    -0.200 OA
BRANCH   3   6
HETATM    6  C8  UNL     1     -10.500  16.557  -8.000  1.00  0.00     0.122 A 
HETATM    7  C9  UNL     1     -11.223  15.415  -7.901  1.00  0.00     0.045 A 
HETATM    8  C10 UNL     1     -10.803  14.343  -8.621  1.00  0.00    -0.017 A 
HETATM    9  C11 UNL     1     -11.388  13.066  -8.675  1.00  0.00     0.013 A 
HETATM   10  C15 UNL     1      -9.683  14.512  -9.383  1.00  0.00     0.016 A 
HETATM   11  C12 UNL     1     -10.876  12.054  -9.440  1.00  0.00     0.001 A 
HETATM   12  C13 UNL     1      -9.745  12.236 -10.207  1.00  0.00     0.001 A 
HETATM   13  C14 UNL     1      -9.152  13.478 -10.170  1.00  0.00     0.019 A 
HETATM   14  S3  UNL     1      -9.255  16.141  -9.078  1.00  0.00    -0.076 SA
ENDBRANCH   3   6
ENDBRANCH   1   3
BRANCH   1  15
HETATM   15  C1  UNL     1     -12.117  18.951  -9.374  1.00  0.00     0.159 A 
HETATM   16  N2  UNL     1     -11.819  18.820 -10.649  1.00  0.00    -0.335 N 
HETATM   17  C2  UNL     1     -12.736  18.474 -11.504  1.00  0.00     0.051 A 
ATOM     18  H2  UNL     1     -10.865  18.989 -10.968  1.00  0.00     0.168 HD
HETATM   19  C3  UNL     1     -12.562  18.297 -12.892  1.00  0.00     0.032 A 
HETATM   20  C7  UNL     1     -14.002  18.257 -11.031  1.00  0.00     0.036 A 
HETATM   21  C4  UNL     1     -13.622  17.932 -13.661  1.00  0.00     0.026 A 
HETATM   22  C5  UNL     1     -14.905  17.708 -13.205  1.00  0.00     0.035 A 
HETATM   23 CL1  UNL     1     -16.240  17.240 -14.225  1.00  0.00    -0.084 Cl
HETATM   24  C6  UNL     1     -15.075  17.882 -11.843  1.00  0.00     0.045 A 
HETATM   25  S2  UNL     1     -13.782  18.572  -9.349  1.00  0.00    -0.051 SA
ENDBRANCH   1  15
TORSDOF 3
ENDMDL
