MODEL 1
REMARK VINA RESULT: -9.213119811      0.000      0.000
REMARK  9 active torsions:
REMARK  status: ('A' for Active; 'I' for Inactive)
REMARK    1  A    between atoms: N5_13  and  C6_14 
REMARK    2  A    between atoms: C7_16  and  C8_17 
REMARK    3  A    between atoms: C8_17  and  O2_18 
REMARK    4  A    between atoms: C9_20  and  N6_21 
REMARK       I    between atoms: N6_21  and  C10_23 
REMARK    5  A    between atoms: C10_23  and  C11_25 
REMARK    6  A    between atoms: C11_25  and  N7_26 
REMARK    7  A    between atoms: C11_25  and  C12_30 
REMARK    8  A    between atoms: C12_30  and  O4_31 
REMARK    9  A    between atoms: C13_33  and  O5_34 
ROOT
HETATM    1  C6  UNL     1      15.311  -4.025  -2.963  1.00  0.00     0.261 C 
HETATM    2  O1  UNL     1      15.539  -3.793  -4.324  1.00  0.00    -0.354 OA
HETATM    3  C7  UNL     1      14.344  -3.734  -4.975  1.00  0.00     0.173 C 
HETATM    4  C9  UNL     1      13.274  -3.503  -3.928  1.00  0.00     0.148 C 
HETATM    5  C13 UNL     1      13.864  -4.420  -2.847  1.00  0.00     0.192 C 
ENDROOT
BRANCH   1   6
HETATM    6  N5  UNL     1      15.658  -2.821  -2.268  1.00  0.00    -0.297 N 
HETATM    7  C3  UNL     1      16.617  -1.923  -2.470  1.00  0.00     0.142 A 
HETATM    8  N3  UNL     1      17.573  -1.837  -3.379  1.00  0.00    -0.336 N 
HETATM    9  C4  UNL     1      16.536  -0.929  -1.520  1.00  0.00     0.119 A 
HETATM   10  C2  UNL     1      18.442  -0.811  -3.376  1.00  0.00     0.183 A 
ATOM     11  H3  UNL     1      17.654  -2.561  -4.093  1.00  0.00     0.168 HD
HETATM   12  N2  UNL     1      18.370   0.159  -2.455  1.00  0.00    -0.339 N 
HETATM   13  C1  UNL     1      17.433   0.145  -1.504  1.00  0.00     0.148 A 
ATOM     14  H2  UNL     1      19.045   0.923  -2.481  1.00  0.00     0.167 HD
HETATM   15  N1  UNL     1      17.314   1.147  -0.507  1.00  0.00    -0.080 NA
HETATM   16  N4  UNL     1      15.503  -1.246  -0.735  1.00  0.00    -0.346 N 
HETATM   17  C5  UNL     1      14.973  -2.381  -1.180  1.00  0.00     0.188 A 
ATOM     18  H4  UNL     1      15.176  -0.710   0.069  1.00  0.00     0.167 HD
ENDBRANCH   1   6
BRANCH   5  19
HETATM   19  O5  UNL     1      13.753  -5.713  -3.358  1.00  0.00    -0.389 OA
ATOM     20  H5  UNL     1      12.914  -6.054  -3.071  1.00  0.00     0.210 HD
ENDBRANCH   5  19
BRANCH   3  21
HETATM   21  C8  UNL     1      14.279  -2.732  -6.093  1.00  0.00     0.198 C 
BRANCH  21  22
HETATM   22  O2  UNL     1      13.181  -3.061  -6.886  1.00  0.00    -0.398 OA
ATOM     23  H2  UNL     1      13.513  -3.337  -7.733  1.00  0.00     0.209 HD
ENDBRANCH  21  22
ENDBRANCH   3  21
BRANCH   4  24
HETATM   24  N6  UNL     1      12.004  -4.010  -4.396  1.00  0.00    -0.349 N 
HETATM   25  C10 UNL     1      10.771  -3.379  -4.186  1.00  0.00     0.251 C 
HETATM   26  O3  UNL     1      10.751  -2.296  -3.549  1.00  0.00    -0.271 OA
ATOM     27  H6  UNL     1      12.006  -4.888  -4.915  1.00  0.00     0.163 HD
BRANCH  25  28
HETATM   28  C11 UNL     1       9.540  -4.008  -4.722  1.00  0.00     0.297 C 
BRANCH  28  29
HETATM   29  N7  UNL     1       8.364  -3.654  -3.949  1.00  0.00    -0.064 N 
ATOM     30  H73 UNL     1       8.622  -3.218  -3.063  1.00  0.00     0.275 HD
ATOM     31  H72 UNL     1       7.864  -2.873  -4.374  1.00  0.00     0.275 HD
ATOM     32  H71 UNL     1       7.746  -4.452  -3.802  1.00  0.00     0.275 HD
ENDBRANCH  28  29
BRANCH  28  33
HETATM   33  C12 UNL     1       9.314  -3.649  -6.177  1.00  0.00     0.206 C 
BRANCH  33  34
HETATM   34  O4  UNL     1      10.244  -2.750  -6.659  1.00  0.00    -0.398 OA
ATOM     35  H4  UNL     1      10.020  -2.409  -7.517  1.00  0.00     0.209 HD
ENDBRANCH  33  34
ENDBRANCH  28  33
ENDBRANCH  25  28
ENDBRANCH   4  24
TORSDOF 9
ENDMDL
