MODEL 10
REMARK VINA RESULT: -7.558678524      2.317      7.017
REMARK  9 active torsions:
REMARK  status: ('A' for Active; 'I' for Inactive)
REMARK    1  A    between atoms: N5_13  and  C6_14 
REMARK    2  A    between atoms: C7_16  and  C8_17 
REMARK    3  A    between atoms: C8_17  and  O2_18 
REMARK    4  A    between atoms: C9_20  and  N6_21 
REMARK       I    between atoms: N6_21  and  C10_23 
REMARK    5  A    between atoms: C10_23  and  C11_25 
REMARK    6  A    between atoms: C11_25  and  N7_26 
REMARK    7  A    between atoms: C11_25  and  C12_30 
REMARK    8  A    between atoms: C12_30  and  O4_31 
REMARK    9  A    between atoms: C13_33  and  O5_34 
ROOT
HETATM    1  C6  UNL     1      14.767  -4.660  -4.740  1.00  0.00     0.261 C 
HETATM    2  O1  UNL     1      14.554  -4.931  -3.383  1.00  0.00    -0.354 OA
HETATM    3  C7  UNL     1      15.289  -4.065  -2.632  1.00  0.00     0.173 C 
HETATM    4  C9  UNL     1      15.676  -2.909  -3.531  1.00  0.00     0.148 C 
HETATM    5  C13 UNL     1      15.953  -3.735  -4.796  1.00  0.00     0.192 C 
ENDROOT
BRANCH   1   6
HETATM    6  N5  UNL     1      13.551  -4.103  -5.253  1.00  0.00    -0.297 N 
HETATM    7  C3  UNL     1      12.322  -4.037  -4.751  1.00  0.00     0.142 A 
HETATM    8  N3  UNL     1      11.807  -4.464  -3.610  1.00  0.00    -0.336 N 
HETATM    9  C4  UNL     1      11.487  -3.393  -5.637  1.00  0.00     0.119 A 
HETATM   10  C2  UNL     1      10.507  -4.276  -3.324  1.00  0.00     0.183 A 
ATOM     11  H3  UNL     1      12.405  -4.944  -2.938  1.00  0.00     0.168 HD
HETATM   12  N2  UNL     1       9.689  -3.651  -4.180  1.00  0.00    -0.339 N 
HETATM   13  C1  UNL     1      10.132  -3.190  -5.353  1.00  0.00     0.148 A 
ATOM     14  H2  UNL     1       8.707  -3.525  -3.932  1.00  0.00     0.167 HD
HETATM   15  N1  UNL     1       9.307  -2.522  -6.294  1.00  0.00    -0.080 NA
HETATM   16  N4  UNL     1      12.241  -3.068  -6.691  1.00  0.00    -0.346 N 
HETATM   17  C5  UNL     1      13.480  -3.492  -6.465  1.00  0.00     0.188 A 
ATOM     18  H4  UNL     1      11.921  -2.579  -7.526  1.00  0.00     0.167 HD
ENDBRANCH   1   6
BRANCH   5  19
HETATM   19  O5  UNL     1      17.081  -4.501  -4.499  1.00  0.00    -0.389 OA
ATOM     20  H5  UNL     1      17.477  -4.121  -3.724  1.00  0.00     0.210 HD
ENDBRANCH   5  19
BRANCH   3  21
HETATM   21  C8  UNL     1      14.629  -3.609  -1.362  1.00  0.00     0.198 C 
BRANCH  21  22
HETATM   22  O2  UNL     1      14.519  -2.221  -1.424  1.00  0.00    -0.398 OA
ATOM     23  H2  UNL     1      14.369  -1.986  -2.332  1.00  0.00     0.209 HD
ENDBRANCH  21  22
ENDBRANCH   3  21
BRANCH   4  24
HETATM   24  N6  UNL     1      16.888  -2.288  -3.047  1.00  0.00    -0.349 N 
HETATM   25  C10 UNL     1      17.569  -1.256  -3.705  1.00  0.00     0.251 C 
HETATM   26  O3  UNL     1      17.107  -0.828  -4.792  1.00  0.00    -0.271 OA
ATOM     27  H6  UNL     1      17.274  -2.625  -2.166  1.00  0.00     0.163 HD
BRANCH  25  28
HETATM   28  C11 UNL     1      18.805  -0.707  -3.097  1.00  0.00     0.297 C 
BRANCH  28  29
HETATM   29  N7  UNL     1      19.637  -0.024  -4.070  1.00  0.00    -0.064 N 
ATOM     30  H73 UNL     1      20.611   0.005  -3.768  1.00  0.00     0.275 HD
ATOM     31  H72 UNL     1      19.747  -0.581  -4.917  1.00  0.00     0.275 HD
ATOM     32  H71 UNL     1      19.289   0.910  -4.285  1.00  0.00     0.275 HD
ENDBRANCH  28  29
BRANCH  28  33
HETATM   33  C12 UNL     1      18.495   0.234  -1.949  1.00  0.00     0.206 C 
BRANCH  33  34
HETATM   34  O4  UNL     1      17.146   0.502  -1.824  1.00  0.00    -0.398 OA
ATOM     35  H4  UNL     1      16.971   1.392  -1.541  1.00  0.00     0.209 HD
ENDBRANCH  33  34
ENDBRANCH  28  33
ENDBRANCH  25  28
ENDBRANCH   4  24
TORSDOF 9
ENDMDL
