MODEL 11
REMARK VINA RESULT: -7.256607327      2.338      6.832
REMARK  9 active torsions:
REMARK  status: ('A' for Active; 'I' for Inactive)
REMARK    1  A    between atoms: N5_13  and  C6_14 
REMARK    2  A    between atoms: C7_16  and  C8_17 
REMARK    3  A    between atoms: C8_17  and  O2_18 
REMARK    4  A    between atoms: C9_20  and  N6_21 
REMARK       I    between atoms: N6_21  and  C10_23 
REMARK    5  A    between atoms: C10_23  and  C11_25 
REMARK    6  A    between atoms: C11_25  and  N7_26 
REMARK    7  A    between atoms: C11_25  and  C12_30 
REMARK    8  A    between atoms: C12_30  and  O4_31 
REMARK    9  A    between atoms: C13_33  and  O5_34 
ROOT
HETATM    1  C6  UNL     1      15.321  -4.025  -5.287  1.00  0.00     0.261 C 
HETATM    2  O1  UNL     1      15.067  -4.839  -4.177  1.00  0.00    -0.354 OA
HETATM    3  C7  UNL     1      15.442  -4.183  -3.044  1.00  0.00     0.173 C 
HETATM    4  C9  UNL     1      15.560  -2.714  -3.395  1.00  0.00     0.148 C 
HETATM    5  C13 UNL     1      16.185  -2.899  -4.785  1.00  0.00     0.192 C 
ENDROOT
BRANCH   1   6
HETATM    6  N5  UNL     1      14.050  -3.615  -5.807  1.00  0.00    -0.297 N 
HETATM    7  C3  UNL     1      12.810  -3.795  -5.366  1.00  0.00     0.142 A 
HETATM    8  N3  UNL     1      12.329  -4.412  -4.299  1.00  0.00    -0.336 N 
HETATM    9  C4  UNL     1      11.914  -3.202  -6.227  1.00  0.00     0.119 A 
HETATM   10  C2  UNL     1      11.006  -4.460  -4.064  1.00  0.00     0.183 A 
ATOM     11  H3  UNL     1      12.972  -4.859  -3.645  1.00  0.00     0.168 HD
HETATM   12  N2  UNL     1      10.130  -3.886  -4.898  1.00  0.00    -0.339 N 
HETATM   13  C1  UNL     1      10.535  -3.244  -5.996  1.00  0.00     0.148 A 
ATOM     14  H2  UNL     1       9.133  -3.942  -4.690  1.00  0.00     0.167 HD
HETATM   15  N1  UNL     1       9.648  -2.620  -6.910  1.00  0.00    -0.080 NA
HETATM   16  N4  UNL     1      12.644  -2.656  -7.205  1.00  0.00    -0.346 N 
HETATM   17  C5  UNL     1      13.926  -2.902  -6.956  1.00  0.00     0.188 A 
ATOM     18  H4  UNL     1      12.279  -2.140  -8.005  1.00  0.00     0.167 HD
ENDBRANCH   1   6
BRANCH   5  19
HETATM   19  O5  UNL     1      17.453  -3.432  -4.552  1.00  0.00    -0.389 OA
ATOM     20  H5  UNL     1      17.976  -2.743  -4.159  1.00  0.00     0.210 HD
ENDBRANCH   5  19
BRANCH   3  21
HETATM   21  C8  UNL     1      14.558  -4.421  -1.853  1.00  0.00     0.198 C 
BRANCH  21  22
HETATM   22  O2  UNL     1      13.535  -3.476  -1.897  1.00  0.00    -0.398 OA
ATOM     23  H2  UNL     1      12.933  -3.675  -1.189  1.00  0.00     0.209 HD
ENDBRANCH  21  22
ENDBRANCH   3  21
BRANCH   4  24
HETATM   24  N6  UNL     1      16.485  -2.063  -2.497  1.00  0.00    -0.349 N 
HETATM   25  C10 UNL     1      16.112  -1.364  -1.341  1.00  0.00     0.251 C 
HETATM   26  O3  UNL     1      14.891  -1.291  -1.051  1.00  0.00    -0.271 OA
ATOM     27  H6  UNL     1      17.479  -2.115  -2.720  1.00  0.00     0.163 HD
BRANCH  25  28
HETATM   28  C11 UNL     1      17.166  -0.740  -0.505  1.00  0.00     0.297 C 
BRANCH  28  29
HETATM   29  N7  UNL     1      17.255   0.692  -0.718  1.00  0.00    -0.064 N 
ATOM     30  H73 UNL     1      18.121   1.070  -0.331  1.00  0.00     0.275 HD
ATOM     31  H72 UNL     1      17.409   0.911  -1.702  1.00  0.00     0.275 HD
ATOM     32  H71 UNL     1      16.441   1.187  -0.353  1.00  0.00     0.275 HD
ENDBRANCH  28  29
BRANCH  28  33
HETATM   33  C12 UNL     1      16.950  -1.019   0.970  1.00  0.00     0.206 C 
BRANCH  33  34
HETATM   34  O4  UNL     1      15.791  -0.452   1.459  1.00  0.00    -0.398 OA
ATOM     35  H4  UNL     1      15.955   0.267   2.059  1.00  0.00     0.209 HD
ENDBRANCH  33  34
ENDBRANCH  28  33
ENDBRANCH  25  28
ENDBRANCH   4  24
TORSDOF 9
ENDMDL
