MODEL 7
REMARK VINA RESULT: -7.869587102      1.127      1.956
REMARK  9 active torsions:
REMARK  status: ('A' for Active; 'I' for Inactive)
REMARK    1  A    between atoms: N5_13  and  C6_14 
REMARK    2  A    between atoms: C7_16  and  C8_17 
REMARK    3  A    between atoms: C8_17  and  O2_18 
REMARK    4  A    between atoms: C9_20  and  N6_21 
REMARK       I    between atoms: N6_21  and  C10_23 
REMARK    5  A    between atoms: C10_23  and  C11_25 
REMARK    6  A    between atoms: C11_25  and  N7_26 
REMARK    7  A    between atoms: C11_25  and  C12_30 
REMARK    8  A    between atoms: C12_30  and  O4_31 
REMARK    9  A    between atoms: C13_33  and  O5_34 
ROOT
HETATM    1  C6  UNL     1      15.772  -3.805  -4.503  1.00  0.00     0.261 C 
HETATM    2  O1  UNL     1      15.350  -3.354  -5.760  1.00  0.00    -0.354 OA
HETATM    3  C7  UNL     1      13.988  -3.362  -5.805  1.00  0.00     0.173 C 
HETATM    4  C9  UNL     1      13.493  -3.425  -4.375  1.00  0.00     0.148 C 
HETATM    5  C13 UNL     1      14.555  -4.401  -3.847  1.00  0.00     0.192 C 
ENDROOT
BRANCH   1   6
HETATM    6  N5  UNL     1      16.328  -2.676  -3.817  1.00  0.00    -0.297 N 
HETATM    7  C3  UNL     1      16.129  -2.193  -2.595  1.00  0.00     0.142 A 
HETATM    8  N3  UNL     1      15.352  -2.590  -1.601  1.00  0.00    -0.336 N 
HETATM    9  C4  UNL     1      16.909  -1.075  -2.400  1.00  0.00     0.119 A 
HETATM   10  C2  UNL     1      15.324  -1.921  -0.435  1.00  0.00     0.183 A 
ATOM     11  H3  UNL     1      14.765  -3.415  -1.720  1.00  0.00     0.168 HD
HETATM   12  N2  UNL     1      16.079  -0.833  -0.238  1.00  0.00    -0.339 N 
HETATM   13  C1  UNL     1      16.890  -0.369  -1.192  1.00  0.00     0.148 A 
ATOM     14  H2  UNL     1      16.034  -0.348   0.658  1.00  0.00     0.167 HD
HETATM   15  N1  UNL     1      17.710   0.778  -1.034  1.00  0.00    -0.080 NA
HETATM   16  N4  UNL     1      17.588  -0.891  -3.536  1.00  0.00    -0.346 N 
HETATM   17  C5  UNL     1      17.242  -1.850  -4.389  1.00  0.00     0.188 A 
ATOM     18  H4  UNL     1      18.257  -0.143  -3.718  1.00  0.00     0.167 HD
ENDBRANCH   1   6
BRANCH   5  19
HETATM   19  O5  UNL     1      14.298  -5.611  -4.490  1.00  0.00    -0.389 OA
ATOM     20  H5  UNL     1      13.526  -5.984  -4.082  1.00  0.00     0.210 HD
ENDBRANCH   5  19
BRANCH   3  21
HETATM   21  C8  UNL     1      13.373  -2.230  -6.577  1.00  0.00     0.198 C 
BRANCH  21  22
HETATM   22  O2  UNL     1      12.036  -2.555  -6.801  1.00  0.00    -0.398 OA
ATOM     23  H2  UNL     1      11.798  -2.207  -7.653  1.00  0.00     0.209 HD
ENDBRANCH  21  22
ENDBRANCH   3  21
BRANCH   4  24
HETATM   24  N6  UNL     1      12.178  -4.024  -4.332  1.00  0.00    -0.349 N 
HETATM   25  C10 UNL     1      11.097  -3.514  -3.602  1.00  0.00     0.251 C 
HETATM   26  O3  UNL     1      11.265  -2.463  -2.933  1.00  0.00    -0.271 OA
ATOM     27  H6  UNL     1      12.028  -4.877  -4.870  1.00  0.00     0.163 HD
BRANCH  25  28
HETATM   28  C11 UNL     1       9.799  -4.229  -3.644  1.00  0.00     0.297 C 
BRANCH  28  29
HETATM   29  N7  UNL     1       9.153  -4.268  -2.345  1.00  0.00    -0.064 N 
ATOM     30  H73 UNL     1       9.515  -3.539  -1.730  1.00  0.00     0.275 HD
ATOM     31  H72 UNL     1       8.182  -3.962  -2.405  1.00  0.00     0.275 HD
ATOM     32  H71 UNL     1       9.224  -5.187  -1.909  1.00  0.00     0.275 HD
ENDBRANCH  28  29
BRANCH  28  33
HETATM   33  C12 UNL     1       8.854  -3.614  -4.658  1.00  0.00     0.206 C 
BRANCH  33  34
HETATM   34  O4  UNL     1       9.451  -2.633  -5.424  1.00  0.00    -0.398 OA
ATOM     35  H4  UNL     1       9.174  -2.653  -6.333  1.00  0.00     0.209 HD
ENDBRANCH  33  34
ENDBRANCH  28  33
ENDBRANCH  25  28
ENDBRANCH   4  24
TORSDOF 9
ENDMDL
