MODEL 3
REMARK VINA RESULT: -8.726319345      1.240      2.224
REMARK  9 active torsions:
REMARK  status: ('A' for Active; 'I' for Inactive)
REMARK    1  A    between atoms: N5_13  and  C6_14 
REMARK    2  A    between atoms: C7_16  and  C8_17 
REMARK    3  A    between atoms: C8_17  and  O2_18 
REMARK    4  A    between atoms: C9_20  and  N6_21 
REMARK       I    between atoms: N6_21  and  C10_23 
REMARK    5  A    between atoms: C10_23  and  C11_25 
REMARK    6  A    between atoms: C11_25  and  N7_26 
REMARK    7  A    between atoms: C11_25  and  C12_30 
REMARK    8  A    between atoms: C12_30  and  O4_31 
REMARK    9  A    between atoms: C13_33  and  O5_34 
ROOT
HETATM    1  C6  UNL     1      15.275  -4.378  -3.675  1.00  0.00     0.261 C 
HETATM    2  O1  UNL     1      15.018  -4.313  -5.050  1.00  0.00    -0.354 OA
HETATM    3  C7  UNL     1      13.679  -4.169  -5.250  1.00  0.00     0.173 C 
HETATM    4  C9  UNL     1      13.077  -3.703  -3.940  1.00  0.00     0.148 C 
HETATM    5  C13 UNL     1      13.937  -4.576  -3.014  1.00  0.00     0.192 C 
ENDROOT
BRANCH   1   6
HETATM    6  N5  UNL     1      15.945  -3.164  -3.314  1.00  0.00    -0.297 N 
HETATM    7  C3  UNL     1      15.902  -2.418  -2.216  1.00  0.00     0.142 A 
HETATM    8  N3  UNL     1      15.225  -2.542  -1.086  1.00  0.00    -0.336 N 
HETATM    9  C4  UNL     1      16.740  -1.334  -2.352  1.00  0.00     0.119 A 
HETATM   10  C2  UNL     1      15.352  -1.636  -0.100  1.00  0.00     0.183 A 
ATOM     11  H3  UNL     1      14.598  -3.336  -0.961  1.00  0.00     0.168 HD
HETATM   12  N2  UNL     1      16.165  -0.580  -0.225  1.00  0.00    -0.339 N 
HETATM   13  C1  UNL     1      16.882  -0.384  -1.335  1.00  0.00     0.148 A 
ATOM     14  H2  UNL     1      16.238   0.088   0.542  1.00  0.00     0.167 HD
HETATM   15  N1  UNL     1      17.757   0.718  -1.517  1.00  0.00    -0.080 NA
HETATM   16  N4  UNL     1      17.295  -1.442  -3.563  1.00  0.00    -0.346 N 
HETATM   17  C5  UNL     1      16.821  -2.539  -4.143  1.00  0.00     0.188 A 
ATOM     18  H4  UNL     1      17.968  -0.793  -3.971  1.00  0.00     0.167 HD
ENDBRANCH   1   6
BRANCH   5  19
HETATM   19  O5  UNL     1      13.545  -5.889  -3.273  1.00  0.00    -0.389 OA
ATOM     20  H5  UNL     1      12.652  -5.854  -3.594  1.00  0.00     0.210 HD
ENDBRANCH   5  19
BRANCH   3  21
HETATM   21  C8  UNL     1      13.301  -3.283  -6.403  1.00  0.00     0.198 C 
BRANCH  21  22
HETATM   22  O2  UNL     1      12.712  -2.137  -5.873  1.00  0.00    -0.398 OA
ATOM     23  H2  UNL     1      12.320  -1.658  -6.594  1.00  0.00     0.209 HD
ENDBRANCH  21  22
ENDBRANCH   3  21
BRANCH   4  24
HETATM   24  N6  UNL     1      11.687  -4.091  -3.867  1.00  0.00    -0.349 N 
HETATM   25  C10 UNL     1      10.625  -3.202  -3.654  1.00  0.00     0.251 C 
HETATM   26  O3  UNL     1      10.882  -1.980  -3.516  1.00  0.00    -0.271 OA
ATOM     27  H6  UNL     1      11.464  -5.080  -3.978  1.00  0.00     0.163 HD
BRANCH  25  28
HETATM   28  C11 UNL     1       9.242  -3.734  -3.601  1.00  0.00     0.297 C 
BRANCH  28  29
HETATM   29  N7  UNL     1       8.660  -3.877  -4.922  1.00  0.00    -0.064 N 
ATOM     30  H73 UNL     1       7.679  -4.153  -4.866  1.00  0.00     0.275 HD
ATOM     31  H72 UNL     1       8.546  -2.970  -5.376  1.00  0.00     0.275 HD
ATOM     32  H71 UNL     1       9.192  -4.519  -5.509  1.00  0.00     0.275 HD
ENDBRANCH  28  29
BRANCH  28  33
HETATM   33  C12 UNL     1       9.180  -5.064  -2.876  1.00  0.00     0.206 C 
BRANCH  33  34
HETATM   34  O4  UNL     1       9.877  -5.059  -1.684  1.00  0.00    -0.398 OA
ATOM     35  H4  UNL     1       9.444  -5.557  -1.001  1.00  0.00     0.209 HD
ENDBRANCH  33  34
ENDBRANCH  28  33
ENDBRANCH  25  28
ENDBRANCH   4  24
TORSDOF 9
ENDMDL
