MODEL 9
REMARK VINA RESULT: -7.643945074      1.430      2.138
REMARK  9 active torsions:
REMARK  status: ('A' for Active; 'I' for Inactive)
REMARK    1  A    between atoms: N5_13  and  C6_14 
REMARK    2  A    between atoms: C7_16  and  C8_17 
REMARK    3  A    between atoms: C8_17  and  O2_18 
REMARK    4  A    between atoms: C9_20  and  N6_21 
REMARK       I    between atoms: N6_21  and  C10_23 
REMARK    5  A    between atoms: C10_23  and  C11_25 
REMARK    6  A    between atoms: C11_25  and  N7_26 
REMARK    7  A    between atoms: C11_25  and  C12_30 
REMARK    8  A    between atoms: C12_30  and  O4_31 
REMARK    9  A    between atoms: C13_33  and  O5_34 
ROOT
HETATM    1  C6  UNL     1      14.877  -4.167  -2.242  1.00  0.00     0.261 C 
HETATM    2  O1  UNL     1      15.052  -4.846  -3.453  1.00  0.00    -0.354 OA
HETATM    3  C7  UNL     1      13.924  -4.718  -4.206  1.00  0.00     0.173 C 
HETATM    4  C9  UNL     1      13.135  -3.557  -3.637  1.00  0.00     0.148 C 
HETATM    5  C13 UNL     1      13.409  -3.848  -2.154  1.00  0.00     0.192 C 
ENDROOT
BRANCH   1   6
HETATM    6  N5  UNL     1      15.737  -3.020  -2.276  1.00  0.00    -0.297 N 
HETATM    7  C3  UNL     1      15.932  -2.031  -1.411  1.00  0.00     0.142 A 
HETATM    8  N3  UNL     1      15.400  -1.769  -0.228  1.00  0.00    -0.336 N 
HETATM    9  C4  UNL     1      16.874  -1.156  -1.903  1.00  0.00     0.119 A 
HETATM   10  C2  UNL     1      15.768  -0.681   0.471  1.00  0.00     0.183 A 
ATOM     11  H3  UNL     1      14.700  -2.402   0.159  1.00  0.00     0.168 HD
HETATM   12  N2  UNL     1      16.684   0.174  -0.002  1.00  0.00    -0.339 N 
HETATM   13  C1  UNL     1      17.267  -0.020  -1.187  1.00  0.00     0.148 A 
ATOM     14  H2  UNL     1      16.940   0.990   0.554  1.00  0.00     0.167 HD
HETATM   15  N1  UNL     1      18.242   0.855  -1.733  1.00  0.00    -0.080 NA
HETATM   16  N4  UNL     1      17.247  -1.641  -3.092  1.00  0.00    -0.346 N 
HETATM   17  C5  UNL     1      16.567  -2.760  -3.318  1.00  0.00     0.188 A 
ATOM     18  H4  UNL     1      17.936  -1.224  -3.717  1.00  0.00     0.167 HD
ENDBRANCH   1   6
BRANCH   5  19
HETATM   19  O5  UNL     1      12.747  -5.045  -1.884  1.00  0.00    -0.389 OA
ATOM     20  H5  UNL     1      11.916  -4.819  -1.484  1.00  0.00     0.210 HD
ENDBRANCH   5  19
BRANCH   3  21
HETATM   21  C8  UNL     1      14.160  -4.583  -5.684  1.00  0.00     0.198 C 
BRANCH  21  22
HETATM   22  O2  UNL     1      14.343  -3.229  -5.956  1.00  0.00    -0.398 OA
ATOM     23  H2  UNL     1      13.653  -2.962  -6.553  1.00  0.00     0.209 HD
ENDBRANCH  21  22
ENDBRANCH   3  21
BRANCH   4  24
HETATM   24  N6  UNL     1      11.731  -3.714  -3.942  1.00  0.00    -0.349 N 
HETATM   25  C10 UNL     1      11.066  -3.056  -4.985  1.00  0.00     0.251 C 
HETATM   26  O3  UNL     1      11.722  -2.272  -5.716  1.00  0.00    -0.271 OA
ATOM     27  H6  UNL     1      11.187  -4.348  -3.357  1.00  0.00     0.163 HD
BRANCH  25  28
HETATM   28  C11 UNL     1       9.619  -3.309  -5.188  1.00  0.00     0.297 C 
BRANCH  28  29
HETATM   29  N7  UNL     1       9.291  -3.513  -6.586  1.00  0.00    -0.064 N 
ATOM     30  H73 UNL     1       9.491  -4.470  -6.877  1.00  0.00     0.275 HD
ATOM     31  H72 UNL     1       8.282  -3.506  -6.734  1.00  0.00     0.275 HD
ATOM     32  H71 UNL     1       9.757  -2.838  -7.193  1.00  0.00     0.275 HD
ENDBRANCH  28  29
BRANCH  28  33
HETATM   33  C12 UNL     1       9.139  -4.497  -4.378  1.00  0.00     0.206 C 
BRANCH  33  34
HETATM   34  O4  UNL     1       7.954  -5.025  -4.851  1.00  0.00    -0.398 OA
ATOM     35  H4  UNL     1       8.086  -5.734  -5.469  1.00  0.00     0.209 HD
ENDBRANCH  33  34
ENDBRANCH  28  33
ENDBRANCH  25  28
ENDBRANCH   4  24
TORSDOF 9
ENDMDL
