MODEL 5
REMARK VINA RESULT: -8.113006762      2.154      6.974
REMARK  9 active torsions:
REMARK  status: ('A' for Active; 'I' for Inactive)
REMARK    1  A    between atoms: N5_13  and  C6_14 
REMARK    2  A    between atoms: C7_16  and  C8_17 
REMARK    3  A    between atoms: C8_17  and  O2_18 
REMARK    4  A    between atoms: C9_20  and  N6_21 
REMARK       I    between atoms: N6_21  and  C10_23 
REMARK    5  A    between atoms: C10_23  and  C11_25 
REMARK    6  A    between atoms: C11_25  and  N7_26 
REMARK    7  A    between atoms: C11_25  and  C12_30 
REMARK    8  A    between atoms: C12_30  and  O4_31 
REMARK    9  A    between atoms: C13_33  and  O5_34 
ROOT
HETATM    1  C6  UNL     1      14.856  -4.468  -4.996  1.00  0.00     0.261 C 
HETATM    2  O1  UNL     1      14.738  -4.927  -3.678  1.00  0.00    -0.354 OA
HETATM    3  C7  UNL     1      15.448  -4.108  -2.853  1.00  0.00     0.173 C 
HETATM    4  C9  UNL     1      15.700  -2.819  -3.609  1.00  0.00     0.148 C 
HETATM    5  C13 UNL     1      15.966  -3.452  -4.983  1.00  0.00     0.192 C 
ENDROOT
BRANCH   1   6
HETATM    6  N5  UNL     1      13.575  -3.949  -5.376  1.00  0.00    -0.297 N 
HETATM    7  C3  UNL     1      12.396  -3.957  -4.764  1.00  0.00     0.142 A 
HETATM    8  N3  UNL     1      12.005  -4.447  -3.599  1.00  0.00    -0.336 N 
HETATM    9  C4  UNL     1      11.458  -3.320  -5.545  1.00  0.00     0.119 A 
HETATM   10  C2  UNL     1      10.730  -4.327  -3.190  1.00  0.00     0.183 A 
ATOM     11  H3  UNL     1      12.681  -4.922  -3.002  1.00  0.00     0.168 HD
HETATM   12  N2  UNL     1       9.812  -3.710  -3.945  1.00  0.00    -0.339 N 
HETATM   13  C1  UNL     1      10.127  -3.188  -5.133  1.00  0.00     0.148 A 
ATOM     14  H2  UNL     1       8.853  -3.637  -3.605  1.00  0.00     0.167 HD
HETATM   15  N1  UNL     1       9.193  -2.525  -5.969  1.00  0.00    -0.080 NA
HETATM   16  N4  UNL     1      12.098  -2.924  -6.649  1.00  0.00    -0.346 N 
HETATM   17  C5  UNL     1      13.370  -3.299  -6.551  1.00  0.00     0.188 A 
ATOM     18  H4  UNL     1      11.683  -2.420  -7.432  1.00  0.00     0.167 HD
ENDBRANCH   1   6
BRANCH   5  19
HETATM   19  O5  UNL     1      17.161  -4.157  -4.840  1.00  0.00    -0.389 OA
ATOM     20  H5  UNL     1      17.866  -3.549  -5.031  1.00  0.00     0.210 HD
ENDBRANCH   5  19
BRANCH   3  21
HETATM   21  C8  UNL     1      14.827  -3.872  -1.506  1.00  0.00     0.198 C 
BRANCH  21  22
HETATM   22  O2  UNL     1      13.902  -2.839  -1.648  1.00  0.00    -0.398 OA
ATOM     23  H2  UNL     1      13.097  -3.117  -1.225  1.00  0.00     0.209 HD
ENDBRANCH  21  22
ENDBRANCH   3  21
BRANCH   4  24
HETATM   24  N6  UNL     1      16.887  -2.171  -3.102  1.00  0.00    -0.349 N 
HETATM   25  C10 UNL     1      16.890  -1.177  -2.115  1.00  0.00     0.251 C 
HETATM   26  O3  UNL     1      15.791  -0.813  -1.626  1.00  0.00    -0.271 OA
ATOM     27  H6  UNL     1      17.786  -2.457  -3.490  1.00  0.00     0.163 HD
BRANCH  25  28
HETATM   28  C11 UNL     1      18.183  -0.593  -1.685  1.00  0.00     0.297 C 
BRANCH  28  29
HETATM   29  N7  UNL     1      19.166  -0.594  -2.752  1.00  0.00    -0.064 N 
ATOM     30  H73 UNL     1      18.790  -1.020  -3.600  1.00  0.00     0.275 HD
ATOM     31  H72 UNL     1      19.330   0.349  -3.104  1.00  0.00     0.275 HD
ATOM     32  H71 UNL     1      20.038  -1.041  -2.471  1.00  0.00     0.275 HD
ENDBRANCH  28  29
BRANCH  28  33
HETATM   33  C12 UNL     1      18.013   0.818  -1.157  1.00  0.00     0.206 C 
BRANCH  33  34
HETATM   34  O4  UNL     1      17.433   0.857   0.095  1.00  0.00    -0.398 OA
ATOM     35  H4  UNL     1      17.077   1.711   0.311  1.00  0.00     0.209 HD
ENDBRANCH  33  34
ENDBRANCH  28  33
ENDBRANCH  25  28
ENDBRANCH   4  24
TORSDOF 9
ENDMDL
