MODEL 4
REMARK VINA RESULT: -8.305354333      0.890      1.768
REMARK  9 active torsions:
REMARK  status: ('A' for Active; 'I' for Inactive)
REMARK    1  A    between atoms: N5_13  and  C6_14 
REMARK    2  A    between atoms: C7_16  and  C8_17 
REMARK    3  A    between atoms: C8_17  and  O2_18 
REMARK    4  A    between atoms: C9_20  and  N6_21 
REMARK       I    between atoms: N6_21  and  C10_23 
REMARK    5  A    between atoms: C10_23  and  C11_25 
REMARK    6  A    between atoms: C11_25  and  N7_26 
REMARK    7  A    between atoms: C11_25  and  C12_30 
REMARK    8  A    between atoms: C12_30  and  O4_31 
REMARK    9  A    between atoms: C13_33  and  O5_34 
ROOT
HETATM    1  C6  UNL     1      15.594  -4.099  -3.527  1.00  0.00     0.261 C 
HETATM    2  O1  UNL     1      15.775  -4.129  -4.914  1.00  0.00    -0.354 OA
HETATM    3  C7  UNL     1      14.564  -4.013  -5.528  1.00  0.00     0.173 C 
HETATM    4  C9  UNL     1      13.593  -3.466  -4.501  1.00  0.00     0.148 C 
HETATM    5  C13 UNL     1      14.116  -4.265  -3.298  1.00  0.00     0.192 C 
ENDROOT
BRANCH   1   6
HETATM    6  N5  UNL     1      16.134  -2.857  -3.059  1.00  0.00    -0.297 N 
HETATM    7  C3  UNL     1      15.969  -2.187  -1.923  1.00  0.00     0.142 A 
HETATM    8  N3  UNL     1      15.250  -2.440  -0.842  1.00  0.00    -0.336 N 
HETATM    9  C4  UNL     1      16.712  -1.029  -1.949  1.00  0.00     0.119 A 
HETATM   10  C2  UNL     1      15.246  -1.591   0.201  1.00  0.00     0.183 A 
ATOM     11  H3  UNL     1      14.691  -3.292  -0.798  1.00  0.00     0.168 HD
HETATM   12  N2  UNL     1      15.966  -0.463   0.183  1.00  0.00    -0.339 N 
HETATM   13  C1  UNL     1      16.717  -0.135  -0.871  1.00  0.00     0.148 A 
ATOM     14  H2  UNL     1      15.939   0.160   0.990  1.00  0.00     0.167 HD
HETATM   15  N1  UNL     1      17.498   1.047  -0.940  1.00  0.00    -0.080 NA
HETATM   16  N4  UNL     1      17.335  -1.012  -3.131  1.00  0.00    -0.346 N 
HETATM   17  C5  UNL     1      16.991  -2.107  -3.800  1.00  0.00     0.188 A 
ATOM     18  H4  UNL     1      17.967  -0.283  -3.463  1.00  0.00     0.167 HD
ENDBRANCH   1   6
BRANCH   5  19
HETATM   19  O5  UNL     1      13.808  -5.597  -3.577  1.00  0.00    -0.389 OA
ATOM     20  H5  UNL     1      12.935  -5.607  -3.952  1.00  0.00     0.210 HD
ENDBRANCH   5  19
BRANCH   3  21
HETATM   21  C8  UNL     1      14.571  -3.210  -6.797  1.00  0.00     0.198 C 
BRANCH  21  22
HETATM   22  O2  UNL     1      13.590  -2.228  -6.676  1.00  0.00    -0.398 OA
ATOM     23  H2  UNL     1      13.420  -2.107  -5.749  1.00  0.00     0.209 HD
ENDBRANCH  21  22
ENDBRANCH   3  21
BRANCH   4  24
HETATM   24  N6  UNL     1      12.244  -3.862  -4.835  1.00  0.00    -0.349 N 
HETATM   25  C10 UNL     1      11.100  -3.107  -4.545  1.00  0.00     0.251 C 
HETATM   26  O3  UNL     1      11.240  -2.006  -3.955  1.00  0.00    -0.271 OA
ATOM     27  H6  UNL     1      12.116  -4.752  -5.315  1.00  0.00     0.163 HD
BRANCH  25  28
HETATM   28  C11 UNL     1       9.772  -3.631  -4.944  1.00  0.00     0.297 C 
BRANCH  28  29
HETATM   29  N7  UNL     1       8.706  -3.114  -4.106  1.00  0.00    -0.064 N 
ATOM     30  H73 UNL     1       8.925  -3.230  -3.116  1.00  0.00     0.275 HD
ATOM     31  H72 UNL     1       8.666  -2.095  -4.145  1.00  0.00     0.275 HD
ATOM     32  H71 UNL     1       7.802  -3.527  -4.335  1.00  0.00     0.275 HD
ENDBRANCH  28  29
BRANCH  28  33
HETATM   33  C12 UNL     1       9.463  -3.327  -6.398  1.00  0.00     0.206 C 
BRANCH  33  34
HETATM   34  O4  UNL     1      10.466  -2.614  -7.022  1.00  0.00    -0.398 OA
ATOM     35  H4  UNL     1      10.684  -2.957  -7.881  1.00  0.00     0.209 HD
ENDBRANCH  33  34
ENDBRANCH  28  33
ENDBRANCH  25  28
ENDBRANCH   4  24
TORSDOF 9
ENDMDL
