MODEL 4
REMARK VINA RESULT: -7.536851664      2.654      4.629
REMARK  9 active torsions:
REMARK  status: ('A' for Active; 'I' for Inactive)
REMARK    1  A    between atoms: N5_13  and  C6_14 
REMARK    2  A    between atoms: C7_16  and  C8_17 
REMARK    3  A    between atoms: C8_17  and  O2_18 
REMARK    4  A    between atoms: C9_20  and  N6_21 
REMARK       I    between atoms: N6_21  and  C10_23 
REMARK    5  A    between atoms: C10_23  and  C11_25 
REMARK    6  A    between atoms: C11_25  and  N7_26 
REMARK    7  A    between atoms: C11_25  and  C12_30 
REMARK    8  A    between atoms: C12_30  and  O4_31 
REMARK    9  A    between atoms: C13_33  and  O5_34 
ROOT
HETATM    1  C6  UNL     1      17.486  -0.255  -2.352  1.00  0.00     0.261 C 
HETATM    2  O1  UNL     1      17.335   0.296  -1.098  1.00  0.00    -0.354 OA
HETATM    3  C7  UNL     1      16.428  -0.464  -0.401  1.00  0.00     0.173 C 
HETATM    4  C9  UNL     1      16.438  -1.854  -0.990  1.00  0.00     0.148 C 
HETATM    5  C13 UNL     1      17.538  -1.750  -2.027  1.00  0.00     0.192 C 
ENDROOT
BRANCH   1   6
HETATM    6  N5  UNL     1      18.728   0.101  -2.980  1.00  0.00    -0.297 N 
HETATM    7  C3  UNL     1      18.955   0.086  -4.309  1.00  0.00     0.142 A 
HETATM    8  N3  UNL     1      18.210  -0.224  -5.396  1.00  0.00    -0.336 N 
HETATM    9  C4  UNL     1      20.249   0.485  -4.532  1.00  0.00     0.119 A 
HETATM   10  C2  UNL     1      18.739  -0.137  -6.643  1.00  0.00     0.183 A 
ATOM     11  H3  UNL     1      17.243  -0.526  -5.276  1.00  0.00     0.168 HD
HETATM   12  N2  UNL     1      20.016   0.257  -6.837  1.00  0.00    -0.339 N 
HETATM   13  C1  UNL     1      20.798   0.575  -5.806  1.00  0.00     0.148 A 
ATOM     14  H2  UNL     1      20.387   0.313  -7.786  1.00  0.00     0.167 HD
HETATM   15  N1  UNL     1      22.147   0.995  -5.977  1.00  0.00    -0.080 NA
HETATM   16  N4  UNL     1      20.773   0.732  -3.315  1.00  0.00    -0.346 N 
HETATM   17  C5  UNL     1      19.865   0.505  -2.364  1.00  0.00     0.188 A 
ATOM     18  H4  UNL     1      21.728   1.049  -3.145  1.00  0.00     0.167 HD
ENDBRANCH   1   6
BRANCH   5  19
HETATM   19  O5  UNL     1      17.244  -2.522  -3.135  1.00  0.00    -0.389 OA
ATOM     20  H5  UNL     1      16.450  -2.225  -3.566  1.00  0.00     0.210 HD
ENDBRANCH   5  19
BRANCH   3  21
HETATM   21  C8  UNL     1      16.870  -0.570   1.048  1.00  0.00     0.198 C 
BRANCH  21  22
HETATM   22  O2  UNL     1      16.528   0.609   1.732  1.00  0.00    -0.398 OA
ATOM     23  H2  UNL     1      15.929   1.122   1.203  1.00  0.00     0.209 HD
ENDBRANCH  21  22
ENDBRANCH   3  21
BRANCH   4  24
HETATM   24  N6  UNL     1      15.191  -2.038  -1.696  1.00  0.00    -0.349 N 
HETATM   25  C10 UNL     1      14.558  -3.295  -1.871  1.00  0.00     0.251 C 
HETATM   26  O3  UNL     1      15.117  -4.312  -1.383  1.00  0.00    -0.271 OA
ATOM     27  H6  UNL     1      14.738  -1.214  -2.091  1.00  0.00     0.163 HD
BRANCH  25  28
HETATM   28  C11 UNL     1      13.275  -3.453  -2.603  1.00  0.00     0.297 C 
BRANCH  28  29
HETATM   29  N7  UNL     1      12.298  -2.480  -2.219  1.00  0.00    -0.064 N 
ATOM     30  H73 UNL     1      12.364  -2.269  -1.223  1.00  0.00     0.275 HD
ATOM     31  H72 UNL     1      12.528  -1.562  -2.597  1.00  0.00     0.275 HD
ATOM     32  H71 UNL     1      11.350  -2.754  -2.474  1.00  0.00     0.275 HD
ENDBRANCH  28  29
BRANCH  28  33
HETATM   33  C12 UNL     1      13.560  -3.277  -4.083  1.00  0.00     0.206 C 
BRANCH  33  34
HETATM   34  O4  UNL     1      14.767  -3.912  -4.357  1.00  0.00    -0.398 OA
ATOM     35  H4  UNL     1      14.979  -3.746  -5.268  1.00  0.00     0.209 HD
ENDBRANCH  33  34
ENDBRANCH  28  33
ENDBRANCH  25  28
ENDBRANCH   4  24
TORSDOF 9
ENDMDL
