MODEL 2
REMARK VINA RESULT: -7.620567940      2.570      3.597
REMARK  9 active torsions:
REMARK  status: ('A' for Active; 'I' for Inactive)
REMARK    1  A    between atoms: N5_13  and  C6_14 
REMARK    2  A    between atoms: C7_16  and  C8_17 
REMARK    3  A    between atoms: C8_17  and  O2_18 
REMARK    4  A    between atoms: C9_20  and  N6_21 
REMARK       I    between atoms: N6_21  and  C10_23 
REMARK    5  A    between atoms: C10_23  and  C11_25 
REMARK    6  A    between atoms: C11_25  and  N7_26 
REMARK    7  A    between atoms: C11_25  and  C12_30 
REMARK    8  A    between atoms: C12_30  and  O4_31 
REMARK    9  A    between atoms: C13_33  and  O5_34 
ROOT
HETATM    1  C6  UNL     1      12.203  -2.307  -3.931  1.00  0.00     0.261 C 
HETATM    2  O1  UNL     1      11.891  -2.660  -2.636  1.00  0.00    -0.354 OA
HETATM    3  C7  UNL     1      10.581  -3.072  -2.607  1.00  0.00     0.173 C 
HETATM    4  C9  UNL     1      10.217  -3.557  -3.989  1.00  0.00     0.148 C 
HETATM    5  C13 UNL     1      11.536  -3.433  -4.725  1.00  0.00     0.192 C 
ENDROOT
BRANCH   1   6
HETATM    6  N5  UNL     1      13.613  -2.353  -4.204  1.00  0.00    -0.297 N 
HETATM    7  C3  UNL     1      14.559  -2.744  -3.327  1.00  0.00     0.142 A 
HETATM    8  N3  UNL     1      14.543  -3.177  -2.045  1.00  0.00    -0.336 N 
HETATM    9  C4  UNL     1      15.783  -2.657  -3.941  1.00  0.00     0.119 A 
HETATM   10  C2  UNL     1      15.698  -3.506  -1.412  1.00  0.00     0.183 A 
ATOM     11  H3  UNL     1      13.654  -3.257  -1.549  1.00  0.00     0.168 HD
HETATM   12  N2  UNL     1      16.892  -3.410  -2.039  1.00  0.00    -0.339 N 
HETATM   13  C1  UNL     1      16.971  -2.990  -3.301  1.00  0.00     0.148 A 
ATOM     14  H2  UNL     1      17.744  -3.664  -1.538  1.00  0.00     0.167 HD
HETATM   15  N1  UNL     1      18.212  -2.880  -3.988  1.00  0.00    -0.080 NA
HETATM   16  N4  UNL     1      15.537  -2.210  -5.189  1.00  0.00    -0.346 N 
HETATM   17  C5  UNL     1      14.228  -2.021  -5.365  1.00  0.00     0.188 A 
ATOM     18  H4  UNL     1      16.250  -2.040  -5.899  1.00  0.00     0.167 HD
ENDBRANCH   1   6
BRANCH   5  19
HETATM   19  O5  UNL     1      11.332  -3.072  -6.044  1.00  0.00    -0.389 OA
ATOM     20  H5  UNL     1      10.996  -3.798  -6.556  1.00  0.00     0.210 HD
ENDBRANCH   5  19
BRANCH   3  21
HETATM   21  C8  UNL     1      10.445  -4.246  -1.652  1.00  0.00     0.198 C 
BRANCH  21  22
HETATM   22  O2  UNL     1      11.718  -4.653  -1.221  1.00  0.00    -0.398 OA
ATOM     23  H2  UNL     1      11.898  -5.529  -1.542  1.00  0.00     0.209 HD
ENDBRANCH  21  22
ENDBRANCH   3  21
BRANCH   4  24
HETATM   24  N6  UNL     1       9.307  -2.594  -4.564  1.00  0.00    -0.349 N 
HETATM   25  C10 UNL     1       7.905  -2.601  -4.346  1.00  0.00     0.251 C 
HETATM   26  O3  UNL     1       7.425  -3.501  -3.607  1.00  0.00    -0.271 OA
ATOM     27  H6  UNL     1       9.695  -1.865  -5.162  1.00  0.00     0.163 HD
BRANCH  25  28
HETATM   28  C11 UNL     1       6.993  -1.597  -4.951  1.00  0.00     0.297 C 
BRANCH  28  29
HETATM   29  N7  UNL     1       7.669  -0.390  -5.319  1.00  0.00    -0.064 N 
ATOM     30  H73 UNL     1       8.676  -0.480  -5.189  1.00  0.00     0.275 HD
ATOM     31  H72 UNL     1       7.646  -0.251  -6.329  1.00  0.00     0.275 HD
ATOM     32  H71 UNL     1       7.307   0.427  -4.829  1.00  0.00     0.275 HD
ENDBRANCH  28  29
BRANCH  28  33
HETATM   33  C12 UNL     1       6.398  -2.207  -6.207  1.00  0.00     0.206 C 
BRANCH  33  34
HETATM   34  O4  UNL     1       7.103  -3.374  -6.482  1.00  0.00    -0.398 OA
ATOM     35  H4  UNL     1       6.619  -3.852  -7.145  1.00  0.00     0.209 HD
ENDBRANCH  33  34
ENDBRANCH  28  33
ENDBRANCH  25  28
ENDBRANCH   4  24
TORSDOF 9
ENDMDL
