MODEL 5
REMARK VINA RESULT: -7.410540783      2.626      3.876
REMARK  9 active torsions:
REMARK  status: ('A' for Active; 'I' for Inactive)
REMARK    1  A    between atoms: N5_13  and  C6_14 
REMARK    2  A    between atoms: C7_16  and  C8_17 
REMARK    3  A    between atoms: C8_17  and  O2_18 
REMARK    4  A    between atoms: C9_20  and  N6_21 
REMARK       I    between atoms: N6_21  and  C10_23 
REMARK    5  A    between atoms: C10_23  and  C11_25 
REMARK    6  A    between atoms: C11_25  and  N7_26 
REMARK    7  A    between atoms: C11_25  and  C12_30 
REMARK    8  A    between atoms: C12_30  and  O4_31 
REMARK    9  A    between atoms: C13_33  and  O5_34 
ROOT
HETATM    1  C6  UNL     1      12.284  -2.118  -3.953  1.00  0.00     0.261 C 
HETATM    2  O1  UNL     1      11.849  -2.567  -2.726  1.00  0.00    -0.354 OA
HETATM    3  C7  UNL     1      10.509  -2.851  -2.822  1.00  0.00     0.173 C 
HETATM    4  C9  UNL     1      10.202  -3.156  -4.267  1.00  0.00     0.148 C 
HETATM    5  C13 UNL     1      11.575  -3.088  -4.904  1.00  0.00     0.192 C 
ENDROOT
BRANCH   1   6
HETATM    6  N5  UNL     1      13.700  -2.274  -4.143  1.00  0.00    -0.297 N 
HETATM    7  C3  UNL     1      14.560  -2.725  -3.209  1.00  0.00     0.142 A 
HETATM    8  N3  UNL     1      14.437  -3.141  -1.926  1.00  0.00    -0.336 N 
HETATM    9  C4  UNL     1      15.821  -2.737  -3.750  1.00  0.00     0.119 A 
HETATM   10  C2  UNL     1      15.525  -3.548  -1.225  1.00  0.00     0.183 A 
ATOM     11  H3  UNL     1      13.518  -3.148  -1.484  1.00  0.00     0.168 HD
HETATM   12  N2  UNL     1      16.757  -3.550  -1.781  1.00  0.00    -0.339 N 
HETATM   13  C1  UNL     1      16.941  -3.152  -3.039  1.00  0.00     0.148 A 
ATOM     14  H2  UNL     1      17.557  -3.862  -1.229  1.00  0.00     0.167 HD
HETATM   15  N1  UNL     1      18.224  -3.144  -3.653  1.00  0.00    -0.080 NA
HETATM   16  N4  UNL     1      15.683  -2.287  -5.014  1.00  0.00    -0.346 N 
HETATM   17  C5  UNL     1      14.404  -2.002  -5.267  1.00  0.00     0.188 A 
ATOM     18  H4  UNL     1      16.447  -2.180  -5.681  1.00  0.00     0.167 HD
ENDBRANCH   1   6
BRANCH   5  19
HETATM   19  O5  UNL     1      11.500  -2.577  -6.186  1.00  0.00    -0.389 OA
ATOM     20  H5  UNL     1      11.185  -3.228  -6.802  1.00  0.00     0.210 HD
ENDBRANCH   5  19
BRANCH   3  21
HETATM   21  C8  UNL     1      10.199  -4.096  -2.008  1.00  0.00     0.198 C 
BRANCH  21  22
HETATM   22  O2  UNL     1      11.343  -4.489  -1.293  1.00  0.00    -0.398 OA
ATOM     23  H2  UNL     1      11.114  -5.176  -0.679  1.00  0.00     0.209 HD
ENDBRANCH  21  22
ENDBRANCH   3  21
BRANCH   4  24
HETATM   24  N6  UNL     1       9.425  -2.056  -4.790  1.00  0.00    -0.349 N 
HETATM   25  C10 UNL     1       8.519  -2.171  -5.875  1.00  0.00     0.251 C 
HETATM   26  O3  UNL     1       8.383  -3.300  -6.415  1.00  0.00    -0.271 OA
ATOM     27  H6  UNL     1       9.536  -1.141  -4.353  1.00  0.00     0.163 HD
BRANCH  25  28
HETATM   28  C11 UNL     1       7.734  -1.020  -6.391  1.00  0.00     0.297 C 
BRANCH  28  29
HETATM   29  N7  UNL     1       7.638   0.050  -5.446  1.00  0.00    -0.064 N 
ATOM     30  H73 UNL     1       7.204  -0.266  -4.579  1.00  0.00     0.275 HD
ATOM     31  H72 UNL     1       8.557   0.304  -5.086  1.00  0.00     0.275 HD
ATOM     32  H71 UNL     1       7.154   0.864  -5.822  1.00  0.00     0.275 HD
ENDBRANCH  28  29
BRANCH  28  33
HETATM   33  C12 UNL     1       8.438  -0.495  -7.629  1.00  0.00     0.206 C 
BRANCH  33  34
HETATM   34  O4  UNL     1       9.770  -0.891  -7.554  1.00  0.00    -0.398 OA
ATOM     35  H4  UNL     1      10.096  -0.968  -8.443  1.00  0.00     0.209 HD
ENDBRANCH  33  34
ENDBRANCH  28  33
ENDBRANCH  25  28
ENDBRANCH   4  24
TORSDOF 9
ENDMDL
