MODEL 2
REMARK VINA RESULT: -7.792622785      1.484      1.713
REMARK  9 active torsions:
REMARK  status: ('A' for Active; 'I' for Inactive)
REMARK    1  A    between atoms: C2_2  and  O1_3 
REMARK    2  A    between atoms: C2_2  and  C3_5 
REMARK    3  A    between atoms: C3_5  and  N1_6 
REMARK    4  A    between atoms: C3_5  and  C4_10 
REMARK       I    between atoms: C4_10  and  N2_12 
REMARK    5  A    between atoms: N2_12  and  C5_14 
REMARK    6  A    between atoms: C6_15  and  C7_16 
REMARK    7  A    between atoms: C7_16  and  O3_17 
REMARK    8  A    between atoms: C8_20  and  N3_21 
REMARK    9  A    between atoms: C14_34  and  O5_35 
ROOT
HETATM    1  C5  UNL     1      14.746  -2.753  -4.116  1.00  0.00     0.148 C 
HETATM    2  C6  UNL     1      14.910  -2.187  -5.444  1.00  0.00     0.173 C 
HETATM    3  O4  UNL     1      13.718  -1.576  -5.804  1.00  0.00    -0.354 OA
HETATM    4  C8  UNL     1      12.753  -1.844  -4.890  1.00  0.00     0.261 C 
HETATM    5  C14 UNL     1      13.250  -2.929  -3.971  1.00  0.00     0.192 C 
ENDROOT
BRANCH   1   6
HETATM    6  N2  UNL     1      15.304  -2.052  -3.007  1.00  0.00    -0.349 N 
HETATM    7  C4  UNL     1      16.664  -1.981  -2.680  1.00  0.00     0.251 C 
HETATM    8  O2  UNL     1      17.456  -2.604  -3.455  1.00  0.00    -0.271 OA
ATOM      9  H2  UNL     1      14.653  -1.559  -2.395  1.00  0.00     0.163 HD
BRANCH   7  10
HETATM   10  C3  UNL     1      17.207  -1.244  -1.523  1.00  0.00     0.302 C 
BRANCH  10  11
HETATM   11  C2  UNL     1      16.074  -0.667  -0.686  1.00  0.00     0.153 C 
HETATM   12  C1  UNL     1      16.069  -1.317   0.662  1.00  0.00     0.042 C 
BRANCH  11  13
HETATM   13  O1  UNL     1      16.217   0.710  -0.620  1.00  0.00    -0.393 OA
ATOM     14  H1  UNL     1      17.070   1.007  -0.913  1.00  0.00     0.210 HD
ENDBRANCH  11  13
ENDBRANCH  10  11
BRANCH  10  15
HETATM   15  N1  UNL     1      18.014  -0.108  -1.943  1.00  0.00    -0.064 N 
ATOM     16  H13 UNL     1      17.637   0.791  -1.646  1.00  0.00     0.275 HD
ATOM     17  H12 UNL     1      18.904  -0.037  -1.450  1.00  0.00     0.275 HD
ATOM     18  H11 UNL     1      18.114  -0.194  -2.954  1.00  0.00     0.275 HD
ENDBRANCH  10  15
ENDBRANCH   7  10
ENDBRANCH   1   6
BRANCH   2  19
HETATM   19  C7  UNL     1      15.105  -3.324  -6.458  1.00  0.00     0.198 C 
BRANCH  19  20
HETATM   20  O3  UNL     1      14.580  -2.884  -7.672  1.00  0.00    -0.398 OA
ATOM     21  H3  UNL     1      15.016  -2.066  -7.883  1.00  0.00     0.209 HD
ENDBRANCH  19  20
ENDBRANCH   2  19
BRANCH   5  22
HETATM   22  O5  UNL     1      12.934  -2.633  -2.646  1.00  0.00    -0.389 OA
ATOM     23  H5  UNL     1      12.502  -1.787  -2.648  1.00  0.00     0.210 HD
ENDBRANCH   5  22
BRANCH   4  24
HETATM   24  N3  UNL     1      11.525  -2.196  -5.574  1.00  0.00    -0.297 N 
HETATM   25  C9  UNL     1      10.443  -2.851  -5.115  1.00  0.00     0.188 A 
HETATM   26  N4  UNL     1       9.525  -2.968  -6.081  1.00  0.00    -0.346 N 
HETATM   27  C10 UNL     1       9.994  -2.388  -7.198  1.00  0.00     0.119 A 
ATOM     28  H4  UNL     1       8.617  -3.424  -5.984  1.00  0.00     0.167 HD
HETATM   29  C11 UNL     1       9.447  -2.230  -8.472  1.00  0.00     0.148 A 
HETATM   30  C13 UNL     1      11.244  -1.906  -6.876  1.00  0.00     0.142 A 
HETATM   31  N5  UNL     1       8.160  -2.747  -8.736  1.00  0.00    -0.080 NA
HETATM   32  N6  UNL     1      10.201  -1.584  -9.379  1.00  0.00    -0.339 N 
HETATM   33  C12 UNL     1      11.424  -1.109  -9.078  1.00  0.00     0.183 A 
ATOM     34  H6  UNL     1       9.836  -1.451 -10.322  1.00  0.00     0.167 HD
HETATM   35  N7  UNL     1      11.940  -1.268  -7.846  1.00  0.00    -0.336 N 
ATOM     36  H7  UNL     1      12.869  -0.901  -7.639  1.00  0.00     0.168 HD
ENDBRANCH   4  24
TORSDOF 9
ENDMDL
