MODEL 6
REMARK VINA RESULT: -7.455663411      2.823      7.794
REMARK  9 active torsions:
REMARK  status: ('A' for Active; 'I' for Inactive)
REMARK    1  A    between atoms: C2_2  and  O1_3 
REMARK    2  A    between atoms: C2_2  and  C3_5 
REMARK    3  A    between atoms: C3_5  and  N1_6 
REMARK    4  A    between atoms: C3_5  and  C4_10 
REMARK       I    between atoms: C4_10  and  N2_12 
REMARK    5  A    between atoms: N2_12  and  C5_14 
REMARK    6  A    between atoms: C6_15  and  C7_16 
REMARK    7  A    between atoms: C7_16  and  O3_17 
REMARK    8  A    between atoms: C8_20  and  N3_21 
REMARK    9  A    between atoms: C14_34  and  O5_35 
ROOT
HETATM    1  C5  UNL     1      13.899  -3.694  -4.788  1.00  0.00     0.148 C 
HETATM    2  C6  UNL     1      14.963  -4.549  -4.289  1.00  0.00     0.173 C 
HETATM    3  O4  UNL     1      15.502  -3.953  -3.158  1.00  0.00    -0.354 OA
HETATM    4  C8  UNL     1      14.986  -2.711  -2.986  1.00  0.00     0.261 C 
HETATM    5  C14 UNL     1      14.232  -2.327  -4.232  1.00  0.00     0.192 C 
ENDROOT
BRANCH   1   6
HETATM    6  N2  UNL     1      12.550  -4.061  -4.514  1.00  0.00    -0.349 N 
HETATM    7  C4  UNL     1      11.434  -3.732  -5.296  1.00  0.00     0.251 C 
HETATM    8  O2  UNL     1      11.669  -3.044  -6.338  1.00  0.00    -0.271 OA
ATOM      9  H2  UNL     1      12.381  -4.612  -3.672  1.00  0.00     0.163 HD
BRANCH   7  10
HETATM   10  C3  UNL     1      10.050  -4.130  -4.981  1.00  0.00     0.302 C 
BRANCH  10  11
HETATM   11  C2  UNL     1       9.383  -3.078  -4.105  1.00  0.00     0.153 C 
HETATM   12  C1  UNL     1       8.972  -3.699  -2.807  1.00  0.00     0.042 C 
BRANCH  11  13
HETATM   13  O1  UNL     1      10.252  -2.010  -3.941  1.00  0.00    -0.393 OA
ATOM     14  H1  UNL     1      11.124  -2.190  -4.271  1.00  0.00     0.210 HD
ENDBRANCH  11  13
ENDBRANCH  10  11
BRANCH  10  15
HETATM   15  N1  UNL     1      10.009  -5.369  -4.219  1.00  0.00    -0.064 N 
ATOM     16  H13 UNL     1       9.397  -6.077  -4.625  1.00  0.00     0.275 HD
ATOM     17  H12 UNL     1      10.873  -5.909  -4.272  1.00  0.00     0.275 HD
ATOM     18  H11 UNL     1       9.751  -5.105  -3.269  1.00  0.00     0.275 HD
ENDBRANCH  10  15
ENDBRANCH   7  10
ENDBRANCH   1   6
BRANCH   2  19
HETATM   19  C7  UNL     1      16.107  -4.584  -5.313  1.00  0.00     0.198 C 
BRANCH  19  20
HETATM   20  O3  UNL     1      17.300  -4.511  -4.596  1.00  0.00    -0.398 OA
ATOM     21  H3  UNL     1      17.904  -5.126  -4.995  1.00  0.00     0.209 HD
ENDBRANCH  19  20
ENDBRANCH   2  19
BRANCH   5  22
HETATM   22  O5  UNL     1      13.021  -1.718  -3.904  1.00  0.00    -0.389 OA
ATOM     23  H5  UNL     1      13.163  -1.241  -3.095  1.00  0.00     0.210 HD
ENDBRANCH   5  22
BRANCH   4  24
HETATM   24  N3  UNL     1      16.054  -1.786  -2.660  1.00  0.00    -0.297 N 
HETATM   25  C9  UNL     1      16.986  -1.234  -3.458  1.00  0.00     0.188 A 
HETATM   26  N4  UNL     1      17.789  -0.432  -2.751  1.00  0.00    -0.346 N 
HETATM   27  C10 UNL     1      17.394  -0.445  -1.467  1.00  0.00     0.119 A 
ATOM     28  H4  UNL     1      18.573   0.103  -3.126  1.00  0.00     0.167 HD
HETATM   29  C11 UNL     1      17.877   0.207  -0.331  1.00  0.00     0.148 A 
HETATM   30  C13 UNL     1      16.309  -1.293  -1.415  1.00  0.00     0.142 A 
HETATM   31  N5  UNL     1      18.993   1.063  -0.453  1.00  0.00    -0.080 NA
HETATM   32  N6  UNL     1      17.234  -0.034   0.824  1.00  0.00    -0.339 N 
HETATM   33  C12 UNL     1      16.173  -0.859   0.889  1.00  0.00     0.183 A 
ATOM     34  H6  UNL     1      17.559   0.423   1.676  1.00  0.00     0.167 HD
HETATM   35  N7  UNL     1      15.716  -1.481  -0.213  1.00  0.00    -0.336 N 
ATOM     36  H7  UNL     1      14.912  -2.104  -0.141  1.00  0.00     0.168 HD
ENDBRANCH   4  24
TORSDOF 9
ENDMDL
