MODEL 3
REMARK VINA RESULT: -7.509900823      1.703      2.078
REMARK  9 active torsions:
REMARK  status: ('A' for Active; 'I' for Inactive)
REMARK    1  A    between atoms: C2_2  and  O1_3 
REMARK    2  A    between atoms: C2_2  and  C3_5 
REMARK    3  A    between atoms: C3_5  and  N1_6 
REMARK    4  A    between atoms: C3_5  and  C4_10 
REMARK       I    between atoms: C4_10  and  N2_12 
REMARK    5  A    between atoms: N2_12  and  C5_14 
REMARK    6  A    between atoms: C6_15  and  C7_16 
REMARK    7  A    between atoms: C7_16  and  O3_17 
REMARK    8  A    between atoms: C8_20  and  N3_21 
REMARK    9  A    between atoms: C14_34  and  O5_35 
ROOT
HETATM    1  C5  UNL     1      15.164  -2.852  -3.528  1.00  0.00     0.148 C 
HETATM    2  C6  UNL     1      14.998  -2.309  -4.866  1.00  0.00     0.173 C 
HETATM    3  O4  UNL     1      13.648  -2.063  -5.069  1.00  0.00    -0.354 OA
HETATM    4  C8  UNL     1      12.917  -2.555  -4.038  1.00  0.00     0.261 C 
HETATM    5  C14 UNL     1      13.806  -3.429  -3.192  1.00  0.00     0.192 C 
ENDROOT
BRANCH   1   6
HETATM    6  N2  UNL     1      15.638  -1.986  -2.500  1.00  0.00    -0.349 N 
HETATM    7  C4  UNL     1      16.981  -1.704  -2.217  1.00  0.00     0.251 C 
HETATM    8  O2  UNL     1      17.838  -2.283  -2.956  1.00  0.00    -0.271 OA
ATOM      9  H2  UNL     1      14.935  -1.532  -1.916  1.00  0.00     0.163 HD
BRANCH   7  10
HETATM   10  C3  UNL     1      17.435  -0.801  -1.144  1.00  0.00     0.302 C 
BRANCH  10  11
HETATM   11  C2  UNL     1      16.252  -0.344  -0.301  1.00  0.00     0.153 C 
HETATM   12  C1  UNL     1      16.111  -1.243   0.888  1.00  0.00     0.042 C 
BRANCH  11  13
HETATM   13  O1  UNL     1      16.431   0.985   0.047  1.00  0.00    -0.393 OA
ATOM     14  H1  UNL     1      16.054   1.586  -0.585  1.00  0.00     0.210 HD
ENDBRANCH  11  13
ENDBRANCH  10  11
BRANCH  10  15
HETATM   15  N1  UNL     1      18.035   0.411  -1.682  1.00  0.00    -0.064 N 
ATOM     16  H13 UNL     1      18.985   0.577  -1.350  1.00  0.00     0.275 HD
ATOM     17  H12 UNL     1      18.260   0.348  -2.675  1.00  0.00     0.275 HD
ATOM     18  H11 UNL     1      17.388   1.167  -1.458  1.00  0.00     0.275 HD
ENDBRANCH  10  15
ENDBRANCH   7  10
ENDBRANCH   1   6
BRANCH   2  19
HETATM   19  C7  UNL     1      15.374  -3.383  -5.897  1.00  0.00     0.198 C 
BRANCH  19  20
HETATM   20  O3  UNL     1      16.616  -3.894  -5.522  1.00  0.00    -0.398 OA
ATOM     21  H3  UNL     1      16.630  -4.809  -5.777  1.00  0.00     0.209 HD
ENDBRANCH  19  20
ENDBRANCH   2  19
BRANCH   5  22
HETATM   22  O5  UNL     1      13.587  -3.185  -1.837  1.00  0.00    -0.389 OA
ATOM     23  H5  UNL     1      13.605  -2.242  -1.720  1.00  0.00     0.210 HD
ENDBRANCH   5  22
BRANCH   4  24
HETATM   24  N3  UNL     1      11.760  -3.257  -4.559  1.00  0.00    -0.297 N 
HETATM   25  C9  UNL     1      11.111  -4.327  -4.067  1.00  0.00     0.188 A 
HETATM   26  N4  UNL     1      10.089  -4.659  -4.863  1.00  0.00    -0.346 N 
HETATM   27  C10 UNL     1      10.050  -3.804  -5.900  1.00  0.00     0.119 A 
ATOM     28  H4  UNL     1       9.444  -5.434  -4.709  1.00  0.00     0.167 HD
HETATM   29  C11 UNL     1       9.198  -3.702  -6.999  1.00  0.00     0.148 A 
HETATM   30  C13 UNL     1      11.097  -2.929  -5.704  1.00  0.00     0.142 A 
HETATM   31  N5  UNL     1       8.144  -4.631  -7.140  1.00  0.00    -0.080 NA
HETATM   32  N6  UNL     1       9.446  -2.707  -7.867  1.00  0.00    -0.339 N 
HETATM   33  C12 UNL     1      10.465  -1.845  -7.689  1.00  0.00     0.183 A 
ATOM     34  H6  UNL     1       8.845  -2.601  -8.685  1.00  0.00     0.167 HD
HETATM   35  N7  UNL     1      11.280  -1.954  -6.625  1.00  0.00    -0.336 N 
ATOM     36  H7  UNL     1      12.047  -1.291  -6.510  1.00  0.00     0.168 HD
ENDBRANCH   4  24
TORSDOF 9
ENDMDL
