MODEL 1
REMARK VINA RESULT: -7.824388644      0.000      0.000
REMARK  9 active torsions:
REMARK  status: ('A' for Active; 'I' for Inactive)
REMARK    1  A    between atoms: C2_2  and  O1_3 
REMARK    2  A    between atoms: C2_2  and  C3_5 
REMARK    3  A    between atoms: C3_5  and  N1_6 
REMARK    4  A    between atoms: C3_5  and  C4_10 
REMARK       I    between atoms: C4_10  and  N2_12 
REMARK    5  A    between atoms: N2_12  and  C5_14 
REMARK    6  A    between atoms: C6_15  and  C7_16 
REMARK    7  A    between atoms: C7_16  and  O3_17 
REMARK    8  A    between atoms: C8_20  and  N3_21 
REMARK    9  A    between atoms: C14_34  and  O5_35 
ROOT
HETATM    1  C5  UNL     1      13.789  -2.987  -3.430  1.00  0.00     0.148 C 
HETATM    2  C6  UNL     1      14.311  -3.069  -4.783  1.00  0.00     0.173 C 
HETATM    3  O4  UNL     1      13.395  -2.474  -5.638  1.00  0.00    -0.354 OA
HETATM    4  C8  UNL     1      12.256  -2.165  -4.969  1.00  0.00     0.261 C 
HETATM    5  C14 UNL     1      12.296  -2.830  -3.618  1.00  0.00     0.192 C 
ENDROOT
BRANCH   1   6
HETATM    6  N2  UNL     1      14.317  -1.991  -2.558  1.00  0.00    -0.349 N 
HETATM    7  C4  UNL     1      15.200  -2.215  -1.493  1.00  0.00     0.251 C 
HETATM    8  O2  UNL     1      15.548  -3.423  -1.304  1.00  0.00    -0.271 OA
ATOM      9  H2  UNL     1      14.026  -1.027  -2.724  1.00  0.00     0.163 HD
BRANCH   7  10
HETATM   10  C3  UNL     1      15.728  -1.158  -0.611  1.00  0.00     0.302 C 
BRANCH  10  11
HETATM   11  C2  UNL     1      16.861  -0.411  -1.301  1.00  0.00     0.153 C 
HETATM   12  C1  UNL     1      17.743   0.221  -0.269  1.00  0.00     0.042 C 
BRANCH  11  13
HETATM   13  O1  UNL     1      17.544  -1.288  -2.129  1.00  0.00    -0.393 OA
ATOM     14  H1  UNL     1      16.966  -1.788  -2.693  1.00  0.00     0.210 HD
ENDBRANCH  11  13
ENDBRANCH  10  11
BRANCH  10  15
HETATM   15  N1  UNL     1      16.299  -1.714   0.607  1.00  0.00    -0.064 N 
ATOM     16  H13 UNL     1      16.866  -1.048   1.132  1.00  0.00     0.275 HD
ATOM     17  H12 UNL     1      15.609  -1.891   1.337  1.00  0.00     0.275 HD
ATOM     18  H11 UNL     1      16.812  -2.548   0.321  1.00  0.00     0.275 HD
ENDBRANCH  10  15
ENDBRANCH   7  10
ENDBRANCH   1   6
BRANCH   2  19
HETATM   19  C7  UNL     1      14.370  -4.542  -5.214  1.00  0.00     0.198 C 
BRANCH  19  20
HETATM   20  O3  UNL     1      14.407  -5.308  -4.050  1.00  0.00    -0.398 OA
ATOM     21  H3  UNL     1      14.385  -6.220  -4.315  1.00  0.00     0.209 HD
ENDBRANCH  19  20
ENDBRANCH   2  19
BRANCH   5  22
HETATM   22  O5  UNL     1      11.852  -1.955  -2.628  1.00  0.00    -0.389 OA
ATOM     23  H5  UNL     1      11.760  -2.465  -1.831  1.00  0.00     0.210 HD
ENDBRANCH   5  22
BRANCH   4  24
HETATM   24  N3  UNL     1      11.110  -2.559  -5.764  1.00  0.00    -0.297 N 
HETATM   25  C9  UNL     1      10.095  -3.387  -5.457  1.00  0.00     0.188 A 
HETATM   26  N4  UNL     1       9.240  -3.477  -6.481  1.00  0.00    -0.346 N 
HETATM   27  C10 UNL     1       9.683  -2.702  -7.486  1.00  0.00     0.119 A 
ATOM     28  H4  UNL     1       8.390  -4.041  -6.497  1.00  0.00     0.167 HD
HETATM   29  C11 UNL     1       9.177  -2.438  -8.759  1.00  0.00     0.148 A 
HETATM   30  C13 UNL     1      10.852  -2.130  -7.032  1.00  0.00     0.142 A 
HETATM   31  N5  UNL     1       7.973  -3.057  -9.161  1.00  0.00    -0.080 NA
HETATM   32  N6  UNL     1       9.886  -1.596  -9.529  1.00  0.00    -0.339 N 
HETATM   33  C12 UNL     1      11.029  -1.030  -9.099  1.00  0.00     0.183 A 
ATOM     34  H6  UNL     1       9.549  -1.380 -10.467  1.00  0.00     0.167 HD
HETATM   35  N7  UNL     1      11.507  -1.293  -7.870  1.00  0.00    -0.336 N 
ATOM     36  H7  UNL     1      12.376  -0.854  -7.564  1.00  0.00     0.168 HD
ENDBRANCH   4  24
TORSDOF 9
ENDMDL
