MODEL 9
REMARK VINA RESULT: -6.664918100      3.734      6.556
REMARK  9 active torsions:
REMARK  status: ('A' for Active; 'I' for Inactive)
REMARK    1  A    between atoms: N5_13  and  C6_14 
REMARK    2  A    between atoms: C7_16  and  C8_17 
REMARK    3  A    between atoms: C8_17  and  O2_18 
REMARK    4  A    between atoms: C9_20  and  N6_21 
REMARK       I    between atoms: N6_21  and  C10_23 
REMARK    5  A    between atoms: C10_23  and  C11_25 
REMARK    6  A    between atoms: C11_25  and  N7_26 
REMARK    7  A    between atoms: C11_25  and  C12_30 
REMARK    8  A    between atoms: C12_30  and  O4_31 
REMARK    9  A    between atoms: C13_33  and  O5_34 
ROOT
HETATM    1  C6  UNL     1       9.182  -4.291   6.794  1.00  0.00     0.261 C 
HETATM    2  O1  UNL     1      10.515  -4.710   6.704  1.00  0.00    -0.354 OA
HETATM    3  C7  UNL     1      11.297  -3.648   6.362  1.00  0.00     0.173 C 
HETATM    4  C9  UNL     1      10.498  -2.393   6.647  1.00  0.00     0.148 C 
HETATM    5  C13 UNL     1       9.136  -2.922   6.172  1.00  0.00     0.192 C 
ENDROOT
BRANCH   1   6
HETATM    6  N5  UNL     1       8.823  -4.330   8.181  1.00  0.00    -0.297 N 
HETATM    7  C3  UNL     1       7.643  -4.341   8.793  1.00  0.00     0.142 A 
HETATM    8  N3  UNL     1       6.404  -4.320   8.330  1.00  0.00    -0.336 N 
HETATM    9  C4  UNL     1       7.823  -4.383  10.157  1.00  0.00     0.119 A 
HETATM   10  C2  UNL     1       5.352  -4.338   9.167  1.00  0.00     0.183 A 
ATOM     11  H3  UNL     1       6.245  -4.289   7.323  1.00  0.00     0.168 HD
HETATM   12  N2  UNL     1       5.519  -4.378  10.495  1.00  0.00    -0.339 N 
HETATM   13  C1  UNL     1       6.738  -4.402  11.041  1.00  0.00     0.148 A 
ATOM     14  H2  UNL     1       4.700  -4.391  11.101  1.00  0.00     0.167 HD
HETATM   15  N1  UNL     1       6.969  -4.445  12.439  1.00  0.00    -0.080 NA
HETATM   16  N4  UNL     1       9.144  -4.397  10.359  1.00  0.00    -0.346 N 
HETATM   17  C5  UNL     1       9.747  -4.366   9.175  1.00  0.00     0.188 A 
ATOM     18  H4  UNL     1       9.610  -4.427  11.265  1.00  0.00     0.167 HD
ENDBRANCH   1   6
BRANCH   5  19
HETATM   19  O5  UNL     1       9.267  -3.096   4.794  1.00  0.00    -0.389 OA
ATOM     20  H5  UNL     1       9.642  -2.295   4.448  1.00  0.00     0.210 HD
ENDBRANCH   5  19
BRANCH   3  21
HETATM   21  C8  UNL     1      12.653  -3.625   7.007  1.00  0.00     0.198 C 
BRANCH  21  22
HETATM   22  O2  UNL     1      13.407  -2.646   6.362  1.00  0.00    -0.398 OA
ATOM     23  H2  UNL     1      14.285  -2.679   6.722  1.00  0.00     0.209 HD
ENDBRANCH  21  22
ENDBRANCH   3  21
BRANCH   4  24
HETATM   24  N6  UNL     1      10.953  -1.313   5.802  1.00  0.00    -0.349 N 
HETATM   25  C10 UNL     1      10.501   0.010   5.891  1.00  0.00     0.251 C 
HETATM   26  O3  UNL     1       9.640   0.293   6.762  1.00  0.00    -0.271 OA
ATOM     27  H6  UNL     1      11.653  -1.529   5.092  1.00  0.00     0.163 HD
BRANCH  25  28
HETATM   28  C11 UNL     1      11.053   1.024   4.961  1.00  0.00     0.297 C 
BRANCH  28  29
HETATM   29  N7  UNL     1      11.287   2.297   5.615  1.00  0.00    -0.064 N 
ATOM     30  H73 UNL     1      10.462   2.604   6.133  1.00  0.00     0.275 HD
ATOM     31  H72 UNL     1      11.939   2.199   6.394  1.00  0.00     0.275 HD
ATOM     32  H71 UNL     1      11.599   3.014   4.961  1.00  0.00     0.275 HD
ENDBRANCH  28  29
BRANCH  28  33
HETATM   33  C12 UNL     1      12.337   0.547   4.310  1.00  0.00     0.206 C 
BRANCH  33  34
HETATM   34  O4  UNL     1      13.348   0.318   5.222  1.00  0.00    -0.398 OA
ATOM     35  H4  UNL     1      14.108  -0.100   4.834  1.00  0.00     0.209 HD
ENDBRANCH  33  34
ENDBRANCH  28  33
ENDBRANCH  25  28
ENDBRANCH   4  24
TORSDOF 9
ENDMDL
