MODEL 10
REMARK VINA RESULT: -6.527634343      3.813      6.272
REMARK  9 active torsions:
REMARK  status: ('A' for Active; 'I' for Inactive)
REMARK    1  A    between atoms: N5_13  and  C6_14 
REMARK    2  A    between atoms: C7_16  and  C8_17 
REMARK    3  A    between atoms: C8_17  and  O2_18 
REMARK    4  A    between atoms: C9_20  and  N6_21 
REMARK       I    between atoms: N6_21  and  C10_23 
REMARK    5  A    between atoms: C10_23  and  C11_25 
REMARK    6  A    between atoms: C11_25  and  N7_26 
REMARK    7  A    between atoms: C11_25  and  C12_30 
REMARK    8  A    between atoms: C12_30  and  O4_31 
REMARK    9  A    between atoms: C13_33  and  O5_34 
ROOT
HETATM    1  C6  UNL     1       9.182  -4.256   9.531  1.00  0.00     0.261 C 
HETATM    2  O1  UNL     1       8.410  -3.164   9.117  1.00  0.00    -0.354 OA
HETATM    3  C7  UNL     1       8.696  -2.088   9.902  1.00  0.00     0.173 C 
HETATM    4  C9  UNL     1      10.015  -2.375  10.591  1.00  0.00     0.148 C 
HETATM    5  C13 UNL     1       9.769  -3.867  10.862  1.00  0.00     0.192 C 
ENDROOT
BRANCH   1   6
HETATM    6  N5  UNL     1      10.148  -4.502   8.502  1.00  0.00    -0.297 N 
HETATM    7  C3  UNL     1      10.310  -3.979   7.291  1.00  0.00     0.142 A 
HETATM    8  N3  UNL     1       9.634  -3.055   6.628  1.00  0.00    -0.336 N 
HETATM    9  C4  UNL     1      11.399  -4.551   6.674  1.00  0.00     0.119 A 
HETATM   10  C2  UNL     1      10.001  -2.686   5.388  1.00  0.00     0.183 A 
ATOM     11  H3  UNL     1       8.823  -2.616   7.063  1.00  0.00     0.168 HD
HETATM   12  N2  UNL     1      11.058  -3.239   4.781  1.00  0.00    -0.339 N 
HETATM   13  C1  UNL     1      11.792  -4.178   5.384  1.00  0.00     0.148 A 
ATOM     14  H2  UNL     1      11.309  -2.937   3.840  1.00  0.00     0.167 HD
HETATM   15  N1  UNL     1      12.921  -4.793   4.785  1.00  0.00    -0.080 NA
HETATM   16  N4  UNL     1      11.897  -5.437   7.542  1.00  0.00    -0.346 N 
HETATM   17  C5  UNL     1      11.149  -5.410   8.640  1.00  0.00     0.188 A 
ATOM     18  H4  UNL     1      12.711  -6.031   7.389  1.00  0.00     0.167 HD
ENDBRANCH   1   6
BRANCH   5  19
HETATM   19  O5  UNL     1       8.732  -3.908  11.792  1.00  0.00    -0.389 OA
ATOM     20  H5  UNL     1       8.923  -3.250  12.450  1.00  0.00     0.210 HD
ENDBRANCH   5  19
BRANCH   3  21
HETATM   21  C8  UNL     1       8.695  -0.766   9.190  1.00  0.00     0.198 C 
BRANCH  21  22
HETATM   22  O2  UNL     1       8.051  -0.949   7.968  1.00  0.00    -0.398 OA
ATOM     23  H2  UNL     1       7.422  -1.653   8.080  1.00  0.00     0.209 HD
ENDBRANCH  21  22
ENDBRANCH   3  21
BRANCH   4  24
HETATM   24  N6  UNL     1      10.099  -1.634  11.829  1.00  0.00    -0.349 N 
HETATM   25  C10 UNL     1      11.292  -1.168  12.397  1.00  0.00     0.251 C 
HETATM   26  O3  UNL     1      12.372  -1.402  11.800  1.00  0.00    -0.271 OA
ATOM     27  H6  UNL     1       9.229  -1.438  12.324  1.00  0.00     0.163 HD
BRANCH  25  28
HETATM   28  C11 UNL     1      11.236  -0.419  13.675  1.00  0.00     0.297 C 
BRANCH  28  29
HETATM   29  N7  UNL     1      12.380  -0.698  14.522  1.00  0.00    -0.064 N 
ATOM     30  H73 UNL     1      13.222  -0.855  13.967  1.00  0.00     0.275 HD
ATOM     31  H72 UNL     1      12.676   0.135  15.031  1.00  0.00     0.275 HD
ATOM     32  H71 UNL     1      12.207  -1.476  15.159  1.00  0.00     0.275 HD
ENDBRANCH  28  29
BRANCH  28  33
HETATM   33  C12 UNL     1      11.130   1.075  13.445  1.00  0.00     0.206 C 
BRANCH  33  34
HETATM   34  O4  UNL     1      12.006   1.533  12.481  1.00  0.00    -0.398 OA
ATOM     35  H4  UNL     1      11.570   2.000  11.778  1.00  0.00     0.209 HD
ENDBRANCH  33  34
ENDBRANCH  28  33
ENDBRANCH  25  28
ENDBRANCH   4  24
TORSDOF 9
ENDMDL
