MODEL 12
REMARK VINA RESULT: -6.441580050      3.097      4.598
REMARK  9 active torsions:
REMARK  status: ('A' for Active; 'I' for Inactive)
REMARK    1  A    between atoms: N5_13  and  C6_14 
REMARK    2  A    between atoms: C7_16  and  C8_17 
REMARK    3  A    between atoms: C8_17  and  O2_18 
REMARK    4  A    between atoms: C9_20  and  N6_21 
REMARK       I    between atoms: N6_21  and  C10_23 
REMARK    5  A    between atoms: C10_23  and  C11_25 
REMARK    6  A    between atoms: C11_25  and  N7_26 
REMARK    7  A    between atoms: C11_25  and  C12_30 
REMARK    8  A    between atoms: C12_30  and  O4_31 
REMARK    9  A    between atoms: C13_33  and  O5_34 
ROOT
HETATM    1  C6  UNL     1      11.042  -3.077   7.825  1.00  0.00     0.261 C 
HETATM    2  O1  UNL     1      11.359  -2.865   6.477  1.00  0.00    -0.354 OA
HETATM    3  C7  UNL     1      12.255  -3.808   6.073  1.00  0.00     0.173 C 
HETATM    4  C9  UNL     1      12.205  -4.935   7.083  1.00  0.00     0.148 C 
HETATM    5  C13 UNL     1      12.058  -4.062   8.338  1.00  0.00     0.192 C 
ENDROOT
BRANCH   1   6
HETATM    6  N5  UNL     1       9.687  -3.540   7.870  1.00  0.00    -0.297 N 
HETATM    7  C3  UNL     1       8.711  -3.347   8.751  1.00  0.00     0.142 A 
HETATM    8  N3  UNL     1       8.661  -2.664   9.882  1.00  0.00    -0.336 N 
HETATM    9  C4  UNL     1       7.574  -4.009   8.345  1.00  0.00     0.119 A 
HETATM   10  C2  UNL     1       7.534  -2.618  10.614  1.00  0.00     0.183 A 
ATOM     11  H3  UNL     1       9.489  -2.165  10.205  1.00  0.00     0.168 HD
HETATM   12  N2  UNL     1       6.425  -3.260  10.226  1.00  0.00    -0.339 N 
HETATM   13  C1  UNL     1       6.394  -3.971   9.096  1.00  0.00     0.148 A 
ATOM     14  H2  UNL     1       5.587  -3.206  10.805  1.00  0.00     0.167 HD
HETATM   15  N1  UNL     1       5.246  -4.669   8.640  1.00  0.00    -0.080 NA
HETATM   16  N4  UNL     1       7.885  -4.610   7.192  1.00  0.00    -0.346 N 
HETATM   17  C5  UNL     1       9.152  -4.331   6.904  1.00  0.00     0.188 A 
ATOM     18  H4  UNL     1       7.257  -5.185   6.630  1.00  0.00     0.167 HD
ENDBRANCH   1   6
BRANCH   5  19
HETATM   19  O5  UNL     1      13.267  -3.376   8.455  1.00  0.00    -0.389 OA
ATOM     20  H5  UNL     1      13.090  -2.465   8.249  1.00  0.00     0.210 HD
ENDBRANCH   5  19
BRANCH   3  21
HETATM   21  C8  UNL     1      12.073  -4.292   4.663  1.00  0.00     0.198 C 
BRANCH  21  22
HETATM   22  O2  UNL     1      11.971  -5.681   4.707  1.00  0.00    -0.398 OA
ATOM     23  H2  UNL     1      11.337  -5.942   4.050  1.00  0.00     0.209 HD
ENDBRANCH  21  22
ENDBRANCH   3  21
BRANCH   4  24
HETATM   24  N6  UNL     1      13.463  -5.646   7.096  1.00  0.00    -0.349 N 
HETATM   25  C10 UNL     1      13.967  -6.352   8.196  1.00  0.00     0.251 C 
HETATM   26  O3  UNL     1      13.288  -6.379   9.254  1.00  0.00    -0.271 OA
ATOM     27  H6  UNL     1      14.024  -5.632   6.244  1.00  0.00     0.163 HD
BRANCH  25  28
HETATM   28  C11 UNL     1      15.275  -7.038   8.074  1.00  0.00     0.297 C 
BRANCH  28  29
HETATM   29  N7  UNL     1      15.295  -8.306   8.779  1.00  0.00    -0.064 N 
ATOM     30  H73 UNL     1      16.053  -8.338   9.461  1.00  0.00     0.275 HD
ATOM     31  H72 UNL     1      14.502  -8.388   9.416  1.00  0.00     0.275 HD
ATOM     32  H71 UNL     1      15.338  -9.100   8.141  1.00  0.00     0.275 HD
ENDBRANCH  28  29
BRANCH  28  33
HETATM   33  C12 UNL     1      15.658  -7.261   6.624  1.00  0.00     0.206 C 
BRANCH  33  34
HETATM   34  O4  UNL     1      15.972  -6.089   5.966  1.00  0.00    -0.398 OA
ATOM     35  H4  UNL     1      16.856  -6.088   5.615  1.00  0.00     0.209 HD
ENDBRANCH  33  34
ENDBRANCH  28  33
ENDBRANCH  25  28
ENDBRANCH   4  24
TORSDOF 9
ENDMDL
