MODEL 3
REMARK VINA RESULT: -7.878112047      1.427      2.121
REMARK  9 active torsions:
REMARK  status: ('A' for Active; 'I' for Inactive)
REMARK    1  A    between atoms: N5_13  and  C6_14 
REMARK    2  A    between atoms: C7_16  and  C8_17 
REMARK    3  A    between atoms: C8_17  and  O2_18 
REMARK    4  A    between atoms: C9_20  and  N6_21 
REMARK       I    between atoms: N6_21  and  C10_23 
REMARK    5  A    between atoms: C10_23  and  C11_25 
REMARK    6  A    between atoms: C11_25  and  N7_26 
REMARK    7  A    between atoms: C11_25  and  C12_30 
REMARK    8  A    between atoms: C12_30  and  O4_31 
REMARK    9  A    between atoms: C13_33  and  O5_34 
ROOT
HETATM    1  C6  UNL     1      10.165  -3.417   5.488  1.00  0.00     0.261 C 
HETATM    2  O1  UNL     1       9.383  -4.075   6.445  1.00  0.00    -0.354 OA
HETATM    3  C7  UNL     1      10.197  -4.758   7.296  1.00  0.00     0.173 C 
HETATM    4  C9  UNL     1      11.591  -4.186   7.140  1.00  0.00     0.148 C 
HETATM    5  C13 UNL     1      11.549  -3.994   5.616  1.00  0.00     0.192 C 
ENDROOT
BRANCH   1   6
HETATM    6  N5  UNL     1      10.075  -2.013   5.764  1.00  0.00    -0.297 N 
HETATM    7  C3  UNL     1      10.884  -0.998   5.481  1.00  0.00     0.142 A 
HETATM    8  N3  UNL     1      12.044  -0.940   4.848  1.00  0.00    -0.336 N 
HETATM    9  C4  UNL     1      10.351   0.176   5.964  1.00  0.00     0.119 A 
HETATM   10  C2  UNL     1      12.684   0.231   4.683  1.00  0.00     0.183 A 
ATOM     11  H3  UNL     1      12.459  -1.795   4.480  1.00  0.00     0.168 HD
HETATM   12  N2  UNL     1      12.172   1.377   5.151  1.00  0.00    -0.339 N 
HETATM   13  C1  UNL     1      11.005   1.402   5.800  1.00  0.00     0.148 A 
ATOM     14  H2  UNL     1      12.684   2.248   5.010  1.00  0.00     0.167 HD
HETATM   15  N1  UNL     1      10.421   2.587   6.315  1.00  0.00    -0.080 NA
HETATM   16  N4  UNL     1       9.195  -0.153   6.550  1.00  0.00    -0.346 N 
HETATM   17  C5  UNL     1       9.026  -1.466   6.432  1.00  0.00     0.188 A 
ATOM     18  H4  UNL     1       8.553   0.493   7.008  1.00  0.00     0.167 HD
ENDBRANCH   1   6
BRANCH   5  19
HETATM   19  O5  UNL     1      11.504  -5.281   5.082  1.00  0.00    -0.389 OA
ATOM     20  H5  UNL     1      11.587  -5.194   4.140  1.00  0.00     0.210 HD
ENDBRANCH   5  19
BRANCH   3  21
HETATM   21  C8  UNL     1       9.742  -4.780   8.728  1.00  0.00     0.198 C 
BRANCH  21  22
HETATM   22  O2  UNL     1      10.781  -4.269   9.504  1.00  0.00    -0.398 OA
ATOM     23  H2  UNL     1      10.394  -3.699  10.159  1.00  0.00     0.209 HD
ENDBRANCH  21  22
ENDBRANCH   3  21
BRANCH   4  24
HETATM   24  N6  UNL     1      12.577  -5.176   7.506  1.00  0.00    -0.349 N 
HETATM   25  C10 UNL     1      13.928  -4.897   7.756  1.00  0.00     0.251 C 
HETATM   26  O3  UNL     1      14.324  -3.709   7.659  1.00  0.00    -0.271 OA
ATOM     27  H6  UNL     1      12.269  -6.144   7.589  1.00  0.00     0.163 HD
BRANCH  25  28
HETATM   28  C11 UNL     1      14.836  -6.010   8.124  1.00  0.00     0.297 C 
BRANCH  28  29
HETATM   29  N7  UNL     1      14.116  -7.146   8.668  1.00  0.00    -0.064 N 
ATOM     30  H73 UNL     1      14.757  -7.885   8.959  1.00  0.00     0.275 HD
ATOM     31  H72 UNL     1      13.704  -6.924   9.574  1.00  0.00     0.275 HD
ATOM     32  H71 UNL     1      13.413  -7.501   8.020  1.00  0.00     0.275 HD
ENDBRANCH  28  29
BRANCH  28  33
HETATM   33  C12 UNL     1      15.676  -6.462   6.946  1.00  0.00     0.206 C 
BRANCH  33  34
HETATM   34  O4  UNL     1      16.714  -7.293   7.313  1.00  0.00    -0.398 OA
ATOM     35  H4  UNL     1      17.120  -7.728   6.572  1.00  0.00     0.209 HD
ENDBRANCH  33  34
ENDBRANCH  28  33
ENDBRANCH  25  28
ENDBRANCH   4  24
TORSDOF 9
ENDMDL
