MODEL 5
REMARK VINA RESULT: -7.547297167      1.205      2.002
REMARK  9 active torsions:
REMARK  status: ('A' for Active; 'I' for Inactive)
REMARK    1  A    between atoms: N5_13  and  C6_14 
REMARK    2  A    between atoms: C7_16  and  C8_17 
REMARK    3  A    between atoms: C8_17  and  O2_18 
REMARK    4  A    between atoms: C9_20  and  N6_21 
REMARK       I    between atoms: N6_21  and  C10_23 
REMARK    5  A    between atoms: C10_23  and  C11_25 
REMARK    6  A    between atoms: C11_25  and  N7_26 
REMARK    7  A    between atoms: C11_25  and  C12_30 
REMARK    8  A    between atoms: C12_30  and  O4_31 
REMARK    9  A    between atoms: C13_33  and  O5_34 
ROOT
HETATM    1  C6  UNL     1       9.164  -3.563   7.201  1.00  0.00     0.261 C 
HETATM    2  O1  UNL     1       9.268  -3.843   8.569  1.00  0.00    -0.354 OA
HETATM    3  C7  UNL     1      10.451  -4.473   8.810  1.00  0.00     0.173 C 
HETATM    4  C9  UNL     1      11.344  -4.223   7.612  1.00  0.00     0.148 C 
HETATM    5  C13 UNL     1      10.259  -4.352   6.533  1.00  0.00     0.192 C 
ENDROOT
BRANCH   1   6
HETATM    6  N5  UNL     1       9.278  -2.142   7.053  1.00  0.00    -0.297 N 
HETATM    7  C3  UNL     1      10.105  -1.387   6.339  1.00  0.00     0.142 A 
HETATM    8  N3  UNL     1      11.102  -1.690   5.525  1.00  0.00    -0.336 N 
HETATM    9  C4  UNL     1       9.810  -0.056   6.532  1.00  0.00     0.119 A 
HETATM   10  C2  UNL     1      11.807  -0.726   4.904  1.00  0.00     0.183 A 
ATOM     11  H3  UNL     1      11.341  -2.668   5.365  1.00  0.00     0.168 HD
HETATM   12  N2  UNL     1      11.526   0.570   5.088  1.00  0.00    -0.339 N 
HETATM   13  C1  UNL     1      10.534   0.958   5.894  1.00  0.00     0.148 A 
ATOM     14  H2  UNL     1      12.080   1.275   4.602  1.00  0.00     0.167 HD
HETATM   15  N1  UNL     1      10.196   2.316   6.122  1.00  0.00    -0.080 NA
HETATM   16  N4  UNL     1       8.780  -0.022   7.383  1.00  0.00    -0.346 N 
HETATM   17  C5  UNL     1       8.458  -1.272   7.698  1.00  0.00     0.188 A 
ATOM     18  H4  UNL     1       8.320   0.819   7.731  1.00  0.00     0.167 HD
ENDBRANCH   1   6
BRANCH   5  19
HETATM   19  O5  UNL     1       9.869  -5.691   6.560  1.00  0.00    -0.389 OA
ATOM     20  H5  UNL     1      10.551  -6.187   6.123  1.00  0.00     0.210 HD
ENDBRANCH   5  19
BRANCH   3  21
HETATM   21  C8  UNL     1      11.113  -4.105  10.107  1.00  0.00     0.198 C 
BRANCH  21  22
HETATM   22  O2  UNL     1      12.160  -3.235   9.810  1.00  0.00    -0.398 OA
ATOM     23  H2  UNL     1      12.961  -3.746   9.799  1.00  0.00     0.209 HD
ENDBRANCH  21  22
ENDBRANCH   3  21
BRANCH   4  24
HETATM   24  N6  UNL     1      12.320  -5.282   7.491  1.00  0.00    -0.349 N 
HETATM   25  C10 UNL     1      13.707  -5.093   7.536  1.00  0.00     0.251 C 
HETATM   26  O3  UNL     1      14.150  -3.928   7.694  1.00  0.00    -0.271 OA
ATOM     27  H6  UNL     1      11.974  -6.232   7.363  1.00  0.00     0.163 HD
BRANCH  25  28
HETATM   28  C11 UNL     1      14.598  -6.270   7.398  1.00  0.00     0.297 C 
BRANCH  28  29
HETATM   29  N7  UNL     1      16.001  -5.902   7.444  1.00  0.00    -0.064 N 
ATOM     30  H73 UNL     1      16.393  -5.818   6.505  1.00  0.00     0.275 HD
ATOM     31  H72 UNL     1      16.120  -4.937   7.755  1.00  0.00     0.275 HD
ATOM     32  H71 UNL     1      16.548  -6.544   8.017  1.00  0.00     0.275 HD
ENDBRANCH  28  29
BRANCH  28  33
HETATM   33  C12 UNL     1      14.316  -7.315   8.459  1.00  0.00     0.206 C 
BRANCH  33  34
HETATM   34  O4  UNL     1      14.075  -6.766   9.703  1.00  0.00    -0.398 OA
ATOM     35  H4  UNL     1      13.244  -7.040  10.074  1.00  0.00     0.209 HD
ENDBRANCH  33  34
ENDBRANCH  28  33
ENDBRANCH  25  28
ENDBRANCH   4  24
TORSDOF 9
ENDMDL
