MODEL 3
REMARK VINA RESULT: -7.890354762      1.776      2.629
REMARK  9 active torsions:
REMARK  status: ('A' for Active; 'I' for Inactive)
REMARK    1  A    between atoms: C2_2  and  O1_3 
REMARK    2  A    between atoms: C2_2  and  C3_5 
REMARK    3  A    between atoms: C3_5  and  N1_6 
REMARK    4  A    between atoms: C3_5  and  C4_10 
REMARK       I    between atoms: C4_10  and  N2_12 
REMARK    5  A    between atoms: N2_12  and  C5_14 
REMARK    6  A    between atoms: C6_15  and  C7_16 
REMARK    7  A    between atoms: C7_16  and  O3_17 
REMARK    8  A    between atoms: C8_20  and  N3_21 
REMARK    9  A    between atoms: C14_34  and  O5_35 
ROOT
HETATM    1  C5  UNL     1      -3.443   7.763  43.246  1.00  0.00     0.148 C 
HETATM    2  C6  UNL     1      -2.965   9.121  43.445  1.00  0.00     0.173 C 
HETATM    3  O4  UNL     1      -3.087   9.803  42.244  1.00  0.00    -0.354 OA
HETATM    4  C8  UNL     1      -3.448   8.953  41.251  1.00  0.00     0.261 C 
HETATM    5  C14 UNL     1      -3.312   7.540  41.755  1.00  0.00     0.192 C 
ENDROOT
BRANCH   1   6
HETATM    6  N2  UNL     1      -4.745   7.427  43.717  1.00  0.00    -0.349 N 
HETATM    7  C4  UNL     1      -5.045   6.824  44.946  1.00  0.00     0.251 C 
HETATM    8  O2  UNL     1      -4.051   6.560  45.693  1.00  0.00    -0.271 OA
ATOM      9  H2  UNL     1      -5.531   7.645  43.104  1.00  0.00     0.163 HD
BRANCH   7  10
HETATM   10  C3  UNL     1      -6.407   6.491  45.402  1.00  0.00     0.302 C 
BRANCH  10  11
HETATM   11  C2  UNL     1      -6.352   5.465  46.525  1.00  0.00     0.153 C 
HETATM   12  C1  UNL     1      -7.682   5.405  47.211  1.00  0.00     0.042 C 
BRANCH  11  13
HETATM   13  O1  UNL     1      -5.960   4.242  46.003  1.00  0.00    -0.393 OA
ATOM     14  H1  UNL     1      -5.196   3.883  46.438  1.00  0.00     0.210 HD
ENDBRANCH  11  13
ENDBRANCH  10  11
BRANCH  10  15
HETATM   15  N1  UNL     1      -7.192   5.879  44.339  1.00  0.00    -0.064 N 
ATOM     16  H13 UNL     1      -6.656   5.238  43.754  1.00  0.00     0.275 HD
ATOM     17  H12 UNL     1      -7.873   5.199  44.676  1.00  0.00     0.275 HD
ATOM     18  H11 UNL     1      -7.610   6.651  43.820  1.00  0.00     0.275 HD
ENDBRANCH  10  15
ENDBRANCH   7  10
ENDBRANCH   1   6
BRANCH   2  19
HETATM   19  C7  UNL     1      -1.458   9.088  43.742  1.00  0.00     0.198 C 
BRANCH  19  20
HETATM   20  O3  UNL     1      -1.215  10.043  44.728  1.00  0.00    -0.398 OA
ATOM     21  H3  UNL     1      -0.833   9.587  45.470  1.00  0.00     0.209 HD
ENDBRANCH  19  20
ENDBRANCH   2  19
BRANCH   5  22
HETATM   22  O5  UNL     1      -4.408   6.772  41.364  1.00  0.00    -0.389 OA
ATOM     23  H5  UNL     1      -4.230   6.469  40.481  1.00  0.00     0.210 HD
ENDBRANCH   5  22
BRANCH   4  24
HETATM   24  N3  UNL     1      -2.643   9.217  40.075  1.00  0.00    -0.297 N 
HETATM   25  C9  UNL     1      -1.470   9.866  39.965  1.00  0.00     0.188 A 
HETATM   26  N4  UNL     1      -1.065   9.886  38.690  1.00  0.00    -0.346 N 
HETATM   27  C10 UNL     1      -1.976   9.245  37.936  1.00  0.00     0.119 A 
ATOM     28  H4  UNL     1      -0.208  10.317  38.346  1.00  0.00     0.167 HD
HETATM   29  C11 UNL     1      -2.041   8.981  36.568  1.00  0.00     0.148 A 
HETATM   30  C13 UNL     1      -2.959   8.828  38.807  1.00  0.00     0.142 A 
HETATM   31  N5  UNL     1      -0.999   9.436  35.730  1.00  0.00    -0.080 NA
HETATM   32  N6  UNL     1      -3.114   8.300  36.133  1.00  0.00    -0.339 N 
HETATM   33  C12 UNL     1      -4.082   7.887  36.972  1.00  0.00     0.183 A 
ATOM     34  H6  UNL     1      -3.198   8.090  35.138  1.00  0.00     0.167 HD
HETATM   35  N7  UNL     1      -4.008   8.147  38.290  1.00  0.00    -0.336 N 
ATOM     36  H7  UNL     1      -4.754   7.826  38.908  1.00  0.00     0.168 HD
ENDBRANCH   4  24
TORSDOF 9
ENDMDL
