MODEL 2
REMARK VINA RESULT: -7.955320890      1.324      1.430
REMARK  9 active torsions:
REMARK  status: ('A' for Active; 'I' for Inactive)
REMARK    1  A    between atoms: C2_2  and  O1_3 
REMARK    2  A    between atoms: C2_2  and  C3_5 
REMARK    3  A    between atoms: C3_5  and  N1_6 
REMARK    4  A    between atoms: C3_5  and  C4_10 
REMARK       I    between atoms: C4_10  and  N2_12 
REMARK    5  A    between atoms: N2_12  and  C5_14 
REMARK    6  A    between atoms: C6_15  and  C7_16 
REMARK    7  A    between atoms: C7_16  and  O3_17 
REMARK    8  A    between atoms: C8_20  and  N3_21 
REMARK    9  A    between atoms: C14_34  and  O5_35 
ROOT
HETATM    1  C5  UNL     1      -3.769   7.821  43.682  1.00  0.00     0.148 C 
HETATM    2  C6  UNL     1      -4.799   7.695  42.665  1.00  0.00     0.173 C 
HETATM    3  O4  UNL     1      -4.207   7.216  41.506  1.00  0.00    -0.354 OA
HETATM    4  C8  UNL     1      -2.858   7.180  41.643  1.00  0.00     0.261 C 
HETATM    5  C14 UNL     1      -2.482   7.932  42.894  1.00  0.00     0.192 C 
ENDROOT
BRANCH   1   6
HETATM    6  N2  UNL     1      -3.685   6.817  44.690  1.00  0.00    -0.349 N 
HETATM    7  C4  UNL     1      -4.717   6.435  45.557  1.00  0.00     0.251 C 
HETATM    8  O2  UNL     1      -5.818   7.052  45.417  1.00  0.00    -0.271 OA
ATOM      9  H2  UNL     1      -2.792   6.332  44.788  1.00  0.00     0.163 HD
BRANCH   7  10
HETATM   10  C3  UNL     1      -4.594   5.389  46.589  1.00  0.00     0.302 C 
BRANCH  10  11
HETATM   11  C2  UNL     1      -3.135   5.202  46.982  1.00  0.00     0.153 C 
HETATM   12  C1  UNL     1      -3.049   4.887  48.443  1.00  0.00     0.042 C 
BRANCH  11  13
HETATM   13  O1  UNL     1      -2.574   4.218  46.185  1.00  0.00    -0.393 OA
ATOM     14  H1  UNL     1      -1.774   4.500  45.758  1.00  0.00     0.210 HD
ENDBRANCH  11  13
ENDBRANCH  10  11
BRANCH  10  15
HETATM   15  N1  UNL     1      -5.044   4.095  46.096  1.00  0.00    -0.064 N 
ATOM     16  H13 UNL     1      -4.423   3.687  45.398  1.00  0.00     0.275 HD
ATOM     17  H12 UNL     1      -4.964   3.347  46.785  1.00  0.00     0.275 HD
ATOM     18  H11 UNL     1      -5.996   4.239  45.760  1.00  0.00     0.275 HD
ENDBRANCH  10  15
ENDBRANCH   7  10
ENDBRANCH   1   6
BRANCH   2  19
HETATM   19  C7  UNL     1      -5.325   9.092  42.303  1.00  0.00     0.198 C 
BRANCH  19  20
HETATM   20  O3  UNL     1      -5.718   9.047  40.966  1.00  0.00    -0.398 OA
ATOM     21  H3  UNL     1      -6.505   8.516  40.924  1.00  0.00     0.209 HD
ENDBRANCH  19  20
ENDBRANCH   2  19
BRANCH   5  22
HETATM   22  O5  UNL     1      -1.508   7.237  43.609  1.00  0.00    -0.389 OA
ATOM     23  H5  UNL     1      -1.284   7.773  44.361  1.00  0.00     0.210 HD
ENDBRANCH   5  22
BRANCH   4  24
HETATM   24  N3  UNL     1      -2.238   7.716  40.449  1.00  0.00    -0.297 N 
HETATM   25  C9  UNL     1      -1.001   8.215  40.273  1.00  0.00     0.188 A 
HETATM   26  N4  UNL     1      -0.831   8.606  39.005  1.00  0.00    -0.346 N 
HETATM   27  C10 UNL     1      -1.965   8.369  38.323  1.00  0.00     0.119 A 
ATOM     28  H4  UNL     1       0.019   9.016  38.619  1.00  0.00     0.167 HD
HETATM   29  C11 UNL     1      -2.319   8.584  36.990  1.00  0.00     0.148 A 
HETATM   30  C13 UNL     1      -2.840   7.812  39.230  1.00  0.00     0.142 A 
HETATM   31  N5  UNL     1      -1.373   9.158  36.112  1.00  0.00    -0.080 NA
HETATM   32  N6  UNL     1      -3.562   8.223  36.629  1.00  0.00    -0.339 N 
HETATM   33  C12 UNL     1      -4.427   7.679  37.504  1.00  0.00     0.183 A 
ATOM     34  H6  UNL     1      -3.858   8.367  35.663  1.00  0.00     0.167 HD
HETATM   35  N7  UNL     1      -4.074   7.477  38.786  1.00  0.00    -0.336 N 
ATOM     36  H7  UNL     1      -4.746   7.064  39.433  1.00  0.00     0.168 HD
ENDBRANCH   4  24
TORSDOF 9
ENDMDL
