MODEL 5
REMARK VINA RESULT: -7.632920141      5.553      9.181
REMARK  14 active torsions:
REMARK  status: ('A' for Active; 'I' for Inactive)
REMARK    1  A    between atoms: C2_2  and  C3_3 
REMARK    2  A    between atoms: C3_3  and  C4_4 
REMARK    3  A    between atoms: C4_4  and  C5_5 
REMARK    4  A    between atoms: C5_5  and  C6_6 
REMARK    5  A    between atoms: C6_6  and  C7_7 
REMARK    6  A    between atoms: C7_7  and  C8_8 
REMARK    7  A    between atoms: C8_8  and  C9_9 
REMARK    8  A    between atoms: C9_9  and  C10_10 
REMARK    9  A    between atoms: C10_10  and  C11_11 
REMARK   10  A    between atoms: C11_11  and  C12_12 
REMARK   11  A    between atoms: C12_12  and  C13_13 
REMARK   12  A    between atoms: C13_13  and  C14_14 
REMARK   13  A    between atoms: C14_14  and  C15_15 
REMARK   14  A    between atoms: C15_15  and  C16_16 
ROOT
HETATM    1  C9  UNL     1     -36.584 123.097   3.580  1.00  0.00     0.000 C 
ENDROOT
BRANCH   1   2
HETATM    2  C8  UNL     1     -35.403 122.195   3.692  1.00  0.00     0.000 C 
BRANCH   2   3
HETATM    3  C7  UNL     1     -34.895 121.990   5.080  1.00  0.00     0.000 C 
BRANCH   3   4
HETATM    4  C6  UNL     1     -34.291 123.202   5.710  1.00  0.00     0.000 C 
BRANCH   4   5
HETATM    5  C5  UNL     1     -33.082 122.840   6.581  1.00  0.00     0.000 C 
BRANCH   5   6
HETATM    6  C4  UNL     1     -32.604 121.465   6.177  1.00  0.00     0.000 C 
BRANCH   6   7
HETATM    7  C3  UNL     1     -31.299 121.102   6.843  1.00  0.00    -0.000 C 
BRANCH   7   8
HETATM    8  C2  UNL     1     -30.769 122.233   7.699  1.00  0.00    -0.005 C 
HETATM    9  C1  UNL     1     -29.288 122.441   7.430  1.00  0.00     0.005 C 
ENDBRANCH   7   8
ENDBRANCH   6   7
ENDBRANCH   5   6
ENDBRANCH   4   5
ENDBRANCH   3   4
ENDBRANCH   2   3
ENDBRANCH   1   2
BRANCH   1  10
HETATM   10  C10 UNL     1     -36.321 124.077   2.456  1.00  0.00     0.000 C 
BRANCH  10  11
HETATM   11  C11 UNL     1     -34.844 124.155   2.128  1.00  0.00     0.000 C 
BRANCH  11  12
HETATM   12  C12 UNL     1     -34.258 125.492   2.457  1.00  0.00     0.000 C 
BRANCH  12  13
HETATM   13  C13 UNL     1     -35.163 126.391   3.233  1.00  0.00     0.001 C 
BRANCH  13  14
HETATM   14  C14 UNL     1     -34.459 127.659   3.588  1.00  0.00     0.010 C 
BRANCH  14  15
HETATM   15  C15 UNL     1     -34.229 127.741   5.103  1.00  0.00     0.113 C 
BRANCH  15  16
HETATM   16  C16 UNL     1     -32.877 128.284   5.379  1.00  0.00     0.172 C 
HETATM   17  O1  UNL     1     -32.427 128.197   6.547  1.00  0.00    -0.648 OA
HETATM   18  O2  UNL     1     -32.090 128.880   4.415  1.00  0.00    -0.648 OA
ENDBRANCH  15  16
ENDBRANCH  14  15
ENDBRANCH  13  14
ENDBRANCH  12  13
ENDBRANCH  11  12
ENDBRANCH  10  11
ENDBRANCH   1  10
TORSDOF 14
ENDMDL
