MODEL 1
REMARK VINA RESULT: -6.447442720      0.000      0.000
REMARK  6 active torsions:
REMARK  status: ('A' for Active; 'I' for Inactive)
REMARK    1  A    between atoms: N1_5  and  C4_6 
REMARK    2  A    between atoms: C5_8  and  C6_9 
REMARK    3  A    between atoms: C6_9  and  O3_10 
REMARK    4  A    between atoms: C7_12  and  O4_13 
REMARK    5  A    between atoms: O4_13  and  P1_14 
REMARK    6  A    between atoms: C8_18  and  O8_19 
ROOT
HETATM    1  C4  UNL     1     -18.142  40.800  27.790  1.00  0.00     0.264 C 
HETATM    2  O2  UNL     1     -19.387  41.427  27.726  1.00  0.00    -0.353 OA
HETATM    3  C5  UNL     1     -19.189  42.720  28.202  1.00  0.00     0.180 C 
HETATM    4  C7  UNL     1     -17.913  43.103  27.485  1.00  0.00     0.199 C 
HETATM    5  C8  UNL     1     -17.101  41.834  27.810  1.00  0.00     0.199 C 
ENDROOT
BRANCH   1   6
HETATM    6  N1  UNL     1     -18.086  39.830  26.748  1.00  0.00    -0.280 N 
HETATM    7  C3  UNL     1     -18.892  39.774  25.682  1.00  0.00     0.104 A 
HETATM    8  C2  UNL     1     -18.784  38.804  24.702  1.00  0.00     0.092 A 
HETATM    9  C1  UNL     1     -17.808  37.848  24.818  1.00  0.00     0.250 A 
HETATM   10  O1  UNL     1     -17.661  36.932  23.948  1.00  0.00    -0.268 OA
HETATM   11  N2  UNL     1     -17.001  37.922  25.906  1.00  0.00    -0.275 N 
HETATM   12  C9  UNL     1     -17.135  38.879  26.838  1.00  0.00     0.331 A 
ATOM     13  H2  UNL     1     -16.266  37.224  26.020  1.00  0.00     0.173 HD
HETATM   14  O9  UNL     1     -16.320  38.841  27.808  1.00  0.00    -0.246 OA
ENDBRANCH   1   6
BRANCH   5  15
HETATM   15  O8  UNL     1     -16.658  42.026  29.130  1.00  0.00    -0.388 OA
ATOM     16  H8  UNL     1     -16.210  42.862  29.194  1.00  0.00     0.210 HD
ENDBRANCH   5  15
BRANCH   3  17
HETATM   17  C6  UNL     1     -20.333  43.626  27.928  1.00  0.00     0.198 C 
BRANCH  17  18
HETATM   18  O3  UNL     1     -19.982  44.391  26.792  1.00  0.00    -0.398 OA
ATOM     19  H3  UNL     1     -20.701  44.992  26.635  1.00  0.00     0.209 HD
ENDBRANCH  17  18
ENDBRANCH   3  17
BRANCH   4  20
HETATM   20  O4  UNL     1     -17.353  44.178  28.113  1.00  0.00    -0.272 OA
BRANCH  20  21
HETATM   21  P1  UNL     1     -16.198  44.846  27.150  1.00  0.00     0.422 P 
HETATM   22  O5  UNL     1     -15.138  44.699  28.243  1.00  0.00    -0.617 OA
HETATM   23  O6  UNL     1     -15.397  43.985  26.030  1.00  0.00    -0.617 OA
HETATM   24  O7  UNL     1     -15.959  46.512  27.203  1.00  0.00    -0.617 OA
ENDBRANCH  20  21
ENDBRANCH   4  20
TORSDOF 6
ENDMDL
