MODEL 6
REMARK VINA RESULT: -5.769321399      1.267      1.753
REMARK  6 active torsions:
REMARK  status: ('A' for Active; 'I' for Inactive)
REMARK    1  A    between atoms: N1_5  and  C4_6 
REMARK    2  A    between atoms: C5_8  and  C6_9 
REMARK    3  A    between atoms: C6_9  and  O3_10 
REMARK    4  A    between atoms: C7_12  and  O4_13 
REMARK    5  A    between atoms: O4_13  and  P1_14 
REMARK    6  A    between atoms: C8_18  and  O8_19 
ROOT
HETATM    1  C4  UNL     1     -17.528  41.553  27.613  1.00  0.00     0.264 C 
HETATM    2  O2  UNL     1     -18.833  41.948  27.910  1.00  0.00    -0.353 OA
HETATM    3  C5  UNL     1     -18.792  43.332  28.051  1.00  0.00     0.180 C 
HETATM    4  C7  UNL     1     -17.947  43.723  26.859  1.00  0.00     0.199 C 
HETATM    5  C8  UNL     1     -16.806  42.709  27.069  1.00  0.00     0.199 C 
ENDROOT
BRANCH   1   6
HETATM    6  N1  UNL     1     -17.598  40.382  26.805  1.00  0.00    -0.280 N 
HETATM    7  C3  UNL     1     -18.529  40.117  25.883  1.00  0.00     0.104 A 
HETATM    8  C2  UNL     1     -18.540  38.958  25.130  1.00  0.00     0.092 A 
HETATM    9  C1  UNL     1     -17.553  38.027  25.328  1.00  0.00     0.250 A 
HETATM   10  O1  UNL     1     -17.511  36.942  24.665  1.00  0.00    -0.268 OA
HETATM   11  N2  UNL     1     -16.617  38.314  26.267  1.00  0.00    -0.275 N 
HETATM   12  C9  UNL     1     -16.639  39.451  26.981  1.00  0.00     0.331 A 
ATOM     13  H2  UNL     1     -15.870  37.641  26.438  1.00  0.00     0.173 HD
HETATM   14  O9  UNL     1     -15.709  39.604  27.829  1.00  0.00    -0.246 OA
ENDBRANCH   1   6
BRANCH   5  15
HETATM   15  O8  UNL     1     -16.009  43.280  28.077  1.00  0.00    -0.388 OA
ATOM     16  H8  UNL     1     -15.681  44.121  27.783  1.00  0.00     0.210 HD
ENDBRANCH   5  15
BRANCH   3  17
HETATM   17  C6  UNL     1     -20.138  43.958  28.072  1.00  0.00     0.198 C 
BRANCH  17  18
HETATM   18  O3  UNL     1     -20.436  44.323  26.739  1.00  0.00    -0.398 OA
ATOM     19  H3  UNL     1     -21.377  44.454  26.696  1.00  0.00     0.209 HD
ENDBRANCH  17  18
ENDBRANCH   3  17
BRANCH   4  20
HETATM   20  O4  UNL     1     -17.474  44.990  27.042  1.00  0.00    -0.272 OA
BRANCH  20  21
HETATM   21  P1  UNL     1     -17.129  45.672  25.584  1.00  0.00     0.422 P 
HETATM   22  O5  UNL     1     -18.321  44.974  24.926  1.00  0.00    -0.617 OA
HETATM   23  O6  UNL     1     -17.593  47.180  25.200  1.00  0.00    -0.617 OA
HETATM   24  O7  UNL     1     -16.115  44.849  24.522  1.00  0.00    -0.617 OA
ENDBRANCH  20  21
ENDBRANCH   4  20
TORSDOF 6
ENDMDL
