MODEL 8
REMARK VINA RESULT: -5.698265945      2.892      4.823
REMARK  6 active torsions:
REMARK  status: ('A' for Active; 'I' for Inactive)
REMARK    1  A    between atoms: N1_5  and  C4_6 
REMARK    2  A    between atoms: C5_8  and  C6_9 
REMARK    3  A    between atoms: C6_9  and  O3_10 
REMARK    4  A    between atoms: C7_12  and  O4_13 
REMARK    5  A    between atoms: O4_13  and  P1_14 
REMARK    6  A    between atoms: C8_18  and  O8_19 
ROOT
HETATM    1  C4  UNL     1     -17.405  37.749  25.363  1.00  0.00     0.264 C 
HETATM    2  O2  UNL     1     -16.696  38.144  26.498  1.00  0.00    -0.353 OA
HETATM    3  C5  UNL     1     -16.893  39.518  26.613  1.00  0.00     0.180 C 
HETATM    4  C7  UNL     1     -18.381  39.621  26.358  1.00  0.00     0.199 C 
HETATM    5  C8  UNL     1     -18.437  38.754  25.086  1.00  0.00     0.199 C 
ENDROOT
BRANCH   1   6
HETATM    6  N1  UNL     1     -17.833  36.404  25.561  1.00  0.00    -0.280 N 
HETATM    7  C3  UNL     1     -19.011  36.021  26.064  1.00  0.00     0.104 A 
HETATM    8  C2  UNL     1     -19.367  34.695  26.230  1.00  0.00     0.092 A 
HETATM    9  C1  UNL     1     -18.478  33.717  25.865  1.00  0.00     0.250 A 
HETATM   10  O1  UNL     1     -18.751  32.482  25.995  1.00  0.00    -0.268 OA
HETATM   11  N2  UNL     1     -17.289  34.126  25.357  1.00  0.00    -0.275 N 
HETATM   12  C9  UNL     1     -16.978  35.424  25.209  1.00  0.00     0.331 A 
ATOM     13  H2  UNL     1     -16.607  33.422  25.076  1.00  0.00     0.173 HD
HETATM   14  O9  UNL     1     -15.835  35.679  24.723  1.00  0.00    -0.246 OA
ENDBRANCH   1   6
BRANCH   5  15
HETATM   15  O8  UNL     1     -17.995  39.607  24.058  1.00  0.00    -0.388 OA
ATOM     16  H8  UNL     1     -18.710  39.771  23.455  1.00  0.00     0.210 HD
ENDBRANCH   5  15
BRANCH   3  17
HETATM   17  C6  UNL     1     -16.463  40.062  27.925  1.00  0.00     0.198 C 
BRANCH  17  18
HETATM   18  O3  UNL     1     -16.779  41.441  27.916  1.00  0.00    -0.398 OA
ATOM     19  H3  UNL     1     -15.971  41.906  28.098  1.00  0.00     0.209 HD
ENDBRANCH  17  18
ENDBRANCH   3  17
BRANCH   4  20
HETATM   20  O4  UNL     1     -18.692  40.914  26.046  1.00  0.00    -0.272 OA
BRANCH  20  21
HETATM   21  P1  UNL     1     -20.222  41.255  26.547  1.00  0.00     0.422 P 
HETATM   22  O5  UNL     1     -19.788  41.262  28.014  1.00  0.00    -0.617 OA
HETATM   23  O6  UNL     1     -20.819  42.766  26.547  1.00  0.00    -0.617 OA
HETATM   24  O7  UNL     1     -21.263  39.981  26.905  1.00  0.00    -0.617 OA
ENDBRANCH  20  21
ENDBRANCH   4  20
TORSDOF 6
ENDMDL
