MODEL 5
REMARK VINA RESULT: -5.779321802      3.003      5.601
REMARK  6 active torsions:
REMARK  status: ('A' for Active; 'I' for Inactive)
REMARK    1  A    between atoms: N1_5  and  C4_6 
REMARK    2  A    between atoms: C5_8  and  C6_9 
REMARK    3  A    between atoms: C6_9  and  O3_10 
REMARK    4  A    between atoms: C7_12  and  O4_13 
REMARK    5  A    between atoms: O4_13  and  P1_14 
REMARK    6  A    between atoms: C8_18  and  O8_19 
ROOT
HETATM    1  C4  UNL     1     -20.128  42.705  27.302  1.00  0.00     0.264 C 
HETATM    2  O2  UNL     1     -19.328  41.731  27.899  1.00  0.00    -0.353 OA
HETATM    3  C5  UNL     1     -18.114  41.763  27.219  1.00  0.00     0.180 C 
HETATM    4  C7  UNL     1     -17.865  43.253  27.137  1.00  0.00     0.199 C 
HETATM    5  C8  UNL     1     -19.256  43.670  26.622  1.00  0.00     0.199 C 
ENDROOT
BRANCH   1   6
HETATM    6  N1  UNL     1     -21.019  43.210  28.294  1.00  0.00    -0.280 N 
HETATM    7  C3  UNL     1     -20.720  43.434  29.577  1.00  0.00     0.104 A 
HETATM    8  C2  UNL     1     -21.632  43.926  30.492  1.00  0.00     0.092 A 
HETATM    9  C1  UNL     1     -22.909  44.202  30.074  1.00  0.00     0.250 A 
HETATM   10  O1  UNL     1     -23.791  44.657  30.870  1.00  0.00    -0.268 OA
HETATM   11  N2  UNL     1     -23.193  43.969  28.768  1.00  0.00    -0.275 N 
HETATM   12  C9  UNL     1     -22.279  43.489  27.908  1.00  0.00     0.331 A 
ATOM     13  H2  UNL     1     -24.134  44.164  28.428  1.00  0.00     0.173 HD
HETATM   14  O9  UNL     1     -22.666  43.313  26.714  1.00  0.00    -0.246 OA
ENDBRANCH   1   6
BRANCH   5  15
HETATM   15  O8  UNL     1     -19.224  43.382  25.246  1.00  0.00    -0.388 OA
ATOM     16  H8  UNL     1     -19.982  42.860  25.014  1.00  0.00     0.210 HD
ENDBRANCH   5  15
BRANCH   3  17
HETATM   17  C6  UNL     1     -17.038  41.006  27.908  1.00  0.00     0.198 C 
BRANCH  17  18
HETATM   18  O3  UNL     1     -16.591  41.817  28.976  1.00  0.00    -0.398 OA
ATOM     19  H3  UNL     1     -16.681  42.719  28.690  1.00  0.00     0.209 HD
ENDBRANCH  17  18
ENDBRANCH   3  17
BRANCH   4  20
HETATM   20  O4  UNL     1     -16.928  43.497  26.175  1.00  0.00    -0.272 OA
BRANCH  20  21
HETATM   21  P1  UNL     1     -16.079  44.855  26.555  1.00  0.00     0.422 P 
HETATM   22  O5  UNL     1     -14.794  44.270  25.966  1.00  0.00    -0.617 OA
HETATM   23  O6  UNL     1     -16.098  46.181  25.618  1.00  0.00    -0.617 OA
HETATM   24  O7  UNL     1     -15.306  44.939  28.048  1.00  0.00    -0.617 OA
ENDBRANCH  20  21
ENDBRANCH   4  20
TORSDOF 6
ENDMDL
