MODEL 4
REMARK VINA RESULT: -5.886727965      2.597      4.533
REMARK  6 active torsions:
REMARK  status: ('A' for Active; 'I' for Inactive)
REMARK    1  A    between atoms: N1_5  and  C4_6 
REMARK    2  A    between atoms: C5_8  and  C6_9 
REMARK    3  A    between atoms: C6_9  and  O3_10 
REMARK    4  A    between atoms: C7_12  and  O4_13 
REMARK    5  A    between atoms: O4_13  and  P1_14 
REMARK    6  A    between atoms: C8_18  and  O8_19 
ROOT
HETATM    1  C4  UNL     1     -19.587  40.965  26.712  1.00  0.00     0.264 C 
HETATM    2  O2  UNL     1     -18.617  40.465  27.582  1.00  0.00    -0.353 OA
HETATM    3  C5  UNL     1     -17.405  40.996  27.148  1.00  0.00     0.180 C 
HETATM    4  C7  UNL     1     -17.787  42.439  26.906  1.00  0.00     0.199 C 
HETATM    5  C8  UNL     1     -19.064  42.182  26.082  1.00  0.00     0.199 C 
ENDROOT
BRANCH   1   6
HETATM    6  N1  UNL     1     -20.810  41.073  27.436  1.00  0.00    -0.280 N 
HETATM    7  C3  UNL     1     -21.024  41.843  28.507  1.00  0.00     0.104 A 
HETATM    8  C2  UNL     1     -22.239  41.903  29.165  1.00  0.00     0.092 A 
HETATM    9  C1  UNL     1     -23.282  41.140  28.706  1.00  0.00     0.250 A 
HETATM   10  O1  UNL     1     -24.422  41.154  29.271  1.00  0.00    -0.268 OA
HETATM   11  N2  UNL     1     -23.045  40.366  27.618  1.00  0.00    -0.275 N 
HETATM   12  C9  UNL     1     -21.851  40.333  27.004  1.00  0.00     0.331 A 
ATOM     13  H2  UNL     1     -23.801  39.787  27.253  1.00  0.00     0.173 HD
HETATM   14  O9  UNL     1     -21.755  39.569  25.997  1.00  0.00    -0.246 OA
ENDBRANCH   1   6
BRANCH   5  15
HETATM   15  O8  UNL     1     -18.596  41.877  24.792  1.00  0.00    -0.388 OA
ATOM     16  H8  UNL     1     -17.660  42.032  24.750  1.00  0.00     0.210 HD
ENDBRANCH   5  15
BRANCH   3  17
HETATM   17  C6  UNL     1     -16.304  40.816  28.128  1.00  0.00     0.198 C 
BRANCH  17  18
HETATM   18  O3  UNL     1     -16.490  41.796  29.130  1.00  0.00    -0.398 OA
ATOM     19  H3  UNL     1     -15.718  42.350  29.116  1.00  0.00     0.209 HD
ENDBRANCH  17  18
ENDBRANCH   3  17
BRANCH   4  20
HETATM   20  O4  UNL     1     -16.841  43.025  26.115  1.00  0.00    -0.272 OA
BRANCH  20  21
HETATM   21  P1  UNL     1     -16.426  44.491  26.737  1.00  0.00     0.422 P 
HETATM   22  O5  UNL     1     -15.068  44.455  26.033  1.00  0.00    -0.617 OA
HETATM   23  O6  UNL     1     -16.917  45.888  26.069  1.00  0.00    -0.617 OA
HETATM   24  O7  UNL     1     -15.613  44.549  28.210  1.00  0.00    -0.617 OA
ENDBRANCH  20  21
ENDBRANCH   4  20
TORSDOF 6
ENDMDL
