MODEL 2
REMARK VINA RESULT: -6.290779921      0.887      1.212
REMARK  6 active torsions:
REMARK  status: ('A' for Active; 'I' for Inactive)
REMARK    1  A    between atoms: N1_5  and  C4_6 
REMARK    2  A    between atoms: C5_8  and  C6_9 
REMARK    3  A    between atoms: C6_9  and  O3_10 
REMARK    4  A    between atoms: C7_12  and  O4_13 
REMARK    5  A    between atoms: O4_13  and  P1_14 
REMARK    6  A    between atoms: C8_18  and  O8_19 
ROOT
HETATM    1  C4  UNL     1     -18.051  40.897  27.455  1.00  0.00     0.264 C 
HETATM    2  O2  UNL     1     -19.101  41.725  27.056  1.00  0.00    -0.353 OA
HETATM    3  C5  UNL     1     -18.721  43.019  27.401  1.00  0.00     0.180 C 
HETATM    4  C7  UNL     1     -17.285  43.038  26.925  1.00  0.00     0.199 C 
HETATM    5  C8  UNL     1     -16.835  41.711  27.565  1.00  0.00     0.199 C 
ENDROOT
BRANCH   1   6
HETATM    6  N1  UNL     1     -18.016  39.778  26.574  1.00  0.00    -0.280 N 
HETATM    7  C3  UNL     1     -18.826  39.574  25.531  1.00  0.00     0.104 A 
HETATM    8  C2  UNL     1     -18.739  38.463  24.712  1.00  0.00     0.092 A 
HETATM    9  C1  UNL     1     -17.780  37.518  24.972  1.00  0.00     0.250 A 
HETATM   10  O1  UNL     1     -17.653  36.476  24.254  1.00  0.00    -0.268 OA
HETATM   11  N2  UNL     1     -16.968  37.743  26.035  1.00  0.00    -0.275 N 
HETATM   12  C9  UNL     1     -17.082  38.835  26.809  1.00  0.00     0.331 A 
ATOM     13  H2  UNL     1     -16.245  37.059  26.254  1.00  0.00     0.173 HD
HETATM   14  O9  UNL     1     -16.264  38.932  27.772  1.00  0.00    -0.246 OA
ENDBRANCH   1   6
BRANCH   5  15
HETATM   15  O8  UNL     1     -16.605  42.030  28.915  1.00  0.00    -0.388 OA
ATOM     16  H8  UNL     1     -17.284  42.620  29.220  1.00  0.00     0.210 HD
ENDBRANCH   5  15
BRANCH   3  17
HETATM   17  C6  UNL     1     -19.578  44.064  26.785  1.00  0.00     0.198 C 
BRANCH  17  18
HETATM   18  O3  UNL     1     -19.015  44.356  25.521  1.00  0.00    -0.398 OA
ATOM     19  H3  UNL     1     -19.431  43.774  24.896  1.00  0.00     0.209 HD
ENDBRANCH  17  18
ENDBRANCH   3  17
BRANCH   4  20
HETATM   20  O4  UNL     1     -16.632  44.079  27.520  1.00  0.00    -0.272 OA
BRANCH  20  21
HETATM   21  P1  UNL     1     -15.719  44.873  26.404  1.00  0.00     0.422 P 
HETATM   22  O5  UNL     1     -16.648  46.088  26.443  1.00  0.00    -0.617 OA
HETATM   23  O6  UNL     1     -14.372  45.687  26.806  1.00  0.00    -0.617 OA
HETATM   24  O7  UNL     1     -16.091  44.694  24.772  1.00  0.00    -0.617 OA
ENDBRANCH  20  21
ENDBRANCH   4  20
TORSDOF 6
ENDMDL
