MODEL 6
REMARK VINA RESULT: -4.357670135      2.214      3.670
REMARK  6 active torsions:
REMARK  status: ('A' for Active; 'I' for Inactive)
REMARK       I    between atoms: C2_2  and  N1_4 
REMARK    1  A    between atoms: N1_4  and  C3_6 
REMARK    2  A    between atoms: C4_7  and  O2_8 
REMARK    3  A    between atoms: C5_11  and  C6_12 
REMARK    4  A    between atoms: C6_12  and  O4_13 
REMARK    5  A    between atoms: C7_15  and  O5_16 
REMARK    6  A    between atoms: C8_18  and  O6_19 
ROOT
HETATM    1  C3  UNL     1     -63.014 -42.494  52.060  1.00  0.00     0.170 C 
HETATM    2  C4  UNL     1     -62.524 -41.569  50.943  1.00  0.00     0.282 C 
HETATM    3  O3  UNL     1     -61.943 -40.477  51.561  1.00  0.00    -0.349 OA
HETATM    4  C5  UNL     1     -62.817 -39.706  52.282  1.00  0.00     0.179 C 
HETATM    5  C7  UNL     1     -63.561 -40.499  53.326  1.00  0.00     0.180 C 
HETATM    6  C8  UNL     1     -64.173 -41.767  52.717  1.00  0.00     0.177 C 
ENDROOT
BRANCH   1   7
HETATM    7  N1  UNL     1     -63.387 -43.770  51.520  1.00  0.00    -0.349 N 
HETATM    8  C2  UNL     1     -63.273 -45.006  52.212  1.00  0.00     0.214 C 
HETATM    9  C1  UNL     1     -63.672 -46.310  51.614  1.00  0.00     0.117 C 
HETATM   10  O1  UNL     1     -62.819 -44.990  53.368  1.00  0.00    -0.274 OA
ATOM     11  H1  UNL     1     -63.761 -43.791  50.571  1.00  0.00     0.163 HD
ENDBRANCH   1   7
BRANCH   2  12
HETATM   12  O2  UNL     1     -63.642 -41.135  50.232  1.00  0.00    -0.369 OA
ATOM     13  H2  UNL     1     -63.960 -40.343  50.650  1.00  0.00     0.212 HD
ENDBRANCH   2  12
BRANCH   6  14
HETATM   14  O6  UNL     1     -64.748 -42.479  53.738  1.00  0.00    -0.391 OA
ATOM     15  H6  UNL     1     -64.282 -42.395  54.562  1.00  0.00     0.210 HD
ENDBRANCH   6  14
BRANCH   5  16
HETATM   16  O5  UNL     1     -64.486 -39.734  53.982  1.00  0.00    -0.390 OA
ATOM     17  H5  UNL     1     -65.212 -40.256  54.303  1.00  0.00     0.210 HD
ENDBRANCH   5  16
BRANCH   4  18
HETATM   18  C6  UNL     1     -61.977 -38.673  53.044  1.00  0.00     0.198 C 
BRANCH  18  19
HETATM   19  O4  UNL     1     -61.406 -37.748  52.164  1.00  0.00    -0.398 OA
ATOM     20  H4  UNL     1     -60.506 -37.563  52.405  1.00  0.00     0.209 HD
ENDBRANCH  18  19
ENDBRANCH   4  18
TORSDOF 6
ENDMDL
