MODEL 17
REMARK VINA RESULT: -3.962273991      2.188      4.960
REMARK  6 active torsions:
REMARK  status: ('A' for Active; 'I' for Inactive)
REMARK       I    between atoms: C2_2  and  N1_4 
REMARK    1  A    between atoms: N1_4  and  C3_6 
REMARK    2  A    between atoms: C4_7  and  O2_8 
REMARK    3  A    between atoms: C5_11  and  C6_12 
REMARK    4  A    between atoms: C6_12  and  O4_13 
REMARK    5  A    between atoms: C7_15  and  O5_16 
REMARK    6  A    between atoms: C8_18  and  O6_19 
ROOT
HETATM    1  C3  UNL     1     -63.939 -44.053  51.723  1.00  0.00     0.170 C 
HETATM    2  C4  UNL     1     -64.424 -45.498  51.850  1.00  0.00     0.282 C 
HETATM    3  O3  UNL     1     -65.010 -45.610  53.097  1.00  0.00    -0.349 OA
HETATM    4  C5  UNL     1     -64.141 -45.450  54.145  1.00  0.00     0.179 C 
HETATM    5  C7  UNL     1     -63.402 -44.137  54.086  1.00  0.00     0.180 C 
HETATM    6  C8  UNL     1     -62.784 -43.919  52.699  1.00  0.00     0.177 C 
ENDROOT
BRANCH   1   7
HETATM    7  N1  UNL     1     -63.561 -43.773  50.367  1.00  0.00    -0.349 N 
HETATM    8  C2  UNL     1     -63.649 -42.496  49.749  1.00  0.00     0.214 C 
HETATM    9  C1  UNL     1     -63.246 -42.249  48.337  1.00  0.00     0.117 C 
HETATM   10  O1  UNL     1     -64.084 -41.548  50.424  1.00  0.00    -0.274 OA
ATOM     11  H1  UNL     1     -63.203 -44.547  49.807  1.00  0.00     0.163 HD
ENDBRANCH   1   7
BRANCH   2  12
HETATM   12  O2  UNL     1     -63.303 -46.326  51.810  1.00  0.00    -0.369 OA
ATOM     13  H2  UNL     1     -62.900 -46.307  52.671  1.00  0.00     0.212 HD
ENDBRANCH   2  12
BRANCH   6  14
HETATM   14  O6  UNL     1     -62.214 -42.671  52.693  1.00  0.00    -0.391 OA
ATOM     15  H6  UNL     1     -62.519 -42.123  51.980  1.00  0.00     0.210 HD
ENDBRANCH   6  14
BRANCH   5  16
HETATM   16  O5  UNL     1     -62.482 -44.026  55.093  1.00  0.00    -0.390 OA
ATOM     17  H5  UNL     1     -61.682 -43.608  54.795  1.00  0.00     0.210 HD
ENDBRANCH   5  16
BRANCH   4  18
HETATM   18  C6  UNL     1     -64.987 -45.409  55.424  1.00  0.00     0.198 C 
BRANCH  18  19
HETATM   19  O4  UNL     1     -65.377 -44.100  55.722  1.00  0.00    -0.398 OA
ATOM     20  H4  UNL     1     -65.108 -43.857  56.601  1.00  0.00     0.209 HD
ENDBRANCH  18  19
ENDBRANCH   4  18
TORSDOF 6
ENDMDL
