MODEL 1
REMARK VINA RESULT: -4.554982761      0.000      0.000
REMARK  6 active torsions:
REMARK  status: ('A' for Active; 'I' for Inactive)
REMARK       I    between atoms: C2_2  and  N1_4 
REMARK    1  A    between atoms: N1_4  and  C3_6 
REMARK    2  A    between atoms: C4_7  and  O2_8 
REMARK    3  A    between atoms: C5_11  and  C6_12 
REMARK    4  A    between atoms: C6_12  and  O4_13 
REMARK    5  A    between atoms: C7_15  and  O5_16 
REMARK    6  A    between atoms: C8_18  and  O6_19 
ROOT
HETATM    1  C3  UNL     1     -62.680 -43.832  52.630  1.00  0.00     0.170 C 
HETATM    2  C4  UNL     1     -63.890 -44.389  51.876  1.00  0.00     0.282 C 
HETATM    3  O3  UNL     1     -63.730 -44.028  50.551  1.00  0.00    -0.349 OA
HETATM    4  C5  UNL     1     -63.781 -42.677  50.325  1.00  0.00     0.179 C 
HETATM    5  C7  UNL     1     -62.772 -41.915  51.148  1.00  0.00     0.180 C 
HETATM    6  C8  UNL     1     -62.850 -42.324  52.625  1.00  0.00     0.177 C 
ENDROOT
BRANCH   1   7
HETATM    7  N1  UNL     1     -62.623 -44.384  53.953  1.00  0.00    -0.349 N 
HETATM    8  C2  UNL     1     -61.507 -45.079  54.493  1.00  0.00     0.214 C 
HETATM    9  C1  UNL     1     -61.489 -45.637  55.874  1.00  0.00     0.117 C 
HETATM   10  O1  UNL     1     -60.504 -45.224  53.774  1.00  0.00    -0.274 OA
ATOM     11  H1  UNL     1     -63.443 -44.269  54.550  1.00  0.00     0.163 HD
ENDBRANCH   1   7
BRANCH   2  12
HETATM   12  O2  UNL     1     -65.027 -43.756  52.376  1.00  0.00    -0.369 OA
ATOM     13  H2  UNL     1     -65.783 -44.266  52.106  1.00  0.00     0.212 HD
ENDBRANCH   2  12
BRANCH   6  14
HETATM   14  O6  UNL     1     -61.847 -41.665  53.288  1.00  0.00    -0.391 OA
ATOM     15  H6  UNL     1     -62.158 -40.928  53.800  1.00  0.00     0.210 HD
ENDBRANCH   6  14
BRANCH   5  16
HETATM   16  O5  UNL     1     -62.890 -40.564  50.971  1.00  0.00    -0.390 OA
ATOM     17  H5  UNL     1     -62.204 -40.221  50.409  1.00  0.00     0.210 HD
ENDBRANCH   5  16
BRANCH   4  18
HETATM   18  C6  UNL     1     -63.394 -42.455  48.858  1.00  0.00     0.198 C 
BRANCH  18  19
HETATM   19  O4  UNL     1     -64.170 -41.440  48.286  1.00  0.00    -0.398 OA
ATOM     20  H4  UNL     1     -63.674 -40.633  48.217  1.00  0.00     0.209 HD
ENDBRANCH  18  19
ENDBRANCH   4  18
TORSDOF 6
ENDMDL
