MODEL 3
REMARK VINA RESULT: -4.485817685      2.357      4.457
REMARK  6 active torsions:
REMARK  status: ('A' for Active; 'I' for Inactive)
REMARK       I    between atoms: C2_2  and  N1_4 
REMARK    1  A    between atoms: N1_4  and  C3_6 
REMARK    2  A    between atoms: C4_7  and  O2_8 
REMARK    3  A    between atoms: C5_11  and  C6_12 
REMARK    4  A    between atoms: C6_12  and  O4_13 
REMARK    5  A    between atoms: C7_15  and  O5_16 
REMARK    6  A    between atoms: C8_18  and  O6_19 
ROOT
HETATM    1  C3  UNL     1     -62.653 -41.927  52.935  1.00  0.00     0.170 C 
HETATM    2  C4  UNL     1     -61.831 -41.675  54.200  1.00  0.00     0.282 C 
HETATM    3  O3  UNL     1     -62.149 -40.401  54.631  1.00  0.00    -0.349 OA
HETATM    4  C5  UNL     1     -61.767 -39.403  53.773  1.00  0.00     0.179 C 
HETATM    5  C7  UNL     1     -62.329 -39.587  52.386  1.00  0.00     0.180 C 
HETATM    6  C8  UNL     1     -62.069 -41.010  51.875  1.00  0.00     0.177 C 
ENDROOT
BRANCH   1   7
HETATM    7  N1  UNL     1     -62.592 -43.313  52.570  1.00  0.00    -0.349 N 
HETATM    8  C2  UNL     1     -63.625 -44.020  51.896  1.00  0.00     0.214 C 
HETATM    9  C1  UNL     1     -63.520 -45.461  51.536  1.00  0.00     0.117 C 
HETATM   10  O1  UNL     1     -64.659 -43.400  51.597  1.00  0.00    -0.274 OA
ATOM     11  H1  UNL     1     -61.746 -43.829  52.812  1.00  0.00     0.163 HD
ENDBRANCH   1   7
BRANCH   2  12
HETATM   12  O2  UNL     1     -60.484 -41.699  53.841  1.00  0.00    -0.369 OA
ATOM     13  H2  UNL     1     -59.987 -41.974  54.603  1.00  0.00     0.212 HD
ENDBRANCH   2  12
BRANCH   6  14
HETATM   14  O6  UNL     1     -62.688 -41.130  50.657  1.00  0.00    -0.391 OA
ATOM     15  H6  UNL     1     -62.680 -40.325  50.152  1.00  0.00     0.210 HD
ENDBRANCH   6  14
BRANCH   5  16
HETATM   16  O5  UNL     1     -61.874 -38.629  51.522  1.00  0.00    -0.390 OA
ATOM     17  H5  UNL     1     -61.227 -38.977  50.919  1.00  0.00     0.210 HD
ENDBRANCH   5  16
BRANCH   4  18
HETATM   18  C6  UNL     1     -62.367 -38.098  54.310  1.00  0.00     0.198 C 
BRANCH  18  19
HETATM   19  O4  UNL     1     -61.782 -36.988  53.689  1.00  0.00    -0.398 OA
ATOM     20  H4  UNL     1     -62.336 -36.660  52.990  1.00  0.00     0.209 HD
ENDBRANCH  18  19
ENDBRANCH   4  18
TORSDOF 6
ENDMDL
