MODEL 10
REMARK VINA RESULT: -5.974226491      1.137      1.379
REMARK  5 active torsions:
REMARK  status: ('A' for Active; 'I' for Inactive)
REMARK    1  A    between atoms: C2_2  and  C3_3 
REMARK    2  A    between atoms: C3_3  and  O1_4 
REMARK    3  A    between atoms: O1_4  and  C4_5 
REMARK    4  A    between atoms: C7_8  and  S1_9 
REMARK    5  A    between atoms: S1_9  and  N1_10 
ROOT
HETATM    1  C4  UNL     1      -4.320   5.110  14.599  1.00  0.00     0.068 A 
HETATM    2  C5  UNL     1      -3.407   4.103  14.843  1.00  0.00     0.038 A 
HETATM    3  C6  UNL     1      -3.802   2.904  15.414  1.00  0.00     0.028 A 
HETATM    4  C7  UNL     1      -5.123   2.682  15.755  1.00  0.00     0.079 A 
HETATM    5  C8  UNL     1      -6.031   3.667  15.517  1.00  0.00     0.028 A 
HETATM    6  C9  UNL     1      -5.633   4.868  14.946  1.00  0.00     0.038 A 
ENDROOT
BRANCH   4   7
HETATM    7  S1  UNL     1      -5.535   1.143  16.469  1.00  0.00     0.256 S 
HETATM    8  O2  UNL     1      -6.990   0.885  16.229  1.00  0.00    -0.201 OA
HETATM    9  O3  UNL     1      -5.307   1.200  17.942  1.00  0.00    -0.201 OA
BRANCH   7  10
HETATM   10  N1  UNL     1      -4.583  -0.067  15.710  1.00  0.00    -0.324 N 
ATOM     11  H12 UNL     1      -4.647  -0.336  14.728  1.00  0.00     0.169 HD
ATOM     12  H11 UNL     1      -3.954  -0.460  16.410  1.00  0.00     0.169 HD
ENDBRANCH   7  10
ENDBRANCH   4   7
BRANCH   1  13
HETATM   13  O1  UNL     1      -3.964   6.321  14.030  1.00  0.00    -0.351 OA
BRANCH  13  14
HETATM   14  C3  UNL     1      -2.668   6.813  14.226  1.00  0.00     0.175 C 
BRANCH  14  15
HETATM   15  C2  UNL     1      -2.558   7.822  15.316  1.00  0.00     0.022 C 
HETATM   16  C1  UNL     1      -1.436   8.791  14.917  1.00  0.00     0.007 C 
ENDBRANCH  14  15
ENDBRANCH  13  14
ENDBRANCH   1  13
TORSDOF 5
ENDMDL
