MODEL 2
REMARK VINA RESULT: -6.303304713      0.244      1.283
REMARK  5 active torsions:
REMARK  status: ('A' for Active; 'I' for Inactive)
REMARK    1  A    between atoms: C2_2  and  C3_3 
REMARK    2  A    between atoms: C3_3  and  O1_4 
REMARK    3  A    between atoms: O1_4  and  C4_5 
REMARK    4  A    between atoms: C7_8  and  S1_9 
REMARK    5  A    between atoms: S1_9  and  N1_10 
ROOT
HETATM    1  C4  UNL     1      -4.326   4.789  14.719  1.00  0.00     0.068 A 
HETATM    2  C5  UNL     1      -5.660   4.634  15.044  1.00  0.00     0.038 A 
HETATM    3  C6  UNL     1      -6.117   3.480  15.658  1.00  0.00     0.028 A 
HETATM    4  C7  UNL     1      -5.248   2.448  15.963  1.00  0.00     0.079 A 
HETATM    5  C8  UNL     1      -3.932   2.590  15.648  1.00  0.00     0.028 A 
HETATM    6  C9  UNL     1      -3.477   3.748  15.032  1.00  0.00     0.038 A 
ENDROOT
BRANCH   4   7
HETATM    7  S1  UNL     1      -5.907   1.028  16.737  1.00  0.00     0.256 S 
HETATM    8  O2  UNL     1      -5.359   0.952  18.128  1.00  0.00    -0.201 OA
HETATM    9  O3  UNL     1      -5.473  -0.190  15.995  1.00  0.00    -0.201 OA
BRANCH   7  10
HETATM   10  N1  UNL     1      -7.616   1.190  16.780  1.00  0.00    -0.324 N 
ATOM     11  H12 UNL     1      -8.226   1.201  15.962  1.00  0.00     0.169 HD
ATOM     12  H11 UNL     1      -7.901   1.271  17.755  1.00  0.00     0.169 HD
ENDBRANCH   7  10
ENDBRANCH   4   7
BRANCH   1  13
HETATM   13  O1  UNL     1      -3.832   5.927  14.106  1.00  0.00    -0.351 OA
BRANCH  13  14
HETATM   14  C3  UNL     1      -2.448   6.134  14.065  1.00  0.00     0.175 C 
BRANCH  14  15
HETATM   15  C2  UNL     1      -2.049   7.552  13.838  1.00  0.00     0.022 C 
HETATM   16  C1  UNL     1      -2.222   8.285  15.175  1.00  0.00     0.007 C 
ENDBRANCH  14  15
ENDBRANCH  13  14
ENDBRANCH   1  13
TORSDOF 5
ENDMDL
