MODEL 1
REMARK VINA RESULT: -6.326494202      0.000      0.000
REMARK  5 active torsions:
REMARK  status: ('A' for Active; 'I' for Inactive)
REMARK    1  A    between atoms: C2_2  and  C3_3 
REMARK    2  A    between atoms: C3_3  and  O1_4 
REMARK    3  A    between atoms: O1_4  and  C4_5 
REMARK    4  A    between atoms: C7_8  and  S1_9 
REMARK    5  A    between atoms: S1_9  and  N1_10 
ROOT
HETATM    1  C4  UNL     1      -4.273   4.925  14.646  1.00  0.00     0.068 A 
HETATM    2  C5  UNL     1      -3.466   3.849  14.962  1.00  0.00     0.038 A 
HETATM    3  C6  UNL     1      -3.983   2.729  15.591  1.00  0.00     0.028 A 
HETATM    4  C7  UNL     1      -5.324   2.656  15.921  1.00  0.00     0.079 A 
HETATM    5  C8  UNL     1      -6.128   3.709  15.613  1.00  0.00     0.028 A 
HETATM    6  C9  UNL     1      -5.607   4.832  14.983  1.00  0.00     0.038 A 
ENDROOT
BRANCH   4   7
HETATM    7  S1  UNL     1      -5.893   1.207  16.712  1.00  0.00     0.256 S 
HETATM    8  O2  UNL     1      -5.364   1.195  18.112  1.00  0.00    -0.201 OA
HETATM    9  O3  UNL     1      -5.362   0.009  16.000  1.00  0.00    -0.201 OA
BRANCH   7  10
HETATM   10  N1  UNL     1      -7.610   1.248  16.725  1.00  0.00    -0.324 N 
ATOM     11  H12 UNL     1      -8.181   2.041  16.435  1.00  0.00     0.169 HD
ATOM     12  H11 UNL     1      -7.945   0.349  17.070  1.00  0.00     0.169 HD
ENDBRANCH   7  10
ENDBRANCH   4   7
BRANCH   1  13
HETATM   13  O1  UNL     1      -3.794   6.062  14.017  1.00  0.00    -0.351 OA
BRANCH  13  14
HETATM   14  C3  UNL     1      -2.459   6.436  14.210  1.00  0.00     0.175 C 
BRANCH  14  15
HETATM   15  C2  UNL     1      -2.188   7.879  13.954  1.00  0.00     0.022 C 
HETATM   16  C1  UNL     1      -1.899   8.529  15.314  1.00  0.00     0.007 C 
ENDBRANCH  14  15
ENDBRANCH  13  14
ENDBRANCH   1  13
TORSDOF 5
ENDMDL
