MODEL 7
REMARK VINA RESULT: -6.069388671      1.029      1.632
REMARK  5 active torsions:
REMARK  status: ('A' for Active; 'I' for Inactive)
REMARK    1  A    between atoms: C2_2  and  C3_3 
REMARK    2  A    between atoms: C3_3  and  O1_4 
REMARK    3  A    between atoms: O1_4  and  C4_5 
REMARK    4  A    between atoms: C7_8  and  S1_9 
REMARK    5  A    between atoms: S1_9  and  N1_10 
ROOT
HETATM    1  C4  UNL     1      -4.630   4.881  14.379  1.00  0.00     0.068 A 
HETATM    2  C5  UNL     1      -5.927   4.757  14.839  1.00  0.00     0.038 A 
HETATM    3  C6  UNL     1      -6.300   3.695  15.644  1.00  0.00     0.028 A 
HETATM    4  C7  UNL     1      -5.384   2.726  16.011  1.00  0.00     0.079 A 
HETATM    5  C8  UNL     1      -4.104   2.838  15.565  1.00  0.00     0.028 A 
HETATM    6  C9  UNL     1      -3.732   3.905  14.757  1.00  0.00     0.038 A 
ENDROOT
BRANCH   4   7
HETATM    7  S1  UNL     1      -5.939   1.420  17.030  1.00  0.00     0.256 S 
HETATM    8  O2  UNL     1      -4.854   0.393  17.113  1.00  0.00    -0.201 OA
HETATM    9  O3  UNL     1      -7.140   0.785  16.415  1.00  0.00    -0.201 OA
BRANCH   7  10
HETATM   10  N1  UNL     1      -6.269   2.064  18.587  1.00  0.00    -0.324 N 
ATOM     11  H12 UNL     1      -5.793   2.863  19.006  1.00  0.00     0.169 HD
ATOM     12  H11 UNL     1      -7.015   1.509  19.007  1.00  0.00     0.169 HD
ENDBRANCH   7  10
ENDBRANCH   4   7
BRANCH   1  13
HETATM   13  O1  UNL     1      -4.218   5.928  13.573  1.00  0.00    -0.351 OA
BRANCH  13  14
HETATM   14  C3  UNL     1      -2.850   6.107  13.333  1.00  0.00     0.175 C 
BRANCH  14  15
HETATM   15  C2  UNL     1      -2.406   7.530  13.364  1.00  0.00     0.022 C 
HETATM   16  C1  UNL     1      -2.217   7.908  14.840  1.00  0.00     0.007 C 
ENDBRANCH  14  15
ENDBRANCH  13  14
ENDBRANCH   1  13
TORSDOF 5
ENDMDL
