MODEL 5
REMARK VINA RESULT: -6.234502944      3.949      5.899
REMARK  5 active torsions:
REMARK  status: ('A' for Active; 'I' for Inactive)
REMARK    1  A    between atoms: C2_2  and  C3_3 
REMARK    2  A    between atoms: C3_3  and  O1_4 
REMARK    3  A    between atoms: O1_4  and  C4_5 
REMARK    4  A    between atoms: C7_8  and  S1_9 
REMARK    5  A    between atoms: S1_9  and  N1_10 
ROOT
HETATM    1  C4  UNL     1      -4.285   1.595  15.404  1.00  0.00     0.068 A 
HETATM    2  C5  UNL     1      -4.390   0.479  14.596  1.00  0.00     0.038 A 
HETATM    3  C6  UNL     1      -4.401   0.596  13.216  1.00  0.00     0.028 A 
HETATM    4  C7  UNL     1      -4.308   1.834  12.608  1.00  0.00     0.079 A 
HETATM    5  C8  UNL     1      -4.203   2.939  13.394  1.00  0.00     0.028 A 
HETATM    6  C9  UNL     1      -4.193   2.820  14.777  1.00  0.00     0.038 A 
ENDROOT
BRANCH   4   7
HETATM    7  S1  UNL     1      -4.328   1.890  10.863  1.00  0.00     0.256 S 
HETATM    8  O2  UNL     1      -2.914   1.870  10.373  1.00  0.00    -0.201 OA
HETATM    9  O3  UNL     1      -4.962   3.163  10.413  1.00  0.00    -0.201 OA
BRANCH   7  10
HETATM   10  N1  UNL     1      -5.174   0.507  10.296  1.00  0.00    -0.324 N 
ATOM     11  H12 UNL     1      -5.435  -0.297  10.867  1.00  0.00     0.169 HD
ATOM     12  H11 UNL     1      -5.362   0.637   9.302  1.00  0.00     0.169 HD
ENDBRANCH   7  10
ENDBRANCH   4   7
BRANCH   1  13
HETATM   13  O1  UNL     1      -4.271   1.520  16.786  1.00  0.00    -0.351 OA
BRANCH  13  14
HETATM   14  C3  UNL     1      -5.370   0.964  17.451  1.00  0.00     0.175 C 
BRANCH  14  15
HETATM   15  C2  UNL     1      -6.511   1.905  17.635  1.00  0.00     0.022 C 
HETATM   16  C1  UNL     1      -7.675   1.368  16.791  1.00  0.00     0.007 C 
ENDBRANCH  14  15
ENDBRANCH  13  14
ENDBRANCH   1  13
TORSDOF 5
ENDMDL
