MODEL 3
REMARK VINA RESULT: -6.258417468      3.921      5.909
REMARK  5 active torsions:
REMARK  status: ('A' for Active; 'I' for Inactive)
REMARK    1  A    between atoms: C2_2  and  C3_3 
REMARK    2  A    between atoms: C3_3  and  O1_4 
REMARK    3  A    between atoms: O1_4  and  C4_5 
REMARK    4  A    between atoms: C7_8  and  S1_9 
REMARK    5  A    between atoms: S1_9  and  N1_10 
ROOT
HETATM    1  C4  UNL     1      -4.374   1.331  15.557  1.00  0.00     0.068 A 
HETATM    2  C5  UNL     1      -4.453   0.489  14.464  1.00  0.00     0.038 A 
HETATM    3  C6  UNL     1      -4.269   0.968  13.178  1.00  0.00     0.028 A 
HETATM    4  C7  UNL     1      -4.001   2.306  12.951  1.00  0.00     0.079 A 
HETATM    5  C8  UNL     1      -3.920   3.144  14.020  1.00  0.00     0.028 A 
HETATM    6  C9  UNL     1      -4.105   2.661  15.308  1.00  0.00     0.038 A 
ENDROOT
BRANCH   4   7
HETATM    7  S1  UNL     1      -3.782   2.826  11.299  1.00  0.00     0.256 S 
HETATM    8  O2  UNL     1      -5.076   3.399  10.809  1.00  0.00    -0.201 OA
HETATM    9  O3  UNL     1      -3.438   1.652  10.448  1.00  0.00    -0.201 OA
BRANCH   7  10
HETATM   10  N1  UNL     1      -2.554   4.027  11.278  1.00  0.00    -0.324 N 
ATOM     11  H12 UNL     1      -1.563   3.851  11.115  1.00  0.00     0.169 HD
ATOM     12  H11 UNL     1      -2.993   4.931  11.454  1.00  0.00     0.169 HD
ENDBRANCH   7  10
ENDBRANCH   4   7
BRANCH   1  13
HETATM   13  O1  UNL     1      -4.551   0.890  16.857  1.00  0.00    -0.351 OA
BRANCH  13  14
HETATM   14  C3  UNL     1      -5.808   0.414  17.250  1.00  0.00     0.175 C 
BRANCH  14  15
HETATM   15  C2  UNL     1      -6.860   1.467  17.332  1.00  0.00     0.022 C 
HETATM   16  C1  UNL     1      -6.412   2.464  18.411  1.00  0.00     0.007 C 
ENDBRANCH  14  15
ENDBRANCH  13  14
ENDBRANCH   1  13
TORSDOF 5
ENDMDL
