MODEL 6
REMARK VINA RESULT: -6.111221089      0.999      1.018
REMARK  5 active torsions:
REMARK  status: ('A' for Active; 'I' for Inactive)
REMARK    1  A    between atoms: C2_2  and  C3_3 
REMARK    2  A    between atoms: C3_3  and  O1_4 
REMARK    3  A    between atoms: O1_4  and  C4_5 
REMARK    4  A    between atoms: C7_8  and  S1_9 
REMARK    5  A    between atoms: S1_9  and  N1_10 
ROOT
HETATM    1  C4  UNL     1      -4.448   4.915  14.385  1.00  0.00     0.068 A 
HETATM    2  C5  UNL     1      -3.611   3.889  14.778  1.00  0.00     0.038 A 
HETATM    3  C6  UNL     1      -4.078   2.847  15.562  1.00  0.00     0.028 A 
HETATM    4  C7  UNL     1      -5.397   2.805  15.973  1.00  0.00     0.079 A 
HETATM    5  C8  UNL     1      -6.231   3.809  15.591  1.00  0.00     0.028 A 
HETATM    6  C9  UNL     1      -5.760   4.853  14.806  1.00  0.00     0.038 A 
ENDROOT
BRANCH   4   7
HETATM    7  S1  UNL     1      -5.902   1.455  16.959  1.00  0.00     0.256 S 
HETATM    8  O2  UNL     1      -4.784   0.461  17.008  1.00  0.00    -0.201 OA
HETATM    9  O3  UNL     1      -7.086   0.797  16.334  1.00  0.00    -0.201 OA
BRANCH   7  10
HETATM   10  N1  UNL     1      -6.243   2.045  18.535  1.00  0.00    -0.324 N 
ATOM     11  H12 UNL     1      -5.850   2.893  18.943  1.00  0.00     0.169 HD
ATOM     12  H11 UNL     1      -6.899   1.402  18.978  1.00  0.00     0.169 HD
ENDBRANCH   7  10
ENDBRANCH   4   7
BRANCH   1  13
HETATM   13  O1  UNL     1      -4.020   5.974  13.602  1.00  0.00    -0.351 OA
BRANCH  13  14
HETATM   14  C3  UNL     1      -2.734   6.492  13.800  1.00  0.00     0.175 C 
BRANCH  14  15
HETATM   15  C2  UNL     1      -2.650   7.515  14.881  1.00  0.00     0.022 C 
HETATM   16  C1  UNL     1      -1.590   8.538  14.447  1.00  0.00     0.007 C 
ENDBRANCH  14  15
ENDBRANCH  13  14
ENDBRANCH   1  13
TORSDOF 5
ENDMDL
