MODEL 4
REMARK VINA RESULT: -6.246394655      3.892      5.935
REMARK  5 active torsions:
REMARK  status: ('A' for Active; 'I' for Inactive)
REMARK    1  A    between atoms: C2_2  and  C3_3 
REMARK    2  A    between atoms: C3_3  and  O1_4 
REMARK    3  A    between atoms: O1_4  and  C4_5 
REMARK    4  A    between atoms: C7_8  and  S1_9 
REMARK    5  A    between atoms: S1_9  and  N1_10 
ROOT
HETATM    1  C4  UNL     1      -4.362   1.378  15.579  1.00  0.00     0.068 A 
HETATM    2  C5  UNL     1      -4.065   2.704  15.331  1.00  0.00     0.038 A 
HETATM    3  C6  UNL     1      -3.877   3.164  14.039  1.00  0.00     0.028 A 
HETATM    4  C7  UNL     1      -3.982   2.307  12.958  1.00  0.00     0.079 A 
HETATM    5  C8  UNL     1      -4.275   0.999  13.191  1.00  0.00     0.028 A 
HETATM    6  C9  UNL     1      -4.462   0.540  14.488  1.00  0.00     0.038 A 
ENDROOT
BRANCH   4   7
HETATM    7  S1  UNL     1      -3.731   2.970  11.362  1.00  0.00     0.256 S 
HETATM    8  O2  UNL     1      -5.054   3.415  10.822  1.00  0.00    -0.201 OA
HETATM    9  O3  UNL     1      -3.190   1.911  10.463  1.00  0.00    -0.201 OA
BRANCH   7  10
HETATM   10  N1  UNL     1      -2.666   4.309  11.504  1.00  0.00    -0.324 N 
ATOM     11  H12 UNL     1      -1.848   4.348  12.113  1.00  0.00     0.169 HD
ATOM     12  H11 UNL     1      -2.996   5.043  10.878  1.00  0.00     0.169 HD
ENDBRANCH   7  10
ENDBRANCH   4   7
BRANCH   1  13
HETATM   13  O1  UNL     1      -4.557   0.880  16.856  1.00  0.00    -0.351 OA
BRANCH  13  14
HETATM   14  C3  UNL     1      -5.827   0.417  17.221  1.00  0.00     0.175 C 
BRANCH  14  15
HETATM   15  C2  UNL     1      -6.866   1.482  17.298  1.00  0.00     0.022 C 
HETATM   16  C1  UNL     1      -6.437   2.446  18.414  1.00  0.00     0.007 C 
ENDBRANCH  14  15
ENDBRANCH  13  14
ENDBRANCH   1  13
TORSDOF 5
ENDMDL
