MODEL 1
REMARK VINA RESULT: -6.308231829      0.000      0.000
REMARK  5 active torsions:
REMARK  status: ('A' for Active; 'I' for Inactive)
REMARK    1  A    between atoms: C2_2  and  C3_3 
REMARK    2  A    between atoms: C3_3  and  O1_4 
REMARK    3  A    between atoms: O1_4  and  C4_5 
REMARK    4  A    between atoms: C7_8  and  S1_9 
REMARK    5  A    between atoms: S1_9  and  N1_10 
ROOT
HETATM    1  C4  UNL     1      -4.230   4.840  14.607  1.00  0.00     0.068 A 
HETATM    2  C5  UNL     1      -3.425   3.770  14.948  1.00  0.00     0.038 A 
HETATM    3  C6  UNL     1      -3.948   2.659  15.587  1.00  0.00     0.028 A 
HETATM    4  C7  UNL     1      -5.293   2.589  15.903  1.00  0.00     0.079 A 
HETATM    5  C8  UNL     1      -6.094   3.637  15.571  1.00  0.00     0.028 A 
HETATM    6  C9  UNL     1      -5.567   4.750  14.930  1.00  0.00     0.038 A 
ENDROOT
BRANCH   4   7
HETATM    7  S1  UNL     1      -5.870   1.151  16.709  1.00  0.00     0.256 S 
HETATM    8  O2  UNL     1      -5.361   1.163  18.117  1.00  0.00    -0.201 OA
HETATM    9  O3  UNL     1      -5.325  -0.056  16.024  1.00  0.00    -0.201 OA
BRANCH   7  10
HETATM   10  N1  UNL     1      -7.586   1.187  16.696  1.00  0.00    -0.324 N 
ATOM     11  H12 UNL     1      -8.156   2.031  16.638  1.00  0.00     0.169 HD
ATOM     12  H11 UNL     1      -7.923   0.226  16.756  1.00  0.00     0.169 HD
ENDBRANCH   7  10
ENDBRANCH   4   7
BRANCH   1  13
HETATM   13  O1  UNL     1      -3.745   5.968  13.967  1.00  0.00    -0.351 OA
BRANCH  13  14
HETATM   14  C3  UNL     1      -2.398   6.317  14.128  1.00  0.00     0.175 C 
BRANCH  14  15
HETATM   15  C2  UNL     1      -2.103   7.750  13.844  1.00  0.00     0.022 C 
HETATM   16  C1  UNL     1      -1.923   8.448  15.200  1.00  0.00     0.007 C 
ENDBRANCH  14  15
ENDBRANCH  13  14
ENDBRANCH   1  13
TORSDOF 5
ENDMDL
