MODEL 6
REMARK VINA RESULT: -6.056340626      1.037      1.638
REMARK  5 active torsions:
REMARK  status: ('A' for Active; 'I' for Inactive)
REMARK    1  A    between atoms: C2_2  and  C3_3 
REMARK    2  A    between atoms: C3_3  and  O1_4 
REMARK    3  A    between atoms: O1_4  and  C4_5 
REMARK    4  A    between atoms: C7_8  and  S1_9 
REMARK    5  A    between atoms: S1_9  and  N1_10 
ROOT
HETATM    1  C4  UNL     1      -4.609   4.830  14.365  1.00  0.00     0.068 A 
HETATM    2  C5  UNL     1      -5.913   4.706  14.804  1.00  0.00     0.038 A 
HETATM    3  C6  UNL     1      -6.296   3.651  15.615  1.00  0.00     0.028 A 
HETATM    4  C7  UNL     1      -5.382   2.691  16.009  1.00  0.00     0.079 A 
HETATM    5  C8  UNL     1      -4.095   2.804  15.583  1.00  0.00     0.028 A 
HETATM    6  C9  UNL     1      -3.714   3.862  14.769  1.00  0.00     0.038 A 
ENDROOT
BRANCH   4   7
HETATM    7  S1  UNL     1      -5.948   1.394  17.032  1.00  0.00     0.256 S 
HETATM    8  O2  UNL     1      -4.875   0.354  17.115  1.00  0.00    -0.201 OA
HETATM    9  O3  UNL     1      -7.158   0.771  16.424  1.00  0.00    -0.201 OA
BRANCH   7  10
HETATM   10  N1  UNL     1      -6.266   2.046  18.589  1.00  0.00    -0.324 N 
ATOM     11  H12 UNL     1      -7.145   1.953  19.097  1.00  0.00     0.169 HD
ATOM     12  H11 UNL     1      -5.427   2.533  18.904  1.00  0.00     0.169 HD
ENDBRANCH   7  10
ENDBRANCH   4   7
BRANCH   1  13
HETATM   13  O1  UNL     1      -4.188   5.870  13.554  1.00  0.00    -0.351 OA
BRANCH  13  14
HETATM   14  C3  UNL     1      -2.822   6.013  13.281  1.00  0.00     0.175 C 
BRANCH  14  15
HETATM   15  C2  UNL     1      -2.340   7.423  13.300  1.00  0.00     0.022 C 
HETATM   16  C1  UNL     1      -2.182   7.822  14.774  1.00  0.00     0.007 C 
ENDBRANCH  14  15
ENDBRANCH  13  14
ENDBRANCH   1  13
TORSDOF 5
ENDMDL
