MODEL 4
REMARK VINA RESULT: -6.161317195      3.851      5.921
REMARK  5 active torsions:
REMARK  status: ('A' for Active; 'I' for Inactive)
REMARK    1  A    between atoms: C2_2  and  C3_3 
REMARK    2  A    between atoms: C3_3  and  O1_4 
REMARK    3  A    between atoms: O1_4  and  C4_5 
REMARK    4  A    between atoms: C7_8  and  S1_9 
REMARK    5  A    between atoms: S1_9  and  N1_10 
ROOT
HETATM    1  C4  UNL     1      -4.307   1.382  15.549  1.00  0.00     0.068 A 
HETATM    2  C5  UNL     1      -3.976   2.704  15.324  1.00  0.00     0.038 A 
HETATM    3  C6  UNL     1      -3.785   3.184  14.039  1.00  0.00     0.028 A 
HETATM    4  C7  UNL     1      -3.921   2.351  12.944  1.00  0.00     0.079 A 
HETATM    5  C8  UNL     1      -4.247   1.047  13.154  1.00  0.00     0.028 A 
HETATM    6  C9  UNL     1      -4.438   0.569  14.443  1.00  0.00     0.038 A 
ENDROOT
BRANCH   4   7
HETATM    7  S1  UNL     1      -3.663   3.037  11.359  1.00  0.00     0.256 S 
HETATM    8  O2  UNL     1      -4.987   3.468  10.810  1.00  0.00    -0.201 OA
HETATM    9  O3  UNL     1      -3.096   1.998  10.452  1.00  0.00    -0.201 OA
BRANCH   7  10
HETATM   10  N1  UNL     1      -2.620   4.391  11.529  1.00  0.00    -0.324 N 
ATOM     11  H12 UNL     1      -2.568   4.994  12.350  1.00  0.00     0.169 HD
ATOM     12  H11 UNL     1      -2.074   4.479  10.672  1.00  0.00     0.169 HD
ENDBRANCH   7  10
ENDBRANCH   4   7
BRANCH   1  13
HETATM   13  O1  UNL     1      -4.507   0.865  16.818  1.00  0.00    -0.351 OA
BRANCH  13  14
HETATM   14  C3  UNL     1      -5.780   0.407  17.176  1.00  0.00     0.175 C 
BRANCH  14  15
HETATM   15  C2  UNL     1      -6.815   1.476  17.248  1.00  0.00     0.022 C 
HETATM   16  C1  UNL     1      -6.409   2.416  18.392  1.00  0.00     0.007 C 
ENDBRANCH  14  15
ENDBRANCH  13  14
ENDBRANCH   1  13
TORSDOF 5
ENDMDL
