MODEL 5
REMARK VINA RESULT: -6.128996707      3.920      5.883
REMARK  5 active torsions:
REMARK  status: ('A' for Active; 'I' for Inactive)
REMARK    1  A    between atoms: C2_2  and  C3_3 
REMARK    2  A    between atoms: C3_3  and  O1_4 
REMARK    3  A    between atoms: O1_4  and  C4_5 
REMARK    4  A    between atoms: C7_8  and  S1_9 
REMARK    5  A    between atoms: S1_9  and  N1_10 
ROOT
HETATM    1  C4  UNL     1      -4.220   1.554  15.392  1.00  0.00     0.068 A 
HETATM    2  C5  UNL     1      -4.414   0.450  14.584  1.00  0.00     0.038 A 
HETATM    3  C6  UNL     1      -4.425   0.568  13.204  1.00  0.00     0.028 A 
HETATM    4  C7  UNL     1      -4.242   1.796  12.596  1.00  0.00     0.079 A 
HETATM    5  C8  UNL     1      -4.050   2.890  13.382  1.00  0.00     0.028 A 
HETATM    6  C9  UNL     1      -4.040   2.769  14.765  1.00  0.00     0.038 A 
ENDROOT
BRANCH   4   7
HETATM    7  S1  UNL     1      -4.270   1.856  10.851  1.00  0.00     0.256 S 
HETATM    8  O2  UNL     1      -2.857   1.847  10.356  1.00  0.00    -0.201 OA
HETATM    9  O3  UNL     1      -4.913   3.125  10.405  1.00  0.00    -0.201 OA
BRANCH   7  10
HETATM   10  N1  UNL     1      -5.108   0.468  10.284  1.00  0.00    -0.324 N 
ATOM     11  H12 UNL     1      -6.038   0.180  10.586  1.00  0.00     0.169 HD
ATOM     12  H11 UNL     1      -4.513  -0.003   9.603  1.00  0.00     0.169 HD
ENDBRANCH   7  10
ENDBRANCH   4   7
BRANCH   1  13
HETATM   13  O1  UNL     1      -4.202   1.476  16.774  1.00  0.00    -0.351 OA
BRANCH  13  14
HETATM   14  C3  UNL     1      -5.332   0.991  17.444  1.00  0.00     0.175 C 
BRANCH  14  15
HETATM   15  C2  UNL     1      -6.462   1.960  17.514  1.00  0.00     0.022 C 
HETATM   16  C1  UNL     1      -7.647   1.319  16.778  1.00  0.00     0.007 C 
ENDBRANCH  14  15
ENDBRANCH  13  14
ENDBRANCH   1  13
TORSDOF 5
ENDMDL
