MODEL 2
REMARK VINA RESULT: -6.283081776      0.065      1.261
REMARK  5 active torsions:
REMARK  status: ('A' for Active; 'I' for Inactive)
REMARK    1  A    between atoms: C2_2  and  C3_3 
REMARK    2  A    between atoms: C3_3  and  O1_4 
REMARK    3  A    between atoms: O1_4  and  C4_5 
REMARK    4  A    between atoms: C7_8  and  S1_9 
REMARK    5  A    between atoms: S1_9  and  N1_10 
ROOT
HETATM    1  C4  UNL     1      -4.274   4.837  14.590  1.00  0.00     0.068 A 
HETATM    2  C5  UNL     1      -5.605   4.695  14.930  1.00  0.00     0.038 A 
HETATM    3  C6  UNL     1      -6.059   3.557  15.576  1.00  0.00     0.028 A 
HETATM    4  C7  UNL     1      -5.191   2.530  15.898  1.00  0.00     0.079 A 
HETATM    5  C8  UNL     1      -3.878   2.660  15.568  1.00  0.00     0.028 A 
HETATM    6  C9  UNL     1      -3.425   3.802  14.921  1.00  0.00     0.038 A 
ENDROOT
BRANCH   4   7
HETATM    7  S1  UNL     1      -5.847   1.131  16.712  1.00  0.00     0.256 S 
HETATM    8  O2  UNL     1      -5.362   1.138  18.128  1.00  0.00    -0.201 OA
HETATM    9  O3  UNL     1      -5.347  -0.109  16.052  1.00  0.00    -0.201 OA
BRANCH   7  10
HETATM   10  N1  UNL     1      -7.560   1.245  16.669  1.00  0.00    -0.324 N 
ATOM     11  H12 UNL     1      -8.113   1.478  15.844  1.00  0.00     0.169 HD
ATOM     12  H11 UNL     1      -7.914   1.040  17.603  1.00  0.00     0.169 HD
ENDBRANCH   7  10
ENDBRANCH   4   7
BRANCH   1  13
HETATM   13  O1  UNL     1      -3.782   5.959  13.945  1.00  0.00    -0.351 OA
BRANCH  13  14
HETATM   14  C3  UNL     1      -2.431   6.295  14.095  1.00  0.00     0.175 C 
BRANCH  14  15
HETATM   15  C2  UNL     1      -2.119   7.720  13.792  1.00  0.00     0.022 C 
HETATM   16  C1  UNL     1      -1.960   8.441  15.138  1.00  0.00     0.007 C 
ENDBRANCH  14  15
ENDBRANCH  13  14
ENDBRANCH   1  13
TORSDOF 5
ENDMDL
