MODEL 3
REMARK VINA RESULT: -6.165033919      3.853      5.901
REMARK  5 active torsions:
REMARK  status: ('A' for Active; 'I' for Inactive)
REMARK    1  A    between atoms: C2_2  and  C3_3 
REMARK    2  A    between atoms: C3_3  and  O1_4 
REMARK    3  A    between atoms: O1_4  and  C4_5 
REMARK    4  A    between atoms: C7_8  and  S1_9 
REMARK    5  A    between atoms: S1_9  and  N1_10 
ROOT
HETATM    1  C4  UNL     1      -4.323   1.353  15.537  1.00  0.00     0.068 A 
HETATM    2  C5  UNL     1      -4.443   0.561  14.412  1.00  0.00     0.038 A 
HETATM    3  C6  UNL     1      -4.243   1.084  13.145  1.00  0.00     0.028 A 
HETATM    4  C7  UNL     1      -3.917   2.417  12.972  1.00  0.00     0.079 A 
HETATM    5  C8  UNL     1      -3.795   3.206  14.073  1.00  0.00     0.028 A 
HETATM    6  C9  UNL     1      -3.997   2.679  15.342  1.00  0.00     0.038 A 
ENDROOT
BRANCH   4   7
HETATM    7  S1  UNL     1      -3.681   2.995  11.341  1.00  0.00     0.256 S 
HETATM    8  O2  UNL     1      -4.988   3.521  10.834  1.00  0.00    -0.201 OA
HETATM    9  O3  UNL     1      -3.261   1.863  10.467  1.00  0.00    -0.201 OA
BRANCH   7  10
HETATM   10  N1  UNL     1      -2.511   4.251  11.386  1.00  0.00    -0.324 N 
ATOM     11  H12 UNL     1      -2.048   4.594  12.228  1.00  0.00     0.169 HD
ATOM     12  H11 UNL     1      -2.368   4.583  10.433  1.00  0.00     0.169 HD
ENDBRANCH   7  10
ENDBRANCH   4   7
BRANCH   1  13
HETATM   13  O1  UNL     1      -4.515   0.867  16.819  1.00  0.00    -0.351 OA
BRANCH  13  14
HETATM   14  C3  UNL     1      -5.780   0.392  17.187  1.00  0.00     0.175 C 
BRANCH  14  15
HETATM   15  C2  UNL     1      -6.828   1.448  17.264  1.00  0.00     0.022 C 
HETATM   16  C1  UNL     1      -6.416   2.407  18.390  1.00  0.00     0.007 C 
ENDBRANCH  14  15
ENDBRANCH  13  14
ENDBRANCH   1  13
TORSDOF 5
ENDMDL
