MODEL 7
REMARK VINA RESULT: -6.036293711      1.372      2.207
REMARK  5 active torsions:
REMARK  status: ('A' for Active; 'I' for Inactive)
REMARK    1  A    between atoms: C2_2  and  C3_3 
REMARK    2  A    between atoms: C3_3  and  O1_4 
REMARK    3  A    between atoms: O1_4  and  C4_5 
REMARK    4  A    between atoms: C7_8  and  S1_9 
REMARK    5  A    between atoms: S1_9  and  N1_10 
ROOT
HETATM    1  C4  UNL     1      -4.359   4.770  14.646  1.00  0.00     0.068 A 
HETATM    2  C5  UNL     1      -5.687   4.639  15.003  1.00  0.00     0.038 A 
HETATM    3  C6  UNL     1      -6.144   3.505  15.653  1.00  0.00     0.028 A 
HETATM    4  C7  UNL     1      -5.281   2.469  15.962  1.00  0.00     0.079 A 
HETATM    5  C8  UNL     1      -3.971   2.588  15.616  1.00  0.00     0.028 A 
HETATM    6  C9  UNL     1      -3.516   3.726  14.965  1.00  0.00     0.038 A 
ENDROOT
BRANCH   4   7
HETATM    7  S1  UNL     1      -5.939   1.075  16.782  1.00  0.00     0.256 S 
HETATM    8  O2  UNL     1      -5.420   1.065  18.187  1.00  0.00    -0.201 OA
HETATM    9  O3  UNL     1      -5.475  -0.168  16.103  1.00  0.00    -0.201 OA
BRANCH   7  10
HETATM   10  N1  UNL     1      -7.650   1.216  16.781  1.00  0.00    -0.324 N 
ATOM     11  H12 UNL     1      -8.168   2.095  16.797  1.00  0.00     0.169 HD
ATOM     12  H11 UNL     1      -8.045   0.276  16.762  1.00  0.00     0.169 HD
ENDBRANCH   7  10
ENDBRANCH   4   7
BRANCH   1  13
HETATM   13  O1  UNL     1      -3.865   5.889  13.997  1.00  0.00    -0.351 OA
BRANCH  13  14
HETATM   14  C3  UNL     1      -3.303   5.745  12.722  1.00  0.00     0.175 C 
BRANCH  14  15
HETATM   15  C2  UNL     1      -4.291   5.426  11.653  1.00  0.00     0.022 C 
HETATM   16  C1  UNL     1      -5.190   6.660  11.492  1.00  0.00     0.007 C 
ENDBRANCH  14  15
ENDBRANCH  13  14
ENDBRANCH   1  13
TORSDOF 5
ENDMDL
