MODEL 9
REMARK VINA RESULT: -6.001790380      1.382      1.799
REMARK  5 active torsions:
REMARK  status: ('A' for Active; 'I' for Inactive)
REMARK    1  A    between atoms: C2_2  and  C3_3 
REMARK    2  A    between atoms: C3_3  and  O1_4 
REMARK    3  A    between atoms: O1_4  and  C4_5 
REMARK    4  A    between atoms: C7_8  and  S1_9 
REMARK    5  A    between atoms: S1_9  and  N1_10 
ROOT
HETATM    1  C4  UNL     1      -4.262   4.830  14.595  1.00  0.00     0.068 A 
HETATM    2  C5  UNL     1      -3.449   3.768  14.938  1.00  0.00     0.038 A 
HETATM    3  C6  UNL     1      -3.962   2.654  15.582  1.00  0.00     0.028 A 
HETATM    4  C7  UNL     1      -5.306   2.575  15.900  1.00  0.00     0.079 A 
HETATM    5  C8  UNL     1      -6.116   3.615  15.566  1.00  0.00     0.028 A 
HETATM    6  C9  UNL     1      -5.599   4.731  14.921  1.00  0.00     0.038 A 
ENDROOT
BRANCH   4   7
HETATM    7  S1  UNL     1      -5.870   1.135  16.711  1.00  0.00     0.256 S 
HETATM    8  O2  UNL     1      -5.360   1.156  18.118  1.00  0.00    -0.201 OA
HETATM    9  O3  UNL     1      -5.317  -0.070  16.030  1.00  0.00    -0.201 OA
BRANCH   7  10
HETATM   10  N1  UNL     1      -7.587   1.158  16.700  1.00  0.00    -0.324 N 
ATOM     11  H12 UNL     1      -8.170   1.178  15.863  1.00  0.00     0.169 HD
ATOM     12  H11 UNL     1      -7.909   1.147  17.668  1.00  0.00     0.169 HD
ENDBRANCH   7  10
ENDBRANCH   4   7
BRANCH   1  13
HETATM   13  O1  UNL     1      -3.787   5.960  13.951  1.00  0.00    -0.351 OA
BRANCH  13  14
HETATM   14  C3  UNL     1      -3.238   5.834  12.669  1.00  0.00     0.175 C 
BRANCH  14  15
HETATM   15  C2  UNL     1      -4.230   5.482  11.613  1.00  0.00     0.022 C 
HETATM   16  C1  UNL     1      -5.154   6.696  11.446  1.00  0.00     0.007 C 
ENDBRANCH  14  15
ENDBRANCH  13  14
ENDBRANCH   1  13
TORSDOF 5
ENDMDL
