MODEL 1
REMARK VINA RESULT: -6.168492219      0.000      0.000
REMARK  4 active torsions:
REMARK  status: ('A' for Active; 'I' for Inactive)
REMARK    1  A    between atoms: C2_2  and  O1_3 
REMARK    2  A    between atoms: O1_3  and  C3_4 
REMARK    3  A    between atoms: C6_7  and  S1_8 
REMARK    4  A    between atoms: S1_8  and  N1_9 
ROOT
HETATM    1  C3  UNL     1      -4.780   1.892  15.627  1.00  0.00     0.068 A 
HETATM    2  C4  UNL     1      -4.387   0.814  14.861  1.00  0.00     0.038 A 
HETATM    3  C5  UNL     1      -4.295   0.914  13.483  1.00  0.00     0.028 A 
HETATM    4  C6  UNL     1      -4.591   2.088  12.826  1.00  0.00     0.079 A 
HETATM    5  C7  UNL     1      -4.984   3.162  13.597  1.00  0.00     0.028 A 
HETATM    6  C8  UNL     1      -5.078   3.070  14.970  1.00  0.00     0.038 A 
ENDROOT
BRANCH   4   7
HETATM    7  S1  UNL     1      -4.470   2.201  11.071  1.00  0.00     0.256 S 
HETATM    8  O2  UNL     1      -3.030   2.173  10.668  1.00  0.00    -0.201 OA
HETATM    9  O3  UNL     1      -5.140   3.449  10.598  1.00  0.00    -0.201 OA
BRANCH   7  10
HETATM   10  N1  UNL     1      -5.287   0.790  10.442  1.00  0.00    -0.324 N 
ATOM     11  H12 UNL     1      -6.241   0.499  10.656  1.00  0.00     0.169 HD
ATOM     12  H11 UNL     1      -4.615   0.330   9.826  1.00  0.00     0.169 HD
ENDBRANCH   7  10
ENDBRANCH   4   7
BRANCH   1  13
HETATM   13  O1  UNL     1      -4.859   1.754  16.985  1.00  0.00    -0.352 OA
BRANCH  13  14
HETATM   14  C2  UNL     1      -5.985   1.984  17.771  1.00  0.00     0.171 C 
HETATM   15  C1  UNL     1      -7.169   1.267  17.127  1.00  0.00     0.034 C 
ENDBRANCH  13  14
ENDBRANCH   1  13
TORSDOF 4
ENDMDL
