MODEL 3
REMARK VINA RESULT: -6.086803794      3.610      5.421
REMARK  4 active torsions:
REMARK  status: ('A' for Active; 'I' for Inactive)
REMARK    1  A    between atoms: C2_2  and  O1_3 
REMARK    2  A    between atoms: O1_3  and  C3_4 
REMARK    3  A    between atoms: C6_7  and  S1_8 
REMARK    4  A    between atoms: S1_8  and  N1_9 
ROOT
HETATM    1  C3  UNL     1      -4.314   5.026  14.605  1.00  0.00     0.068 A 
HETATM    2  C4  UNL     1      -3.463   3.992  14.937  1.00  0.00     0.038 A 
HETATM    3  C5  UNL     1      -3.932   2.863  15.586  1.00  0.00     0.028 A 
HETATM    4  C6  UNL     1      -5.260   2.728  15.924  1.00  0.00     0.079 A 
HETATM    5  C7  UNL     1      -6.106   3.765  15.590  1.00  0.00     0.028 A 
HETATM    6  C8  UNL     1      -5.646   4.893  14.943  1.00  0.00     0.038 A 
ENDROOT
BRANCH   4   7
HETATM    7  S1  UNL     1      -5.844   1.285  16.751  1.00  0.00     0.256 S 
HETATM    8  O2  UNL     1      -5.388   1.307  18.175  1.00  0.00    -0.201 OA
HETATM    9  O3  UNL     1      -5.352   0.064  16.044  1.00  0.00    -0.201 OA
BRANCH   7  10
HETATM   10  N1  UNL     1      -7.588   1.369  16.689  1.00  0.00    -0.324 N 
ATOM     11  H12 UNL     1      -8.142   2.101  16.242  1.00  0.00     0.169 HD
ATOM     12  H11 UNL     1      -7.926   0.545  17.186  1.00  0.00     0.169 HD
ENDBRANCH   7  10
ENDBRANCH   4   7
BRANCH   1  13
HETATM   13  O1  UNL     1      -3.813   6.125  13.964  1.00  0.00    -0.352 OA
BRANCH  13  14
HETATM   14  C2  UNL     1      -2.472   6.493  13.886  1.00  0.00     0.171 C 
HETATM   15  C1  UNL     1      -2.267   7.729  14.759  1.00  0.00     0.034 C 
ENDBRANCH  13  14
ENDBRANCH   1  13
TORSDOF 4
ENDMDL
