MODEL 4
REMARK VINA RESULT: -6.039719629      3.622      5.534
REMARK  4 active torsions:
REMARK  status: ('A' for Active; 'I' for Inactive)
REMARK    1  A    between atoms: C2_2  and  O1_3 
REMARK    2  A    between atoms: O1_3  and  C3_4 
REMARK    3  A    between atoms: C6_7  and  S1_8 
REMARK    4  A    between atoms: S1_8  and  N1_9 
ROOT
HETATM    1  C3  UNL     1      -4.306   5.019  14.608  1.00  0.00     0.068 A 
HETATM    2  C4  UNL     1      -5.638   4.888  14.944  1.00  0.00     0.038 A 
HETATM    3  C5  UNL     1      -6.101   3.761  15.600  1.00  0.00     0.028 A 
HETATM    4  C6  UNL     1      -5.254   2.729  15.942  1.00  0.00     0.079 A 
HETATM    5  C7  UNL     1      -3.924   2.865  15.603  1.00  0.00     0.028 A 
HETATM    6  C8  UNL     1      -3.455   3.986  14.949  1.00  0.00     0.038 A 
ENDROOT
BRANCH   4   7
HETATM    7  S1  UNL     1      -5.856   1.298  16.777  1.00  0.00     0.256 S 
HETATM    8  O2  UNL     1      -5.408   1.328  18.203  1.00  0.00    -0.201 OA
HETATM    9  O3  UNL     1      -5.373   0.067  16.083  1.00  0.00    -0.201 OA
BRANCH   7  10
HETATM   10  N1  UNL     1      -7.599   1.399  16.704  1.00  0.00    -0.324 N 
ATOM     11  H12 UNL     1      -8.145   1.937  16.031  1.00  0.00     0.169 HD
ATOM     12  H11 UNL     1      -7.945   0.816  17.467  1.00  0.00     0.169 HD
ENDBRANCH   7  10
ENDBRANCH   4   7
BRANCH   1  13
HETATM   13  O1  UNL     1      -3.888   6.147  13.960  1.00  0.00    -0.352 OA
BRANCH  13  14
HETATM   14  C2  UNL     1      -2.567   6.552  13.783  1.00  0.00     0.171 C 
HETATM   15  C1  UNL     1      -2.291   7.708  14.742  1.00  0.00     0.034 C 
ENDBRANCH  13  14
ENDBRANCH   1  13
TORSDOF 4
ENDMDL
