MODEL 8
REMARK VINA RESULT: -5.917204045      3.636      5.372
REMARK  4 active torsions:
REMARK  status: ('A' for Active; 'I' for Inactive)
REMARK    1  A    between atoms: C2_2  and  O1_3 
REMARK    2  A    between atoms: O1_3  and  C3_4 
REMARK    3  A    between atoms: C6_7  and  S1_8 
REMARK    4  A    between atoms: S1_8  and  N1_9 
ROOT
HETATM    1  C3  UNL     1      -4.337   5.071  14.709  1.00  0.00     0.068 A 
HETATM    2  C4  UNL     1      -3.486   4.019  14.979  1.00  0.00     0.038 A 
HETATM    3  C5  UNL     1      -3.948   2.869  15.595  1.00  0.00     0.028 A 
HETATM    4  C6  UNL     1      -5.269   2.730  15.961  1.00  0.00     0.079 A 
HETATM    5  C7  UNL     1      -6.115   3.785  15.689  1.00  0.00     0.028 A 
HETATM    6  C8  UNL     1      -5.662   4.934  15.075  1.00  0.00     0.038 A 
ENDROOT
BRANCH   4   7
HETATM    7  S1  UNL     1      -5.844   1.260  16.746  1.00  0.00     0.256 S 
HETATM    8  O2  UNL     1      -5.404   1.253  18.176  1.00  0.00    -0.201 OA
HETATM    9  O3  UNL     1      -5.329   0.063  16.017  1.00  0.00    -0.201 OA
BRANCH   7  10
HETATM   10  N1  UNL     1      -7.588   1.325  16.666  1.00  0.00    -0.324 N 
ATOM     11  H12 UNL     1      -8.200   1.887  17.259  1.00  0.00     0.169 HD
ATOM     12  H11 UNL     1      -7.857   0.690  15.913  1.00  0.00     0.169 HD
ENDBRANCH   7  10
ENDBRANCH   4   7
BRANCH   1  13
HETATM   13  O1  UNL     1      -3.844   6.190  14.098  1.00  0.00    -0.352 OA
BRANCH  13  14
HETATM   14  C2  UNL     1      -3.338   6.266  12.803  1.00  0.00     0.171 C 
HETATM   15  C1  UNL     1      -4.512   6.448  11.844  1.00  0.00     0.034 C 
ENDBRANCH  13  14
ENDBRANCH   1  13
TORSDOF 4
ENDMDL
