MODEL 6
REMARK VINA RESULT: -5.950122689      3.810      5.696
REMARK  4 active torsions:
REMARK  status: ('A' for Active; 'I' for Inactive)
REMARK    1  A    between atoms: C2_2  and  O1_3 
REMARK    2  A    between atoms: O1_3  and  C3_4 
REMARK    3  A    between atoms: C6_7  and  S1_8 
REMARK    4  A    between atoms: S1_8  and  N1_9 
ROOT
HETATM    1  C3  UNL     1      -4.639   4.632  14.389  1.00  0.00     0.068 A 
HETATM    2  C4  UNL     1      -5.937   4.671  14.857  1.00  0.00     0.038 A 
HETATM    3  C5  UNL     1      -6.402   3.721  15.748  1.00  0.00     0.028 A 
HETATM    4  C6  UNL     1      -5.592   2.703  16.201  1.00  0.00     0.079 A 
HETATM    5  C7  UNL     1      -4.297   2.668  15.730  1.00  0.00     0.028 A 
HETATM    6  C8  UNL     1      -3.825   3.613  14.841  1.00  0.00     0.038 A 
ENDROOT
BRANCH   4   7
HETATM    7  S1  UNL     1      -6.198   1.497  17.337  1.00  0.00     0.256 S 
HETATM    8  O2  UNL     1      -5.214   0.376  17.446  1.00  0.00    -0.201 OA
HETATM    9  O3  UNL     1      -7.533   1.003  16.885  1.00  0.00    -0.201 OA
BRANCH   7  10
HETATM   10  N1  UNL     1      -6.334   2.314  18.875  1.00  0.00    -0.324 N 
ATOM     11  H12 UNL     1      -6.012   3.259  19.088  1.00  0.00     0.169 HD
ATOM     12  H11 UNL     1      -6.797   1.655  19.502  1.00  0.00     0.169 HD
ENDBRANCH   7  10
ENDBRANCH   4   7
BRANCH   1  13
HETATM   13  O1  UNL     1      -4.217   5.590  13.509  1.00  0.00    -0.352 OA
BRANCH  13  14
HETATM   14  C2  UNL     1      -2.900   5.996  13.305  1.00  0.00     0.171 C 
HETATM   15  C1  UNL     1      -2.578   7.090  14.320  1.00  0.00     0.034 C 
ENDBRANCH  13  14
ENDBRANCH   1  13
TORSDOF 4
ENDMDL
