MODEL 2
REMARK VINA RESULT: -6.161267581      0.044      1.309
REMARK  4 active torsions:
REMARK  status: ('A' for Active; 'I' for Inactive)
REMARK    1  A    between atoms: C2_2  and  O1_3 
REMARK    2  A    between atoms: O1_3  and  C3_4 
REMARK    3  A    between atoms: C6_7  and  S1_8 
REMARK    4  A    between atoms: S1_8  and  N1_9 
ROOT
HETATM    1  C3  UNL     1      -4.789   1.863  15.627  1.00  0.00     0.068 A 
HETATM    2  C4  UNL     1      -5.084   3.039  14.970  1.00  0.00     0.038 A 
HETATM    3  C5  UNL     1      -4.988   3.130  13.592  1.00  0.00     0.028 A 
HETATM    4  C6  UNL     1      -4.595   2.054  12.827  1.00  0.00     0.079 A 
HETATM    5  C7  UNL     1      -4.301   0.880  13.489  1.00  0.00     0.028 A 
HETATM    6  C8  UNL     1      -4.395   0.783  14.862  1.00  0.00     0.038 A 
ENDROOT
BRANCH   4   7
HETATM    7  S1  UNL     1      -4.476   2.182  11.073  1.00  0.00     0.256 S 
HETATM    8  O2  UNL     1      -3.037   2.167  10.668  1.00  0.00    -0.201 OA
HETATM    9  O3  UNL     1      -5.155   3.430  10.610  1.00  0.00    -0.201 OA
BRANCH   7  10
HETATM   10  N1  UNL     1      -5.284   0.771  10.433  1.00  0.00    -0.324 N 
ATOM     11  H12 UNL     1      -6.210   0.747  10.005  1.00  0.00     0.169 HD
ATOM     12  H11 UNL     1      -4.641  -0.008  10.576  1.00  0.00     0.169 HD
ENDBRANCH   7  10
ENDBRANCH   4   7
BRANCH   1  13
HETATM   13  O1  UNL     1      -4.896   1.813  16.989  1.00  0.00    -0.352 OA
BRANCH  13  14
HETATM   14  C2  UNL     1      -6.047   2.059  17.734  1.00  0.00     0.171 C 
HETATM   15  C1  UNL     1      -7.188   1.246  17.129  1.00  0.00     0.034 C 
ENDBRANCH  13  14
ENDBRANCH   1  13
TORSDOF 4
ENDMDL
