MODEL 3
REMARK VINA RESULT: -6.838889418      2.016      5.450
REMARK  6 active torsions:
REMARK  status: ('A' for Active; 'I' for Inactive)
REMARK    1  A    between atoms: C2_2  and  C3_3 
REMARK    2  A    between atoms: C3_3  and  O1_4 
REMARK    3  A    between atoms: O1_4  and  C4_5 
REMARK    4  A    between atoms: C7_9  and  C8_10 
REMARK    5  A    between atoms: C11_14  and  C12_15 
REMARK    6  A    between atoms: C17_20  and  S1_21 
ROOT
HETATM    1  C4  UNL     1      68.088  38.958  -0.987  1.00  0.00     0.072 A 
HETATM    2  C5  UNL     1      67.864  40.163  -1.583  1.00  0.00     0.054 A 
HETATM    3  C6  UNL     1      68.853  41.136  -1.584  1.00  0.00     0.100 A 
HETATM    4  N1  UNL     1      70.052  40.950  -1.016  1.00  0.00    -0.318 N 
HETATM    5  C7  UNL     1      71.103  41.777  -0.929  1.00  0.00     0.085 A 
HETATM    6  C10 UNL     1      72.073  41.046  -0.228  1.00  0.00     0.048 A 
HETATM    7  C11 UNL     1      71.627  39.804   0.106  1.00  0.00     0.005 A 
HETATM    8  C19 UNL     1      70.319  39.769  -0.413  1.00  0.00     0.053 A 
HETATM    9  C20 UNL     1      69.363  38.795  -0.397  1.00  0.00     0.067 A 
ENDROOT
BRANCH   7  10
HETATM   10  C12 UNL     1      72.197  38.694   0.849  1.00  0.00    -0.002 A 
HETATM   11  C13 UNL     1      71.990  38.653   2.248  1.00  0.00     0.014 A 
HETATM   12  C14 UNL     1      72.472  37.683   3.058  1.00  0.00     0.001 A 
HETATM   13  C15 UNL     1      73.217  36.669   2.459  1.00  0.00     0.002 A 
HETATM   14  C16 UNL     1      73.437  36.678   1.112  1.00  0.00     0.024 A 
HETATM   15  C17 UNL     1      72.927  37.693   0.295  1.00  0.00     0.070 A 
BRANCH  15  16
HETATM   16  S1  UNL     1      73.218  37.661  -1.428  1.00  0.00     0.172 S 
HETATM   17  C18 UNL     1      74.470  36.390  -1.727  1.00  0.00     0.167 C 
HETATM   18  O3  UNL     1      73.888  38.933  -1.911  1.00  0.00    -0.223 OA
HETATM   19  O4  UNL     1      71.974  37.343  -2.177  1.00  0.00    -0.223 OA
ENDBRANCH  15  16
ENDBRANCH   7  10
BRANCH   5  20
HETATM   20  C8  UNL     1      71.257  43.146  -1.435  1.00  0.00     0.172 C 
HETATM   21  C9  UNL     1      70.520  43.658  -2.591  1.00  0.00     0.098 C 
HETATM   22  O2  UNL     1      72.078  43.883  -0.811  1.00  0.00    -0.291 OA
ENDBRANCH   5  20
BRANCH   1  23
HETATM   23  O1  UNL     1      67.258  37.898  -0.880  1.00  0.00    -0.351 OA
BRANCH  23  24
HETATM   24  C3  UNL     1      65.993  37.747  -1.402  1.00  0.00     0.175 C 
BRANCH  24  25
HETATM   25  C2  UNL     1      64.860  38.089  -0.484  1.00  0.00     0.022 C 
HETATM   26  C1  UNL     1      64.404  36.798   0.178  1.00  0.00     0.007 C 
ENDBRANCH  24  25
ENDBRANCH  23  24
ENDBRANCH   1  23
TORSDOF 6
ENDMDL
