MODEL 2
REMARK VINA RESULT: -6.998508977      1.362      4.935
REMARK  6 active torsions:
REMARK  status: ('A' for Active; 'I' for Inactive)
REMARK    1  A    between atoms: C2_2  and  C3_3 
REMARK    2  A    between atoms: C3_3  and  O1_4 
REMARK    3  A    between atoms: O1_4  and  C4_5 
REMARK    4  A    between atoms: C7_9  and  C8_10 
REMARK    5  A    between atoms: C11_14  and  C12_15 
REMARK    6  A    between atoms: C17_20  and  S1_21 
ROOT
HETATM    1  C4  UNL     1      68.081  38.992  -0.941  1.00  0.00     0.072 A 
HETATM    2  C5  UNL     1      67.806  40.312  -1.145  1.00  0.00     0.054 A 
HETATM    3  C6  UNL     1      68.836  41.237  -1.216  1.00  0.00     0.100 A 
HETATM    4  N1  UNL     1      70.126  40.896  -1.093  1.00  0.00    -0.318 N 
HETATM    5  C7  UNL     1      71.228  41.657  -1.136  1.00  0.00     0.085 A 
HETATM    6  C10 UNL     1      72.287  40.759  -0.948  1.00  0.00     0.048 A 
HETATM    7  C11 UNL     1      71.846  39.481  -0.795  1.00  0.00     0.005 A 
HETATM    8  C19 UNL     1      70.447  39.597  -0.891  1.00  0.00     0.053 A 
HETATM    9  C20 UNL     1      69.451  38.666  -0.816  1.00  0.00     0.067 A 
ENDROOT
BRANCH   7  10
HETATM   10  C12 UNL     1      72.503  38.211  -0.537  1.00  0.00    -0.002 A 
HETATM   11  C13 UNL     1      72.659  37.310  -1.617  1.00  0.00     0.014 A 
HETATM   12  C14 UNL     1      73.243  36.095  -1.514  1.00  0.00     0.001 A 
HETATM   13  C15 UNL     1      73.714  35.724  -0.256  1.00  0.00     0.002 A 
HETATM   14  C16 UNL     1      73.579  36.567   0.808  1.00  0.00     0.024 A 
HETATM   15  C17 UNL     1      72.972  37.821   0.675  1.00  0.00     0.070 A 
BRANCH  15  16
HETATM   16  S1  UNL     1      72.832  38.879   2.059  1.00  0.00     0.172 S 
HETATM   17  C18 UNL     1      73.162  37.874   3.526  1.00  0.00     0.167 C 
HETATM   18  O3  UNL     1      71.404  39.347   2.270  1.00  0.00    -0.223 OA
HETATM   19  O4  UNL     1      73.802  40.002   1.976  1.00  0.00    -0.223 OA
ENDBRANCH  15  16
ENDBRANCH   7  10
BRANCH   5  20
HETATM   20  C8  UNL     1      71.353  43.107  -1.331  1.00  0.00     0.172 C 
HETATM   21  C9  UNL     1      70.456  43.877  -2.194  1.00  0.00     0.098 C 
HETATM   22  O2  UNL     1      72.297  43.675  -0.704  1.00  0.00    -0.291 OA
ENDBRANCH   5  20
BRANCH   1  23
HETATM   23  O1  UNL     1      67.225  37.954  -0.840  1.00  0.00    -0.351 OA
BRANCH  23  24
HETATM   24  C3  UNL     1      65.970  37.824  -1.391  1.00  0.00     0.175 C 
BRANCH  24  25
HETATM   25  C2  UNL     1      64.820  38.115  -0.477  1.00  0.00     0.022 C 
HETATM   26  C1  UNL     1      64.402  36.801   0.164  1.00  0.00     0.007 C 
ENDBRANCH  24  25
ENDBRANCH  23  24
ENDBRANCH   1  23
TORSDOF 6
ENDMDL
