MODEL 11
REMARK VINA RESULT: -5.952655417      1.408      1.815
REMARK  6 active torsions:
REMARK  status: ('A' for Active; 'I' for Inactive)
REMARK    1  A    between atoms: C2_2  and  C3_3 
REMARK    2  A    between atoms: C3_3  and  O1_4 
REMARK    3  A    between atoms: O1_4  and  C4_5 
REMARK    4  A    between atoms: C7_9  and  C8_10 
REMARK    5  A    between atoms: C11_14  and  C12_15 
REMARK    6  A    between atoms: C17_20  and  S1_21 
ROOT
HETATM    1  C4  UNL     1      72.310  42.027  -0.953  1.00  0.00     0.072 A 
HETATM    2  C5  UNL     1      71.070  42.570  -1.114  1.00  0.00     0.054 A 
HETATM    3  C6  UNL     1      69.947  41.757  -1.114  1.00  0.00     0.100 A 
HETATM    4  N1  UNL     1      70.014  40.428  -0.959  1.00  0.00    -0.318 N 
HETATM    5  C7  UNL     1      69.037  39.511  -0.937  1.00  0.00     0.085 A 
HETATM    6  C10 UNL     1      69.700  38.290  -0.746  1.00  0.00     0.048 A 
HETATM    7  C11 UNL     1      71.047  38.456  -0.652  1.00  0.00     0.005 A 
HETATM    8  C19 UNL     1      71.224  39.844  -0.795  1.00  0.00     0.053 A 
HETATM    9  C20 UNL     1      72.346  40.622  -0.792  1.00  0.00     0.067 A 
ENDROOT
BRANCH   7  10
HETATM   10  C12 UNL     1      72.167  37.543  -0.499  1.00  0.00    -0.002 A 
HETATM   11  C13 UNL     1      72.879  37.161  -1.661  1.00  0.00     0.014 A 
HETATM   12  C14 UNL     1      73.932  36.314  -1.661  1.00  0.00     0.001 A 
HETATM   13  C15 UNL     1      74.328  35.794  -0.429  1.00  0.00     0.002 A 
HETATM   14  C16 UNL     1      73.663  36.140   0.711  1.00  0.00     0.024 A 
HETATM   15  C17 UNL     1      72.576  37.021   0.685  1.00  0.00     0.070 A 
BRANCH  15  16
HETATM   16  S1  UNL     1      71.760  37.451   2.170  1.00  0.00     0.172 S 
HETATM   17  C18 UNL     1      72.675  36.670   3.519  1.00  0.00     0.167 C 
HETATM   18  O3  UNL     1      70.386  36.815   2.264  1.00  0.00    -0.223 OA
HETATM   19  O4  UNL     1      71.728  38.926   2.356  1.00  0.00    -0.223 OA
ENDBRANCH  15  16
ENDBRANCH   7  10
BRANCH   5  20
HETATM   20  C8  UNL     1      67.587  39.690  -1.077  1.00  0.00     0.172 C 
HETATM   21  C9  UNL     1      66.872  40.860  -0.564  1.00  0.00     0.098 C 
HETATM   22  O2  UNL     1      66.966  38.762  -1.678  1.00  0.00    -0.291 OA
ENDBRANCH   5  20
BRANCH   1  23
HETATM   23  O1  UNL     1      73.510  42.645  -0.929  1.00  0.00    -0.351 OA
BRANCH  23  24
HETATM   24  C3  UNL     1      74.068  43.464  -1.885  1.00  0.00     0.175 C 
BRANCH  24  25
HETATM   25  C2  UNL     1      74.183  42.881  -3.259  1.00  0.00     0.022 C 
HETATM   26  C1  UNL     1      75.579  42.291  -3.390  1.00  0.00     0.007 C 
ENDBRANCH  24  25
ENDBRANCH  23  24
ENDBRANCH   1  23
TORSDOF 6
ENDMDL
