MODEL 4
REMARK VINA RESULT: -6.627020777      1.442      1.645
REMARK  6 active torsions:
REMARK  status: ('A' for Active; 'I' for Inactive)
REMARK    1  A    between atoms: C2_2  and  C3_3 
REMARK    2  A    between atoms: C3_3  and  O1_4 
REMARK    3  A    between atoms: O1_4  and  C4_5 
REMARK    4  A    between atoms: C7_9  and  C8_10 
REMARK    5  A    between atoms: C11_14  and  C12_15 
REMARK    6  A    between atoms: C17_20  and  S1_21 
ROOT
HETATM    1  C4  UNL     1      71.976  41.737  -0.632  1.00  0.00     0.072 A 
HETATM    2  C5  UNL     1      70.701  42.169  -0.845  1.00  0.00     0.054 A 
HETATM    3  C6  UNL     1      69.664  41.255  -0.959  1.00  0.00     0.100 A 
HETATM    4  N1  UNL     1      69.851  39.932  -0.870  1.00  0.00    -0.318 N 
HETATM    5  C7  UNL     1      68.969  38.927  -0.958  1.00  0.00     0.085 A 
HETATM    6  C10 UNL     1      69.736  37.766  -0.788  1.00  0.00     0.048 A 
HETATM    7  C11 UNL     1      71.052  38.052  -0.600  1.00  0.00     0.005 A 
HETATM    8  C19 UNL     1      71.101  39.457  -0.659  1.00  0.00     0.053 A 
HETATM    9  C20 UNL     1      72.139  40.335  -0.543  1.00  0.00     0.067 A 
ENDROOT
BRANCH   7  10
HETATM   10  C12 UNL     1      72.245  37.241  -0.422  1.00  0.00    -0.002 A 
HETATM   11  C13 UNL     1      72.991  36.893  -1.573  1.00  0.00     0.014 A 
HETATM   12  C14 UNL     1      74.113  36.139  -1.550  1.00  0.00     0.001 A 
HETATM   13  C15 UNL     1      74.545  35.684  -0.305  1.00  0.00     0.002 A 
HETATM   14  C16 UNL     1      73.850  36.000   0.825  1.00  0.00     0.024 A 
HETATM   15  C17 UNL     1      72.691  36.784   0.775  1.00  0.00     0.070 A 
BRANCH  15  16
HETATM   16  S1  UNL     1      71.836  37.179   2.247  1.00  0.00     0.172 S 
HETATM   17  C18 UNL     1      72.624  36.247   3.581  1.00  0.00     0.167 C 
HETATM   18  O3  UNL     1      70.417  36.644   2.237  1.00  0.00    -0.223 OA
HETATM   19  O4  UNL     1      71.902  38.637   2.531  1.00  0.00    -0.223 OA
ENDBRANCH  15  16
ENDBRANCH   7  10
BRANCH   5  20
HETATM   20  C8  UNL     1      67.519  38.977  -1.182  1.00  0.00     0.172 C 
HETATM   21  C9  UNL     1      66.642  37.819  -0.999  1.00  0.00     0.098 C 
HETATM   22  O2  UNL     1      67.050  40.095  -1.551  1.00  0.00    -0.291 OA
ENDBRANCH   5  20
BRANCH   1  23
HETATM   23  O1  UNL     1      73.106  42.463  -0.499  1.00  0.00    -0.351 OA
BRANCH  23  24
HETATM   24  C3  UNL     1      74.366  42.027  -0.156  1.00  0.00     0.175 C 
BRANCH  24  25
HETATM   25  C2  UNL     1      74.884  42.497   1.168  1.00  0.00     0.022 C 
HETATM   26  C1  UNL     1      74.548  41.427   2.196  1.00  0.00     0.007 C 
ENDBRANCH  24  25
ENDBRANCH  23  24
ENDBRANCH   1  23
TORSDOF 6
ENDMDL
