MODEL 5
REMARK VINA RESULT: -6.534969344      1.881      5.411
REMARK  6 active torsions:
REMARK  status: ('A' for Active; 'I' for Inactive)
REMARK    1  A    between atoms: C2_2  and  C3_3 
REMARK    2  A    between atoms: C3_3  and  O1_4 
REMARK    3  A    between atoms: O1_4  and  C4_5 
REMARK    4  A    between atoms: C7_9  and  C8_10 
REMARK    5  A    between atoms: C11_14  and  C12_15 
REMARK    6  A    between atoms: C17_20  and  S1_21 
ROOT
HETATM    1  C4  UNL     1      68.192  40.045  -0.962  1.00  0.00     0.072 A 
HETATM    2  C5  UNL     1      68.200  41.251  -1.598  1.00  0.00     0.054 A 
HETATM    3  C6  UNL     1      69.364  42.004  -1.654  1.00  0.00     0.100 A 
HETATM    4  N1  UNL     1      70.515  41.599  -1.103  1.00  0.00    -0.318 N 
HETATM    5  C7  UNL     1      71.713  42.199  -1.068  1.00  0.00     0.085 A 
HETATM    6  C10 UNL     1      72.534  41.311  -0.359  1.00  0.00     0.048 A 
HETATM    7  C11 UNL     1      71.857  40.196   0.029  1.00  0.00     0.005 A 
HETATM    8  C19 UNL     1      70.556  40.408  -0.463  1.00  0.00     0.053 A 
HETATM    9  C20 UNL     1      69.424  39.648  -0.392  1.00  0.00     0.067 A 
ENDROOT
BRANCH   7  10
HETATM   10  C12 UNL     1      72.213  39.018   0.801  1.00  0.00    -0.002 A 
HETATM   11  C13 UNL     1      72.030  39.061   2.204  1.00  0.00     0.014 A 
HETATM   12  C14 UNL     1      72.327  38.041   3.039  1.00  0.00     0.001 A 
HETATM   13  C15 UNL     1      72.846  36.882   2.465  1.00  0.00     0.002 A 
HETATM   14  C16 UNL     1      73.036  36.806   1.116  1.00  0.00     0.024 A 
HETATM   15  C17 UNL     1      72.720  37.876   0.272  1.00  0.00     0.070 A 
BRANCH  15  16
HETATM   16  S1  UNL     1      72.964  37.735  -1.453  1.00  0.00     0.172 S 
HETATM   17  C18 UNL     1      74.149  36.393  -1.709  1.00  0.00     0.167 C 
HETATM   18  O3  UNL     1      73.678  38.945  -2.023  1.00  0.00    -0.223 OA
HETATM   19  O4  UNL     1      71.688  37.433  -2.153  1.00  0.00    -0.223 OA
ENDBRANCH  15  16
ENDBRANCH   7  10
BRANCH   5  20
HETATM   20  C8  UNL     1      72.125  43.492  -1.628  1.00  0.00     0.172 C 
HETATM   21  C9  UNL     1      72.321  44.691  -0.811  1.00  0.00     0.098 C 
HETATM   22  O2  UNL     1      72.308  43.524  -2.882  1.00  0.00    -0.291 OA
ENDBRANCH   5  20
BRANCH   1  23
HETATM   23  O1  UNL     1      67.170  39.179  -0.799  1.00  0.00    -0.351 OA
BRANCH  23  24
HETATM   24  C3  UNL     1      67.124  37.842  -1.123  1.00  0.00     0.175 C 
BRANCH  24  25
HETATM   25  C2  UNL     1      66.154  37.012  -0.340  1.00  0.00     0.022 C 
HETATM   26  C1  UNL     1      64.818  37.741  -0.348  1.00  0.00     0.007 C 
ENDBRANCH  24  25
ENDBRANCH  23  24
ENDBRANCH   1  23
TORSDOF 6
ENDMDL
