MODEL 1
REMARK VINA RESULT: -7.031443391      0.000      0.000
REMARK  6 active torsions:
REMARK  status: ('A' for Active; 'I' for Inactive)
REMARK    1  A    between atoms: C2_2  and  C3_3 
REMARK    2  A    between atoms: C3_3  and  O1_4 
REMARK    3  A    between atoms: O1_4  and  C4_5 
REMARK    4  A    between atoms: C7_9  and  C8_10 
REMARK    5  A    between atoms: C11_14  and  C12_15 
REMARK    6  A    between atoms: C17_20  and  S1_21 
ROOT
HETATM    1  C4  UNL     1      70.717  42.482  -1.217  1.00  0.00     0.072 A 
HETATM    2  C5  UNL     1      69.366  42.635  -1.312  1.00  0.00     0.054 A 
HETATM    3  C6  UNL     1      68.532  41.529  -1.251  1.00  0.00     0.100 A 
HETATM    4  N1  UNL     1      68.994  40.281  -1.098  1.00  0.00    -0.318 N 
HETATM    5  C7  UNL     1      68.331  39.119  -1.021  1.00  0.00     0.085 A 
HETATM    6  C10 UNL     1      69.332  38.150  -0.863  1.00  0.00     0.048 A 
HETATM    7  C11 UNL     1      70.574  38.704  -0.843  1.00  0.00     0.005 A 
HETATM    8  C19 UNL     1      70.328  40.081  -0.998  1.00  0.00     0.053 A 
HETATM    9  C20 UNL     1      71.172  41.153  -1.056  1.00  0.00     0.067 A 
ENDROOT
BRANCH   7  10
HETATM   10  C12 UNL     1      71.919  38.162  -0.748  1.00  0.00    -0.002 A 
HETATM   11  C13 UNL     1      72.634  37.940  -1.949  1.00  0.00     0.014 A 
HETATM   12  C14 UNL     1      73.886  37.434  -2.004  1.00  0.00     0.001 A 
HETATM   13  C15 UNL     1      74.495  37.115  -0.791  1.00  0.00     0.002 A 
HETATM   14  C16 UNL     1      73.834  37.315   0.385  1.00  0.00     0.024 A 
HETATM   15  C17 UNL     1      72.538  37.842   0.416  1.00  0.00     0.070 A 
BRANCH  15  16
HETATM   16  S1  UNL     1      71.731  38.097   1.945  1.00  0.00     0.172 S 
HETATM   17  C18 UNL     1      72.851  37.507   3.237  1.00  0.00     0.167 C 
HETATM   18  O3  UNL     1      70.516  37.201   2.099  1.00  0.00    -0.223 OA
HETATM   19  O4  UNL     1      71.418  39.535   2.154  1.00  0.00    -0.223 OA
ENDBRANCH  15  16
ENDBRANCH   7  10
BRANCH   5  20
HETATM   20  C8  UNL     1      66.887  38.863  -1.083  1.00  0.00     0.172 C 
HETATM   21  C9  UNL     1      66.320  37.544  -1.369  1.00  0.00     0.098 C 
HETATM   22  O2  UNL     1      66.134  39.861  -0.873  1.00  0.00    -0.291 OA
ENDBRANCH   5  20
BRANCH   1  23
HETATM   23  O1  UNL     1      71.683  43.425  -1.259  1.00  0.00    -0.351 OA
BRANCH  23  24
HETATM   24  C3  UNL     1      73.002  43.314  -0.881  1.00  0.00     0.175 C 
BRANCH  24  25
HETATM   25  C2  UNL     1      73.560  44.468  -0.106  1.00  0.00     0.022 C 
HETATM   26  C1  UNL     1      72.627  45.652  -0.315  1.00  0.00     0.007 C 
ENDBRANCH  24  25
ENDBRANCH  23  24
ENDBRANCH   1  23
TORSDOF 6
ENDMDL
