MODEL 2
REMARK VINA RESULT: -10.782802759      0.775      1.365
REMARK  8 active torsions:
REMARK  status: ('A' for Active; 'I' for Inactive)
REMARK    1  A    between atoms: O1_2  and  C2_3 
REMARK    2  A    between atoms: C4_5  and  C5_6 
REMARK    3  A    between atoms: C5_6  and  C6_7 
REMARK    4  A    between atoms: C6_7  and  C7_8 
REMARK    5  A    between atoms: C9_10  and  N1_11 
REMARK       I    between atoms: N1_11  and  C10_13 
REMARK    6  A    between atoms: C10_13  and  C11_15 
REMARK    7  A    between atoms: C14_18  and  N2_19 
REMARK    8  A    between atoms: C24_35  and  O3_36 
ROOT
HETATM    1  C7  UNL     1     -16.047  -6.572  13.153  1.00  0.00     0.029 A 
HETATM    2  C8  UNL     1     -17.383  -6.997  13.312  1.00  0.00     0.076 A 
HETATM    3  C9  UNL     1     -18.079  -6.069  14.037  1.00  0.00     0.124 A 
HETATM    4  N4  UNL     1     -17.199  -5.100  14.321  1.00  0.00    -0.285 N 
ATOM      5  H4  UNL     1     -17.405  -4.256  14.856  1.00  0.00     0.188 HD
HETATM    6  N5  UNL     1     -15.998  -5.412  13.789  1.00  0.00    -0.303 N 
ATOM      7  H5  UNL     1     -15.163  -4.831  13.868  1.00  0.00     0.186 HD
ENDROOT
BRANCH   3   8
HETATM    8  N1  UNL     1     -19.441  -6.039  14.456  1.00  0.00    -0.308 N 
HETATM    9  C10 UNL     1     -20.348  -7.109  14.282  1.00  0.00     0.257 C 
HETATM   10  O2  UNL     1     -19.943  -8.169  13.717  1.00  0.00    -0.267 OA
ATOM     11  H1  UNL     1     -19.782  -5.192  14.911  1.00  0.00     0.170 HD
BRANCH   9  12
HETATM   12  C11 UNL     1     -21.745  -7.103  14.702  1.00  0.00     0.032 A 
HETATM   13  C12 UNL     1     -22.698  -7.857  14.044  1.00  0.00     0.019 A 
HETATM   14  C13 UNL     1     -23.989  -7.820  14.482  1.00  0.00     0.030 A 
HETATM   15  C14 UNL     1     -24.406  -7.056  15.567  1.00  0.00     0.030 A 
HETATM   16  C21 UNL     1     -23.445  -6.320  16.200  1.00  0.00     0.030 A 
HETATM   17  C22 UNL     1     -22.116  -6.340  15.774  1.00  0.00     0.019 A 
BRANCH  15  18
HETATM   18  N2  UNL     1     -25.770  -7.050  15.980  1.00  0.00    -0.377 N 
HETATM   19  C15 UNL     1     -26.690  -7.897  15.249  1.00  0.00     0.147 C 
HETATM   20  C16 UNL     1     -28.074  -7.308  15.417  1.00  0.00     0.091 C 
HETATM   21  C17 UNL     1     -28.271  -6.032  14.672  1.00  0.00     0.033 C 
HETATM   22  N3  UNL     1     -28.378  -7.247  16.802  1.00  0.00    -0.411 N 
HETATM   23  C18 UNL     1     -27.525  -6.450  17.601  1.00  0.00     0.091 C 
ATOM     24  H3  UNL     1     -29.172  -7.750  17.200  1.00  0.00     0.154 HD
HETATM   25  C19 UNL     1     -28.142  -5.097  17.964  1.00  0.00     0.033 C 
HETATM   26  C20 UNL     1     -26.146  -6.220  17.081  1.00  0.00     0.147 C 
ENDBRANCH  15  18
ENDBRANCH   9  12
ENDBRANCH   3   8
BRANCH   1  27
HETATM   27  C6  UNL     1     -15.051  -7.364  12.458  1.00  0.00     0.063 C 
BRANCH  27  28
HETATM   28  C5  UNL     1     -14.948  -7.273  10.995  1.00  0.00     0.045 C 
BRANCH  28  29
HETATM   29  C4  UNL     1     -13.643  -7.011  10.402  1.00  0.00    -0.052 A 
HETATM   30  C3  UNL     1     -13.437  -6.174   9.351  1.00  0.00     0.044 A 
HETATM   31  C2  UNL     1     -12.178  -5.967   8.793  1.00  0.00     0.071 A 
HETATM   32  C26 UNL     1     -11.090  -6.623   9.308  1.00  0.00     0.073 A 
HETATM   33  C24 UNL     1     -11.252  -7.479  10.372  1.00  0.00     0.071 A 
HETATM   34  C23 UNL     1     -12.499  -7.661  10.898  1.00  0.00     0.044 A 
BRANCH  31  35
HETATM   35  O1  UNL     1     -11.974  -5.111   7.718  1.00  0.00    -0.356 OA
HETATM   36  C1  UNL     1     -10.775  -5.254   6.987  1.00  0.00     0.210 C 
ENDBRANCH  31  35
BRANCH  33  37
HETATM   37  O3  UNL     1     -10.122  -8.124  10.866  1.00  0.00    -0.356 OA
HETATM   38  C25 UNL     1      -8.888  -8.109  10.210  1.00  0.00     0.210 C 
ENDBRANCH  33  37
ENDBRANCH  28  29
ENDBRANCH  27  28
ENDBRANCH   1  27
TORSDOF 8
ENDMDL
