MODEL 4
REMARK VINA RESULT: -10.722198603      0.782      2.124
REMARK  8 active torsions:
REMARK  status: ('A' for Active; 'I' for Inactive)
REMARK    1  A    between atoms: O1_2  and  C2_3 
REMARK    2  A    between atoms: C4_5  and  C5_6 
REMARK    3  A    between atoms: C5_6  and  C6_7 
REMARK    4  A    between atoms: C6_7  and  C7_8 
REMARK    5  A    between atoms: C9_10  and  N1_11 
REMARK       I    between atoms: N1_11  and  C10_13 
REMARK    6  A    between atoms: C10_13  and  C11_15 
REMARK    7  A    between atoms: C14_18  and  N2_19 
REMARK    8  A    between atoms: C24_35  and  O3_36 
ROOT
HETATM    1  C7  UNL     1     -15.988  -6.645  13.136  1.00  0.00     0.029 A 
HETATM    2  C8  UNL     1     -17.324  -7.057  13.327  1.00  0.00     0.076 A 
HETATM    3  C9  UNL     1     -18.007  -6.100  14.025  1.00  0.00     0.124 A 
HETATM    4  N4  UNL     1     -17.120  -5.124  14.261  1.00  0.00    -0.285 N 
ATOM      5  H4  UNL     1     -17.315  -4.260  14.767  1.00  0.00     0.188 HD
HETATM    6  N5  UNL     1     -15.926  -5.462  13.727  1.00  0.00    -0.303 N 
ATOM      7  H5  UNL     1     -15.088  -4.882  13.774  1.00  0.00     0.186 HD
ENDROOT
BRANCH   3   8
HETATM    8  N1  UNL     1     -19.363  -6.048  14.459  1.00  0.00    -0.308 N 
HETATM    9  C10 UNL     1     -20.288  -7.105  14.302  1.00  0.00     0.257 C 
HETATM   10  O2  UNL     1     -19.904  -8.176  13.740  1.00  0.00    -0.267 OA
ATOM     11  H1  UNL     1     -19.687  -5.193  14.911  1.00  0.00     0.170 HD
BRANCH   9  12
HETATM   12  C11 UNL     1     -21.680  -7.078  14.737  1.00  0.00     0.032 A 
HETATM   13  C12 UNL     1     -22.085  -6.302  15.806  1.00  0.00     0.019 A 
HETATM   14  C13 UNL     1     -23.399  -6.308  16.169  1.00  0.00     0.030 A 
HETATM   15  C14 UNL     1     -24.368  -7.063  15.515  1.00  0.00     0.030 A 
HETATM   16  C21 UNL     1     -23.943  -7.821  14.462  1.00  0.00     0.030 A 
HETATM   17  C22 UNL     1     -22.603  -7.833  14.069  1.00  0.00     0.019 A 
BRANCH  15  18
HETATM   18  N2  UNL     1     -25.728  -7.036  15.940  1.00  0.00    -0.377 N 
HETATM   19  C15 UNL     1     -26.668  -7.868  15.216  1.00  0.00     0.147 C 
HETATM   20  C16 UNL     1     -28.040  -7.257  15.397  1.00  0.00     0.091 C 
HETATM   21  C17 UNL     1     -28.224  -5.977  14.656  1.00  0.00     0.033 C 
HETATM   22  N3  UNL     1     -28.332  -7.194  16.785  1.00  0.00    -0.411 N 
HETATM   23  C18 UNL     1     -27.458  -6.412  17.578  1.00  0.00     0.091 C 
ATOM     24  H3  UNL     1     -29.129  -7.686  17.190  1.00  0.00     0.154 HD
HETATM   25  C19 UNL     1     -28.052  -5.049  17.948  1.00  0.00     0.033 C 
HETATM   26  C20 UNL     1     -26.081  -6.202  17.046  1.00  0.00     0.147 C 
ENDBRANCH  15  18
ENDBRANCH   9  12
ENDBRANCH   3   8
BRANCH   1  27
HETATM   27  C6  UNL     1     -15.004  -7.467  12.460  1.00  0.00     0.063 C 
BRANCH  27  28
HETATM   28  C5  UNL     1     -14.850  -7.358  11.003  1.00  0.00     0.045 C 
BRANCH  28  29
HETATM   29  C4  UNL     1     -13.513  -7.166  10.455  1.00  0.00    -0.052 A 
HETATM   30  C3  UNL     1     -12.393  -7.750  10.957  1.00  0.00     0.044 A 
HETATM   31  C2  UNL     1     -11.126  -7.524  10.425  1.00  0.00     0.071 A 
HETATM   32  C26 UNL     1     -10.981  -6.684   9.350  1.00  0.00     0.073 A 
HETATM   33  C24 UNL     1     -12.088  -6.073   8.809  1.00  0.00     0.071 A 
HETATM   34  C23 UNL     1     -13.316  -6.314   9.353  1.00  0.00     0.044 A 
BRANCH  31  35
HETATM   35  O1  UNL     1      -9.985  -8.121  10.943  1.00  0.00    -0.356 OA
HETATM   36  C1  UNL     1      -8.824  -8.120  10.140  1.00  0.00     0.210 C 
ENDBRANCH  31  35
BRANCH  33  37
HETATM   37  O3  UNL     1     -11.897  -5.229   7.718  1.00  0.00    -0.356 OA
HETATM   38  C25 UNL     1     -10.722  -5.214   6.963  1.00  0.00     0.210 C 
ENDBRANCH  33  37
ENDBRANCH  28  29
ENDBRANCH  27  28
ENDBRANCH   1  27
TORSDOF 8
ENDMDL
