MODEL 3
REMARK VINA RESULT: -10.734588859      0.095      1.811
REMARK  8 active torsions:
REMARK  status: ('A' for Active; 'I' for Inactive)
REMARK    1  A    between atoms: O1_2  and  C2_3 
REMARK    2  A    between atoms: C4_5  and  C5_6 
REMARK    3  A    between atoms: C5_6  and  C6_7 
REMARK    4  A    between atoms: C6_7  and  C7_8 
REMARK    5  A    between atoms: C9_10  and  N1_11 
REMARK       I    between atoms: N1_11  and  C10_13 
REMARK    6  A    between atoms: C10_13  and  C11_15 
REMARK    7  A    between atoms: C14_18  and  N2_19 
REMARK    8  A    between atoms: C24_35  and  O3_36 
ROOT
HETATM    1  C7  UNL     1     -16.108  -6.566  13.174  1.00  0.00     0.029 A 
HETATM    2  C8  UNL     1     -17.455  -6.976  13.281  1.00  0.00     0.076 A 
HETATM    3  C9  UNL     1     -18.155  -6.069  14.027  1.00  0.00     0.124 A 
HETATM    4  N4  UNL     1     -17.269  -5.126  14.374  1.00  0.00    -0.285 N 
ATOM      5  H4  UNL     1     -17.476  -4.301  14.939  1.00  0.00     0.188 HD
HETATM    6  N5  UNL     1     -16.059  -5.434  13.860  1.00  0.00    -0.303 N 
ATOM      7  H5  UNL     1     -15.218  -4.870  13.985  1.00  0.00     0.186 HD
ENDROOT
BRANCH   3   8
HETATM    8  N1  UNL     1     -19.527  -6.035  14.412  1.00  0.00    -0.308 N 
HETATM    9  C10 UNL     1     -20.422  -7.118  14.259  1.00  0.00     0.257 C 
HETATM   10  O2  UNL     1     -19.994  -8.197  13.746  1.00  0.00    -0.267 OA
ATOM     11  H1  UNL     1     -19.886  -5.174  14.825  1.00  0.00     0.170 HD
BRANCH   9  12
HETATM   12  C11 UNL     1     -21.828  -7.109  14.645  1.00  0.00     0.032 A 
HETATM   13  C12 UNL     1     -22.276  -6.358  15.714  1.00  0.00     0.019 A 
HETATM   14  C13 UNL     1     -23.602  -6.381  16.030  1.00  0.00     0.030 A 
HETATM   15  C14 UNL     1     -24.542  -7.130  15.327  1.00  0.00     0.030 A 
HETATM   16  C21 UNL     1     -24.074  -7.863  14.275  1.00  0.00     0.030 A 
HETATM   17  C22 UNL     1     -22.721  -7.857  13.930  1.00  0.00     0.019 A 
BRANCH  15  18
HETATM   18  N2  UNL     1     -25.916  -7.122  15.704  1.00  0.00    -0.377 N 
HETATM   19  C15 UNL     1     -26.309  -7.972  16.809  1.00  0.00     0.147 C 
HETATM   20  C16 UNL     1     -27.782  -8.274  16.642  1.00  0.00     0.091 C 
HETATM   21  C17 UNL     1     -28.076  -9.195  15.507  1.00  0.00     0.033 C 
HETATM   22  N3  UNL     1     -28.499  -7.049  16.621  1.00  0.00    -0.411 N 
HETATM   23  C18 UNL     1     -28.175  -6.146  15.581  1.00  0.00     0.091 C 
ATOM     24  H3  UNL     1     -29.212  -6.831  17.319  1.00  0.00     0.154 HD
HETATM   25  C19 UNL     1     -29.211  -6.141  14.454  1.00  0.00     0.033 C 
HETATM   26  C20 UNL     1     -26.817  -6.281  14.979  1.00  0.00     0.147 C 
ENDBRANCH  15  18
ENDBRANCH   9  12
ENDBRANCH   3   8
BRANCH   1  27
HETATM   27  C6  UNL     1     -15.107  -7.344  12.473  1.00  0.00     0.063 C 
BRANCH  27  28
HETATM   28  C5  UNL     1     -14.957  -7.184  11.020  1.00  0.00     0.045 C 
BRANCH  28  29
HETATM   29  C4  UNL     1     -13.614  -7.047  10.468  1.00  0.00    -0.052 A 
HETATM   30  C3  UNL     1     -12.516  -7.668  10.973  1.00  0.00     0.044 A 
HETATM   31  C2  UNL     1     -11.243  -7.494  10.437  1.00  0.00     0.071 A 
HETATM   32  C26 UNL     1     -11.068  -6.669   9.355  1.00  0.00     0.073 A 
HETATM   33  C24 UNL     1     -12.153  -6.021   8.811  1.00  0.00     0.071 A 
HETATM   34  C23 UNL     1     -13.388  -6.212   9.360  1.00  0.00     0.044 A 
BRANCH  31  35
HETATM   35  O1  UNL     1     -10.123  -8.130  10.958  1.00  0.00    -0.356 OA
HETATM   36  C1  UNL     1      -8.943  -8.114  10.185  1.00  0.00     0.210 C 
ENDBRANCH  31  35
BRANCH  33  37
HETATM   37  O3  UNL     1     -11.932  -5.194   7.713  1.00  0.00    -0.356 OA
HETATM   38  C25 UNL     1     -10.764  -5.239   6.948  1.00  0.00     0.210 C 
ENDBRANCH  33  37
ENDBRANCH  28  29
ENDBRANCH  27  28
ENDBRANCH   1  27
TORSDOF 8
ENDMDL
