MODEL 10
REMARK VINA RESULT: -10.386564315      3.682     13.263
REMARK  8 active torsions:
REMARK  status: ('A' for Active; 'I' for Inactive)
REMARK    1  A    between atoms: O1_2  and  C2_3 
REMARK    2  A    between atoms: C4_5  and  C5_6 
REMARK    3  A    between atoms: C5_6  and  C6_7 
REMARK    4  A    between atoms: C6_7  and  C7_8 
REMARK    5  A    between atoms: C9_10  and  N1_11 
REMARK       I    between atoms: N1_11  and  C10_13 
REMARK    6  A    between atoms: C10_13  and  C11_15 
REMARK    7  A    between atoms: C14_18  and  N2_19 
REMARK    8  A    between atoms: C24_35  and  O3_36 
ROOT
HETATM    1  C7  UNL     1     -24.382  -6.246  16.933  1.00  0.00     0.029 A 
HETATM    2  C8  UNL     1     -23.418  -6.322  15.905  1.00  0.00     0.076 A 
HETATM    3  C9  UNL     1     -22.169  -6.123  16.428  1.00  0.00     0.124 A 
HETATM    4  N4  UNL     1     -22.355  -5.928  17.740  1.00  0.00    -0.285 N 
ATOM      5  H4  UNL     1     -21.615  -5.750  18.420  1.00  0.00     0.188 HD
HETATM    6  N5  UNL     1     -23.672  -6.004  18.025  1.00  0.00    -0.303 N 
ATOM      7  H5  UNL     1     -24.069  -5.889  18.958  1.00  0.00     0.186 HD
ENDROOT
BRANCH   3   8
HETATM    8  N1  UNL     1     -20.887  -6.107  15.806  1.00  0.00    -0.308 N 
HETATM    9  C10 UNL     1     -20.477  -7.019  14.808  1.00  0.00     0.257 C 
HETATM   10  O2  UNL     1     -21.288  -7.918  14.430  1.00  0.00    -0.267 OA
ATOM     11  H1  UNL     1     -20.223  -5.391  16.101  1.00  0.00     0.170 HD
BRANCH   9  12
HETATM   12  C11 UNL     1     -19.172  -7.023  14.157  1.00  0.00     0.032 A 
HETATM   13  C12 UNL     1     -18.706  -8.136  13.484  1.00  0.00     0.019 A 
HETATM   14  C13 UNL     1     -17.481  -8.085  12.887  1.00  0.00     0.030 A 
HETATM   15  C14 UNL     1     -16.663  -6.960  12.919  1.00  0.00     0.030 A 
HETATM   16  C21 UNL     1     -17.146  -5.873  13.590  1.00  0.00     0.030 A 
HETATM   17  C22 UNL     1     -18.397  -5.898  14.209  1.00  0.00     0.019 A 
BRANCH  15  18
HETATM   18  N2  UNL     1     -15.388  -6.962  12.282  1.00  0.00    -0.377 N 
HETATM   19  C15 UNL     1     -14.814  -5.677  11.936  1.00  0.00     0.147 C 
HETATM   20  C16 UNL     1     -13.847  -5.910  10.797  1.00  0.00     0.091 C 
HETATM   21  C17 UNL     1     -14.516  -6.236   9.505  1.00  0.00     0.033 C 
HETATM   22  N3  UNL     1     -12.865  -6.845  11.216  1.00  0.00    -0.411 N 
HETATM   23  C18 UNL     1     -13.333  -8.128  11.587  1.00  0.00     0.091 C 
ATOM     24  H3  UNL     1     -11.873  -6.606  11.248  1.00  0.00     0.154 HD
HETATM   25  C19 UNL     1     -13.090  -9.185  10.506  1.00  0.00     0.033 C 
HETATM   26  C20 UNL     1     -14.754  -8.218  12.029  1.00  0.00     0.147 C 
ENDBRANCH  15  18
ENDBRANCH   9  12
ENDBRANCH   3   8
BRANCH   1  27
HETATM   27  C6  UNL     1     -25.803  -6.378  16.684  1.00  0.00     0.063 C 
BRANCH  27  28
HETATM   28  C5  UNL     1     -26.734  -5.408  17.277  1.00  0.00     0.045 C 
BRANCH  28  29
HETATM   29  C4  UNL     1     -27.542  -4.582  16.387  1.00  0.00    -0.052 A 
HETATM   30  C3  UNL     1     -28.063  -5.017  15.209  1.00  0.00     0.044 A 
HETATM   31  C2  UNL     1     -28.809  -4.193  14.370  1.00  0.00     0.071 A 
HETATM   32  C26 UNL     1     -29.040  -2.889  14.728  1.00  0.00     0.073 A 
HETATM   33  C24 UNL     1     -28.532  -2.408  15.912  1.00  0.00     0.071 A 
HETATM   34  C23 UNL     1     -27.805  -3.240  16.713  1.00  0.00     0.044 A 
BRANCH  31  35
HETATM   35  O1  UNL     1     -29.337  -4.641  13.167  1.00  0.00    -0.356 OA
HETATM   36  C1  UNL     1     -30.289  -5.683  13.217  1.00  0.00     0.210 C 
ENDBRANCH  31  35
BRANCH  33  37
HETATM   37  O3  UNL     1     -28.791  -1.080  16.238  1.00  0.00    -0.356 OA
HETATM   38  C25 UNL     1     -28.836  -0.613  17.555  1.00  0.00     0.210 C 
ENDBRANCH  33  37
ENDBRANCH  28  29
ENDBRANCH  27  28
ENDBRANCH   1  27
TORSDOF 8
ENDMDL
