MODEL 5
REMARK VINA RESULT: -10.614842310      0.713      2.476
REMARK  8 active torsions:
REMARK  status: ('A' for Active; 'I' for Inactive)
REMARK    1  A    between atoms: O1_2  and  C2_3 
REMARK    2  A    between atoms: C4_5  and  C5_6 
REMARK    3  A    between atoms: C5_6  and  C6_7 
REMARK    4  A    between atoms: C6_7  and  C7_8 
REMARK    5  A    between atoms: C9_10  and  N1_11 
REMARK       I    between atoms: N1_11  and  C10_13 
REMARK    6  A    between atoms: C10_13  and  C11_15 
REMARK    7  A    between atoms: C14_18  and  N2_19 
REMARK    8  A    between atoms: C24_35  and  O3_36 
ROOT
HETATM    1  C7  UNL     1     -16.010  -6.597  13.165  1.00  0.00     0.029 A 
HETATM    2  C8  UNL     1     -17.342  -7.020  13.365  1.00  0.00     0.076 A 
HETATM    3  C9  UNL     1     -18.037  -6.054  14.039  1.00  0.00     0.124 A 
HETATM    4  N4  UNL     1     -17.161  -5.062  14.252  1.00  0.00    -0.285 N 
ATOM      5  H4  UNL     1     -17.367  -4.187  14.735  1.00  0.00     0.188 HD
HETATM    6  N5  UNL     1     -15.963  -5.399  13.727  1.00  0.00    -0.303 N 
ATOM      7  H5  UNL     1     -15.132  -4.809  13.760  1.00  0.00     0.186 HD
ENDROOT
BRANCH   3   8
HETATM    8  N1  UNL     1     -19.394  -6.006  14.471  1.00  0.00    -0.308 N 
HETATM    9  C10 UNL     1     -20.308  -7.075  14.332  1.00  0.00     0.257 C 
HETATM   10  O2  UNL     1     -19.914  -8.152  13.791  1.00  0.00    -0.267 OA
ATOM     11  H1  UNL     1     -19.727  -5.146  14.907  1.00  0.00     0.170 HD
BRANCH   9  12
HETATM   12  C11 UNL     1     -21.701  -7.052  14.766  1.00  0.00     0.032 A 
HETATM   13  C12 UNL     1     -22.669  -7.794  14.118  1.00  0.00     0.019 A 
HETATM   14  C13 UNL     1     -23.955  -7.741  14.568  1.00  0.00     0.030 A 
HETATM   15  C14 UNL     1     -24.352  -6.972  15.657  1.00  0.00     0.030 A 
HETATM   16  C21 UNL     1     -23.377  -6.248  16.281  1.00  0.00     0.030 A 
HETATM   17  C22 UNL     1     -22.052  -6.284  15.841  1.00  0.00     0.019 A 
BRANCH  15  18
HETATM   18  N2  UNL     1     -25.712  -6.949  16.082  1.00  0.00    -0.377 N 
HETATM   19  C15 UNL     1     -26.700  -6.481  15.131  1.00  0.00     0.147 C 
HETATM   20  C16 UNL     1     -27.884  -5.974  15.925  1.00  0.00     0.091 C 
HETATM   21  C17 UNL     1     -27.614  -4.698  16.647  1.00  0.00     0.033 C 
HETATM   22  N3  UNL     1     -28.373  -7.030  16.738  1.00  0.00    -0.411 N 
HETATM   23  C18 UNL     1     -27.473  -7.562  17.692  1.00  0.00     0.091 C 
ATOM     24  H3  UNL     1     -29.324  -7.387  16.640  1.00  0.00     0.154 HD
HETATM   25  C19 UNL     1     -27.756  -7.069  19.114  1.00  0.00     0.033 C 
HETATM   26  C20 UNL     1     -26.020  -7.388  17.408  1.00  0.00     0.147 C 
ENDBRANCH  15  18
ENDBRANCH   9  12
ENDBRANCH   3   8
BRANCH   1  27
HETATM   27  C6  UNL     1     -15.017  -7.425  12.510  1.00  0.00     0.063 C 
BRANCH  27  28
HETATM   28  C5  UNL     1     -14.867  -7.354  11.050  1.00  0.00     0.045 C 
BRANCH  28  29
HETATM   29  C4  UNL     1     -13.533  -7.168  10.494  1.00  0.00    -0.052 A 
HETATM   30  C3  UNL     1     -12.413  -7.766  10.981  1.00  0.00     0.044 A 
HETATM   31  C2  UNL     1     -11.149  -7.544  10.441  1.00  0.00     0.071 A 
HETATM   32  C26 UNL     1     -11.005  -6.694   9.375  1.00  0.00     0.073 A 
HETATM   33  C24 UNL     1     -12.112  -6.068   8.849  1.00  0.00     0.071 A 
HETATM   34  C23 UNL     1     -13.337  -6.305   9.401  1.00  0.00     0.044 A 
BRANCH  31  35
HETATM   35  O1  UNL     1     -10.009  -8.157  10.944  1.00  0.00    -0.356 OA
HETATM   36  C1  UNL     1      -8.836  -8.099  10.160  1.00  0.00     0.210 C 
ENDBRANCH  31  35
BRANCH  33  37
HETATM   37  O3  UNL     1     -11.922  -5.213   7.767  1.00  0.00    -0.356 OA
HETATM   38  C25 UNL     1     -10.757  -5.208   6.995  1.00  0.00     0.210 C 
ENDBRANCH  33  37
ENDBRANCH  28  29
ENDBRANCH  27  28
ENDBRANCH   1  27
TORSDOF 8
ENDMDL
