MODEL 1
REMARK VINA RESULT: -10.791345026      0.000      0.000
REMARK  8 active torsions:
REMARK  status: ('A' for Active; 'I' for Inactive)
REMARK    1  A    between atoms: O1_2  and  C2_3 
REMARK    2  A    between atoms: C4_5  and  C5_6 
REMARK    3  A    between atoms: C5_6  and  C6_7 
REMARK    4  A    between atoms: C6_7  and  C7_8 
REMARK    5  A    between atoms: C9_10  and  N1_11 
REMARK       I    between atoms: N1_11  and  C10_13 
REMARK    6  A    between atoms: C10_13  and  C11_15 
REMARK    7  A    between atoms: C14_18  and  N2_19 
REMARK    8  A    between atoms: C24_35  and  O3_36 
ROOT
HETATM    1  C7  UNL     1     -16.038  -6.562  13.180  1.00  0.00     0.029 A 
HETATM    2  C8  UNL     1     -17.381  -6.984  13.282  1.00  0.00     0.076 A 
HETATM    3  C9  UNL     1     -18.092  -6.086  14.029  1.00  0.00     0.124 A 
HETATM    4  N4  UNL     1     -17.216  -5.136  14.381  1.00  0.00    -0.285 N 
ATOM      5  H4  UNL     1     -17.432  -4.316  14.949  1.00  0.00     0.188 HD
HETATM    6  N5  UNL     1     -16.001  -5.432  13.870  1.00  0.00    -0.303 N 
ATOM      7  H5  UNL     1     -15.166  -4.861  13.999  1.00  0.00     0.186 HD
ENDROOT
BRANCH   3   8
HETATM    8  N1  UNL     1     -19.465  -6.066  14.410  1.00  0.00    -0.308 N 
HETATM    9  C10 UNL     1     -20.358  -7.145  14.219  1.00  0.00     0.257 C 
HETATM   10  O2  UNL     1     -19.928  -8.206  13.673  1.00  0.00    -0.267 OA
ATOM     11  H1  UNL     1     -19.826  -5.219  14.849  1.00  0.00     0.170 HD
BRANCH   9  12
HETATM   12  C11 UNL     1     -21.765  -7.150  14.600  1.00  0.00     0.032 A 
HETATM   13  C12 UNL     1     -22.221  -6.423  15.683  1.00  0.00     0.019 A 
HETATM   14  C13 UNL     1     -23.548  -6.458  15.993  1.00  0.00     0.030 A 
HETATM   15  C14 UNL     1     -24.482  -7.196  15.272  1.00  0.00     0.030 A 
HETATM   16  C21 UNL     1     -24.007  -7.907  14.208  1.00  0.00     0.030 A 
HETATM   17  C22 UNL     1     -22.653  -7.888  13.867  1.00  0.00     0.019 A 
BRANCH  15  18
HETATM   18  N2  UNL     1     -25.858  -7.202  15.644  1.00  0.00    -0.377 N 
HETATM   19  C15 UNL     1     -26.252  -8.083  16.724  1.00  0.00     0.147 C 
HETATM   20  C16 UNL     1     -27.724  -8.384  16.544  1.00  0.00     0.091 C 
HETATM   21  C17 UNL     1     -28.011  -9.275  15.384  1.00  0.00     0.033 C 
HETATM   22  N3  UNL     1     -28.444  -7.161  16.554  1.00  0.00    -0.411 N 
HETATM   23  C18 UNL     1     -28.118  -6.229  15.540  1.00  0.00     0.091 C 
ATOM     24  H3  UNL     1     -29.159  -6.964  17.255  1.00  0.00     0.154 HD
HETATM   25  C19 UNL     1     -29.151  -6.196  14.410  1.00  0.00     0.033 C 
HETATM   26  C20 UNL     1     -26.758  -6.344  14.939  1.00  0.00     0.147 C 
ENDBRANCH  15  18
ENDBRANCH   9  12
ENDBRANCH   3   8
BRANCH   1  27
HETATM   27  C6  UNL     1     -15.028  -7.328  12.479  1.00  0.00     0.063 C 
BRANCH  27  28
HETATM   28  C5  UNL     1     -14.937  -7.235  11.015  1.00  0.00     0.045 C 
BRANCH  28  29
HETATM   29  C4  UNL     1     -13.635  -6.985  10.411  1.00  0.00    -0.052 A 
HETATM   30  C3  UNL     1     -13.432  -6.155   9.354  1.00  0.00     0.044 A 
HETATM   31  C2  UNL     1     -12.176  -5.959   8.784  1.00  0.00     0.071 A 
HETATM   32  C26 UNL     1     -11.088  -6.619   9.295  1.00  0.00     0.073 A 
HETATM   33  C24 UNL     1     -11.247  -7.468  10.366  1.00  0.00     0.071 A 
HETATM   34  C23 UNL     1     -12.491  -7.639  10.902  1.00  0.00     0.044 A 
BRANCH  31  35
HETATM   35  O1  UNL     1     -11.975  -5.111   7.703  1.00  0.00    -0.356 OA
HETATM   36  C1  UNL     1     -10.781  -5.264   6.965  1.00  0.00     0.210 C 
ENDBRANCH  31  35
BRANCH  33  37
HETATM   37  O3  UNL     1     -10.117  -8.117  10.855  1.00  0.00    -0.356 OA
HETATM   38  C25 UNL     1      -8.888  -8.111  10.190  1.00  0.00     0.210 C 
ENDBRANCH  33  37
ENDBRANCH  28  29
ENDBRANCH  27  28
ENDBRANCH   1  27
TORSDOF 8
ENDMDL
