MODEL 2
REMARK VINA RESULT: -10.308314416      2.668     11.695
REMARK  4 active torsions:
REMARK  status: ('A' for Active; 'I' for Inactive)
REMARK    1  A    between atoms: N5_13  and  C6_14 
REMARK    2  A    between atoms: C13_32  and  O10_33 
REMARK    3  A    between atoms: C14_36  and  N6_37 
REMARK    4  A    between atoms: C20_50  and  O12_51 
ROOT
HETATM    1  C6  UNL     1      61.698  79.746 -95.561  1.00  0.00     0.262 C 
HETATM    2  O1  UNL     1      60.969  80.135 -94.443  1.00  0.00    -0.353 OA
HETATM    3  C7  UNL     1      60.889  78.883 -93.772  1.00  0.00     0.180 C 
HETATM    4  C8  UNL     1      60.436  79.149 -92.349  1.00  0.00     0.216 C 
HETATM    5  O2  UNL     1      60.990  78.317 -91.430  1.00  0.00    -0.287 OA
HETATM    6  P1  UNL     1      59.826  77.724 -90.371  1.00  0.00     0.408 P 
HETATM    7  O3  UNL     1      58.524  78.727 -90.073  1.00  0.00    -0.624 OA
HETATM    8  O4  UNL     1      60.621  78.387 -89.230  1.00  0.00    -0.624 OA
HETATM    9  O5  UNL     1      59.889  76.252 -89.743  1.00  0.00    -0.279 OA
HETATM   10  C9  UNL     1      60.409  75.194 -90.389  1.00  0.00     0.198 C 
HETATM   11  C10 UNL     1      59.655  74.623 -91.537  1.00  0.00     0.180 C 
HETATM   12  C11 UNL     1      60.530  73.940 -92.583  1.00  0.00     0.216 C 
HETATM   13  O6  UNL     1      61.710  74.600 -92.675  1.00  0.00    -0.287 OA
HETATM   14  P2  UNL     1      62.027  75.754 -93.622  1.00  0.00     0.408 P 
HETATM   15  O7  UNL     1      63.078  76.354 -92.499  1.00  0.00    -0.624 OA
HETATM   16  O8  UNL     1      60.442  76.214 -93.567  1.00  0.00    -0.624 OA
HETATM   17  O9  UNL     1      62.254  76.998 -94.516  1.00  0.00    -0.279 OA
HETATM   18  C12 UNL     1      62.236  78.269 -93.891  1.00  0.00     0.198 C 
HETATM   19  C13 UNL     1      62.929  79.159 -94.899  1.00  0.00     0.199 C 
HETATM   20  O11 UNL     1      58.827  73.601 -91.047  1.00  0.00    -0.353 OA
HETATM   21  C14 UNL     1      58.840  73.653 -89.682  1.00  0.00     0.262 C 
HETATM   22  C20 UNL     1      60.303  74.009 -89.396  1.00  0.00     0.199 C 
ENDROOT
BRANCH   1  23
HETATM   23  N5  UNL     1      61.972  80.779 -96.484  1.00  0.00    -0.297 N 
HETATM   24  C3  UNL     1      61.935  82.104 -96.189  1.00  0.00     0.142 A 
HETATM   25  N3  UNL     1      61.652  82.762 -95.035  1.00  0.00    -0.336 N 
HETATM   26  C4  UNL     1      62.246  82.835 -97.287  1.00  0.00     0.119 A 
HETATM   27  C2  UNL     1      61.672  84.099 -94.956  1.00  0.00     0.183 A 
ATOM     28  H3  UNL     1      61.417  82.221 -94.203  1.00  0.00     0.168 HD
HETATM   29  N2  UNL     1      61.979  84.813 -96.042  1.00  0.00    -0.339 N 
HETATM   30  C1  UNL     1      62.271  84.229 -97.220  1.00  0.00     0.148 A 
ATOM     31  H2  UNL     1      61.993  85.831 -95.977  1.00  0.00     0.167 HD
HETATM   32  N1  UNL     1      62.596  84.947 -98.379  1.00  0.00    -0.080 NA
HETATM   33  N4  UNL     1      62.481  81.955 -98.284  1.00  0.00    -0.346 N 
HETATM   34  C5  UNL     1      62.309  80.720 -97.774  1.00  0.00     0.188 A 
ATOM     35  H4  UNL     1      62.739  82.183 -99.244  1.00  0.00     0.167 HD
ENDBRANCH   1  23
BRANCH  19  36
HETATM   36  O10 UNL     1      63.721  78.466 -95.795  1.00  0.00    -0.388 OA
ATOM     37  H10 UNL     1      64.618  78.385 -95.491  1.00  0.00     0.210 HD
ENDBRANCH  19  36
BRANCH  22  38
HETATM   38  O12 UNL     1      60.437  74.426 -88.097  1.00  0.00    -0.388 OA
ATOM     39  H12 UNL     1      61.271  74.856 -87.952  1.00  0.00     0.210 HD
ENDBRANCH  22  38
BRANCH  21  40
HETATM   40  N6  UNL     1      58.461  72.412 -89.090  1.00  0.00    -0.297 N 
HETATM   41  C15 UNL     1      57.875  72.332 -87.859  1.00  0.00     0.188 A 
HETATM   42  N7  UNL     1      57.628  71.061 -87.553  1.00  0.00    -0.346 N 
HETATM   43  C16 UNL     1      58.057  70.323 -88.589  1.00  0.00     0.119 A 
ATOM     44  H7  UNL     1      57.195  70.713 -86.696  1.00  0.00     0.167 HD
HETATM   45  C17 UNL     1      58.037  68.960 -88.778  1.00  0.00     0.148 A 
HETATM   46  C19 UNL     1      58.574  71.167 -89.541  1.00  0.00     0.142 A 
HETATM   47  N8  UNL     1      57.501  68.115 -87.784  1.00  0.00    -0.080 NA
HETATM   48  N9  UNL     1      58.545  68.476 -89.936  1.00  0.00    -0.339 N 
HETATM   49  C18 UNL     1      59.048  69.316 -90.861  1.00  0.00     0.183 A 
ATOM     50  H9  UNL     1      58.548  67.470 -90.108  1.00  0.00     0.167 HD
HETATM   51  N10 UNL     1      59.064  70.656 -90.666  1.00  0.00    -0.336 N 
ATOM     52  H10 UNL     1      59.451  71.273 -91.381  1.00  0.00     0.168 HD
ENDBRANCH  21  40
TORSDOF 4
ENDMDL
