MODEL 1
REMARK VINA RESULT: -10.323533570      0.000      0.000
REMARK  4 active torsions:
REMARK  status: ('A' for Active; 'I' for Inactive)
REMARK    1  A    between atoms: N5_13  and  C6_14 
REMARK    2  A    between atoms: C13_32  and  O10_33 
REMARK    3  A    between atoms: C14_36  and  N6_37 
REMARK    4  A    between atoms: C20_50  and  O12_51 
ROOT
HETATM    1  C6  UNL     1      59.259  72.199 -88.499  1.00  0.00     0.262 C 
HETATM    2  O1  UNL     1      60.461  71.863 -89.113  1.00  0.00    -0.353 OA
HETATM    3  C7  UNL     1      60.573  72.956 -90.018  1.00  0.00     0.180 C 
HETATM    4  C8  UNL     1      61.995  72.977 -90.544  1.00  0.00     0.216 C 
HETATM    5  O2  UNL     1      62.483  74.226 -90.760  1.00  0.00    -0.287 OA
HETATM    6  P1  UNL     1      63.248  74.325 -92.255  1.00  0.00     0.408 P 
HETATM    7  O3  UNL     1      63.965  72.922 -92.809  1.00  0.00    -0.624 OA
HETATM    8  O4  UNL     1      64.535  74.705 -91.497  1.00  0.00    -0.624 OA
HETATM    9  O5  UNL     1      63.227  75.649 -93.158  1.00  0.00    -0.279 OA
HETATM   10  C9  UNL     1      62.194  76.508 -93.187  1.00  0.00     0.198 C 
HETATM   11  C10 UNL     1      60.936  76.083 -93.859  1.00  0.00     0.180 C 
HETATM   12  C11 UNL     1      59.678  76.745 -93.307  1.00  0.00     0.216 C 
HETATM   13  O6  UNL     1      59.824  76.935 -91.973  1.00  0.00    -0.287 OA
HETATM   14  P2  UNL     1      59.413  75.961 -90.873  1.00  0.00     0.408 P 
HETATM   15  O7  UNL     1      60.650  76.532 -89.940  1.00  0.00    -0.624 OA
HETATM   16  O8  UNL     1      59.698  74.701 -91.902  1.00  0.00    -0.624 OA
HETATM   17  O9  UNL     1      59.091  74.886 -89.806  1.00  0.00    -0.279 OA
HETATM   18  C12 UNL     1      60.175  74.163 -89.251  1.00  0.00     0.198 C 
HETATM   19  C13 UNL     1      59.591  73.585 -87.981  1.00  0.00     0.199 C 
HETATM   20  O11 UNL     1      60.998  76.501 -95.197  1.00  0.00    -0.353 OA
HETATM   21  C14 UNL     1      62.267  76.936 -95.455  1.00  0.00     0.262 C 
HETATM   22  C20 UNL     1      62.627  77.645 -94.146  1.00  0.00     0.199 C 
ENDROOT
BRANCH   1  23
HETATM   23  N5  UNL     1      58.824  71.297 -87.506  1.00  0.00    -0.297 N 
HETATM   24  C3  UNL     1      58.364  70.043 -87.753  1.00  0.00     0.142 A 
HETATM   25  N3  UNL     1      58.203  69.356 -88.914  1.00  0.00    -0.336 N 
HETATM   26  C4  UNL     1      58.025  69.432 -86.592  1.00  0.00     0.119 A 
HETATM   27  C2  UNL     1      57.724  68.105 -88.939  1.00  0.00     0.183 A 
ATOM     28  H3  UNL     1      58.455  69.806 -89.794  1.00  0.00     0.168 HD
HETATM   29  N2  UNL     1      57.393  67.510 -87.791  1.00  0.00    -0.339 N 
HETATM   30  C1  UNL     1      57.525  68.129 -86.602  1.00  0.00     0.148 A 
ATOM     31  H2  UNL     1      57.028  66.557 -87.815  1.00  0.00     0.167 HD
HETATM   32  N1  UNL     1      57.187  67.534 -85.379  1.00  0.00    -0.080 NA
HETATM   33  N4  UNL     1      58.277  70.316 -85.603  1.00  0.00    -0.346 N 
HETATM   34  C5  UNL     1      58.758  71.434 -86.179  1.00  0.00     0.188 A 
ATOM     35  H4  UNL     1      58.129  70.165 -84.605  1.00  0.00     0.167 HD
ENDBRANCH   1  23
BRANCH  19  36
HETATM   36  O10 UNL     1      58.468  74.255 -87.535  1.00  0.00    -0.388 OA
ATOM     37  H10 UNL     1      57.688  73.715 -87.579  1.00  0.00     0.210 HD
ENDBRANCH  19  36
BRANCH  22  38
HETATM   38  O12 UNL     1      63.980  77.864 -94.089  1.00  0.00    -0.388 OA
ATOM     39  H12 UNL     1      64.466  77.146 -94.476  1.00  0.00     0.210 HD
ENDBRANCH  22  38
BRANCH  21  40
HETATM   40  N6  UNL     1      62.320  77.815 -96.577  1.00  0.00    -0.297 N 
HETATM   41  C15 UNL     1      61.200  78.339 -97.156  1.00  0.00     0.188 A 
HETATM   42  N7  UNL     1      61.537  79.122 -98.178  1.00  0.00    -0.346 N 
HETATM   43  C16 UNL     1      62.877  79.100 -98.255  1.00  0.00     0.119 A 
ATOM     44  H7  UNL     1      60.901  79.640 -98.785  1.00  0.00     0.167 HD
HETATM   45  C17 UNL     1      63.727  79.736 -99.131  1.00  0.00     0.148 A 
HETATM   46  C19 UNL     1      63.359  78.288 -97.259  1.00  0.00     0.142 A 
HETATM   47  N8  UNL     1      63.207  80.566-100.147  1.00  0.00    -0.080 NA
HETATM   48  N9  UNL     1      65.058  79.534 -98.979  1.00  0.00    -0.339 N 
HETATM   49  C18 UNL     1      65.515  78.734 -97.997  1.00  0.00     0.183 A 
ATOM     50  H9  UNL     1      65.716  79.988 -99.612  1.00  0.00     0.167 HD
HETATM   51  N10 UNL     1      64.671  78.112 -97.140  1.00  0.00    -0.336 N 
ATOM     52  H10 UNL     1      65.041  77.509 -96.404  1.00  0.00     0.168 HD
ENDBRANCH  21  40
TORSDOF 4
ENDMDL
