MODEL 3
REMARK VINA RESULT: -10.072427776      1.106     11.548
REMARK  4 active torsions:
REMARK  status: ('A' for Active; 'I' for Inactive)
REMARK    1  A    between atoms: N5_13  and  C6_14 
REMARK    2  A    between atoms: C13_32  and  O10_33 
REMARK    3  A    between atoms: C14_36  and  N6_37 
REMARK    4  A    between atoms: C20_50  and  O12_51 
ROOT
HETATM    1  C6  UNL     1      63.292  76.996 -95.568  1.00  0.00     0.262 C 
HETATM    2  O1  UNL     1      62.123  77.509 -95.016  1.00  0.00    -0.353 OA
HETATM    3  C7  UNL     1      61.927  76.563 -93.971  1.00  0.00     0.180 C 
HETATM    4  C8  UNL     1      60.896  77.136 -93.017  1.00  0.00     0.216 C 
HETATM    5  O2  UNL     1      61.117  76.822 -91.715  1.00  0.00    -0.287 OA
HETATM    6  P1  UNL     1      59.700  76.306 -90.968  1.00  0.00     0.408 P 
HETATM    7  O3  UNL     1      58.280  76.962 -91.553  1.00  0.00    -0.624 OA
HETATM    8  O4  UNL     1      59.864  77.487 -89.991  1.00  0.00    -0.624 OA
HETATM    9  O5  UNL     1      59.677  75.186 -89.824  1.00  0.00    -0.279 OA
HETATM   10  C9  UNL     1      60.543  74.159 -89.777  1.00  0.00     0.198 C 
HETATM   11  C10 UNL     1      60.408  73.070 -90.783  1.00  0.00     0.180 C 
HETATM   12  C11 UNL     1      61.714  72.353 -91.107  1.00  0.00     0.216 C 
HETATM   13  O6  UNL     1      62.736  73.241 -91.051  1.00  0.00    -0.287 OA
HETATM   14  P2  UNL     1      63.273  74.074 -92.212  1.00  0.00     0.408 P 
HETATM   15  O7  UNL     1      63.682  75.260 -91.139  1.00  0.00    -0.624 OA
HETATM   16  O8  UNL     1      61.764  74.083 -92.883  1.00  0.00    -0.624 OA
HETATM   17  O9  UNL     1      63.696  74.981 -93.393  1.00  0.00    -0.279 OA
HETATM   18  C12 UNL     1      63.265  76.331 -93.373  1.00  0.00     0.198 C 
HETATM   19  C13 UNL     1      64.199  77.005 -94.354  1.00  0.00     0.199 C 
HETATM   20  O11 UNL     1      59.584  72.075 -90.237  1.00  0.00    -0.353 OA
HETATM   21  C14 UNL     1      59.024  72.560 -89.089  1.00  0.00     0.262 C 
HETATM   22  C20 UNL     1      60.181  73.369 -88.494  1.00  0.00     0.199 C 
ENDROOT
BRANCH   1  23
HETATM   23  N5  UNL     1      63.795  77.715 -96.674  1.00  0.00    -0.297 N 
HETATM   24  C3  UNL     1      63.026  78.389 -97.567  1.00  0.00     0.142 A 
HETATM   25  N3  UNL     1      61.681  78.556 -97.652  1.00  0.00    -0.336 N 
HETATM   26  C4  UNL     1      63.807  78.972 -98.509  1.00  0.00     0.119 A 
HETATM   27  C2  UNL     1      61.114  79.273 -98.632  1.00  0.00     0.183 A 
ATOM     28  H3  UNL     1      61.083  78.121 -96.949  1.00  0.00     0.168 HD
HETATM   29  N2  UNL     1      61.890  79.844 -99.556  1.00  0.00    -0.339 N 
HETATM   30  C1  UNL     1      63.231  79.723 -99.535  1.00  0.00     0.148 A 
ATOM     31  H2  UNL     1      61.454  80.389-100.300  1.00  0.00     0.167 HD
HETATM   32  N1  UNL     1      64.075  80.308-100.489  1.00  0.00    -0.080 NA
HETATM   33  N4  UNL     1      65.084  78.658 -98.201  1.00  0.00    -0.346 N 
HETATM   34  C5  UNL     1      65.050  77.898 -97.089  1.00  0.00     0.188 A 
ATOM     35  H4  UNL     1      65.918  78.943 -98.714  1.00  0.00     0.167 HD
ENDBRANCH   1  23
BRANCH  19  36
HETATM   36  O10 UNL     1      65.369  76.303 -94.574  1.00  0.00    -0.388 OA
ATOM     37  H10 UNL     1      66.094  76.649 -94.066  1.00  0.00     0.210 HD
ENDBRANCH  19  36
BRANCH  22  38
HETATM   38  O12 UNL     1      59.713  74.198 -87.507  1.00  0.00    -0.388 OA
ATOM     39  H12 UNL     1      58.804  74.016 -87.300  1.00  0.00     0.210 HD
ENDBRANCH  22  38
BRANCH  21  40
HETATM   40  N6  UNL     1      58.588  71.519 -88.218  1.00  0.00    -0.297 N 
HETATM   41  C15 UNL     1      58.354  71.722 -86.888  1.00  0.00     0.188 A 
HETATM   42  N7  UNL     1      57.960  70.587 -86.315  1.00  0.00    -0.346 N 
HETATM   43  C16 UNL     1      57.941  69.654 -87.280  1.00  0.00     0.119 A 
ATOM     44  H7  UNL     1      57.718  70.452 -85.333  1.00  0.00     0.167 HD
HETATM   45  C17 UNL     1      57.608  68.319 -87.220  1.00  0.00     0.148 A 
HETATM   46  C19 UNL     1      58.332  70.237 -88.460  1.00  0.00     0.142 A 
HETATM   47  N8  UNL     1      57.210  67.743 -85.995  1.00  0.00    -0.080 NA
HETATM   48  N9  UNL     1      57.679  67.598 -88.364  1.00  0.00    -0.339 N 
HETATM   49  C18 UNL     1      58.063  68.185 -89.514  1.00  0.00     0.183 A 
ATOM     50  H9  UNL     1      57.441  66.607 -88.355  1.00  0.00     0.167 HD
HETATM   51  N10 UNL     1      58.390  69.499 -89.564  1.00  0.00    -0.336 N 
ATOM     52  H10 UNL     1      58.680  69.921 -90.446  1.00  0.00     0.168 HD
ENDBRANCH  21  40
TORSDOF 4
ENDMDL
