MODEL 2
REMARK VINA RESULT: -9.974597808      2.013      2.136
REMARK  4 active torsions:
REMARK  status: ('A' for Active; 'I' for Inactive)
REMARK    1  A    between atoms: N5_13  and  C6_14 
REMARK    2  A    between atoms: C13_32  and  O10_33 
REMARK    3  A    between atoms: C14_36  and  N6_37 
REMARK    4  A    between atoms: C20_50  and  O12_51 
ROOT
HETATM    1  C6  UNL     1      45.451   9.861 -15.375  1.00  0.00     0.262 C 
HETATM    2  O1  UNL     1      45.234  11.068 -14.689  1.00  0.00    -0.353 OA
HETATM    3  C7  UNL     1      43.824  11.102 -14.698  1.00  0.00     0.180 C 
HETATM    4  C8  UNL     1      43.299  12.270 -13.902  1.00  0.00     0.216 C 
HETATM    5  O2  UNL     1      41.915  12.124 -13.824  1.00  0.00    -0.287 OA
HETATM    6  P1  UNL     1      41.169  12.563 -15.263  1.00  0.00     0.408 P 
HETATM    7  O3  UNL     1      41.789  13.870 -15.733  1.00  0.00    -0.624 OA
HETATM    8  O4  UNL     1      41.313  11.367 -16.453  1.00  0.00    -0.624 OA
HETATM    9  O5  UNL     1      39.511  12.802 -15.004  1.00  0.00    -0.279 OA
HETATM   10  C9  UNL     1      38.999  11.821 -14.159  1.00  0.00     0.198 C 
HETATM   11  C10 UNL     1      38.750  10.518 -14.827  1.00  0.00     0.180 C 
HETATM   12  C11 UNL     1      39.285   9.396 -13.938  1.00  0.00     0.216 C 
HETATM   13  O6  UNL     1      39.904   9.902 -12.797  1.00  0.00    -0.287 OA
HETATM   14  P2  UNL     1      41.456   9.232 -12.685  1.00  0.00     0.408 P 
HETATM   15  O7  UNL     1      42.242   9.886 -11.573  1.00  0.00    -0.624 OA
HETATM   16  O8  UNL     1      41.259   7.586 -12.331  1.00  0.00    -0.624 OA
HETATM   17  O9  UNL     1      42.211   9.390 -14.183  1.00  0.00    -0.279 OA
HETATM   18  C12 UNL     1      43.522   9.779 -14.024  1.00  0.00     0.198 C 
HETATM   19  C13 UNL     1      44.501   8.863 -14.744  1.00  0.00     0.199 C 
HETATM   20  O11 UNL     1      37.415  10.364 -15.059  1.00  0.00    -0.353 OA
HETATM   21  C14 UNL     1      36.769  11.556 -14.812  1.00  0.00     0.262 C 
HETATM   22  C20 UNL     1      37.602  12.264 -13.749  1.00  0.00     0.199 C 
ENDROOT
BRANCH   1  23
HETATM   23  N5  UNL     1      46.797   9.390 -15.223  1.00  0.00    -0.297 N 
HETATM   24  C3  UNL     1      47.240   8.123 -15.242  1.00  0.00     0.142 A 
HETATM   25  N3  UNL     1      46.662   6.940 -15.392  1.00  0.00    -0.336 N 
HETATM   26  C4  UNL     1      48.603   8.177 -15.054  1.00  0.00     0.119 A 
HETATM   27  C2  UNL     1      47.430   5.822 -15.357  1.00  0.00     0.183 A 
ATOM     28  H3  UNL     1      45.654   6.871 -15.530  1.00  0.00     0.168 HD
HETATM   29  N2  UNL     1      48.763   5.866 -15.176  1.00  0.00    -0.339 N 
HETATM   30  C1  UNL     1      49.396   7.041 -15.018  1.00  0.00     0.148 A 
ATOM     31  H2  UNL     1      49.299   4.997 -15.158  1.00  0.00     0.167 HD
HETATM   32  N1  UNL     1      50.796   7.157 -14.822  1.00  0.00    -0.080 NA
HETATM   33  N4  UNL     1      48.958   9.471 -14.928  1.00  0.00    -0.346 N 
HETATM   34  C5  UNL     1      47.850  10.202 -15.031  1.00  0.00     0.188 A 
ATOM     35  H4  UNL     1      49.902   9.826 -14.780  1.00  0.00     0.167 HD
ENDBRANCH   1  23
BRANCH  19  36
HETATM   36  O10 UNL     1      43.802   8.223 -15.755  1.00  0.00    -0.388 OA
ATOM     37  H10 UNL     1      42.920   8.049 -15.447  1.00  0.00     0.210 HD
ENDBRANCH  19  36
BRANCH  22  38
HETATM   38  O12 UNL     1      37.510  13.651 -13.885  1.00  0.00    -0.388 OA
ATOM     39  H12 UNL     1      36.890  13.852 -14.576  1.00  0.00     0.210 HD
ENDBRANCH  22  38
BRANCH  21  40
HETATM   40  N6  UNL     1      35.416  11.339 -14.326  1.00  0.00    -0.297 N 
HETATM   41  C15 UNL     1      34.420  12.223 -14.182  1.00  0.00     0.188 A 
HETATM   42  N7  UNL     1      33.323  11.617 -13.699  1.00  0.00    -0.346 N 
HETATM   43  C16 UNL     1      33.601  10.319 -13.523  1.00  0.00     0.119 A 
ATOM     44  H7  UNL     1      32.430  12.068 -13.501  1.00  0.00     0.167 HD
HETATM   45  C17 UNL     1      32.879   9.236 -13.065  1.00  0.00     0.148 A 
HETATM   46  C19 UNL     1      34.912  10.151 -13.916  1.00  0.00     0.142 A 
HETATM   47  N8  UNL     1      31.535   9.370 -12.653  1.00  0.00    -0.080 NA
HETATM   48  N9  UNL     1      33.467   8.014 -13.005  1.00  0.00    -0.339 N 
HETATM   49  C18 UNL     1      34.739   7.854 -13.387  1.00  0.00     0.183 A 
ATOM     50  H9  UNL     1      32.935   7.212 -12.667  1.00  0.00     0.167 HD
HETATM   51  N10 UNL     1      35.426   8.912 -13.829  1.00  0.00    -0.336 N 
ATOM     52  H10 UNL     1      36.395   8.772 -14.115  1.00  0.00     0.168 HD
ENDBRANCH  21  40
TORSDOF 4
ENDMDL
