MODEL 1
REMARK VINA RESULT: -10.112828970      0.000      0.000
REMARK  4 active torsions:
REMARK  status: ('A' for Active; 'I' for Inactive)
REMARK    1  A    between atoms: N5_13  and  C6_14 
REMARK    2  A    between atoms: C13_32  and  O10_33 
REMARK    3  A    between atoms: C14_36  and  N6_37 
REMARK    4  A    between atoms: C20_50  and  O12_51 
ROOT
HETATM    1  C6  UNL     1      46.228   9.574 -13.571  1.00  0.00     0.262 C 
HETATM    2  O1  UNL     1      45.934  10.589 -12.645  1.00  0.00    -0.353 OA
HETATM    3  C7  UNL     1      44.554  10.747 -12.891  1.00  0.00     0.180 C 
HETATM    4  C8  UNL     1      43.934  11.725 -11.924  1.00  0.00     0.216 C 
HETATM    5  O2  UNL     1      42.555  11.685 -12.129  1.00  0.00    -0.287 OA
HETATM    6  P1  UNL     1      42.116  12.529 -13.513  1.00  0.00     0.408 P 
HETATM    7  O3  UNL     1      42.866  13.851 -13.515  1.00  0.00    -0.624 OA
HETATM    8  O4  UNL     1      42.436  11.654 -14.927  1.00  0.00    -0.624 OA
HETATM    9  O5  UNL     1      40.450  12.841 -13.494  1.00  0.00    -0.279 OA
HETATM   10  C9  UNL     1      39.747  11.731 -13.033  1.00  0.00     0.198 C 
HETATM   11  C10 UNL     1      39.577  10.658 -14.047  1.00  0.00     0.180 C 
HETATM   12  C11 UNL     1      39.887   9.310 -13.398  1.00  0.00     0.216 C 
HETATM   13  O6  UNL     1      40.298   9.464 -12.076  1.00  0.00    -0.287 OA
HETATM   14  P2  UNL     1      41.771   8.654 -11.872  1.00  0.00     0.408 P 
HETATM   15  O7  UNL     1      42.357   8.943 -10.510  1.00  0.00    -0.624 OA
HETATM   16  O8  UNL     1      41.444   6.995 -11.995  1.00  0.00    -0.624 OA
HETATM   17  O9  UNL     1      42.804   9.108 -13.124  1.00  0.00    -0.279 OA
HETATM   18  C12 UNL     1      44.076   9.330 -12.644  1.00  0.00     0.198 C 
HETATM   19  C13 UNL     1      45.136   8.537 -13.394  1.00  0.00     0.199 C 
HETATM   20  O11 UNL     1      38.306  10.684 -14.540  1.00  0.00    -0.353 OA
HETATM   21  C14 UNL     1      37.674  11.831 -14.110  1.00  0.00     0.262 C 
HETATM   22  C20 UNL     1      38.317  12.180 -12.773  1.00  0.00     0.199 C 
ENDROOT
BRANCH   1  23
HETATM   23  N5  UNL     1      47.500   8.963 -13.314  1.00  0.00    -0.297 N 
HETATM   24  C3  UNL     1      47.951   8.436 -12.165  1.00  0.00     0.142 A 
HETATM   25  N3  UNL     1      47.446   8.292 -10.949  1.00  0.00    -0.336 N 
HETATM   26  C4  UNL     1      49.225   7.974 -12.414  1.00  0.00     0.119 A 
HETATM   27  C2  UNL     1      48.196   7.694  -9.989  1.00  0.00     0.183 A 
ATOM     28  H3  UNL     1      46.506   8.626 -10.737  1.00  0.00     0.168 HD
HETATM   29  N2  UNL     1      49.441   7.239 -10.224  1.00  0.00    -0.339 N 
HETATM   30  C1  UNL     1      49.999   7.362 -11.441  1.00  0.00     0.148 A 
ATOM     31  H2  UNL     1      49.967   6.796  -9.470  1.00  0.00     0.167 HD
HETATM   32  N1  UNL     1      51.305   6.905 -11.755  1.00  0.00    -0.080 NA
HETATM   33  N4  UNL     1      49.518   8.229 -13.704  1.00  0.00    -0.346 N 
HETATM   34  C5  UNL     1      48.462   8.832 -14.244  1.00  0.00     0.188 A 
ATOM     35  H4  UNL     1      50.391   8.001 -14.180  1.00  0.00     0.167 HD
ENDBRANCH   1  23
BRANCH  19  36
HETATM   36  O10 UNL     1      44.617   8.230 -14.641  1.00  0.00    -0.388 OA
ATOM     37  H10 UNL     1      44.254   7.353 -14.608  1.00  0.00     0.210 HD
ENDBRANCH  19  36
BRANCH  22  38
HETATM   38  O12 UNL     1      38.308  13.561 -12.560  1.00  0.00    -0.388 OA
ATOM     39  H12 UNL     1      37.867  13.981 -13.288  1.00  0.00     0.210 HD
ENDBRANCH  22  38
BRANCH  21  40
HETATM   40  N6  UNL     1      36.246  11.620 -13.939  1.00  0.00    -0.297 N 
HETATM   41  C15 UNL     1      35.238  12.483 -14.125  1.00  0.00     0.188 A 
HETATM   42  N7  UNL     1      34.061  11.893 -13.858  1.00  0.00    -0.346 N 
HETATM   43  C16 UNL     1      34.298  10.626 -13.493  1.00  0.00     0.119 A 
ATOM     44  H7  UNL     1      33.144  12.334 -13.923  1.00  0.00     0.167 HD
HETATM   45  C17 UNL     1      33.494   9.571 -13.114  1.00  0.00     0.148 A 
HETATM   46  C19 UNL     1      35.666  10.461 -13.546  1.00  0.00     0.142 A 
HETATM   47  N8  UNL     1      32.090   9.702 -13.049  1.00  0.00    -0.080 NA
HETATM   48  N9  UNL     1      34.059   8.378 -12.797  1.00  0.00    -0.339 N 
HETATM   49  C18 UNL     1      35.387   8.220 -12.848  1.00  0.00     0.183 A 
ATOM     50  H9  UNL     1      33.467   7.596 -12.516  1.00  0.00     0.167 HD
HETATM   51  N10 UNL     1      36.152   9.252 -13.217  1.00  0.00    -0.336 N 
ATOM     52  H10 UNL     1      37.163   9.115 -13.250  1.00  0.00     0.168 HD
ENDBRANCH  21  40
TORSDOF 4
ENDMDL
