MODEL 3
REMARK VINA RESULT: -9.925293838      3.225     10.926
REMARK  4 active torsions:
REMARK  status: ('A' for Active; 'I' for Inactive)
REMARK    1  A    between atoms: N5_13  and  C6_14 
REMARK    2  A    between atoms: C13_32  and  O10_33 
REMARK    3  A    between atoms: C14_36  and  N6_37 
REMARK    4  A    between atoms: C20_50  and  O12_51 
ROOT
HETATM    1  C6  UNL     1      40.313  11.483 -13.037  1.00  0.00     0.262 C 
HETATM    2  O1  UNL     1      40.641  11.380 -11.675  1.00  0.00    -0.353 OA
HETATM    3  C7  UNL     1      41.630  10.376 -11.739  1.00  0.00     0.180 C 
HETATM    4  C8  UNL     1      42.259  10.140 -10.389  1.00  0.00     0.216 C 
HETATM    5  O2  UNL     1      43.329   9.267 -10.583  1.00  0.00    -0.287 OA
HETATM    6  P1  UNL     1      42.802   7.686 -10.792  1.00  0.00     0.408 P 
HETATM    7  O3  UNL     1      41.745   7.401  -9.737  1.00  0.00    -0.624 OA
HETATM    8  O4  UNL     1      42.189   7.414 -12.346  1.00  0.00    -0.624 OA
HETATM    9  O5  UNL     1      44.097   6.613 -10.579  1.00  0.00    -0.279 OA
HETATM   10  C9  UNL     1      45.251   7.109 -11.181  1.00  0.00     0.198 C 
HETATM   11  C10 UNL     1      45.288   6.928 -12.655  1.00  0.00     0.180 C 
HETATM   12  C11 UNL     1      45.760   8.230 -13.302  1.00  0.00     0.216 C 
HETATM   13  O6  UNL     1      45.958   9.229 -12.350  1.00  0.00    -0.287 OA
HETATM   14  P2  UNL     1      45.085  10.602 -12.820  1.00  0.00     0.408 P 
HETATM   15  O7  UNL     1      45.112  11.651 -11.733  1.00  0.00    -0.624 OA
HETATM   16  O8  UNL     1      45.844  11.218 -14.205  1.00  0.00    -0.624 OA
HETATM   17  O9  UNL     1      43.518  10.125 -13.213  1.00  0.00    -0.279 OA
HETATM   18  C12 UNL     1      42.600  11.020 -12.709  1.00  0.00     0.198 C 
HETATM   19  C13 UNL     1      41.641  11.541 -13.768  1.00  0.00     0.199 C 
HETATM   20  O11 UNL     1      46.119   5.895 -12.974  1.00  0.00    -0.353 OA
HETATM   21  C14 UNL     1      46.464   5.217 -11.825  1.00  0.00     0.262 C 
HETATM   22  C20 UNL     1      46.412   6.249 -10.704  1.00  0.00     0.199 C 
ENDROOT
BRANCH   1  23
HETATM   23  N5  UNL     1      39.567  12.673 -13.323  1.00  0.00    -0.297 N 
HETATM   24  C3  UNL     1      39.551  13.828 -12.639  1.00  0.00     0.142 A 
HETATM   25  N3  UNL     1      40.157  14.266 -11.545  1.00  0.00    -0.336 N 
HETATM   26  C4  UNL     1      38.685  14.670 -13.301  1.00  0.00     0.119 A 
HETATM   27  C2  UNL     1      39.907  15.528 -11.114  1.00  0.00     0.183 A 
ATOM     28  H3  UNL     1      40.802  13.664 -11.034  1.00  0.00     0.168 HD
HETATM   29  N2  UNL     1      39.063  16.358 -11.755  1.00  0.00    -0.339 N 
HETATM   30  C1  UNL     1      38.423  15.960 -12.868  1.00  0.00     0.148 A 
ATOM     31  H2  UNL     1      38.907  17.299 -11.393  1.00  0.00     0.167 HD
HETATM   32  N1  UNL     1      37.522  16.783 -13.592  1.00  0.00    -0.080 NA
HETATM   33  N4  UNL     1      38.197  14.011 -14.370  1.00  0.00    -0.346 N 
HETATM   34  C5  UNL     1      38.739  12.796 -14.375  1.00  0.00     0.188 A 
ATOM     35  H4  UNL     1      37.532  14.377 -15.052  1.00  0.00     0.167 HD
ENDBRANCH   1  23
BRANCH  19  36
HETATM   36  O10 UNL     1      41.616  10.613 -14.796  1.00  0.00    -0.388 OA
ATOM     37  H10 UNL     1      42.201  10.909 -15.483  1.00  0.00     0.210 HD
ENDBRANCH  19  36
BRANCH  22  38
HETATM   38  O12 UNL     1      46.064   5.652  -9.491  1.00  0.00    -0.388 OA
ATOM     39  H12 UNL     1      46.681   4.955  -9.303  1.00  0.00     0.210 HD
ENDBRANCH  22  38
BRANCH  21  40
HETATM   40  N6  UNL     1      47.799   4.649 -11.921  1.00  0.00    -0.297 N 
HETATM   41  C15 UNL     1      48.241   3.457 -11.498  1.00  0.00     0.188 A 
HETATM   42  N7  UNL     1      49.546   3.315 -11.780  1.00  0.00    -0.346 N 
HETATM   43  C16 UNL     1      49.968   4.428 -12.396  1.00  0.00     0.119 A 
ATOM     44  H7  UNL     1      50.119   2.500 -11.562  1.00  0.00     0.167 HD
HETATM   45  C17 UNL     1      51.182   4.841 -12.905  1.00  0.00     0.148 A 
HETATM   46  C19 UNL     1      48.871   5.258 -12.481  1.00  0.00     0.142 A 
HETATM   47  N8  UNL     1      52.327   4.018 -12.835  1.00  0.00    -0.080 NA
HETATM   48  N9  UNL     1      51.285   6.063 -13.486  1.00  0.00    -0.339 N 
HETATM   49  C18 UNL     1      50.218   6.867 -13.568  1.00  0.00     0.183 A 
ATOM     50  H9  UNL     1      52.181   6.371 -13.863  1.00  0.00     0.167 HD
HETATM   51  N10 UNL     1      49.049   6.453 -13.070  1.00  0.00    -0.336 N 
ATOM     52  H10 UNL     1      48.247   7.079 -13.140  1.00  0.00     0.168 HD
ENDBRANCH  21  40
TORSDOF 4
ENDMDL
