MODEL 2
REMARK VINA RESULT: -9.657796413      3.467      8.282
REMARK  6 active torsions:
REMARK  status: ('A' for Active; 'I' for Inactive)
REMARK    1  A    between atoms: C2_2  and  C4_4 
REMARK    2  A    between atoms: N1_9  and  C8_10 
REMARK    3  A    between atoms: C8_10  and  C9_11 
REMARK    4  A    between atoms: C13_16  and  C14_17 
REMARK       I    between atoms: C14_17  and  N2_19 
REMARK    5  A    between atoms: N2_19  and  C15_21 
REMARK    6  A    between atoms: C15_21  and  C17_23 
ROOT
HETATM    1  C9  UNL     1      36.801  57.775  47.159  1.00  0.00    -0.036 A 
HETATM    2  C10 UNL     1      37.198  56.582  47.677  1.00  0.00     0.051 A 
HETATM    3  C11 UNL     1      36.685  55.418  47.147  1.00  0.00     0.117 A 
HETATM    4  F1  UNL     1      37.103  54.249  47.690  1.00  0.00    -0.206 F 
HETATM    5  C12 UNL     1      35.782  55.459  46.105  1.00  0.00     0.059 A 
HETATM    6  C13 UNL     1      35.363  56.662  45.560  1.00  0.00     0.035 A 
HETATM    7  C23 UNL     1      35.904  57.795  46.125  1.00  0.00     0.026 A 
ENDROOT
BRANCH   1   8
HETATM    8  C8  UNL     1      37.307  59.081  47.673  1.00  0.00     0.173 C 
BRANCH   8   9
HETATM    9  N1  UNL     1      38.664  59.327  47.299  1.00  0.00    -0.288 N 
HETATM   10  C7  UNL     1      39.031  59.825  46.022  1.00  0.00     0.228 C 
HETATM   11  C6  UNL     1      40.376  59.513  45.419  1.00  0.00     0.134 C 
HETATM   12  O1  UNL     1      38.184  60.542  45.408  1.00  0.00    -0.273 OA
HETATM   13  C4  UNL     1      41.412  59.697  46.500  1.00  0.00     0.040 C 
HETATM   14  C5  UNL     1      42.647  58.915  46.093  1.00  0.00     0.039 C 
HETATM   15  N4  UNL     1      40.935  59.325  47.802  1.00  0.00    -0.355 N 
HETATM   16  C24 UNL     1      39.597  59.085  48.161  1.00  0.00     0.194 C 
ATOM     17  H4  UNL     1      41.635  59.226  48.538  1.00  0.00     0.163 HD
HETATM   18  N3  UNL     1      39.271  58.579  49.469  1.00  0.00    -0.063 NA
BRANCH  13  19
HETATM   19  C2  UNL     1      41.756  61.186  46.547  1.00  0.00     0.005 C 
HETATM   20  C1  UNL     1      42.422  61.579  47.829  1.00  0.00     0.012 C 
HETATM   21  C3  UNL     1      42.624  61.590  45.375  1.00  0.00     0.012 C 
ENDBRANCH  13  19
ENDBRANCH   8   9
ENDBRANCH   1   8
BRANCH   6  22
HETATM   22  C14 UNL     1      34.408  56.671  44.461  1.00  0.00     0.252 C 
HETATM   23  O2  UNL     1      34.183  55.587  43.850  1.00  0.00    -0.268 OA
HETATM   24  N2  UNL     1      33.706  57.820  44.020  1.00  0.00    -0.349 N 
ATOM     25  H2  UNL     1      33.863  58.713  44.488  1.00  0.00     0.163 HD
BRANCH  24  26
HETATM   26  C15 UNL     1      32.755  57.747  42.898  1.00  0.00     0.114 C 
HETATM   27  C16 UNL     1      31.377  57.914  43.519  1.00  0.00     0.037 C 
BRANCH  26  28
HETATM   28  C17 UNL     1      33.010  58.809  41.902  1.00  0.00    -0.036 A 
HETATM   29  C18 UNL     1      31.982  59.599  41.435  1.00  0.00     0.009 A 
HETATM   30  C19 UNL     1      32.199  60.596  40.505  1.00  0.00     0.001 A 
HETATM   31  C20 UNL     1      33.459  60.847  40.003  1.00  0.00     0.000 A 
HETATM   32  C21 UNL     1      34.490  60.058  40.469  1.00  0.00     0.001 A 
HETATM   33  C22 UNL     1      34.274  59.053  41.404  1.00  0.00     0.009 A 
ENDBRANCH  26  28
ENDBRANCH  24  26
ENDBRANCH   6  22
TORSDOF 6
ENDMDL
