MODEL 1
REMARK VINA RESULT: -9.878936988      0.000      0.000
REMARK  6 active torsions:
REMARK  status: ('A' for Active; 'I' for Inactive)
REMARK    1  A    between atoms: C2_2  and  C4_4 
REMARK    2  A    between atoms: N1_9  and  C8_10 
REMARK    3  A    between atoms: C8_10  and  C9_11 
REMARK    4  A    between atoms: C13_16  and  C14_17 
REMARK       I    between atoms: C14_17  and  N2_19 
REMARK    5  A    between atoms: N2_19  and  C15_21 
REMARK    6  A    between atoms: C15_21  and  C17_23 
ROOT
HETATM    1  C9  UNL     1      35.718  61.640  41.958  1.00  0.00    -0.036 A 
HETATM    2  C10 UNL     1      36.614  62.454  41.338  1.00  0.00     0.051 A 
HETATM    3  C11 UNL     1      37.796  62.759  41.977  1.00  0.00     0.117 A 
HETATM    4  F1  UNL     1      38.662  63.573  41.328  1.00  0.00    -0.206 F 
HETATM    5  C12 UNL     1      38.070  62.248  43.229  1.00  0.00     0.059 A 
HETATM    6  C13 UNL     1      37.173  61.416  43.880  1.00  0.00     0.035 A 
HETATM    7  C23 UNL     1      36.008  61.142  43.200  1.00  0.00     0.026 A 
ENDROOT
BRANCH   1   8
HETATM    8  C8  UNL     1      34.416  61.259  41.337  1.00  0.00     0.173 C 
BRANCH   8   9
HETATM    9  N1  UNL     1      33.738  60.238  42.072  1.00  0.00    -0.288 N 
HETATM   10  C7  UNL     1      33.938  58.855  41.831  1.00  0.00     0.228 C 
HETATM   11  C6  UNL     1      32.856  57.847  42.119  1.00  0.00     0.134 C 
HETATM   12  O1  UNL     1      35.063  58.499  41.366  1.00  0.00    -0.273 OA
HETATM   13  C4  UNL     1      32.268  58.183  43.467  1.00  0.00     0.040 C 
HETATM   14  C5  UNL     1      30.893  57.549  43.542  1.00  0.00     0.039 C 
HETATM   15  N4  UNL     1      32.233  59.595  43.727  1.00  0.00    -0.355 N 
HETATM   16  C24 UNL     1      32.904  60.592  42.997  1.00  0.00     0.194 C 
ATOM     17  H4  UNL     1      31.666  59.904  44.517  1.00  0.00     0.163 HD
HETATM   18  N3  UNL     1      32.669  61.985  43.276  1.00  0.00    -0.063 NA
BRANCH  13  19
HETATM   19  C2  UNL     1      33.171  57.546  44.525  1.00  0.00     0.005 C 
HETATM   20  C1  UNL     1      32.867  58.036  45.906  1.00  0.00     0.012 C 
HETATM   21  C3  UNL     1      33.084  56.036  44.488  1.00  0.00     0.012 C 
ENDBRANCH  13  19
ENDBRANCH   8   9
ENDBRANCH   1   8
BRANCH   6  22
HETATM   22  C14 UNL     1      37.491  60.893  45.201  1.00  0.00     0.252 C 
HETATM   23  O2  UNL     1      38.442  61.424  45.846  1.00  0.00    -0.268 OA
HETATM   24  N2  UNL     1      36.807  59.821  45.824  1.00  0.00    -0.349 N 
ATOM     25  H2  UNL     1      36.035  59.367  45.335  1.00  0.00     0.163 HD
BRANCH  24  26
HETATM   26  C15 UNL     1      37.191  59.349  47.166  1.00  0.00     0.114 C 
HETATM   27  C16 UNL     1      36.225  60.023  48.128  1.00  0.00     0.037 C 
BRANCH  26  28
HETATM   28  C17 UNL     1      37.091  57.878  47.272  1.00  0.00    -0.036 A 
HETATM   29  C18 UNL     1      36.452  57.144  46.296  1.00  0.00     0.009 A 
HETATM   30  C19 UNL     1      36.348  55.769  46.375  1.00  0.00     0.001 A 
HETATM   31  C20 UNL     1      36.882  55.070  47.437  1.00  0.00     0.000 A 
HETATM   32  C21 UNL     1      37.523  55.803  48.415  1.00  0.00     0.001 A 
HETATM   33  C22 UNL     1      37.628  57.186  48.338  1.00  0.00     0.009 A 
ENDBRANCH  26  28
ENDBRANCH  24  26
ENDBRANCH   6  22
TORSDOF 6
ENDMDL
