MODEL 6
REMARK VINA RESULT: -9.277158294      1.168      1.869
REMARK  6 active torsions:
REMARK  status: ('A' for Active; 'I' for Inactive)
REMARK    1  A    between atoms: C2_2  and  C4_4 
REMARK    2  A    between atoms: N1_9  and  C8_10 
REMARK    3  A    between atoms: C8_10  and  C9_11 
REMARK    4  A    between atoms: C13_16  and  C14_17 
REMARK       I    between atoms: C14_17  and  N2_19 
REMARK    5  A    between atoms: N2_19  and  C15_21 
REMARK    6  A    between atoms: C15_21  and  C17_23 
ROOT
HETATM    1  C9  UNL     1      36.100  61.636  42.094  1.00  0.00    -0.036 A 
HETATM    2  C10 UNL     1      36.981  62.505  41.529  1.00  0.00     0.051 A 
HETATM    3  C11 UNL     1      38.112  62.863  42.231  1.00  0.00     0.117 A 
HETATM    4  F1  UNL     1      38.964  63.731  41.637  1.00  0.00    -0.206 F 
HETATM    5  C12 UNL     1      38.349  62.349  43.489  1.00  0.00     0.059 A 
HETATM    6  C13 UNL     1      37.467  61.462  44.084  1.00  0.00     0.035 A 
HETATM    7  C23 UNL     1      36.353  61.136  43.342  1.00  0.00     0.026 A 
ENDROOT
BRANCH   1   8
HETATM    8  C8  UNL     1      34.853  61.195  41.403  1.00  0.00     0.173 C 
BRANCH   8   9
HETATM    9  N1  UNL     1      34.147  60.192  42.136  1.00  0.00    -0.288 N 
HETATM   10  C7  UNL     1      33.360  60.487  43.279  1.00  0.00     0.228 C 
HETATM   11  C6  UNL     1      33.144  59.463  44.363  1.00  0.00     0.134 C 
HETATM   12  O1  UNL     1      32.845  61.643  43.353  1.00  0.00    -0.273 OA
HETATM   13  C4  UNL     1      32.831  58.148  43.692  1.00  0.00     0.040 C 
HETATM   14  C5  UNL     1      33.122  57.042  44.687  1.00  0.00     0.039 C 
HETATM   15  N4  UNL     1      33.538  57.969  42.455  1.00  0.00    -0.355 N 
HETATM   16  C24 UNL     1      34.230  58.963  41.740  1.00  0.00     0.194 C 
ATOM     17  H4  UNL     1      33.537  57.030  42.056  1.00  0.00     0.163 HD
HETATM   18  N3  UNL     1      35.018  58.619  40.585  1.00  0.00    -0.063 NA
BRANCH  13  19
HETATM   19  C2  UNL     1      31.336  58.151  43.368  1.00  0.00     0.005 C 
HETATM   20  C1  UNL     1      31.055  58.600  41.968  1.00  0.00     0.012 C 
HETATM   21  C3  UNL     1      30.719  56.790  43.603  1.00  0.00     0.012 C 
ENDBRANCH  13  19
ENDBRANCH   8   9
ENDBRANCH   1   8
BRANCH   6  22
HETATM   22  C14 UNL     1      37.746  60.938  45.414  1.00  0.00     0.252 C 
HETATM   23  O2  UNL     1      38.773  61.355  46.022  1.00  0.00    -0.268 OA
HETATM   24  N2  UNL     1      36.943  59.982  46.083  1.00  0.00    -0.349 N 
ATOM     25  H2  UNL     1      36.106  59.621  45.624  1.00  0.00     0.163 HD
BRANCH  24  26
HETATM   26  C15 UNL     1      37.294  59.500  47.430  1.00  0.00     0.114 C 
HETATM   27  C16 UNL     1      36.281  60.137  48.369  1.00  0.00     0.037 C 
BRANCH  26  28
HETATM   28  C17 UNL     1      37.226  58.026  47.512  1.00  0.00    -0.036 A 
HETATM   29  C18 UNL     1      36.596  57.294  46.529  1.00  0.00     0.009 A 
HETATM   30  C19 UNL     1      36.521  55.916  46.587  1.00  0.00     0.001 A 
HETATM   31  C20 UNL     1      37.078  55.211  47.633  1.00  0.00     0.000 A 
HETATM   32  C21 UNL     1      37.710  55.942  48.618  1.00  0.00     0.001 A 
HETATM   33  C22 UNL     1      37.786  57.328  48.563  1.00  0.00     0.009 A 
ENDBRANCH  26  28
ENDBRANCH  24  26
ENDBRANCH   6  22
TORSDOF 6
ENDMDL
