MODEL 4
REMARK VINA RESULT: -9.525509350      2.644      7.062
REMARK  6 active torsions:
REMARK  status: ('A' for Active; 'I' for Inactive)
REMARK    1  A    between atoms: C2_2  and  C4_4 
REMARK    2  A    between atoms: N1_9  and  C8_10 
REMARK    3  A    between atoms: C8_10  and  C9_11 
REMARK    4  A    between atoms: C13_16  and  C14_17 
REMARK       I    between atoms: C14_17  and  N2_19 
REMARK    5  A    between atoms: N2_19  and  C15_21 
REMARK    6  A    between atoms: C15_21  and  C17_23 
ROOT
HETATM    1  C9  UNL     1      33.156  57.276  44.305  1.00  0.00    -0.036 A 
HETATM    2  C10 UNL     1      31.818  57.289  44.061  1.00  0.00     0.051 A 
HETATM    3  C11 UNL     1      31.343  57.988  42.973  1.00  0.00     0.117 A 
HETATM    4  F1  UNL     1      30.004  57.977  42.764  1.00  0.00    -0.206 F 
HETATM    5  C12 UNL     1      32.208  58.666  42.141  1.00  0.00     0.059 A 
HETATM    6  C13 UNL     1      33.575  58.668  42.369  1.00  0.00     0.035 A 
HETATM    7  C23 UNL     1      34.000  57.955  43.468  1.00  0.00     0.026 A 
ENDROOT
BRANCH   1   8
HETATM    8  C8  UNL     1      33.755  56.544  45.459  1.00  0.00     0.173 C 
BRANCH   8   9
HETATM    9  N1  UNL     1      34.942  57.171  45.948  1.00  0.00    -0.288 N 
HETATM   10  C7  UNL     1      34.926  58.398  46.660  1.00  0.00     0.228 C 
HETATM   11  C6  UNL     1      36.106  59.334  46.631  1.00  0.00     0.134 C 
HETATM   12  O1  UNL     1      33.881  58.676  47.323  1.00  0.00    -0.273 OA
HETATM   13  C4  UNL     1      37.351  58.502  46.817  1.00  0.00     0.040 C 
HETATM   14  C5  UNL     1      38.524  59.303  46.284  1.00  0.00     0.039 C 
HETATM   15  N4  UNL     1      37.254  57.205  46.208  1.00  0.00    -0.355 N 
HETATM   16  C24 UNL     1      36.081  56.596  45.730  1.00  0.00     0.194 C 
ATOM     17  H4  UNL     1      38.121  56.675  46.114  1.00  0.00     0.163 HD
HETATM   18  N3  UNL     1      36.144  55.350  45.011  1.00  0.00    -0.063 NA
BRANCH  13  19
HETATM   19  C2  UNL     1      37.532  58.289  48.321  1.00  0.00     0.005 C 
HETATM   20  C1  UNL     1      37.687  56.844  48.679  1.00  0.00     0.012 C 
HETATM   21  C3  UNL     1      38.709  59.078  48.852  1.00  0.00     0.012 C 
ENDBRANCH  13  19
ENDBRANCH   8   9
ENDBRANCH   1   8
BRANCH   6  22
HETATM   22  C14 UNL     1      34.462  59.395  41.472  1.00  0.00     0.252 C 
HETATM   23  O2  UNL     1      35.092  58.743  40.590  1.00  0.00    -0.268 OA
HETATM   24  N2  UNL     1      34.676  60.794  41.517  1.00  0.00    -0.349 N 
ATOM     25  H2  UNL     1      34.186  61.353  42.216  1.00  0.00     0.163 HD
BRANCH  24  26
HETATM   26  C15 UNL     1      35.593  61.456  40.573  1.00  0.00     0.114 C 
HETATM   27  C16 UNL     1      34.737  62.447  39.799  1.00  0.00     0.037 C 
BRANCH  26  28
HETATM   28  C17 UNL     1      36.688  62.153  41.280  1.00  0.00    -0.036 A 
HETATM   29  C18 UNL     1      37.127  61.710  42.509  1.00  0.00     0.009 A 
HETATM   30  C19 UNL     1      38.147  62.347  43.187  1.00  0.00     0.001 A 
HETATM   31  C20 UNL     1      38.775  63.457  42.660  1.00  0.00     0.000 A 
HETATM   32  C21 UNL     1      38.337  63.902  41.429  1.00  0.00     0.001 A 
HETATM   33  C22 UNL     1      37.310  63.263  40.746  1.00  0.00     0.009 A 
ENDBRANCH  26  28
ENDBRANCH  24  26
ENDBRANCH   6  22
TORSDOF 6
ENDMDL
