MODEL 3
REMARK VINA RESULT: -9.653326197      2.603      6.934
REMARK  6 active torsions:
REMARK  status: ('A' for Active; 'I' for Inactive)
REMARK    1  A    between atoms: C2_2  and  C4_4 
REMARK    2  A    between atoms: N1_9  and  C8_10 
REMARK    3  A    between atoms: C8_10  and  C9_11 
REMARK    4  A    between atoms: C13_16  and  C14_17 
REMARK       I    between atoms: C14_17  and  N2_19 
REMARK    5  A    between atoms: N2_19  and  C15_21 
REMARK    6  A    between atoms: C15_21  and  C17_23 
ROOT
HETATM    1  C9  UNL     1      33.079  57.236  44.447  1.00  0.00    -0.036 A 
HETATM    2  C10 UNL     1      31.736  57.206  44.230  1.00  0.00     0.051 A 
HETATM    3  C11 UNL     1      31.224  57.846  43.121  1.00  0.00     0.117 A 
HETATM    4  F1  UNL     1      29.883  57.795  42.939  1.00  0.00    -0.206 F 
HETATM    5  C12 UNL     1      32.057  58.507  42.244  1.00  0.00     0.059 A 
HETATM    6  C13 UNL     1      33.428  58.550  42.444  1.00  0.00     0.035 A 
HETATM    7  C23 UNL     1      33.890  57.897  43.565  1.00  0.00     0.026 A 
ENDROOT
BRANCH   1   8
HETATM    8  C8  UNL     1      33.716  56.570  45.621  1.00  0.00     0.173 C 
BRANCH   8   9
HETATM    9  N1  UNL     1      34.843  57.295  46.116  1.00  0.00    -0.288 N 
HETATM   10  C7  UNL     1      36.178  56.838  45.965  1.00  0.00     0.228 C 
HETATM   11  C6  UNL     1      37.250  57.220  46.952  1.00  0.00     0.134 C 
HETATM   12  O1  UNL     1      36.433  56.097  44.969  1.00  0.00    -0.273 OA
HETATM   13  C4  UNL     1      37.107  58.695  47.231  1.00  0.00     0.040 C 
HETATM   14  C5  UNL     1      37.791  58.984  48.553  1.00  0.00     0.039 C 
HETATM   15  N4  UNL     1      35.741  59.138  47.216  1.00  0.00    -0.355 N 
HETATM   16  C24 UNL     1      34.638  58.417  46.727  1.00  0.00     0.194 C 
ATOM     17  H4  UNL     1      35.553  60.066  47.597  1.00  0.00     0.163 HD
HETATM   18  N3  UNL     1      33.299  58.919  46.903  1.00  0.00    -0.063 NA
BRANCH  13  19
HETATM   19  C2  UNL     1      37.841  59.440  46.115  1.00  0.00     0.005 C 
HETATM   20  C1  UNL     1      37.449  60.882  46.035  1.00  0.00     0.012 C 
HETATM   21  C3  UNL     1      39.342  59.325  46.269  1.00  0.00     0.012 C 
ENDBRANCH  13  19
ENDBRANCH   8   9
ENDBRANCH   1   8
BRANCH   6  22
HETATM   22  C14 UNL     1      34.281  59.257  41.500  1.00  0.00     0.252 C 
HETATM   23  O2  UNL     1      34.910  58.581  40.635  1.00  0.00    -0.268 OA
HETATM   24  N2  UNL     1      34.461  60.662  41.479  1.00  0.00    -0.349 N 
ATOM     25  H2  UNL     1      33.970  61.240  42.161  1.00  0.00     0.163 HD
BRANCH  24  26
HETATM   26  C15 UNL     1      35.344  61.302  40.488  1.00  0.00     0.114 C 
HETATM   27  C16 UNL     1      34.458  62.266  39.715  1.00  0.00     0.037 C 
BRANCH  26  28
HETATM   28  C17 UNL     1      36.455  62.025  41.142  1.00  0.00    -0.036 A 
HETATM   29  C18 UNL     1      36.920  63.216  40.628  1.00  0.00     0.009 A 
HETATM   30  C19 UNL     1      37.957  63.907  41.223  1.00  0.00     0.001 A 
HETATM   31  C20 UNL     1      38.573  63.433  42.362  1.00  0.00     0.000 A 
HETATM   32  C21 UNL     1      38.109  62.241  42.879  1.00  0.00     0.001 A 
HETATM   33  C22 UNL     1      37.067  61.544  42.282  1.00  0.00     0.009 A 
ENDBRANCH  26  28
ENDBRANCH  24  26
ENDBRANCH   6  22
TORSDOF 6
ENDMDL
