MODEL 5
REMARK VINA RESULT: -5.619618550      0.843      1.674
REMARK  5 active torsions:
REMARK  status: ('A' for Active; 'I' for Inactive)
REMARK    1  A    between atoms: C1_2  and  C2_4 
REMARK    2  A    between atoms: C2_4  and  C3_5 
REMARK    3  A    between atoms: C2_4  and  O4_8 
REMARK    4  A    between atoms: C3_5  and  O3_6 
REMARK    5  A    between atoms: O4_8  and  P1_9 
ROOT
HETATM    1  C2  UNL     1      46.329  14.436 -10.249  1.00  0.00     0.259 C 
ENDROOT
BRANCH   1   2
HETATM    2  C1  UNL     1      45.217  14.668  -9.310  1.00  0.00     0.206 C 
HETATM    3  O1  UNL     1      44.067  14.283  -9.623  1.00  0.00    -0.646 OA
HETATM    4  O2  UNL     1      45.440  15.300  -8.102  1.00  0.00    -0.646 OA
ENDBRANCH   1   2
BRANCH   1   5
HETATM    5  C3  UNL     1      47.562  13.951  -9.477  1.00  0.00     0.207 C 
BRANCH   5   6
HETATM    6  O3  UNL     1      47.235  12.871  -8.668  1.00  0.00    -0.398 OA
ATOM      7  H3  UNL     1      48.020  12.413  -8.392  1.00  0.00     0.209 HD
ENDBRANCH   5   6
ENDBRANCH   1   5
BRANCH   1   8
HETATM    8  O4  UNL     1      46.684  15.573 -10.924  1.00  0.00    -0.264 OA
BRANCH   8   9
HETATM    9  P1  UNL     1      47.535  15.421 -12.276  1.00  0.00     0.423 P 
HETATM   10  O5  UNL     1      47.053  14.369 -13.483  1.00  0.00    -0.617 OA
HETATM   11  O6  UNL     1      49.039  16.162 -12.428  1.00  0.00    -0.617 OA
HETATM   12  O7  UNL     1      46.868  16.583 -13.010  1.00  0.00    -0.617 OA
ENDBRANCH   8   9
ENDBRANCH   1   8
TORSDOF 5
ENDMDL
