MODEL 3
REMARK VINA RESULT: -5.695272862      2.149      4.399
REMARK  5 active torsions:
REMARK  status: ('A' for Active; 'I' for Inactive)
REMARK    1  A    between atoms: C1_2  and  C2_4 
REMARK    2  A    between atoms: C2_4  and  C3_5 
REMARK    3  A    between atoms: C2_4  and  O4_8 
REMARK    4  A    between atoms: C3_5  and  O3_6 
REMARK    5  A    between atoms: O4_8  and  P1_9 
ROOT
HETATM    1  C2  UNL     1      47.009  15.271 -11.920  1.00  0.00     0.259 C 
ENDROOT
BRANCH   1   2
HETATM    2  C1  UNL     1      46.856  14.800 -13.307  1.00  0.00     0.206 C 
HETATM    3  O1  UNL     1      47.021  13.584 -13.558  1.00  0.00    -0.646 OA
HETATM    4  O2  UNL     1      46.534  15.686 -14.317  1.00  0.00    -0.646 OA
ENDBRANCH   1   2
BRANCH   1   5
HETATM    5  C3  UNL     1      47.861  16.546 -11.900  1.00  0.00     0.207 C 
BRANCH   5   6
HETATM    6  O3  UNL     1      48.874  16.468 -12.846  1.00  0.00    -0.398 OA
ATOM      7  H3  UNL     1      49.230  15.589 -12.880  1.00  0.00     0.209 HD
ENDBRANCH   5   6
ENDBRANCH   1   5
BRANCH   1   8
HETATM    8  O4  UNL     1      47.629  14.346 -11.123  1.00  0.00    -0.264 OA
BRANCH   8   9
HETATM    9  P1  UNL     1      47.156  14.218  -9.595  1.00  0.00     0.423 P 
HETATM   10  O5  UNL     1      47.184  15.540  -8.571  1.00  0.00    -0.617 OA
HETATM   11  O6  UNL     1      46.813  12.710  -8.929  1.00  0.00    -0.617 OA
HETATM   12  O7  UNL     1      45.672  14.452  -9.873  1.00  0.00    -0.617 OA
ENDBRANCH   8   9
ENDBRANCH   1   8
TORSDOF 5
ENDMDL
