MODEL 8
REMARK VINA RESULT: -5.526931143      2.144      4.446
REMARK  5 active torsions:
REMARK  status: ('A' for Active; 'I' for Inactive)
REMARK    1  A    between atoms: C1_2  and  C2_4 
REMARK    2  A    between atoms: C2_4  and  C3_5 
REMARK    3  A    between atoms: C2_4  and  O4_8 
REMARK    4  A    between atoms: C3_5  and  O3_6 
REMARK    5  A    between atoms: O4_8  and  P1_9 
ROOT
HETATM    1  C2  UNL     1      47.069  15.197 -11.956  1.00  0.00     0.259 C 
ENDROOT
BRANCH   1   2
HETATM    2  C1  UNL     1      46.863  14.698 -13.326  1.00  0.00     0.206 C 
HETATM    3  O1  UNL     1      46.998  13.474 -13.554  1.00  0.00    -0.646 OA
HETATM    4  O2  UNL     1      46.526  15.567 -14.346  1.00  0.00    -0.646 OA
ENDBRANCH   1   2
BRANCH   1   5
HETATM    5  C3  UNL     1      48.471  15.807 -11.835  1.00  0.00     0.207 C 
BRANCH   5   6
HETATM    6  O3  UNL     1      48.769  16.567 -12.958  1.00  0.00    -0.398 OA
ATOM      7  H3  UNL     1      49.693  16.783 -12.978  1.00  0.00     0.209 HD
ENDBRANCH   5   6
ENDBRANCH   1   5
BRANCH   1   8
HETATM    8  O4  UNL     1      46.969  14.202 -11.020  1.00  0.00    -0.264 OA
BRANCH   8   9
HETATM    9  P1  UNL     1      46.314  14.558  -9.599  1.00  0.00     0.423 P 
HETATM   10  O5  UNL     1      44.704  14.235  -9.287  1.00  0.00    -0.617 OA
HETATM   11  O6  UNL     1      47.176  15.449  -8.459  1.00  0.00    -0.617 OA
HETATM   12  O7  UNL     1      46.718  13.254  -8.912  1.00  0.00    -0.617 OA
ENDBRANCH   8   9
ENDBRANCH   1   8
TORSDOF 5
ENDMDL
