MODEL 1
REMARK VINA RESULT: -5.677148263      0.000      0.000
REMARK  7 active torsions:
REMARK  status: ('A' for Active; 'I' for Inactive)
REMARK    1  A    between atoms: C2_2  and  C3_3 
REMARK    2  A    between atoms: C3_3  and  C4_4 
REMARK    3  A    between atoms: C4_4  and  C5_5 
REMARK    4  A    between atoms: C5_5  and  C6_6 
REMARK    5  A    between atoms: C6_6  and  C7_7 
REMARK    6  A    between atoms: C7_7  and  C8_8 
REMARK    7  A    between atoms: C9_9  and  C10_10 
ROOT
HETATM    1  C6  UNL     1       6.749 -24.836  -2.395  1.00  0.00     0.004 C 
ENDROOT
BRANCH   1   2
HETATM    2  C5  UNL     1       6.777 -24.915  -3.904  1.00  0.00     0.000 C 
BRANCH   2   3
HETATM    3  C4  UNL     1       7.272 -23.634  -4.542  1.00  0.00     0.000 C 
BRANCH   3   4
HETATM    4  C3  UNL     1       6.479 -23.416  -5.820  1.00  0.00    -0.000 C 
BRANCH   4   5
HETATM    5  C2  UNL     1       5.927 -22.009  -5.889  1.00  0.00    -0.005 C 
HETATM    6  C1  UNL     1       6.612 -21.060  -4.963  1.00  0.00     0.005 C 
ENDBRANCH   4   5
ENDBRANCH   3   4
ENDBRANCH   2   3
ENDBRANCH   1   2
BRANCH   1   7
HETATM    7  C7  UNL     1       6.692 -23.395  -1.967  1.00  0.00     0.027 C 
BRANCH   7   8
HETATM    8  C8  UNL     1       7.378 -23.168  -0.667  1.00  0.00    -0.020 C 
HETATM    9  C9  UNL     1       6.833 -22.495   0.329  1.00  0.00     0.080 C 
BRANCH   9  10
HETATM   10  C10 UNL     1       7.537 -22.289   1.600  1.00  0.00     0.198 C 
HETATM   11  O1  UNL     1       7.650 -23.247   2.399  1.00  0.00    -0.645 OA
HETATM   12  O2  UNL     1       8.083 -21.069   1.949  1.00  0.00    -0.645 OA
ENDBRANCH   9  10
ENDBRANCH   7   8
ENDBRANCH   1   7
TORSDOF 7
ENDMDL
