MODEL 3
REMARK VINA RESULT: -5.344902698      1.549      2.279
REMARK  7 active torsions:
REMARK  status: ('A' for Active; 'I' for Inactive)
REMARK    1  A    between atoms: C2_2  and  C3_3 
REMARK    2  A    between atoms: C3_3  and  C4_4 
REMARK    3  A    between atoms: C4_4  and  C5_5 
REMARK    4  A    between atoms: C5_5  and  C6_6 
REMARK    5  A    between atoms: C6_6  and  C7_7 
REMARK    6  A    between atoms: C7_7  and  C8_8 
REMARK    7  A    between atoms: C9_9  and  C10_10 
ROOT
HETATM    1  C6  UNL     1       6.739 -23.478  -1.491  1.00  0.00     0.004 C 
ENDROOT
BRANCH   1   2
HETATM    2  C5  UNL     1       7.347 -24.798  -1.906  1.00  0.00     0.000 C 
BRANCH   2   3
HETATM    3  C4  UNL     1       7.894 -24.766  -3.318  1.00  0.00     0.000 C 
BRANCH   3   4
HETATM    4  C3  UNL     1       6.759 -24.369  -4.246  1.00  0.00    -0.000 C 
BRANCH   4   5
HETATM    5  C2  UNL     1       7.181 -23.261  -5.187  1.00  0.00    -0.005 C 
HETATM    6  C1  UNL     1       6.050 -22.382  -5.608  1.00  0.00     0.005 C 
ENDBRANCH   4   5
ENDBRANCH   3   4
ENDBRANCH   2   3
ENDBRANCH   1   2
BRANCH   1   7
HETATM    7  C7  UNL     1       7.122 -23.173  -0.068  1.00  0.00     0.027 C 
BRANCH   7   8
HETATM    8  C8  UNL     1       7.705 -21.813   0.076  1.00  0.00    -0.020 C 
HETATM    9  C9  UNL     1       8.113 -21.322   1.231  1.00  0.00     0.080 C 
BRANCH   9  10
HETATM   10  C10 UNL     1       8.686 -19.975   1.340  1.00  0.00     0.198 C 
HETATM   11  O1  UNL     1       8.541 -19.170   0.391  1.00  0.00    -0.645 OA
HETATM   12  O2  UNL     1       9.382 -19.560   2.459  1.00  0.00    -0.645 OA
ENDBRANCH   9  10
ENDBRANCH   7   8
ENDBRANCH   1   7
TORSDOF 7
ENDMDL
