MODEL 3
REMARK VINA RESULT: -5.506807499      0.749      1.391
REMARK  10 active torsions:
REMARK  status: ('A' for Active; 'I' for Inactive)
REMARK    1  A    between atoms: C2_2  and  C3_3 
REMARK    2  A    between atoms: C3_3  and  C4_4 
REMARK    3  A    between atoms: C4_4  and  C5_5 
REMARK    4  A    between atoms: C5_5  and  C6_6 
REMARK    5  A    between atoms: C6_6  and  C7_7 
REMARK    6  A    between atoms: C7_7  and  C8_8 
REMARK    7  A    between atoms: C8_8  and  C9_9 
REMARK    8  A    between atoms: C9_9  and  C10_10 
REMARK    9  A    between atoms: C10_10  and  C11_11 
REMARK   10  A    between atoms: C11_11  and  C12_12 
ROOT
HETATM    1  C7  UNL     1      -6.700  25.042  14.567  1.00  0.00     0.000 C 
ENDROOT
BRANCH   1   2
HETATM    2  C6  UNL     1      -7.639  24.994  13.396  1.00  0.00     0.000 C 
BRANCH   2   3
HETATM    3  C5  UNL     1      -6.982  24.384  12.209  1.00  0.00     0.000 C 
BRANCH   3   4
HETATM    4  C4  UNL     1      -6.309  23.099  12.555  1.00  0.00     0.000 C 
BRANCH   4   5
HETATM    5  C3  UNL     1      -6.108  22.280  11.304  1.00  0.00    -0.000 C 
BRANCH   5   6
HETATM    6  C2  UNL     1      -6.458  20.837  11.512  1.00  0.00    -0.005 C 
HETATM    7  C1  UNL     1      -7.198  20.675  12.829  1.00  0.00     0.005 C 
ENDBRANCH   5   6
ENDBRANCH   4   5
ENDBRANCH   3   4
ENDBRANCH   2   3
ENDBRANCH   1   2
BRANCH   1   8
HETATM    8  C8  UNL     1      -7.482  24.729  15.828  1.00  0.00     0.000 C 
BRANCH   8   9
HETATM    9  C9  UNL     1      -7.983  23.315  15.893  1.00  0.00     0.001 C 
BRANCH   9  10
HETATM   10  C10 UNL     1      -6.802  22.414  16.199  1.00  0.00     0.010 C 
BRANCH  10  11
HETATM   11  C11 UNL     1      -6.415  22.476  17.633  1.00  0.00     0.113 C 
BRANCH  11  12
HETATM   12  C12 UNL     1      -7.532  22.265  18.587  1.00  0.00     0.172 C 
HETATM   13  O1  UNL     1      -8.074  21.160  18.801  1.00  0.00    -0.648 OA
HETATM   14  O2  UNL     1      -8.038  23.344  19.313  1.00  0.00    -0.648 OA
ENDBRANCH  11  12
ENDBRANCH  10  11
ENDBRANCH   9  10
ENDBRANCH   8   9
ENDBRANCH   1   8
TORSDOF 10
ENDMDL
