MODEL 3
REMARK VINA RESULT: -6.416897750      1.344      1.848
REMARK  11 active torsions:
REMARK  status: ('A' for Active; 'I' for Inactive)
REMARK    1  A    between atoms: C2_2  and  C3_3 
REMARK    2  A    between atoms: C4_4  and  C5_5 
REMARK    3  A    between atoms: C5_5  and  C6_6 
REMARK    4  A    between atoms: C6_6  and  C7_7 
REMARK    5  A    between atoms: C7_7  and  C8_8 
REMARK    6  A    between atoms: C8_8  and  C9_9 
REMARK    7  A    between atoms: C9_9  and  C10_10 
REMARK    8  A    between atoms: C10_10  and  C11_11 
REMARK    9  A    between atoms: C11_11  and  C12_12 
REMARK   10  A    between atoms: C12_12  and  C13_13 
REMARK   11  A    between atoms: C13_13  and  C14_14 
ROOT
HETATM    1  C8  UNL     1      -6.504 -24.048   4.551  1.00  0.00     0.000 C 
ENDROOT
BRANCH   1   2
HETATM    2  C7  UNL     1      -6.620 -23.261   5.881  1.00  0.00     0.000 C 
BRANCH   2   3
HETATM    3  C6  UNL     1      -5.745 -22.053   5.687  1.00  0.00     0.004 C 
BRANCH   3   4
HETATM    4  C5  UNL     1      -6.434 -20.757   5.521  1.00  0.00     0.027 C 
BRANCH   4   5
HETATM    5  C4  UNL     1      -6.755 -20.338   4.152  1.00  0.00    -0.031 C 
HETATM    6  C3  UNL     1      -7.924 -20.387   3.544  1.00  0.00    -0.031 C 
BRANCH   6   7
HETATM    7  C2  UNL     1      -8.116 -19.931   2.140  1.00  0.00     0.022 C 
HETATM    8  C1  UNL     1      -6.850 -19.373   1.547  1.00  0.00     0.009 C 
ENDBRANCH   6   7
ENDBRANCH   4   5
ENDBRANCH   3   4
ENDBRANCH   2   3
ENDBRANCH   1   2
BRANCH   1   9
HETATM    9  C9  UNL     1      -7.791 -24.039   3.815  1.00  0.00     0.000 C 
BRANCH   9  10
HETATM   10  C10 UNL     1      -7.555 -24.187   2.339  1.00  0.00     0.000 C 
BRANCH  10  11
HETATM   11  C11 UNL     1      -6.352 -23.390   1.933  1.00  0.00     0.001 C 
BRANCH  11  12
HETATM   12  C12 UNL     1      -6.461 -22.903   0.487  1.00  0.00     0.010 C 
BRANCH  12  13
HETATM   13  C13 UNL     1      -7.860 -22.886  -0.023  1.00  0.00     0.113 C 
BRANCH  13  14
HETATM   14  C14 UNL     1      -7.899 -22.267  -1.361  1.00  0.00     0.172 C 
HETATM   15  O1  UNL     1      -7.962 -22.998  -2.376  1.00  0.00    -0.648 OA
HETATM   16  O2  UNL     1      -7.866 -20.893  -1.537  1.00  0.00    -0.648 OA
ENDBRANCH  13  14
ENDBRANCH  12  13
ENDBRANCH  11  12
ENDBRANCH  10  11
ENDBRANCH   9  10
ENDBRANCH   1   9
TORSDOF 11
ENDMDL
