MODEL 5
REMARK VINA RESULT: -6.411583169      1.331      3.041
REMARK  11 active torsions:
REMARK  status: ('A' for Active; 'I' for Inactive)
REMARK    1  A    between atoms: C2_2  and  C3_3 
REMARK    2  A    between atoms: C4_4  and  C5_5 
REMARK    3  A    between atoms: C5_5  and  C6_6 
REMARK    4  A    between atoms: C6_6  and  C7_7 
REMARK    5  A    between atoms: C7_7  and  C8_8 
REMARK    6  A    between atoms: C8_8  and  C9_9 
REMARK    7  A    between atoms: C9_9  and  C10_10 
REMARK    8  A    between atoms: C10_10  and  C11_11 
REMARK    9  A    between atoms: C11_11  and  C12_12 
REMARK   10  A    between atoms: C12_12  and  C13_13 
REMARK   11  A    between atoms: C13_13  and  C14_14 
ROOT
HETATM    1  C8  UNL     1      -6.859 -23.731   1.235  1.00  0.00     0.000 C 
ENDROOT
BRANCH   1   2
HETATM    2  C7  UNL     1      -7.477 -25.114   1.560  1.00  0.00     0.000 C 
BRANCH   2   3
HETATM    3  C6  UNL     1      -7.894 -25.017   3.002  1.00  0.00     0.004 C 
BRANCH   3   4
HETATM    4  C5  UNL     1      -6.818 -25.107   4.010  1.00  0.00     0.027 C 
BRANCH   4   5
HETATM    5  C4  UNL     1      -6.699 -23.998   4.965  1.00  0.00    -0.031 C 
HETATM    6  C3  UNL     1      -6.052 -22.861   4.806  1.00  0.00    -0.031 C 
BRANCH   6   7
HETATM    7  C2  UNL     1      -6.005 -21.813   5.863  1.00  0.00     0.022 C 
HETATM    8  C1  UNL     1      -6.394 -20.458   5.336  1.00  0.00     0.009 C 
ENDBRANCH   6   7
ENDBRANCH   4   5
ENDBRANCH   3   4
ENDBRANCH   2   3
ENDBRANCH   1   2
BRANCH   1   9
HETATM    9  C9  UNL     1      -7.820 -22.639   1.522  1.00  0.00     0.000 C 
BRANCH   9  10
HETATM   10  C10 UNL     1      -7.104 -21.326   1.649  1.00  0.00     0.000 C 
BRANCH  10  11
HETATM   11  C11 UNL     1      -7.814 -20.277   0.846  1.00  0.00     0.001 C 
BRANCH  11  12
HETATM   12  C12 UNL     1      -8.795 -20.899  -0.149  1.00  0.00     0.010 C 
BRANCH  12  13
HETATM   13  C13 UNL     1      -8.358 -20.765  -1.566  1.00  0.00     0.113 C 
BRANCH  13  14
HETATM   14  C14 UNL     1      -7.483 -21.895  -1.931  1.00  0.00     0.172 C 
HETATM   15  O1  UNL     1      -7.992 -22.959  -2.351  1.00  0.00    -0.648 OA
HETATM   16  O2  UNL     1      -6.103 -21.821  -1.822  1.00  0.00    -0.648 OA
ENDBRANCH  13  14
ENDBRANCH  12  13
ENDBRANCH  11  12
ENDBRANCH  10  11
ENDBRANCH   9  10
ENDBRANCH   1   9
TORSDOF 11
ENDMDL
