MODEL 2
REMARK VINA RESULT: -5.955934219      2.076      4.417
REMARK  13 active torsions:
REMARK  status: ('A' for Active; 'I' for Inactive)
REMARK    1  A    between atoms: C2_2  and  C3_3 
REMARK    2  A    between atoms: C4_4  and  C5_5 
REMARK    3  A    between atoms: C5_5  and  C6_6 
REMARK    4  A    between atoms: C6_6  and  C7_7 
REMARK    5  A    between atoms: C7_7  and  C8_8 
REMARK    6  A    between atoms: C8_8  and  C9_9 
REMARK    7  A    between atoms: C9_9  and  C10_10 
REMARK    8  A    between atoms: C10_10  and  C11_11 
REMARK    9  A    between atoms: C11_11  and  C12_12 
REMARK   10  A    between atoms: C12_12  and  C13_13 
REMARK   11  A    between atoms: C13_13  and  C14_14 
REMARK   12  A    between atoms: C14_14  and  C15_15 
REMARK   13  A    between atoms: C15_15  and  C16_16 
ROOT
HETATM    1  C9  UNL     1       6.422 -23.391  -5.836  1.00  0.00    -0.031 C 
ENDROOT
BRANCH   1   2
HETATM    2  C8  UNL     1       6.649 -24.242  -4.664  1.00  0.00     0.027 C 
BRANCH   2   3
HETATM    3  C7  UNL     1       7.933 -24.107  -3.915  1.00  0.00     0.004 C 
BRANCH   3   4
HETATM    4  C6  UNL     1       7.765 -24.273  -2.405  1.00  0.00     0.004 C 
BRANCH   4   5
HETATM    5  C5  UNL     1       6.424 -23.771  -2.004  1.00  0.00     0.027 C 
BRANCH   5   6
HETATM    6  C4  UNL     1       6.459 -23.185  -0.607  1.00  0.00    -0.031 C 
HETATM    7  C3  UNL     1       7.456 -23.429   0.230  1.00  0.00    -0.031 C 
BRANCH   7   8
HETATM    8  C2  UNL     1       7.496 -22.857   1.604  1.00  0.00     0.022 C 
HETATM    9  C1  UNL     1       8.193 -21.495   1.479  1.00  0.00     0.009 C 
ENDBRANCH   7   8
ENDBRANCH   5   6
ENDBRANCH   4   5
ENDBRANCH   3   4
ENDBRANCH   2   3
ENDBRANCH   1   2
BRANCH   1  10
HETATM   10  C10 UNL     1       5.949 -22.016  -5.761  1.00  0.00    -0.031 C 
BRANCH  10  11
HETATM   11  C11 UNL     1       6.870 -20.875  -5.721  1.00  0.00     0.027 C 
BRANCH  11  12
HETATM   12  C12 UNL     1       6.774 -20.068  -4.435  1.00  0.00     0.004 C 
BRANCH  12  13
HETATM   13  C13 UNL     1       7.680 -20.542  -3.347  1.00  0.00     0.001 C 
BRANCH  13  14
HETATM   14  C14 UNL     1       7.144 -19.991  -2.044  1.00  0.00     0.010 C 
BRANCH  14  15
HETATM   15  C15 UNL     1       7.265 -18.513  -1.908  1.00  0.00     0.113 C 
BRANCH  15  16
HETATM   16  C16 UNL     1       6.030 -17.832  -1.480  1.00  0.00     0.172 C 
HETATM   17  O1  UNL     1       5.917 -17.277  -0.361  1.00  0.00    -0.648 OA
HETATM   18  O2  UNL     1       4.929 -17.778  -2.314  1.00  0.00    -0.648 OA
ENDBRANCH  15  16
ENDBRANCH  14  15
ENDBRANCH  13  14
ENDBRANCH  12  13
ENDBRANCH  11  12
ENDBRANCH  10  11
ENDBRANCH   1  10
TORSDOF 13
ENDMDL
