MODEL 1
REMARK VINA RESULT: -10.575910865      0.000      0.000
REMARK  15 active torsions:
REMARK  status: ('A' for Active; 'I' for Inactive)
REMARK    1  A    between atoms: C2_2  and  C4_4 
REMARK    2  A    between atoms: C4_4  and  C5_5 
REMARK    3  A    between atoms: C5_5  and  N1_6 
REMARK    4  A    between atoms: C5_5  and  C22_32 
REMARK    5  A    between atoms: N1_6  and  P1_8 
REMARK    6  A    between atoms: P1_8  and  C6_11 
REMARK    7  A    between atoms: C6_11  and  C7_12 
REMARK    8  A    between atoms: C6_11  and  N2_19 
REMARK    9  A    between atoms: C7_12  and  C8_13 
REMARK   10  A    between atoms: C14_21  and  O3_22 
REMARK   11  A    between atoms: C14_21  and  O4_24 
REMARK   12  A    between atoms: O4_24  and  C15_25 
REMARK   13  A    between atoms: C15_25  and  C16_26 
REMARK       I    between atoms: C22_32  and  N3_34 
REMARK   14  A    between atoms: N3_34  and  C23_36 
REMARK   15  A    between atoms: C23_36  and  C25_38 
ROOT
HETATM    1  C6  UNL     1      50.906  18.581  -6.645  1.00  0.00     0.203 C 
ENDROOT
BRANCH   1   2
HETATM    2  P1  UNL     1      52.183  18.541  -5.427  1.00  0.00     0.229 P 
HETATM    3  O1  UNL     1      52.442  16.999  -5.559  1.00  0.00    -0.650 OA
HETATM    4  O2  UNL     1      53.800  18.651  -5.817  1.00  0.00    -0.650 OA
BRANCH   2   5
HETATM    5  N1  UNL     1      51.760  18.293  -3.778  1.00  0.00    -0.334 N 
ATOM      6  H1  UNL     1      50.813  18.067  -3.477  1.00  0.00     0.164 HD
BRANCH   5   7
HETATM    7  C5  UNL     1      52.834  18.429  -2.882  1.00  0.00     0.178 C 
BRANCH   7   8
HETATM    8  C4  UNL     1      52.353  18.860  -1.602  1.00  0.00     0.038 C 
BRANCH   8   9
HETATM    9  C2  UNL     1      53.139  19.140  -0.404  1.00  0.00    -0.020 C 
HETATM   10  C1  UNL     1      54.569  19.557  -0.785  1.00  0.00     0.009 C 
HETATM   11  C3  UNL     1      53.229  18.035   0.619  1.00  0.00     0.009 C 
ENDBRANCH   8   9
ENDBRANCH   7   8
BRANCH   7  12
HETATM   12  C22 UNL     1      53.418  17.002  -2.841  1.00  0.00     0.241 C 
HETATM   13  O5  UNL     1      54.576  16.914  -3.081  1.00  0.00    -0.271 OA
HETATM   14  N3  UNL     1      52.602  15.932  -2.541  1.00  0.00    -0.345 N 
ATOM     15  H3  UNL     1      51.633  16.139  -2.300  1.00  0.00     0.163 HD
BRANCH  14  16
HETATM   16  C23 UNL     1      53.000  14.548  -2.539  1.00  0.00     0.181 C 
HETATM   17  C24 UNL     1      52.615  13.727  -1.419  1.00  0.00     0.043 C 
BRANCH  16  18
HETATM   18  C25 UNL     1      52.726  13.910  -3.866  1.00  0.00     0.196 C 
HETATM   19  O6  UNL     1      53.382  14.054  -4.901  1.00  0.00    -0.646 OA
HETATM   20  O7  UNL     1      51.577  13.072  -3.894  1.00  0.00    -0.646 OA
ENDBRANCH  16  18
ENDBRANCH  14  16
ENDBRANCH   7  12
ENDBRANCH   5   7
ENDBRANCH   2   5
ENDBRANCH   1   2
BRANCH   1  21
HETATM   21  C7  UNL     1      50.459  17.123  -6.849  1.00  0.00     0.076 C 
BRANCH  21  22
HETATM   22  C8  UNL     1      49.119  17.213  -7.346  1.00  0.00    -0.056 A 
HETATM   23  C9  UNL     1      48.174  16.916  -6.399  1.00  0.00     0.007 A 
HETATM   24  C10 UNL     1      46.931  16.632  -6.696  1.00  0.00     0.001 A 
HETATM   25  C11 UNL     1      46.503  16.671  -8.014  1.00  0.00     0.000 A 
HETATM   26  C12 UNL     1      47.457  17.017  -8.962  1.00  0.00     0.001 A 
HETATM   27  C13 UNL     1      48.742  17.282  -8.611  1.00  0.00     0.007 A 
ENDBRANCH  21  22
ENDBRANCH   1  21
BRANCH   1  28
HETATM   28  N2  UNL     1      51.171  19.028  -7.959  1.00  0.00    -0.334 N 
HETATM   29  C14 UNL     1      50.970  20.302  -8.386  1.00  0.00     0.259 C 
ATOM     30  H2  UNL     1      51.536  18.352  -8.630  1.00  0.00     0.164 HD
BRANCH  29  31
HETATM   31  O3  UNL     1      50.277  21.208  -7.704  1.00  0.00    -0.327 OA
ATOM     32  H3  UNL     1      49.456  21.579  -8.003  1.00  0.00     0.221 HD
ENDBRANCH  29  31
BRANCH  29  33
HETATM   33  O4  UNL     1      51.440  20.776  -9.638  1.00  0.00    -0.312 OA
BRANCH  33  34
HETATM   34  C15 UNL     1      50.710  21.809 -10.264  1.00  0.00     0.218 C 
BRANCH  34  35
HETATM   35  C16 UNL     1      50.869  21.663 -11.704  1.00  0.00    -0.034 A 
HETATM   36  C17 UNL     1      51.704  22.536 -12.387  1.00  0.00     0.009 A 
HETATM   37  C18 UNL     1      51.812  22.615 -13.732  1.00  0.00     0.001 A 
HETATM   38  C19 UNL     1      50.973  21.827 -14.531  1.00  0.00     0.000 A 
HETATM   39  C20 UNL     1      50.022  20.950 -13.818  1.00  0.00     0.001 A 
HETATM   40  C21 UNL     1      50.025  20.868 -12.502  1.00  0.00     0.009 A 
ENDBRANCH  34  35
ENDBRANCH  33  34
ENDBRANCH  29  33
ENDBRANCH   1  28
TORSDOF 15
ENDMDL
