MODEL 7
REMARK VINA RESULT: -9.831927789      2.431      6.883
REMARK  15 active torsions:
REMARK  status: ('A' for Active; 'I' for Inactive)
REMARK    1  A    between atoms: C2_2  and  C4_4 
REMARK    2  A    between atoms: C4_4  and  C5_5 
REMARK    3  A    between atoms: C5_5  and  N1_6 
REMARK    4  A    between atoms: C5_5  and  C22_32 
REMARK    5  A    between atoms: N1_6  and  P1_8 
REMARK    6  A    between atoms: P1_8  and  C6_11 
REMARK    7  A    between atoms: C6_11  and  C7_12 
REMARK    8  A    between atoms: C6_11  and  N2_19 
REMARK    9  A    between atoms: C7_12  and  C8_13 
REMARK   10  A    between atoms: C14_21  and  O3_22 
REMARK   11  A    between atoms: C14_21  and  O4_24 
REMARK   12  A    between atoms: O4_24  and  C15_25 
REMARK   13  A    between atoms: C15_25  and  C16_26 
REMARK       I    between atoms: C22_32  and  N3_34 
REMARK   14  A    between atoms: N3_34  and  C23_36 
REMARK   15  A    between atoms: C23_36  and  C25_38 
ROOT
HETATM    1  C6  UNL     1      49.603  20.115 -10.690  1.00  0.00     0.203 C 
ENDROOT
BRANCH   1   2
HETATM    2  P1  UNL     1      50.184  20.113  -9.023  1.00  0.00     0.229 P 
HETATM    3  O1  UNL     1      51.649  20.537  -9.394  1.00  0.00    -0.650 OA
HETATM    4  O2  UNL     1      50.228  21.490  -8.086  1.00  0.00    -0.650 OA
BRANCH   2   5
HETATM    5  N1  UNL     1      50.813  18.656  -8.357  1.00  0.00    -0.334 N 
ATOM      6  H1  UNL     1      51.434  18.034  -8.873  1.00  0.00     0.164 HD
BRANCH   5   7
HETATM    7  C5  UNL     1      50.395  18.399  -7.040  1.00  0.00     0.178 C 
BRANCH   7   8
HETATM    8  C4  UNL     1      49.673  17.161  -6.988  1.00  0.00     0.038 C 
BRANCH   8   9
HETATM    9  C2  UNL     1      48.356  16.875  -7.547  1.00  0.00    -0.020 C 
HETATM   10  C1  UNL     1      47.335  16.635  -6.423  1.00  0.00     0.009 C 
HETATM   11  C3  UNL     1      48.267  15.721  -8.515  1.00  0.00     0.009 C 
ENDBRANCH   8   9
ENDBRANCH   7   8
BRANCH   7  12
HETATM   12  C22 UNL     1      51.731  18.334  -6.272  1.00  0.00     0.241 C 
HETATM   13  O5  UNL     1      52.700  18.601  -6.902  1.00  0.00    -0.271 OA
HETATM   14  N3  UNL     1      51.742  17.980  -4.939  1.00  0.00    -0.345 N 
ATOM     15  H3  UNL     1      50.839  17.825  -4.491  1.00  0.00     0.163 HD
BRANCH  14  16
HETATM   16  C23 UNL     1      52.918  17.811  -4.126  1.00  0.00     0.181 C 
HETATM   17  C24 UNL     1      52.965  18.471  -2.845  1.00  0.00     0.043 C 
BRANCH  16  18
HETATM   18  C25 UNL     1      53.329  16.373  -4.069  1.00  0.00     0.196 C 
HETATM   19  O6  UNL     1      52.817  15.436  -4.688  1.00  0.00    -0.646 OA
HETATM   20  O7  UNL     1      54.414  16.100  -3.190  1.00  0.00    -0.646 OA
ENDBRANCH  16  18
ENDBRANCH  14  16
ENDBRANCH   7  12
ENDBRANCH   5   7
ENDBRANCH   2   5
ENDBRANCH   1   2
BRANCH   1  21
HETATM   21  C7  UNL     1      49.642  21.580 -11.158  1.00  0.00     0.076 C 
BRANCH  21  22
HETATM   22  C8  UNL     1      50.256  21.538 -12.451  1.00  0.00    -0.056 A 
HETATM   23  C9  UNL     1      51.423  22.256 -12.514  1.00  0.00     0.007 A 
HETATM   24  C10 UNL     1      51.980  22.613 -13.644  1.00  0.00     0.001 A 
HETATM   25  C11 UNL     1      51.419  22.226 -14.851  1.00  0.00     0.000 A 
HETATM   26  C12 UNL     1      50.263  21.462 -14.777  1.00  0.00     0.001 A 
HETATM   27  C13 UNL     1      49.706  21.132 -13.582  1.00  0.00     0.007 A 
ENDBRANCH  21  22
ENDBRANCH   1  21
BRANCH   1  28
HETATM   28  N2  UNL     1      48.286  19.708 -10.999  1.00  0.00    -0.334 N 
HETATM   29  C14 UNL     1      47.920  18.420 -11.226  1.00  0.00     0.259 C 
ATOM     30  H2  UNL     1      47.564  20.427 -11.056  1.00  0.00     0.164 HD
BRANCH  29  31
HETATM   31  O3  UNL     1      48.785  17.431 -11.428  1.00  0.00    -0.327 OA
ATOM     32  H3  UNL     1      48.537  16.567 -11.735  1.00  0.00     0.221 HD
ENDBRANCH  29  31
BRANCH  29  33
HETATM   33  O4  UNL     1      46.564  18.011 -11.323  1.00  0.00    -0.312 OA
BRANCH  33  34
HETATM   34  C15 UNL     1      45.567  18.994 -11.138  1.00  0.00     0.218 C 
BRANCH  34  35
HETATM   35  C16 UNL     1      44.617  18.491 -10.156  1.00  0.00    -0.034 A 
HETATM   36  C17 UNL     1      45.051  17.596  -9.189  1.00  0.00     0.009 A 
HETATM   37  C18 UNL     1      44.248  16.931  -8.329  1.00  0.00     0.001 A 
HETATM   38  C19 UNL     1      42.858  17.071  -8.448  1.00  0.00     0.000 A 
HETATM   39  C20 UNL     1      42.379  17.959  -9.525  1.00  0.00     0.001 A 
HETATM   40  C21 UNL     1      43.223  18.636 -10.278  1.00  0.00     0.009 A 
ENDBRANCH  34  35
ENDBRANCH  33  34
ENDBRANCH  29  33
ENDBRANCH   1  28
TORSDOF 15
ENDMDL
