MODEL 4
REMARK VINA RESULT: -10.195342565      0.928      1.298
REMARK  15 active torsions:
REMARK  status: ('A' for Active; 'I' for Inactive)
REMARK    1  A    between atoms: C2_2  and  C4_4 
REMARK    2  A    between atoms: C4_4  and  C5_5 
REMARK    3  A    between atoms: C5_5  and  N1_6 
REMARK    4  A    between atoms: C5_5  and  C22_32 
REMARK    5  A    between atoms: N1_6  and  P1_8 
REMARK    6  A    between atoms: P1_8  and  C6_11 
REMARK    7  A    between atoms: C6_11  and  C7_12 
REMARK    8  A    between atoms: C6_11  and  N2_19 
REMARK    9  A    between atoms: C7_12  and  C8_13 
REMARK   10  A    between atoms: C14_21  and  O3_22 
REMARK   11  A    between atoms: C14_21  and  O4_24 
REMARK   12  A    between atoms: O4_24  and  C15_25 
REMARK   13  A    between atoms: C15_25  and  C16_26 
REMARK       I    between atoms: C22_32  and  N3_34 
REMARK   14  A    between atoms: N3_34  and  C23_36 
REMARK   15  A    between atoms: C23_36  and  C25_38 
ROOT
HETATM    1  C6  UNL     1      50.559  18.481  -7.139  1.00  0.00     0.203 C 
ENDROOT
BRANCH   1   2
HETATM    2  P1  UNL     1      51.680  18.939  -5.855  1.00  0.00     0.229 P 
HETATM    3  O1  UNL     1      52.940  18.316  -6.553  1.00  0.00    -0.650 OA
HETATM    4  O2  UNL     1      52.582  20.339  -5.908  1.00  0.00    -0.650 OA
BRANCH   2   5
HETATM    5  N1  UNL     1      51.924  17.865  -4.534  1.00  0.00    -0.334 N 
ATOM      6  H1  UNL     1      51.256  17.138  -4.280  1.00  0.00     0.164 HD
BRANCH   5   7
HETATM    7  C5  UNL     1      53.125  18.076  -3.835  1.00  0.00     0.178 C 
BRANCH   7   8
HETATM    8  C4  UNL     1      52.879  18.869  -2.666  1.00  0.00     0.038 C 
BRANCH   8   9
HETATM    9  C2  UNL     1      53.677  18.928  -1.446  1.00  0.00    -0.020 C 
HETATM   10  C1  UNL     1      52.807  18.614  -0.218  1.00  0.00     0.009 C 
HETATM   11  C3  UNL     1      54.416  20.217  -1.181  1.00  0.00     0.009 C 
ENDBRANCH   8   9
ENDBRANCH   7   8
BRANCH   7  12
HETATM   12  C22 UNL     1      53.568  16.640  -3.488  1.00  0.00     0.241 C 
HETATM   13  O5  UNL     1      54.716  16.400  -3.663  1.00  0.00    -0.271 OA
HETATM   14  N3  UNL     1      52.647  15.731  -3.011  1.00  0.00    -0.345 N 
ATOM     15  H3  UNL     1      51.698  16.070  -2.851  1.00  0.00     0.163 HD
BRANCH  14  16
HETATM   16  C23 UNL     1      52.910  14.346  -2.719  1.00  0.00     0.181 C 
HETATM   17  C24 UNL     1      52.429  13.807  -1.471  1.00  0.00     0.043 C 
BRANCH  16  18
HETATM   18  C25 UNL     1      52.597  13.480  -3.900  1.00  0.00     0.196 C 
HETATM   19  O6  UNL     1      51.562  12.834  -4.086  1.00  0.00    -0.646 OA
HETATM   20  O7  UNL     1      53.630  13.413  -4.876  1.00  0.00    -0.646 OA
ENDBRANCH  16  18
ENDBRANCH  14  16
ENDBRANCH   7  12
ENDBRANCH   5   7
ENDBRANCH   2   5
ENDBRANCH   1   2
BRANCH   1  21
HETATM   21  C7  UNL     1      50.717  16.963  -7.328  1.00  0.00     0.076 C 
BRANCH  21  22
HETATM   22  C8  UNL     1      49.398  16.486  -7.616  1.00  0.00    -0.056 A 
HETATM   23  C9  UNL     1      48.457  16.944  -6.730  1.00  0.00     0.007 A 
HETATM   24  C10 UNL     1      47.270  16.405  -6.609  1.00  0.00     0.001 A 
HETATM   25  C11 UNL     1      46.895  15.353  -7.430  1.00  0.00     0.000 A 
HETATM   26  C12 UNL     1      47.838  14.926  -8.355  1.00  0.00     0.001 A 
HETATM   27  C13 UNL     1      49.067  15.500  -8.431  1.00  0.00     0.007 A 
ENDBRANCH  21  22
ENDBRANCH   1  21
BRANCH   1  28
HETATM   28  N2  UNL     1      50.709  18.991  -8.449  1.00  0.00    -0.334 N 
HETATM   29  C14 UNL     1      50.683  20.313  -8.759  1.00  0.00     0.259 C 
ATOM     30  H2  UNL     1      50.845  18.325  -9.209  1.00  0.00     0.164 HD
BRANCH  29  31
HETATM   31  O3  UNL     1      50.271  21.260  -7.922  1.00  0.00    -0.327 OA
ATOM     32  H3  UNL     1      50.713  21.476  -7.109  1.00  0.00     0.221 HD
ENDBRANCH  29  31
BRANCH  29  33
HETATM   33  O4  UNL     1      51.047  20.810 -10.038  1.00  0.00    -0.312 OA
BRANCH  33  34
HETATM   34  C15 UNL     1      50.243  20.441 -11.138  1.00  0.00     0.218 C 
BRANCH  34  35
HETATM   35  C16 UNL     1      50.724  21.162 -12.308  1.00  0.00    -0.034 A 
HETATM   36  C17 UNL     1      51.588  22.234 -12.136  1.00  0.00     0.009 A 
HETATM   37  C18 UNL     1      51.976  23.084 -13.113  1.00  0.00     0.001 A 
HETATM   38  C19 UNL     1      51.419  22.951 -14.392  1.00  0.00     0.000 A 
HETATM   39  C20 UNL     1      50.437  21.864 -14.570  1.00  0.00     0.001 A 
HETATM   40  C21 UNL     1      50.163  21.024 -13.591  1.00  0.00     0.009 A 
ENDBRANCH  34  35
ENDBRANCH  33  34
ENDBRANCH  29  33
ENDBRANCH   1  28
TORSDOF 15
ENDMDL
