MODEL 6
REMARK VINA RESULT: -9.994924602      2.975      6.354
REMARK  15 active torsions:
REMARK  status: ('A' for Active; 'I' for Inactive)
REMARK    1  A    between atoms: C2_2  and  C4_4 
REMARK    2  A    between atoms: C4_4  and  C5_5 
REMARK    3  A    between atoms: C5_5  and  N1_6 
REMARK    4  A    between atoms: C5_5  and  C22_32 
REMARK    5  A    between atoms: N1_6  and  P1_8 
REMARK    6  A    between atoms: P1_8  and  C6_11 
REMARK    7  A    between atoms: C6_11  and  C7_12 
REMARK    8  A    between atoms: C6_11  and  N2_19 
REMARK    9  A    between atoms: C7_12  and  C8_13 
REMARK   10  A    between atoms: C14_21  and  O3_22 
REMARK   11  A    between atoms: C14_21  and  O4_24 
REMARK   12  A    between atoms: O4_24  and  C15_25 
REMARK   13  A    between atoms: C15_25  and  C16_26 
REMARK       I    between atoms: C22_32  and  N3_34 
REMARK   14  A    between atoms: N3_34  and  C23_36 
REMARK   15  A    between atoms: C23_36  and  C25_38 
ROOT
HETATM    1  C6  UNL     1      49.405  20.105 -10.517  1.00  0.00     0.203 C 
ENDROOT
BRANCH   1   2
HETATM    2  P1  UNL     1      50.103  20.121  -8.896  1.00  0.00     0.229 P 
HETATM    3  O1  UNL     1      51.552  20.483  -9.382  1.00  0.00    -0.650 OA
HETATM    4  O2  UNL     1      50.262  21.517  -8.001  1.00  0.00    -0.650 OA
BRANCH   2   5
HETATM    5  N1  UNL     1      50.727  18.658  -8.239  1.00  0.00    -0.334 N 
ATOM      6  H1  UNL     1      51.295  18.006  -8.779  1.00  0.00     0.164 HD
BRANCH   5   7
HETATM    7  C5  UNL     1      50.387  18.441  -6.893  1.00  0.00     0.178 C 
BRANCH   7   8
HETATM    8  C4  UNL     1      49.678  17.201  -6.761  1.00  0.00     0.038 C 
BRANCH   8   9
HETATM    9  C2  UNL     1      48.630  16.678  -7.631  1.00  0.00    -0.020 C 
HETATM   10  C1  UNL     1      47.284  16.639  -6.888  1.00  0.00     0.009 C 
HETATM   11  C3  UNL     1      48.871  15.318  -8.237  1.00  0.00     0.009 C 
ENDBRANCH   8   9
ENDBRANCH   7   8
BRANCH   7  12
HETATM   12  C22 UNL     1      51.764  18.409  -6.200  1.00  0.00     0.241 C 
HETATM   13  O5  UNL     1      52.702  18.529  -6.916  1.00  0.00    -0.271 OA
HETATM   14  N3  UNL     1      51.844  18.247  -4.834  1.00  0.00    -0.345 N 
ATOM     15  H3  UNL     1      50.965  18.208  -4.317  1.00  0.00     0.163 HD
BRANCH  14  16
HETATM   16  C23 UNL     1      53.060  18.128  -4.072  1.00  0.00     0.181 C 
HETATM   17  C24 UNL     1      53.149  18.822  -2.812  1.00  0.00     0.043 C 
BRANCH  16  18
HETATM   18  C25 UNL     1      53.508  16.701  -3.998  1.00  0.00     0.196 C 
HETATM   19  O6  UNL     1      52.954  15.727  -4.515  1.00  0.00    -0.646 OA
HETATM   20  O7  UNL     1      54.688  16.489  -3.232  1.00  0.00    -0.646 OA
ENDBRANCH  16  18
ENDBRANCH  14  16
ENDBRANCH   7  12
ENDBRANCH   5   7
ENDBRANCH   2   5
ENDBRANCH   1   2
BRANCH   1  21
HETATM   21  C7  UNL     1      50.137  21.199 -11.313  1.00  0.00     0.076 C 
BRANCH  21  22
HETATM   22  C8  UNL     1      50.094  20.758 -12.675  1.00  0.00    -0.056 A 
HETATM   23  C9  UNL     1      50.531  21.709 -13.561  1.00  0.00     0.007 A 
HETATM   24  C10 UNL     1      50.292  21.649 -14.847  1.00  0.00     0.001 A 
HETATM   25  C11 UNL     1      49.610  20.565 -15.379  1.00  0.00     0.000 A 
HETATM   26  C12 UNL     1      49.211  19.586 -14.481  1.00  0.00     0.001 A 
HETATM   27  C13 UNL     1      49.461  19.700 -13.150  1.00  0.00     0.007 A 
ENDBRANCH  21  22
ENDBRANCH   1  21
BRANCH   1  28
HETATM   28  N2  UNL     1      48.040  20.410 -10.722  1.00  0.00    -0.334 N 
HETATM   29  C14 UNL     1      47.020  19.553 -10.460  1.00  0.00     0.259 C 
ATOM     30  H2  UNL     1      47.806  21.332 -11.091  1.00  0.00     0.164 HD
BRANCH  29  31
HETATM   31  O3  UNL     1      47.189  18.256 -10.219  1.00  0.00    -0.327 OA
ATOM     32  H3  UNL     1      47.767  17.915  -9.547  1.00  0.00     0.221 HD
ENDBRANCH  29  31
BRANCH  29  33
HETATM   33  O4  UNL     1      45.658  19.952 -10.470  1.00  0.00    -0.312 OA
BRANCH  33  34
HETATM   34  C15 UNL     1      45.118  20.412 -11.690  1.00  0.00     0.218 C 
BRANCH  34  35
HETATM   35  C16 UNL     1      44.906  19.257 -12.551  1.00  0.00    -0.034 A 
HETATM   36  C17 UNL     1      43.986  18.289 -12.172  1.00  0.00     0.009 A 
HETATM   37  C18 UNL     1      43.813  17.098 -12.788  1.00  0.00     0.001 A 
HETATM   38  C19 UNL     1      44.666  16.747 -13.844  1.00  0.00     0.000 A 
HETATM   39  C20 UNL     1      45.702  17.734 -14.207  1.00  0.00     0.001 A 
HETATM   40  C21 UNL     1      45.763  18.909 -13.612  1.00  0.00     0.009 A 
ENDBRANCH  34  35
ENDBRANCH  33  34
ENDBRANCH  29  33
ENDBRANCH   1  28
TORSDOF 15
ENDMDL
