MODEL 5
REMARK VINA RESULT: -10.028813257      3.154      6.138
REMARK  15 active torsions:
REMARK  status: ('A' for Active; 'I' for Inactive)
REMARK    1  A    between atoms: C2_2  and  C4_4 
REMARK    2  A    between atoms: C4_4  and  C5_5 
REMARK    3  A    between atoms: C5_5  and  N1_6 
REMARK    4  A    between atoms: C5_5  and  C22_32 
REMARK    5  A    between atoms: N1_6  and  P1_8 
REMARK    6  A    between atoms: P1_8  and  C6_11 
REMARK    7  A    between atoms: C6_11  and  C7_12 
REMARK    8  A    between atoms: C6_11  and  N2_19 
REMARK    9  A    between atoms: C7_12  and  C8_13 
REMARK   10  A    between atoms: C14_21  and  O3_22 
REMARK   11  A    between atoms: C14_21  and  O4_24 
REMARK   12  A    between atoms: O4_24  and  C15_25 
REMARK   13  A    between atoms: C15_25  and  C16_26 
REMARK       I    between atoms: C22_32  and  N3_34 
REMARK   14  A    between atoms: N3_34  and  C23_36 
REMARK   15  A    between atoms: C23_36  and  C25_38 
ROOT
HETATM    1  C6  UNL     1      49.210  19.691 -10.224  1.00  0.00     0.203 C 
ENDROOT
BRANCH   1   2
HETATM    2  P1  UNL     1      50.142  20.276  -8.844  1.00  0.00     0.229 P 
HETATM    3  O1  UNL     1      51.327  20.830  -9.711  1.00  0.00    -0.650 OA
HETATM    4  O2  UNL     1      50.055  21.850  -8.304  1.00  0.00    -0.650 OA
BRANCH   2   5
HETATM    5  N1  UNL     1      51.251  19.212  -8.071  1.00  0.00    -0.334 N 
ATOM      6  H1  UNL     1      52.191  19.037  -8.426  1.00  0.00     0.164 HD
BRANCH   5   7
HETATM    7  C5  UNL     1      50.749  18.603  -6.909  1.00  0.00     0.178 C 
BRANCH   7   8
HETATM    8  C4  UNL     1      50.691  17.181  -7.085  1.00  0.00     0.038 C 
BRANCH   8   9
HETATM    9  C2  UNL     1      49.516  16.369  -7.385  1.00  0.00    -0.020 C 
HETATM   10  C1  UNL     1      49.342  16.214  -8.905  1.00  0.00     0.009 C 
HETATM   11  C3  UNL     1      48.204  16.839  -6.808  1.00  0.00     0.009 C 
ENDBRANCH   8   9
ENDBRANCH   7   8
BRANCH   7  12
HETATM   12  C22 UNL     1      51.779  19.021  -5.840  1.00  0.00     0.241 C 
HETATM   13  O5  UNL     1      52.470  19.943  -6.124  1.00  0.00    -0.271 OA
HETATM   14  N3  UNL     1      51.853  18.333  -4.647  1.00  0.00    -0.345 N 
ATOM     15  H3  UNL     1      51.169  17.591  -4.495  1.00  0.00     0.163 HD
BRANCH  14  16
HETATM   16  C23 UNL     1      52.811  18.571  -3.599  1.00  0.00     0.181 C 
HETATM   17  C24 UNL     1      52.389  18.389  -2.232  1.00  0.00     0.043 C 
BRANCH  16  18
HETATM   18  C25 UNL     1      54.119  17.914  -3.909  1.00  0.00     0.196 C 
HETATM   19  O6  UNL     1      54.869  18.176  -4.854  1.00  0.00    -0.646 OA
HETATM   20  O7  UNL     1      54.492  16.879  -3.007  1.00  0.00    -0.646 OA
ENDBRANCH  16  18
ENDBRANCH  14  16
ENDBRANCH   7  12
ENDBRANCH   5   7
ENDBRANCH   2   5
ENDBRANCH   1   2
BRANCH   1  21
HETATM   21  C7  UNL     1      50.023  20.057 -11.479  1.00  0.00     0.076 C 
BRANCH  21  22
HETATM   22  C8  UNL     1      49.341  19.414 -12.561  1.00  0.00    -0.056 A 
HETATM   23  C9  UNL     1      49.058  18.096 -12.311  1.00  0.00     0.007 A 
HETATM   24  C10 UNL     1      48.731  17.246 -13.251  1.00  0.00     0.001 A 
HETATM   25  C11 UNL     1      48.607  17.673 -14.564  1.00  0.00     0.000 A 
HETATM   26  C12 UNL     1      48.850  19.018 -14.801  1.00  0.00     0.001 A 
HETATM   27  C13 UNL     1      49.209  19.861 -13.798  1.00  0.00     0.007 A 
ENDBRANCH  21  22
ENDBRANCH   1  21
BRANCH   1  28
HETATM   28  N2  UNL     1      47.926  20.210 -10.505  1.00  0.00    -0.334 N 
HETATM   29  C14 UNL     1      46.765  19.625 -10.110  1.00  0.00     0.259 C 
ATOM     30  H2  UNL     1      47.867  21.079 -11.037  1.00  0.00     0.164 HD
BRANCH  29  31
HETATM   31  O3  UNL     1      46.687  18.385  -9.638  1.00  0.00    -0.327 OA
ATOM     32  H3  UNL     1      45.960  17.799  -9.813  1.00  0.00     0.221 HD
ENDBRANCH  29  31
BRANCH  29  33
HETATM   33  O4  UNL     1      45.505  20.270 -10.216  1.00  0.00    -0.312 OA
BRANCH  33  34
HETATM   34  C15 UNL     1      45.057  20.627 -11.506  1.00  0.00     0.218 C 
BRANCH  34  35
HETATM   35  C16 UNL     1      44.598  19.417 -12.173  1.00  0.00    -0.034 A 
HETATM   36  C17 UNL     1      43.559  18.686 -11.614  1.00  0.00     0.009 A 
HETATM   37  C18 UNL     1      43.150  17.469 -12.036  1.00  0.00     0.001 A 
HETATM   38  C19 UNL     1      43.859  16.830 -13.062  1.00  0.00     0.000 A 
HETATM   39  C20 UNL     1      45.017  17.561 -13.613  1.00  0.00     0.001 A 
HETATM   40  C21 UNL     1      45.312  18.779 -13.205  1.00  0.00     0.009 A 
ENDBRANCH  34  35
ENDBRANCH  33  34
ENDBRANCH  29  33
ENDBRANCH   1  28
TORSDOF 15
ENDMDL
