MODEL 2
REMARK VINA RESULT: -10.283620640      1.076      1.595
REMARK  15 active torsions:
REMARK  status: ('A' for Active; 'I' for Inactive)
REMARK    1  A    between atoms: C2_2  and  C4_4 
REMARK    2  A    between atoms: C4_4  and  C5_5 
REMARK    3  A    between atoms: C5_5  and  N1_6 
REMARK    4  A    between atoms: C5_5  and  C22_32 
REMARK    5  A    between atoms: N1_6  and  P1_8 
REMARK    6  A    between atoms: P1_8  and  C6_11 
REMARK    7  A    between atoms: C6_11  and  C7_12 
REMARK    8  A    between atoms: C6_11  and  N2_19 
REMARK    9  A    between atoms: C7_12  and  C8_13 
REMARK   10  A    between atoms: C14_21  and  O3_22 
REMARK   11  A    between atoms: C14_21  and  O4_24 
REMARK   12  A    between atoms: O4_24  and  C15_25 
REMARK   13  A    between atoms: C15_25  and  C16_26 
REMARK       I    between atoms: C22_32  and  N3_34 
REMARK   14  A    between atoms: N3_34  and  C23_36 
REMARK   15  A    between atoms: C23_36  and  C25_38 
ROOT
HETATM    1  C6  UNL     1      50.558  18.499  -7.199  1.00  0.00     0.203 C 
ENDROOT
BRANCH   1   2
HETATM    2  P1  UNL     1      51.631  18.984  -5.884  1.00  0.00     0.229 P 
HETATM    3  O1  UNL     1      52.909  18.315  -6.505  1.00  0.00    -0.650 OA
HETATM    4  O2  UNL     1      52.560  20.366  -5.947  1.00  0.00    -0.650 OA
BRANCH   2   5
HETATM    5  N1  UNL     1      51.799  17.953  -4.517  1.00  0.00    -0.334 N 
ATOM      6  H1  UNL     1      51.098  17.260  -4.255  1.00  0.00     0.164 HD
BRANCH   5   7
HETATM    7  C5  UNL     1      52.986  18.149  -3.791  1.00  0.00     0.178 C 
BRANCH   7   8
HETATM    8  C4  UNL     1      52.684  18.647  -2.481  1.00  0.00     0.038 C 
BRANCH   8   9
HETATM    9  C2  UNL     1      53.597  18.791  -1.351  1.00  0.00    -0.020 C 
HETATM   10  C1  UNL     1      52.859  18.531  -0.027  1.00  0.00     0.009 C 
HETATM   11  C3  UNL     1      54.324  20.107  -1.233  1.00  0.00     0.009 C 
ENDBRANCH   8   9
ENDBRANCH   7   8
BRANCH   7  12
HETATM   12  C22 UNL     1      53.595  16.732  -3.756  1.00  0.00     0.241 C 
HETATM   13  O5  UNL     1      54.764  16.670  -3.944  1.00  0.00    -0.271 OA
HETATM   14  N3  UNL     1      52.787  15.641  -3.519  1.00  0.00    -0.345 N 
ATOM     15  H3  UNL     1      51.803  15.824  -3.318  1.00  0.00     0.163 HD
BRANCH  14  16
HETATM   16  C23 UNL     1      53.210  14.264  -3.531  1.00  0.00     0.181 C 
HETATM   17  C24 UNL     1      52.800  13.413  -2.443  1.00  0.00     0.043 C 
BRANCH  16  18
HETATM   18  C25 UNL     1      52.997  13.650  -4.880  1.00  0.00     0.196 C 
HETATM   19  O6  UNL     1      53.763  12.881  -5.468  1.00  0.00    -0.646 OA
HETATM   20  O7  UNL     1      51.783  14.027  -5.518  1.00  0.00    -0.646 OA
ENDBRANCH  16  18
ENDBRANCH  14  16
ENDBRANCH   7  12
ENDBRANCH   5   7
ENDBRANCH   2   5
ENDBRANCH   1   2
BRANCH   1  21
HETATM   21  C7  UNL     1      50.752  16.983  -7.377  1.00  0.00     0.076 C 
BRANCH  21  22
HETATM   22  C8  UNL     1      49.458  16.415  -7.148  1.00  0.00    -0.056 A 
HETATM   23  C9  UNL     1      49.277  15.215  -7.787  1.00  0.00     0.007 A 
HETATM   24  C10 UNL     1      48.099  14.678  -7.975  1.00  0.00     0.001 A 
HETATM   25  C11 UNL     1      46.963  15.297  -7.477  1.00  0.00     0.000 A 
HETATM   26  C12 UNL     1      47.160  16.488  -6.792  1.00  0.00     0.001 A 
HETATM   27  C13 UNL     1      48.399  17.022  -6.640  1.00  0.00     0.007 A 
ENDBRANCH  21  22
ENDBRANCH   1  21
BRANCH   1  28
HETATM   28  N2  UNL     1      50.737  19.007  -8.506  1.00  0.00    -0.334 N 
HETATM   29  C14 UNL     1      50.699  20.327  -8.821  1.00  0.00     0.259 C 
ATOM     30  H2  UNL     1      50.904  18.340  -9.259  1.00  0.00     0.164 HD
BRANCH  29  31
HETATM   31  O3  UNL     1      50.249  21.271  -7.999  1.00  0.00    -0.327 OA
ATOM     32  H3  UNL     1      50.661  21.490  -7.172  1.00  0.00     0.221 HD
ENDBRANCH  29  31
BRANCH  29  33
HETATM   33  O4  UNL     1      51.090  20.826 -10.091  1.00  0.00    -0.312 OA
BRANCH  33  34
HETATM   34  C15 UNL     1      50.340  20.420 -11.215  1.00  0.00     0.218 C 
BRANCH  34  35
HETATM   35  C16 UNL     1      50.621  21.347 -12.302  1.00  0.00    -0.034 A 
HETATM   36  C17 UNL     1      50.132  21.072 -13.572  1.00  0.00     0.009 A 
HETATM   37  C18 UNL     1      50.455  21.754 -14.693  1.00  0.00     0.001 A 
HETATM   38  C19 UNL     1      51.416  22.772 -14.619  1.00  0.00     0.000 A 
HETATM   39  C20 UNL     1      52.004  23.022 -13.288  1.00  0.00     0.001 A 
HETATM   40  C21 UNL     1      51.585  22.368 -12.223  1.00  0.00     0.009 A 
ENDBRANCH  34  35
ENDBRANCH  33  34
ENDBRANCH  29  33
ENDBRANCH   1  28
TORSDOF 15
ENDMDL
