MODEL 3
REMARK VINA RESULT: -6.595463381      2.904      4.295
REMARK  7 active torsions:
REMARK  status: ('A' for Active; 'I' for Inactive)
REMARK    1  A    between atoms: C1_2  and  C2_4 
REMARK    2  A    between atoms: C2_4  and  C3_5 
REMARK    3  A    between atoms: C3_5  and  C4_6 
REMARK    4  A    between atoms: C9_11  and  N1_12 
REMARK    5  A    between atoms: N2_15  and  N3_17 
REMARK    6  A    between atoms: N3_17  and  C10_19 
REMARK    7  A    between atoms: C11_22  and  C12_23 
ROOT
HETATM    1  C2  UNL     1      -0.437   2.034   6.161  1.00  0.00     0.106 C 
HETATM    2  N2  UNL     1      -1.647   1.788   5.869  1.00  0.00    -0.296 N 
ATOM      3  H2  UNL     1      -2.368   2.166   6.482  1.00  0.00     0.187 HD
ENDROOT
BRANCH   2   4
HETATM    4  N3  UNL     1      -2.054   1.049   4.788  1.00  0.00    -0.279 N 
ATOM      5  H3  UNL     1      -1.600   0.176   4.518  1.00  0.00     0.189 HD
BRANCH   4   6
HETATM    6  C10 UNL     1      -3.183   1.603   4.053  1.00  0.00     0.163 A 
HETATM    7  N4  UNL     1      -3.302   1.781   2.757  1.00  0.00    -0.334 N 
HETATM    8  C11 UNL     1      -4.387   2.293   2.265  1.00  0.00     0.051 A 
ATOM      9  H4  UNL     1      -2.538   1.515   2.136  1.00  0.00     0.168 HD
HETATM   10  C18 UNL     1      -5.381   2.631   3.162  1.00  0.00     0.083 A 
HETATM   11  S1  UNL     1      -4.674   2.183   4.649  1.00  0.00    -0.062 SA
BRANCH   8  12
HETATM   12  C12 UNL     1      -4.589   2.522   0.831  1.00  0.00    -0.007 A 
HETATM   13  C13 UNL     1      -3.498   2.686   0.021  1.00  0.00     0.015 A 
HETATM   14  C14 UNL     1      -3.610   2.912  -1.345  1.00  0.00     0.026 A 
HETATM   15  C15 UNL     1      -4.857   2.977  -1.922  1.00  0.00     0.055 A 
HETATM   16 CL1  UNL     1      -4.968   3.263  -3.647  1.00  0.00    -0.083 Cl
HETATM   17  C16 UNL     1      -5.957   2.815  -1.124  1.00  0.00     0.056 A 
HETATM   18 CL2  UNL     1      -7.543   2.897  -1.846  1.00  0.00    -0.083 Cl
HETATM   19  C17 UNL     1      -5.820   2.592   0.229  1.00  0.00     0.039 A 
ENDBRANCH   8  12
ENDBRANCH   4   6
ENDBRANCH   2   4
BRANCH   1  20
HETATM   20  C1  UNL     1      -0.106   2.847   7.360  1.00  0.00     0.224 C 
HETATM   21  O1  UNL     1       0.303   2.211   8.359  1.00  0.00    -0.643 OA
HETATM   22  O2  UNL     1      -0.221   4.200   7.432  1.00  0.00    -0.643 OA
ENDBRANCH   1  20
BRANCH   1  23
HETATM   23  C3  UNL     1       0.674   1.484   5.355  1.00  0.00     0.107 C 
BRANCH  23  24
HETATM   24  C4  UNL     1       1.554   2.479   4.741  1.00  0.00    -0.019 A 
HETATM   25  C5  UNL     1       2.857   2.657   5.242  1.00  0.00     0.010 A 
HETATM   26  C6  UNL     1       3.737   3.584   4.761  1.00  0.00     0.001 A 
HETATM   27  C7  UNL     1       3.356   4.403   3.729  1.00  0.00     0.002 A 
HETATM   28  C8  UNL     1       2.094   4.252   3.219  1.00  0.00     0.037 A 
HETATM   29  C9  UNL     1       1.183   3.296   3.713  1.00  0.00     0.109 A 
BRANCH  29  30
HETATM   30  N1  UNL     1      -0.094   3.211   3.087  1.00  0.00    -0.115 N 
HETATM   31  O3  UNL     1      -1.066   3.933   3.351  1.00  0.00    -0.532 OA
HETATM   32  O4  UNL     1      -0.310   2.236   2.131  1.00  0.00    -0.532 OA
ENDBRANCH  29  30
ENDBRANCH  23  24
ENDBRANCH   1  23
TORSDOF 7
ENDMDL
