MODEL 1
REMARK VINA RESULT: -6.623570741      0.000      0.000
REMARK  7 active torsions:
REMARK  status: ('A' for Active; 'I' for Inactive)
REMARK    1  A    between atoms: C1_2  and  C2_4 
REMARK    2  A    between atoms: C2_4  and  C3_5 
REMARK    3  A    between atoms: C3_5  and  C4_6 
REMARK    4  A    between atoms: C9_11  and  N1_12 
REMARK    5  A    between atoms: N2_15  and  N3_17 
REMARK    6  A    between atoms: N3_17  and  C10_19 
REMARK    7  A    between atoms: C11_22  and  C12_23 
ROOT
HETATM    1  C2  UNL     1      -2.289   1.685   2.354  1.00  0.00     0.106 C 
HETATM    2  N2  UNL     1      -2.762   2.222   1.307  1.00  0.00    -0.296 N 
ATOM      3  H2  UNL     1      -3.706   2.604   1.356  1.00  0.00     0.187 HD
ENDROOT
BRANCH   2   4
HETATM    4  N3  UNL     1      -2.095   2.327   0.113  1.00  0.00    -0.279 N 
ATOM      5  H3  UNL     1      -1.116   2.063   0.008  1.00  0.00     0.189 HD
BRANCH   4   6
HETATM    6  C10 UNL     1      -2.890   2.843  -0.993  1.00  0.00     0.163 A 
HETATM    7  N4  UNL     1      -3.880   2.257  -1.626  1.00  0.00    -0.334 N 
HETATM    8  C11 UNL     1      -4.485   2.864  -2.598  1.00  0.00     0.051 A 
ATOM      9  H4  UNL     1      -4.174   1.319  -1.352  1.00  0.00     0.168 HD
HETATM   10  C18 UNL     1      -4.036   4.131  -2.918  1.00  0.00     0.083 A 
HETATM   11  S1  UNL     1      -2.775   4.348  -1.790  1.00  0.00    -0.062 SA
BRANCH   8  12
HETATM   12  C12 UNL     1      -5.595   2.272  -3.351  1.00  0.00    -0.007 A 
HETATM   13  C13 UNL     1      -5.421   1.052  -3.948  1.00  0.00     0.015 A 
HETATM   14  C14 UNL     1      -6.423   0.430  -4.681  1.00  0.00     0.026 A 
HETATM   15  C15 UNL     1      -7.643   1.050  -4.823  1.00  0.00     0.055 A 
HETATM   16 CL1  UNL     1      -8.889   0.242  -5.754  1.00  0.00    -0.083 Cl
HETATM   17  C16 UNL     1      -7.832   2.269  -4.232  1.00  0.00     0.056 A 
HETATM   18 CL2  UNL     1      -9.375   3.063  -4.407  1.00  0.00    -0.083 Cl
HETATM   19  C17 UNL     1      -6.822   2.866  -3.509  1.00  0.00     0.039 A 
ENDBRANCH   8  12
ENDBRANCH   4   6
ENDBRANCH   2   4
BRANCH   1  20
HETATM   20  C1  UNL     1      -3.100   1.624   3.598  1.00  0.00     0.224 C 
HETATM   21  O1  UNL     1      -3.816   2.623   3.836  1.00  0.00    -0.643 OA
HETATM   22  O2  UNL     1      -3.105   0.576   4.465  1.00  0.00    -0.643 OA
ENDBRANCH   1  20
BRANCH   1  23
HETATM   23  C3  UNL     1      -0.946   1.064   2.358  1.00  0.00     0.107 C 
BRANCH  23  24
HETATM   24  C4  UNL     1       0.058   1.749   3.173  1.00  0.00    -0.019 A 
HETATM   25  C5  UNL     1       0.428   1.207   4.419  1.00  0.00     0.010 A 
HETATM   26  C6  UNL     1       1.326   1.792   5.266  1.00  0.00     0.001 A 
HETATM   27  C7  UNL     1       1.918   2.976   4.907  1.00  0.00     0.002 A 
HETATM   28  C8  UNL     1       1.580   3.526   3.700  1.00  0.00     0.037 A 
HETATM   29  C9  UNL     1       0.654   2.925   2.823  1.00  0.00     0.109 A 
BRANCH  29  30
HETATM   30  N1  UNL     1       0.399   3.576   1.581  1.00  0.00    -0.115 N 
HETATM   31  O3  UNL     1       0.995   3.344   0.519  1.00  0.00    -0.532 OA
HETATM   32  O4  UNL     1      -0.557   4.573   1.529  1.00  0.00    -0.532 OA
ENDBRANCH  29  30
ENDBRANCH  23  24
ENDBRANCH   1  23
TORSDOF 7
ENDMDL
