MODEL 2
REMARK VINA RESULT: -6.595593985      1.221      1.481
REMARK  7 active torsions:
REMARK  status: ('A' for Active; 'I' for Inactive)
REMARK    1  A    between atoms: C1_2  and  C2_4 
REMARK    2  A    between atoms: C2_4  and  C3_5 
REMARK    3  A    between atoms: C3_5  and  C4_6 
REMARK    4  A    between atoms: C9_11  and  N1_12 
REMARK    5  A    between atoms: N2_15  and  N3_17 
REMARK    6  A    between atoms: N3_17  and  C10_19 
REMARK    7  A    between atoms: C11_22  and  C12_23 
ROOT
HETATM    1  C2  UNL     1      -2.480   1.636   3.443  1.00  0.00     0.106 C 
HETATM    2  N2  UNL     1      -3.208   2.271   2.621  1.00  0.00    -0.296 N 
ATOM      3  H2  UNL     1      -4.099   2.633   2.960  1.00  0.00     0.187 HD
ENDROOT
BRANCH   2   4
HETATM    4  N3  UNL     1      -2.883   2.506   1.309  1.00  0.00    -0.279 N 
ATOM      5  H3  UNL     1      -1.936   2.390   0.951  1.00  0.00     0.189 HD
BRANCH   4   6
HETATM    6  C10 UNL     1      -3.993   2.933   0.468  1.00  0.00     0.163 A 
HETATM    7  N4  UNL     1      -4.460   2.357  -0.617  1.00  0.00    -0.334 N 
HETATM    8  C11 UNL     1      -5.464   2.876  -1.251  1.00  0.00     0.051 A 
ATOM      9  H4  UNL     1      -4.030   1.498  -0.960  1.00  0.00     0.168 HD
HETATM   10  C18 UNL     1      -5.997   4.040  -0.731  1.00  0.00     0.083 A 
HETATM   11  S1  UNL     1      -5.007   4.296   0.634  1.00  0.00    -0.062 SA
BRANCH   8  12
HETATM   12  C12 UNL     1      -6.036   2.291  -2.467  1.00  0.00    -0.007 A 
HETATM   13  C13 UNL     1      -5.335   1.324  -3.137  1.00  0.00     0.015 A 
HETATM   14  C14 UNL     1      -5.809   0.727  -4.297  1.00  0.00     0.026 A 
HETATM   15  C15 UNL     1      -7.028   1.110  -4.808  1.00  0.00     0.055 A 
HETATM   16 CL1  UNL     1      -7.601   0.340  -6.274  1.00  0.00    -0.083 Cl
HETATM   17  C16 UNL     1      -7.740   2.075  -4.150  1.00  0.00     0.056 A 
HETATM   18 CL2  UNL     1      -9.285   2.569  -4.790  1.00  0.00    -0.083 Cl
HETATM   19  C17 UNL     1      -7.248   2.653  -3.000  1.00  0.00     0.039 A 
ENDBRANCH   8  12
ENDBRANCH   4   6
ENDBRANCH   2   4
BRANCH   1  20
HETATM   20  C1  UNL     1      -2.930   1.437   4.845  1.00  0.00     0.224 C 
HETATM   21  O1  UNL     1      -3.495   0.347   5.091  1.00  0.00    -0.643 OA
HETATM   22  O2  UNL     1      -2.768   2.346   5.844  1.00  0.00    -0.643 OA
ENDBRANCH   1  20
BRANCH   1  23
HETATM   23  C3  UNL     1      -1.195   1.035   3.024  1.00  0.00     0.107 C 
BRANCH  23  24
HETATM   24  C4  UNL     1       0.003   1.675   3.570  1.00  0.00    -0.019 A 
HETATM   25  C5  UNL     1       0.664   1.089   4.665  1.00  0.00     0.010 A 
HETATM   26  C6  UNL     1       1.765   1.630   5.268  1.00  0.00     0.001 A 
HETATM   27  C7  UNL     1       2.277   2.812   4.798  1.00  0.00     0.002 A 
HETATM   28  C8  UNL     1       1.655   3.405   3.731  1.00  0.00     0.037 A 
HETATM   29  C9  UNL     1       0.520   2.849   3.107  1.00  0.00     0.109 A 
BRANCH  29  30
HETATM   30  N1  UNL     1      -0.027   3.542   1.988  1.00  0.00    -0.115 N 
HETATM   31  O3  UNL     1      -0.817   4.494   2.057  1.00  0.00    -0.532 OA
HETATM   32  O4  UNL     1       0.299   3.120   0.713  1.00  0.00    -0.532 OA
ENDBRANCH  29  30
ENDBRANCH  23  24
ENDBRANCH   1  23
TORSDOF 7
ENDMDL
