MODEL 7
REMARK VINA RESULT: -7.113764114      1.869      7.739
REMARK  6 active torsions:
REMARK  status: ('A' for Active; 'I' for Inactive)
REMARK    1  A    between atoms: C2_2  and  O1_3 
REMARK    2  A    between atoms: O1_3  and  C3_4 
REMARK    3  A    between atoms: C6_7  and  C7_8 
REMARK    4  A    between atoms: C10_12  and  N1_13 
REMARK       I    between atoms: N1_13  and  C11_15 
REMARK    5  A    between atoms: C11_15  and  C12_17 
REMARK    6  A    between atoms: C16_21  and  C17_22 
ROOT
HETATM    1  N1  UNL     1     -14.478  -1.355  -2.761  1.00  0.00    -0.320 N 
ATOM      2  H1  UNL     1     -14.162  -0.545  -3.294  1.00  0.00     0.169 HD
HETATM    3  C11 UNL     1     -13.728  -1.705  -1.624  1.00  0.00     0.256 C 
HETATM    4  O3  UNL     1     -14.012  -2.678  -0.891  1.00  0.00    -0.267 OA
ENDROOT
BRANCH   1   5
HETATM    5  C10 UNL     1     -15.634  -2.028  -3.233  1.00  0.00     0.069 A 
HETATM    6  C3  UNL     1     -16.696  -1.282  -3.718  1.00  0.00     0.095 A 
HETATM    7  C4  UNL     1     -17.813  -1.921  -4.175  1.00  0.00     0.040 A 
HETATM    8  C5  UNL     1     -17.965  -3.290  -4.189  1.00  0.00     0.018 A 
HETATM    9  C6  UNL     1     -16.923  -4.037  -3.713  1.00  0.00     0.012 A 
HETATM   10  C9  UNL     1     -15.772  -3.393  -3.242  1.00  0.00     0.047 A 
BRANCH   6  11
HETATM   11  O1  UNL     1     -16.584   0.103  -3.722  1.00  0.00    -0.349 OA
BRANCH  11  12
HETATM   12  C2  UNL     1     -17.508   1.005  -4.230  1.00  0.00     0.171 C 
HETATM   13  C1  UNL     1     -18.516   1.403  -3.184  1.00  0.00     0.034 C 
ENDBRANCH  11  12
ENDBRANCH   6  11
BRANCH   9  14
HETATM   14  C7  UNL     1     -17.007  -5.488  -3.695  1.00  0.00     0.155 C 
HETATM   15  C8  UNL     1     -18.175  -6.152  -4.312  1.00  0.00     0.096 C 
HETATM   16  O2  UNL     1     -16.132  -6.193  -3.179  1.00  0.00    -0.293 OA
ENDBRANCH   9  14
ENDBRANCH   1   5
BRANCH   3  17
HETATM   17  C12 UNL     1     -12.544  -0.912  -1.247  1.00  0.00     0.033 A 
HETATM   18  C13 UNL     1     -11.980  -0.945   0.004  1.00  0.00     0.017 A 
HETATM   19  C14 UNL     1     -10.866  -0.166   0.306  1.00  0.00     0.002 A 
HETATM   20  C15 UNL     1     -10.310   0.651  -0.652  1.00  0.00     0.018 A 
HETATM   21  C16 UNL     1     -10.889   0.673  -1.908  1.00  0.00     0.041 A 
HETATM   22  C18 UNL     1     -11.988  -0.098  -2.199  1.00  0.00     0.035 A 
BRANCH  21  23
HETATM   23  C17 UNL     1     -10.329   1.519  -2.936  1.00  0.00     0.209 C 
HETATM   24  O4  UNL     1     -10.952   1.697  -3.999  1.00  0.00    -0.644 OA
HETATM   25  O5  UNL     1      -9.113   2.129  -2.752  1.00  0.00    -0.644 OA
ENDBRANCH  21  23
ENDBRANCH   3  17
TORSDOF 6
ENDMDL
