MODEL 3
REMARK VINA RESULT: -7.285685530      2.602      7.595
REMARK  6 active torsions:
REMARK  status: ('A' for Active; 'I' for Inactive)
REMARK    1  A    between atoms: C2_2  and  O1_3 
REMARK    2  A    between atoms: O1_3  and  C3_4 
REMARK    3  A    between atoms: C6_7  and  C7_8 
REMARK    4  A    between atoms: C10_12  and  N1_13 
REMARK       I    between atoms: N1_13  and  C11_15 
REMARK    5  A    between atoms: C11_15  and  C12_17 
REMARK    6  A    between atoms: C16_21  and  C17_22 
ROOT
HETATM    1  N1  UNL     1     -15.397  -1.619  -3.185  1.00  0.00    -0.320 N 
ATOM      2  H1  UNL     1     -15.011  -0.688  -3.341  1.00  0.00     0.169 HD
HETATM    3  C11 UNL     1     -14.812  -2.393  -2.168  1.00  0.00     0.256 C 
HETATM    4  O3  UNL     1     -15.195  -3.550  -1.883  1.00  0.00    -0.267 OA
ENDROOT
BRANCH   1   5
HETATM    5  C10 UNL     1     -16.477  -2.016  -4.014  1.00  0.00     0.069 A 
HETATM    6  C3  UNL     1     -17.574  -1.177  -4.139  1.00  0.00     0.095 A 
HETATM    7  C4  UNL     1     -18.618  -1.552  -4.935  1.00  0.00     0.040 A 
HETATM    8  C5  UNL     1     -18.663  -2.733  -5.643  1.00  0.00     0.018 A 
HETATM    9  C6  UNL     1     -17.586  -3.568  -5.528  1.00  0.00     0.012 A 
HETATM   10  C9  UNL     1     -16.509  -3.196  -4.714  1.00  0.00     0.047 A 
BRANCH   6  11
HETATM   11  O1  UNL     1     -17.570   0.024  -3.443  1.00  0.00    -0.349 OA
BRANCH  11  12
HETATM   12  C2  UNL     1     -18.423   1.099  -3.644  1.00  0.00     0.171 C 
HETATM   13  C1  UNL     1     -19.360   1.280  -2.480  1.00  0.00     0.034 C 
ENDBRANCH  11  12
ENDBRANCH   6  11
BRANCH   9  14
HETATM   14  C7  UNL     1     -17.559  -4.833  -6.243  1.00  0.00     0.155 C 
HETATM   15  C8  UNL     1     -18.715  -5.217  -7.078  1.00  0.00     0.096 C 
HETATM   16  O2  UNL     1     -16.595  -5.606  -6.178  1.00  0.00    -0.293 OA
ENDBRANCH   9  14
ENDBRANCH   1   5
BRANCH   3  17
HETATM   17  C12 UNL     1     -13.690  -1.852  -1.379  1.00  0.00     0.033 A 
HETATM   18  C13 UNL     1     -13.506  -2.120  -0.046  1.00  0.00     0.017 A 
HETATM   19  C14 UNL     1     -12.432  -1.572   0.651  1.00  0.00     0.002 A 
HETATM   20  C15 UNL     1     -11.534  -0.751   0.008  1.00  0.00     0.018 A 
HETATM   21  C16 UNL     1     -11.733  -0.490  -1.335  1.00  0.00     0.041 A 
HETATM   22  C18 UNL     1     -12.795  -1.034  -2.016  1.00  0.00     0.035 A 
BRANCH  21  23
HETATM   23  C17 UNL     1     -10.809   0.368  -2.039  1.00  0.00     0.209 C 
HETATM   24  O4  UNL     1     -10.801   0.381  -3.284  1.00  0.00    -0.644 OA
HETATM   25  O5  UNL     1      -9.936   1.171  -1.346  1.00  0.00    -0.644 OA
ENDBRANCH  21  23
ENDBRANCH   3  17
TORSDOF 6
ENDMDL
