MODEL 4
REMARK VINA RESULT: -7.284126785      2.262      3.709
REMARK  6 active torsions:
REMARK  status: ('A' for Active; 'I' for Inactive)
REMARK    1  A    between atoms: C2_2  and  O1_3 
REMARK    2  A    between atoms: O1_3  and  C3_4 
REMARK    3  A    between atoms: C6_7  and  C7_8 
REMARK    4  A    between atoms: C10_12  and  N1_13 
REMARK       I    between atoms: N1_13  and  C11_15 
REMARK    5  A    between atoms: C11_15  and  C12_17 
REMARK    6  A    between atoms: C16_21  and  C17_22 
ROOT
HETATM    1  N1  UNL     1     -14.956  -2.260  -2.636  1.00  0.00    -0.320 N 
ATOM      2  H1  UNL     1     -15.086  -3.256  -2.811  1.00  0.00     0.169 HD
HETATM    3  C11 UNL     1     -15.829  -1.375  -3.293  1.00  0.00     0.256 C 
HETATM    4  O3  UNL     1     -15.770  -0.133  -3.162  1.00  0.00    -0.267 OA
ENDROOT
BRANCH   1   5
HETATM    5  C10 UNL     1     -13.912  -1.891  -1.750  1.00  0.00     0.069 A 
HETATM    6  C3  UNL     1     -13.922  -2.384  -0.455  1.00  0.00     0.095 A 
HETATM    7  C4  UNL     1     -12.920  -2.034   0.404  1.00  0.00     0.040 A 
HETATM    8  C5  UNL     1     -11.872  -1.206   0.069  1.00  0.00     0.018 A 
HETATM    9  C6  UNL     1     -11.851  -0.714  -1.207  1.00  0.00     0.012 A 
HETATM   10  C9  UNL     1     -12.872  -1.065  -2.098  1.00  0.00     0.047 A 
BRANCH   6  11
HETATM   11  O1  UNL     1     -14.961  -3.223  -0.075  1.00  0.00    -0.349 OA
BRANCH  11  12
HETATM   12  C2  UNL     1     -14.856  -4.558   0.288  1.00  0.00     0.171 C 
HETATM   13  C1  UNL     1     -14.982  -5.462  -0.910  1.00  0.00     0.034 C 
ENDBRANCH  11  12
ENDBRANCH   6  11
BRANCH   9  14
HETATM   14  C7  UNL     1     -10.777   0.166  -1.637  1.00  0.00     0.155 C 
HETATM   15  C8  UNL     1     -10.750   0.644  -3.035  1.00  0.00     0.096 C 
HETATM   16  O2  UNL     1      -9.879   0.534  -0.870  1.00  0.00    -0.293 OA
ENDBRANCH   9  14
ENDBRANCH   1   5
BRANCH   3  17
HETATM   17  C12 UNL     1     -16.877  -1.899  -4.190  1.00  0.00     0.033 A 
HETATM   18  C13 UNL     1     -18.049  -1.236  -4.449  1.00  0.00     0.017 A 
HETATM   19  C14 UNL     1     -19.007  -1.785  -5.298  1.00  0.00     0.002 A 
HETATM   20  C15 UNL     1     -18.788  -3.006  -5.894  1.00  0.00     0.018 A 
HETATM   21  C16 UNL     1     -17.602  -3.662  -5.622  1.00  0.00     0.041 A 
HETATM   22  C18 UNL     1     -16.662  -3.115  -4.784  1.00  0.00     0.035 A 
BRANCH  21  23
HETATM   23  C17 UNL     1     -17.342  -4.946  -6.231  1.00  0.00     0.209 C 
HETATM   24  O4  UNL     1     -18.246  -5.530  -6.856  1.00  0.00    -0.644 OA
HETATM   25  O5  UNL     1     -16.103  -5.529  -6.125  1.00  0.00    -0.644 OA
ENDBRANCH  21  23
ENDBRANCH   3  17
TORSDOF 6
ENDMDL
