MODEL 11
REMARK VINA RESULT: -6.973416311      2.515      3.970
REMARK  6 active torsions:
REMARK  status: ('A' for Active; 'I' for Inactive)
REMARK    1  A    between atoms: C2_2  and  O1_3 
REMARK    2  A    between atoms: O1_3  and  C3_4 
REMARK    3  A    between atoms: C6_7  and  C7_8 
REMARK    4  A    between atoms: C10_12  and  N1_13 
REMARK       I    between atoms: N1_13  and  C11_15 
REMARK    5  A    between atoms: C11_15  and  C12_17 
REMARK    6  A    between atoms: C16_21  and  C17_22 
ROOT
HETATM    1  N1  UNL     1     -15.202  -2.140  -2.566  1.00  0.00    -0.320 N 
ATOM      2  H1  UNL     1     -15.842  -1.368  -2.750  1.00  0.00     0.169 HD
HETATM    3  C11 UNL     1     -15.486  -3.369  -3.186  1.00  0.00     0.256 C 
HETATM    4  O3  UNL     1     -14.779  -4.390  -3.037  1.00  0.00    -0.267 OA
ENDROOT
BRANCH   1   5
HETATM    5  C10 UNL     1     -14.104  -1.877  -1.708  1.00  0.00     0.069 A 
HETATM    6  C3  UNL     1     -14.085  -2.447  -0.444  1.00  0.00     0.095 A 
HETATM    7  C4  UNL     1     -13.032  -2.198   0.388  1.00  0.00     0.040 A 
HETATM    8  C5  UNL     1     -11.957  -1.403   0.056  1.00  0.00     0.018 A 
HETATM    9  C6  UNL     1     -11.964  -0.837  -1.189  1.00  0.00     0.012 A 
HETATM   10  C9  UNL     1     -13.039  -1.083  -2.052  1.00  0.00     0.047 A 
BRANCH   6  11
HETATM   11  O1  UNL     1     -15.149  -3.255  -0.068  1.00  0.00    -0.349 OA
BRANCH  11  12
HETATM   12  C2  UNL     1     -15.132  -4.244   0.905  1.00  0.00     0.171 C 
HETATM   13  C1  UNL     1     -14.743  -5.577   0.324  1.00  0.00     0.034 C 
ENDBRANCH  11  12
ENDBRANCH   6  11
BRANCH   9  14
HETATM   14  C7  UNL     1     -10.866   0.016  -1.614  1.00  0.00     0.155 C 
HETATM   15  C8  UNL     1     -10.809   0.476  -3.016  1.00  0.00     0.096 C 
HETATM   16  O2  UNL     1      -9.970   0.371  -0.839  1.00  0.00    -0.293 OA
ENDBRANCH   9  14
ENDBRANCH   1   5
BRANCH   3  17
HETATM   17  C12 UNL     1     -16.667  -3.501  -4.059  1.00  0.00     0.033 A 
HETATM   18  C13 UNL     1     -17.744  -2.652  -4.006  1.00  0.00     0.017 A 
HETATM   19  C14 UNL     1     -18.837  -2.832  -4.851  1.00  0.00     0.002 A 
HETATM   20  C15 UNL     1     -18.851  -3.868  -5.757  1.00  0.00     0.018 A 
HETATM   21  C16 UNL     1     -17.759  -4.714  -5.798  1.00  0.00     0.041 A 
HETATM   22  C18 UNL     1     -16.684  -4.532  -4.962  1.00  0.00     0.035 A 
BRANCH  21  23
HETATM   23  C17 UNL     1     -17.742  -5.811  -6.738  1.00  0.00     0.209 C 
HETATM   24  O4  UNL     1     -16.835  -6.661  -6.682  1.00  0.00    -0.644 OA
HETATM   25  O5  UNL     1     -18.721  -5.924  -7.695  1.00  0.00    -0.644 OA
ENDBRANCH  21  23
ENDBRANCH   3  17
TORSDOF 6
ENDMDL
