MODEL 5
REMARK VINA RESULT: -7.121883617      1.928      7.597
REMARK  6 active torsions:
REMARK  status: ('A' for Active; 'I' for Inactive)
REMARK    1  A    between atoms: C2_2  and  O1_3 
REMARK    2  A    between atoms: O1_3  and  C3_4 
REMARK    3  A    between atoms: C6_7  and  C7_8 
REMARK    4  A    between atoms: C10_12  and  N1_13 
REMARK       I    between atoms: N1_13  and  C11_15 
REMARK    5  A    between atoms: C11_15  and  C12_17 
REMARK    6  A    between atoms: C16_21  and  C17_22 
ROOT
HETATM    1  N1  UNL     1     -12.725  -0.732  -1.596  1.00  0.00    -0.320 N 
ATOM      2  H1  UNL     1     -13.162  -0.215  -2.360  1.00  0.00     0.169 HD
HETATM    3  C11 UNL     1     -11.442  -0.319  -1.196  1.00  0.00     0.256 C 
HETATM    4  O3  UNL     1     -10.802  -0.874  -0.275  1.00  0.00    -0.267 OA
ENDROOT
BRANCH   1   5
HETATM    5  C10 UNL     1     -13.467  -1.801  -1.034  1.00  0.00     0.069 A 
HETATM    6  C3  UNL     1     -14.559  -2.300  -1.726  1.00  0.00     0.095 A 
HETATM    7  C4  UNL     1     -15.279  -3.330  -1.191  1.00  0.00     0.040 A 
HETATM    8  C5  UNL     1     -14.992  -3.926   0.017  1.00  0.00     0.018 A 
HETATM    9  C6  UNL     1     -13.916  -3.442   0.709  1.00  0.00     0.012 A 
HETATM   10  C9  UNL     1     -13.170  -2.386   0.172  1.00  0.00     0.047 A 
BRANCH   6  11
HETATM   11  O1  UNL     1     -14.884  -1.729  -2.949  1.00  0.00    -0.349 OA
BRANCH  11  12
HETATM   12  C2  UNL     1     -16.140  -1.693  -3.537  1.00  0.00     0.171 C 
HETATM   13  C1  UNL     1     -16.539  -0.285  -3.892  1.00  0.00     0.034 C 
ENDBRANCH  11  12
ENDBRANCH   6  11
BRANCH   9  14
HETATM   14  C7  UNL     1     -13.549  -4.018   1.992  1.00  0.00     0.155 C 
HETATM   15  C8  UNL     1     -14.494  -4.925   2.674  1.00  0.00     0.096 C 
HETATM   16  O2  UNL     1     -12.466  -3.774   2.538  1.00  0.00    -0.293 OA
ENDBRANCH   9  14
ENDBRANCH   1   5
BRANCH   3  17
HETATM   17  C12 UNL     1     -10.786   0.815  -1.872  1.00  0.00     0.033 A 
HETATM   18  C13 UNL     1      -9.601   1.363  -1.448  1.00  0.00     0.017 A 
HETATM   19  C14 UNL     1      -9.033   2.441  -2.121  1.00  0.00     0.002 A 
HETATM   20  C15 UNL     1      -9.653   2.975  -3.228  1.00  0.00     0.018 A 
HETATM   21  C16 UNL     1     -10.846   2.411  -3.643  1.00  0.00     0.041 A 
HETATM   22  C18 UNL     1     -11.402   1.348  -2.974  1.00  0.00     0.035 A 
BRANCH  21  23
HETATM   23  C17 UNL     1     -11.523   2.947  -4.801  1.00  0.00     0.209 C 
HETATM   24  O4  UNL     1     -10.872   3.234  -5.821  1.00  0.00    -0.644 OA
HETATM   25  O5  UNL     1     -12.882   3.143  -4.785  1.00  0.00    -0.644 OA
ENDBRANCH  21  23
ENDBRANCH   3  17
TORSDOF 6
ENDMDL
