MODEL 19
REMARK VINA RESULT: -6.627664810      2.810      4.903
REMARK  6 active torsions:
REMARK  status: ('A' for Active; 'I' for Inactive)
REMARK    1  A    between atoms: C2_2  and  O1_3 
REMARK    2  A    between atoms: O1_3  and  C3_4 
REMARK    3  A    between atoms: C6_7  and  C7_8 
REMARK    4  A    between atoms: C10_12  and  N1_13 
REMARK       I    between atoms: N1_13  and  C11_15 
REMARK    5  A    between atoms: C11_15  and  C12_17 
REMARK    6  A    between atoms: C16_21  and  C17_22 
ROOT
HETATM    1  N1  UNL     1     -15.725  -3.149  -3.143  1.00  0.00    -0.320 N 
ATOM      2  H1  UNL     1     -15.721  -4.106  -3.495  1.00  0.00     0.169 HD
HETATM    3  C11 UNL     1     -16.541  -2.223  -3.816  1.00  0.00     0.256 C 
HETATM    4  O3  UNL     1     -16.628  -1.020  -3.483  1.00  0.00    -0.267 OA
ENDROOT
BRANCH   1   5
HETATM    5  C10 UNL     1     -14.906  -2.871  -2.019  1.00  0.00     0.069 A 
HETATM    6  C3  UNL     1     -15.124  -3.565  -0.839  1.00  0.00     0.095 A 
HETATM    7  C4  UNL     1     -14.340  -3.304   0.248  1.00  0.00     0.040 A 
HETATM    8  C5  UNL     1     -13.321  -2.378   0.258  1.00  0.00     0.018 A 
HETATM    9  C6  UNL     1     -13.096  -1.687  -0.901  1.00  0.00     0.012 A 
HETATM   10  C9  UNL     1     -13.893  -1.945  -2.022  1.00  0.00     0.047 A 
BRANCH   6  11
HETATM   11  O1  UNL     1     -16.142  -4.509  -0.806  1.00  0.00    -0.349 OA
BRANCH  11  12
HETATM   12  C2  UNL     1     -16.269  -5.557   0.094  1.00  0.00     0.171 C 
HETATM   13  C1  UNL     1     -17.474  -5.376   0.978  1.00  0.00     0.034 C 
ENDBRANCH  11  12
ENDBRANCH   6  11
BRANCH   9  14
HETATM   14  C7  UNL     1     -12.038  -0.692  -0.969  1.00  0.00     0.155 C 
HETATM   15  C8  UNL     1     -11.429  -0.198   0.283  1.00  0.00     0.096 C 
HETATM   16  O2  UNL     1     -11.627  -0.240  -2.044  1.00  0.00    -0.293 OA
ENDBRANCH   9  14
ENDBRANCH   1   5
BRANCH   3  17
HETATM   17  C12 UNL     1     -17.345  -2.651  -4.976  1.00  0.00     0.033 A 
HETATM   18  C13 UNL     1     -18.212  -1.821  -5.641  1.00  0.00     0.017 A 
HETATM   19  C14 UNL     1     -18.953  -2.285  -6.725  1.00  0.00     0.002 A 
HETATM   20  C15 UNL     1     -18.824  -3.588  -7.148  1.00  0.00     0.018 A 
HETATM   21  C16 UNL     1     -17.946  -4.412  -6.467  1.00  0.00     0.041 A 
HETATM   22  C18 UNL     1     -17.218  -3.949  -5.399  1.00  0.00     0.035 A 
BRANCH  21  23
HETATM   23  C17 UNL     1     -17.788  -5.785  -6.885  1.00  0.00     0.209 C 
HETATM   24  O4  UNL     1     -18.686  -6.340  -7.544  1.00  0.00    -0.644 OA
HETATM   25  O5  UNL     1     -16.652  -6.486  -6.560  1.00  0.00    -0.644 OA
ENDBRANCH  21  23
ENDBRANCH   3  17
TORSDOF 6
ENDMDL
