MODEL 3
REMARK VINA RESULT: -5.268063952      6.033      7.468
REMARK  0 active torsions:
REMARK  status: ('A' for Active; 'I' for Inactive)
ROOT
HETATM    1  N1  UNL     1      38.148  31.152 -16.298  1.00  0.00    -0.080 NA
HETATM    2  C1  UNL     1      39.190  31.406 -15.374  1.00  0.00     0.147 A 
HETATM    3  N2  UNL     1      40.389  30.816 -15.447  1.00  0.00    -0.339 N 
ATOM      4  H2  UNL     1      40.553  30.154 -16.205  1.00  0.00     0.167 HD
HETATM    5  C2  UNL     1      41.391  31.044 -14.579  1.00  0.00     0.183 A 
HETATM    6  N3  UNL     1      41.171  31.919 -13.580  1.00  0.00    -0.337 N 
ATOM      7  H3  UNL     1      41.921  32.103 -12.914  1.00  0.00     0.168 HD
HETATM    8  C3  UNL     1      39.986  32.567 -13.425  1.00  0.00     0.137 A 
HETATM    9  N4  UNL     1      39.493  33.455 -12.565  1.00  0.00    -0.337 N 
ATOM     10  H4  UNL     1      40.002  33.845 -11.771  1.00  0.00     0.168 HD
HETATM   11  C4  UNL     1      38.227  33.763 -12.896  1.00  0.00     0.182 A 
HETATM   12  N5  UNL     1      37.938  33.039 -13.992  1.00  0.00    -0.347 N 
ATOM     13  H5  UNL     1      37.045  33.054 -14.484  1.00  0.00     0.167 HD
HETATM   14  C5  UNL     1      38.981  32.307 -14.336  1.00  0.00     0.119 A 
ENDROOT
TORSDOF 0
ENDMDL
