MODEL 6
REMARK VINA RESULT: -4.987588228      6.127      7.571
REMARK  0 active torsions:
REMARK  status: ('A' for Active; 'I' for Inactive)
ROOT
HETATM    1  N1  UNL     1      44.347  37.533 -12.709  1.00  0.00    -0.080 NA
HETATM    2  C1  UNL     1      43.397  36.970 -11.824  1.00  0.00     0.147 A 
HETATM    3  N2  UNL     1      43.042  37.550 -10.671  1.00  0.00    -0.339 N 
ATOM      4  H2  UNL     1      43.480  38.438 -10.425  1.00  0.00     0.167 HD
HETATM    5  C2  UNL     1      42.142  37.031  -9.816  1.00  0.00     0.183 A 
HETATM    6  N3  UNL     1      41.566  35.860 -10.144  1.00  0.00    -0.337 N 
ATOM      7  H3  UNL     1      40.881  35.454  -9.506  1.00  0.00     0.168 HD
HETATM    8  C3  UNL     1      41.862  35.197 -11.293  1.00  0.00     0.137 A 
HETATM    9  N4  UNL     1      41.467  34.062 -11.865  1.00  0.00    -0.337 N 
ATOM     10  H4  UNL     1      40.781  33.417 -11.472  1.00  0.00     0.168 HD
HETATM   11  C4  UNL     1      42.106  33.890 -13.035  1.00  0.00     0.182 A 
HETATM   12  N5  UNL     1      42.916  34.953 -13.182  1.00  0.00    -0.347 N 
ATOM     13  H5  UNL     1      43.536  35.112 -13.976  1.00  0.00     0.167 HD
HETATM   14  C5  UNL     1      42.790  35.761 -12.146  1.00  0.00     0.119 A 
ENDROOT
TORSDOF 0
ENDMDL
