MODEL 2
REMARK VINA RESULT: -5.316933018      0.953      2.944
REMARK  0 active torsions:
REMARK  status: ('A' for Active; 'I' for Inactive)
ROOT
HETATM    1  N1  UNL     1      36.269  31.334  -6.495  1.00  0.00    -0.080 NA
HETATM    2  C1  UNL     1      36.168  31.888  -7.793  1.00  0.00     0.147 A 
HETATM    3  N2  UNL     1      35.380  31.373  -8.746  1.00  0.00    -0.339 N 
ATOM      4  H2  UNL     1      34.831  30.544  -8.519  1.00  0.00     0.167 HD
HETATM    5  C2  UNL     1      35.271  31.885  -9.985  1.00  0.00     0.183 A 
HETATM    6  N3  UNL     1      35.997  32.979 -10.281  1.00  0.00    -0.337 N 
ATOM      7  H3  UNL     1      35.925  33.379 -11.216  1.00  0.00     0.168 HD
HETATM    8  C3  UNL     1      36.824  33.572  -9.379  1.00  0.00     0.137 A 
HETATM    9  N4  UNL     1      37.637  34.626  -9.384  1.00  0.00    -0.337 N 
ATOM     10  H4  UNL     1      37.790  35.243 -10.181  1.00  0.00     0.168 HD
HETATM   11  C4  UNL     1      38.227  34.756  -8.183  1.00  0.00     0.182 A 
HETATM   12  N5  UNL     1      37.760  33.751  -7.422  1.00  0.00    -0.347 N 
ATOM     13  H5  UNL     1      38.024  33.579  -6.452  1.00  0.00     0.167 HD
HETATM   14  C5  UNL     1      36.910  33.018  -8.117  1.00  0.00     0.119 A 
ENDROOT
TORSDOF 0
ENDMDL
