MODEL 1
REMARK VINA RESULT: -5.327308057      0.000      0.000
REMARK  0 active torsions:
REMARK  status: ('A' for Active; 'I' for Inactive)
ROOT
HETATM    1  N1  UNL     1      36.704  32.078  -5.739  1.00  0.00    -0.080 NA
HETATM    2  C1  UNL     1      37.165  33.012  -6.697  1.00  0.00     0.147 A 
HETATM    3  N2  UNL     1      38.126  33.908  -6.437  1.00  0.00    -0.339 N 
ATOM      4  H2  UNL     1      38.540  33.912  -5.505  1.00  0.00     0.167 HD
HETATM    5  C2  UNL     1      38.577  34.805  -7.333  1.00  0.00     0.183 A 
HETATM    6  N3  UNL     1      38.029  34.796  -8.562  1.00  0.00    -0.337 N 
ATOM      7  H3  UNL     1      38.361  35.470  -9.252  1.00  0.00     0.168 HD
HETATM    8  C3  UNL     1      37.049  33.924  -8.918  1.00  0.00     0.137 A 
HETATM    9  N4  UNL     1      36.341  33.688 -10.021  1.00  0.00    -0.337 N 
ATOM     10  H4  UNL     1      36.437  34.199 -10.898  1.00  0.00     0.168 HD
HETATM   11  C4  UNL     1      35.482  32.677  -9.807  1.00  0.00     0.182 A 
HETATM   12  N5  UNL     1      35.670  32.284  -8.535  1.00  0.00    -0.347 N 
ATOM     13  H5  UNL     1      35.161  31.530  -8.073  1.00  0.00     0.167 HD
HETATM   14  C5  UNL     1      36.612  33.019  -7.972  1.00  0.00     0.119 A 
ENDROOT
TORSDOF 0
ENDMDL
