MODEL 3
REMARK VINA RESULT: -6.037665634      2.072      5.683
REMARK  3 active torsions:
REMARK  status: ('A' for Active; 'I' for Inactive)
REMARK    1  A    between atoms: O1_2  and  C2_3 
REMARK    2  A    between atoms: C2_3  and  C3_5 
REMARK    3  A    between atoms: C7_10  and  C8_11 
ROOT
HETATM    1  C3  UNL     1     -14.906  24.141  10.765  1.00  0.00     0.042 A 
HETATM    2  C4  UNL     1     -14.311  23.855  11.968  1.00  0.00     0.044 A 
HETATM    3  C5  UNL     1     -13.262  22.965  12.110  1.00  0.00     0.048 A 
HETATM    4  N1  UNL     1     -12.678  22.691  13.372  1.00  0.00    -0.102 NA
HETATM    5  C6  UNL     1     -12.817  22.350  10.968  1.00  0.00     0.039 A 
HETATM    6  C7  UNL     1     -13.367  22.582   9.705  1.00  0.00    -0.019 A 
HETATM    7  C13 UNL     1     -14.414  23.490   9.662  1.00  0.00     0.030 A 
ENDROOT
BRANCH   6   8
HETATM    8  C8  UNL     1     -12.854  21.933   8.510  1.00  0.00     0.030 A 
HETATM    9  C9  UNL     1     -11.661  22.138   7.865  1.00  0.00     0.042 A 
HETATM   10  C10 UNL     1     -10.636  23.137   8.276  1.00  0.00     0.071 C 
HETATM   11  N2  UNL     1     -11.629  21.276   6.812  1.00  0.00    -0.265 N 
HETATM   12  O3  UNL     1     -12.743  20.573   6.803  1.00  0.00    -0.242 OA
ATOM     13  H2  UNL     1     -10.867  21.189   6.139  1.00  0.00     0.194 HD
HETATM   14  C11 UNL     1     -13.505  20.943   7.813  1.00  0.00     0.085 A 
HETATM   15  C12 UNL     1     -14.838  20.392   8.156  1.00  0.00     0.079 C 
ENDBRANCH   6   8
BRANCH   1  16
HETATM   16  C2  UNL     1     -16.002  25.109  10.680  1.00  0.00     0.293 C 
HETATM   17  O2  UNL     1     -16.062  26.002  11.563  1.00  0.00    -0.259 OA
BRANCH  16  18
HETATM   18  O1  UNL     1     -16.946  25.082   9.693  1.00  0.00    -0.323 OA
HETATM   19  C1  UNL     1     -18.229  25.606   9.916  1.00  0.00     0.213 C 
ENDBRANCH  16  18
ENDBRANCH   1  16
TORSDOF 3
ENDMDL
