MODEL 2
REMARK VINA RESULT: -6.142962149      2.336      5.529
REMARK  3 active torsions:
REMARK  status: ('A' for Active; 'I' for Inactive)
REMARK    1  A    between atoms: O1_2  and  C2_3 
REMARK    2  A    between atoms: C2_3  and  C3_5 
REMARK    3  A    between atoms: C7_10  and  C8_11 
ROOT
HETATM    1  C3  UNL     1     -14.935  24.184  10.941  1.00  0.00     0.042 A 
HETATM    2  C4  UNL     1     -14.312  23.887  12.126  1.00  0.00     0.044 A 
HETATM    3  C5  UNL     1     -13.256  23.000  12.235  1.00  0.00     0.048 A 
HETATM    4  N1  UNL     1     -12.642  22.714  13.480  1.00  0.00    -0.102 NA
HETATM    5  C6  UNL     1     -12.833  22.401  11.075  1.00  0.00     0.039 A 
HETATM    6  C7  UNL     1     -13.413  22.645   9.828  1.00  0.00    -0.019 A 
HETATM    7  C13 UNL     1     -14.464  23.548   9.819  1.00  0.00     0.030 A 
ENDROOT
BRANCH   6   8
HETATM    8  C8  UNL     1     -12.924  22.013   8.614  1.00  0.00     0.030 A 
HETATM    9  C9  UNL     1     -13.514  21.033   7.857  1.00  0.00     0.042 A 
HETATM   10  C10 UNL     1     -14.815  20.384   8.177  1.00  0.00     0.071 C 
HETATM   11  N2  UNL     1     -12.681  20.791   6.808  1.00  0.00    -0.265 N 
HETATM   12  O3  UNL     1     -11.630  21.579   6.907  1.00  0.00    -0.242 OA
ATOM     13  H2  UNL     1     -12.845  20.111   6.065  1.00  0.00     0.194 HD
HETATM   14  C11 UNL     1     -11.743  22.329   7.984  1.00  0.00     0.085 A 
HETATM   15  C12 UNL     1     -10.773  23.349   8.451  1.00  0.00     0.079 C 
ENDBRANCH   6   8
BRANCH   1  16
HETATM   16  C2  UNL     1     -16.037  25.148  10.892  1.00  0.00     0.293 C 
HETATM   17  O2  UNL     1     -16.207  25.891  11.891  1.00  0.00    -0.259 OA
BRANCH  16  18
HETATM   18  O1  UNL     1     -16.874  25.270   9.819  1.00  0.00    -0.323 OA
HETATM   19  C1  UNL     1     -18.216  25.642   9.997  1.00  0.00     0.213 C 
ENDBRANCH  16  18
ENDBRANCH   1  16
TORSDOF 3
ENDMDL
