MODEL 1
REMARK VINA RESULT: -6.211375175      0.000      0.000
REMARK  3 active torsions:
REMARK  status: ('A' for Active; 'I' for Inactive)
REMARK    1  A    between atoms: O1_2  and  C2_3 
REMARK    2  A    between atoms: C2_3  and  C3_5 
REMARK    3  A    between atoms: C7_10  and  C8_11 
ROOT
HETATM    1  C3  UNL     1     -12.822  20.364   9.295  1.00  0.00     0.042 A 
HETATM    2  C4  UNL     1     -11.758  20.814   8.556  1.00  0.00     0.044 A 
HETATM    3  C5  UNL     1     -11.401  22.146   8.458  1.00  0.00     0.048 A 
HETATM    4  N1  UNL     1     -10.298  22.572   7.677  1.00  0.00    -0.102 NA
HETATM    5  C6  UNL     1     -12.175  23.043   9.151  1.00  0.00     0.039 A 
HETATM    6  C7  UNL     1     -13.276  22.671   9.925  1.00  0.00    -0.019 A 
HETATM    7  C13 UNL     1     -13.556  21.314   9.962  1.00  0.00     0.030 A 
ENDROOT
BRANCH   6   8
HETATM    8  C8  UNL     1     -14.060  23.644  10.667  1.00  0.00     0.030 A 
HETATM    9  C9  UNL     1     -15.186  24.322  10.274  1.00  0.00     0.042 A 
HETATM   10  C10 UNL     1     -15.824  24.199   8.934  1.00  0.00     0.071 C 
HETATM   11  N2  UNL     1     -15.565  25.099  11.326  1.00  0.00    -0.265 N 
HETATM   12  O3  UNL     1     -14.719  24.915  12.319  1.00  0.00    -0.242 OA
ATOM     13  H2  UNL     1     -16.372  25.723  11.342  1.00  0.00     0.194 HD
HETATM   14  C11 UNL     1     -13.799  24.044  11.957  1.00  0.00     0.085 A 
HETATM   15  C12 UNL     1     -12.670  23.562  12.788  1.00  0.00     0.079 C 
ENDBRANCH   6   8
BRANCH   1  16
HETATM   16  C2  UNL     1     -13.134  18.935   9.371  1.00  0.00     0.293 C 
HETATM   17  O2  UNL     1     -12.754  18.308  10.391  1.00  0.00    -0.259 OA
BRANCH  16  18
HETATM   18  O1  UNL     1     -13.814  18.267   8.392  1.00  0.00    -0.323 OA
HETATM   19  C1  UNL     1     -14.630  18.962   7.486  1.00  0.00     0.213 C 
ENDBRANCH  16  18
ENDBRANCH   1  16
TORSDOF 3
ENDMDL
