MODEL 4
REMARK VINA RESULT: -5.966810231      0.736      1.306
REMARK  3 active torsions:
REMARK  status: ('A' for Active; 'I' for Inactive)
REMARK    1  A    between atoms: O1_2  and  C2_3 
REMARK    2  A    between atoms: C2_3  and  C3_5 
REMARK    3  A    between atoms: C7_10  and  C8_11 
ROOT
HETATM    1  C3  UNL     1     -13.146  20.852   8.629  1.00  0.00     0.042 A 
HETATM    2  C4  UNL     1     -11.968  21.348   8.131  1.00  0.00     0.044 A 
HETATM    3  C5  UNL     1     -11.501  22.623   8.396  1.00  0.00     0.048 A 
HETATM    4  N1  UNL     1     -10.282  23.102   7.856  1.00  0.00    -0.102 NA
HETATM    5  C6  UNL     1     -12.284  23.409   9.203  1.00  0.00     0.039 A 
HETATM    6  C7  UNL     1     -13.496  22.984   9.750  1.00  0.00    -0.019 A 
HETATM    7  C13 UNL     1     -13.881  21.691   9.428  1.00  0.00     0.030 A 
ENDROOT
BRANCH   6   8
HETATM    8  C8  UNL     1     -14.288  23.833  10.624  1.00  0.00     0.030 A 
HETATM    9  C9  UNL     1     -15.447  24.512  10.344  1.00  0.00     0.042 A 
HETATM   10  C10 UNL     1     -16.122  24.525   9.016  1.00  0.00     0.071 C 
HETATM   11  N2  UNL     1     -15.819  25.145  11.490  1.00  0.00    -0.265 N 
HETATM   12  O3  UNL     1     -14.937  24.876  12.431  1.00  0.00    -0.242 OA
ATOM     13  H2  UNL     1     -16.645  25.733  11.601  1.00  0.00     0.194 HD
HETATM   14  C11 UNL     1     -14.001  24.087  11.944  1.00  0.00     0.085 A 
HETATM   15  C12 UNL     1     -12.831  23.552  12.682  1.00  0.00     0.079 C 
ENDBRANCH   6   8
BRANCH   1  16
HETATM   16  C2  UNL     1     -13.573  19.484   8.325  1.00  0.00     0.293 C 
HETATM   17  O2  UNL     1     -14.041  19.259   7.181  1.00  0.00    -0.259 OA
BRANCH  16  18
HETATM   18  O1  UNL     1     -13.484  18.458   9.223  1.00  0.00    -0.323 OA
HETATM   19  C1  UNL     1     -12.325  18.283   9.996  1.00  0.00     0.213 C 
ENDBRANCH  16  18
ENDBRANCH   1  16
TORSDOF 3
ENDMDL
