MODEL 6
REMARK VINA RESULT: -5.833170101      2.405      5.440
REMARK  3 active torsions:
REMARK  status: ('A' for Active; 'I' for Inactive)
REMARK    1  A    between atoms: O1_2  and  C2_3 
REMARK    2  A    between atoms: C2_3  and  C3_5 
REMARK    3  A    between atoms: C7_10  and  C8_11 
ROOT
HETATM    1  C3  UNL     1     -16.046  24.200   9.684  1.00  0.00     0.042 A 
HETATM    2  C4  UNL     1     -15.605  24.582  10.925  1.00  0.00     0.044 A 
HETATM    3  C5  UNL     1     -14.363  24.246  11.434  1.00  0.00     0.048 A 
HETATM    4  N1  UNL     1     -13.947  24.655  12.725  1.00  0.00    -0.102 NA
HETATM    5  C6  UNL     1     -13.553  23.487  10.628  1.00  0.00     0.039 A 
HETATM    6  C7  UNL     1     -13.925  23.054   9.353  1.00  0.00    -0.019 A 
HETATM    7  C13 UNL     1     -15.187  23.440   8.930  1.00  0.00     0.030 A 
ENDROOT
BRANCH   6   8
HETATM    8  C8  UNL     1     -13.032  22.272   8.514  1.00  0.00     0.030 A 
HETATM    9  C9  UNL     1     -13.260  21.064   7.907  1.00  0.00     0.042 A 
HETATM   10  C10 UNL     1     -14.520  20.279   8.029  1.00  0.00     0.071 C 
HETATM   11  N2  UNL     1     -12.133  20.753   7.211  1.00  0.00    -0.265 N 
HETATM   12  O3  UNL     1     -11.250  21.717   7.377  1.00  0.00    -0.242 OA
ATOM     13  H2  UNL     1     -11.994  19.911   6.651  1.00  0.00     0.194 HD
HETATM   14  C11 UNL     1     -11.758  22.649   8.157  1.00  0.00     0.085 A 
HETATM   15  C12 UNL     1     -11.087  23.901   8.584  1.00  0.00     0.079 C 
ENDBRANCH   6   8
BRANCH   1  16
HETATM   16  C2  UNL     1     -17.366  24.607   9.198  1.00  0.00     0.293 C 
HETATM   17  O2  UNL     1     -17.882  25.637   9.699  1.00  0.00    -0.259 OA
BRANCH  16  18
HETATM   18  O1  UNL     1     -18.050  23.921   8.234  1.00  0.00    -0.323 OA
HETATM   19  C1  UNL     1     -18.799  22.780   8.562  1.00  0.00     0.213 C 
ENDBRANCH  16  18
ENDBRANCH   1  16
TORSDOF 3
ENDMDL
