MODEL 3
REMARK VINA RESULT: -7.703632900      1.922      4.449
REMARK  5 active torsions:
REMARK  status: ('A' for Active; 'I' for Inactive)
REMARK    1  A    between atoms: C5_8  and  C6_9 
REMARK    2  A    between atoms: C8_11  and  N2_12 
REMARK    3  A    between atoms: N2_12  and  S1_14 
REMARK    4  A    between atoms: S1_14  and  C9_17 
REMARK    5  A    between atoms: C16_24  and  C17_25 
ROOT
HETATM    1  C6  UNL     1     -12.375  22.073  10.209  1.00  0.00    -0.018 A 
HETATM    2  C7  UNL     1     -13.660  22.472  10.484  1.00  0.00     0.042 A 
HETATM    3  C8  UNL     1     -13.985  23.166  11.665  1.00  0.00     0.044 A 
HETATM    4  C15 UNL     1     -12.984  23.443  12.556  1.00  0.00     0.048 A 
HETATM    5  C16 UNL     1     -11.666  23.046  12.292  1.00  0.00     0.043 A 
HETATM    6  C18 UNL     1     -11.394  22.371  11.127  1.00  0.00     0.031 A 
ENDROOT
BRANCH   3   7
HETATM    7  N2  UNL     1     -15.324  23.549  11.849  1.00  0.00    -0.281 N 
ATOM      8  H2  UNL     1     -15.943  22.909  12.348  1.00  0.00     0.179 HD
BRANCH   7   9
HETATM    9  S1  UNL     1     -15.970  25.020  11.287  1.00  0.00     0.263 S 
HETATM   10  O2  UNL     1     -14.889  25.889  10.658  1.00  0.00    -0.200 OA
HETATM   11  O3  UNL     1     -16.559  25.825  12.448  1.00  0.00    -0.200 OA
BRANCH   9  12
HETATM   12  C9  UNL     1     -17.228  24.756  10.122  1.00  0.00     0.079 A 
HETATM   13  C10 UNL     1     -17.091  23.767   9.182  1.00  0.00     0.025 A 
HETATM   14  C11 UNL     1     -18.075  23.516   8.222  1.00  0.00     0.002 A 
HETATM   15  C12 UNL     1     -19.240  24.290   8.208  1.00  0.00     0.000 A 
HETATM   16  C13 UNL     1     -19.390  25.291   9.149  1.00  0.00     0.002 A 
HETATM   17  C14 UNL     1     -18.389  25.513  10.092  1.00  0.00     0.025 A 
ENDBRANCH   9  12
ENDBRANCH   7   9
ENDBRANCH   3   7
BRANCH   1  18
HETATM   18  C5  UNL     1     -12.096  21.341   8.967  1.00  0.00     0.030 A 
HETATM   19  C2  UNL     1     -12.498  20.083   8.572  1.00  0.00     0.042 A 
HETATM   20  C1  UNL     1     -13.339  19.155   9.370  1.00  0.00     0.071 C 
HETATM   21  N1  UNL     1     -11.989  19.855   7.344  1.00  0.00    -0.265 N 
HETATM   22  O1  UNL     1     -11.305  20.895   6.969  1.00  0.00    -0.242 OA
ATOM     23  H1  UNL     1     -12.120  19.004   6.799  1.00  0.00     0.194 HD
HETATM   24  C3  UNL     1     -11.332  21.813   7.893  1.00  0.00     0.085 A 
HETATM   25  C4  UNL     1     -10.698  23.164   7.912  1.00  0.00     0.079 C 
ENDBRANCH   1  18
BRANCH   5  26
HETATM   26  C17 UNL     1     -10.609  23.334  13.226  1.00  0.00     0.209 C 
HETATM   27  O4  UNL     1     -10.437  22.638  14.250  1.00  0.00    -0.644 OA
HETATM   28  O5  UNL     1      -9.729  24.405  13.025  1.00  0.00    -0.644 OA
ENDBRANCH   5  26
TORSDOF 5
ENDMDL
