MODEL 1
REMARK VINA RESULT: -8.028964427      0.000      0.000
REMARK  5 active torsions:
REMARK  status: ('A' for Active; 'I' for Inactive)
REMARK    1  A    between atoms: C5_8  and  C6_9 
REMARK    2  A    between atoms: C8_11  and  N2_12 
REMARK    3  A    between atoms: N2_12  and  S1_14 
REMARK    4  A    between atoms: S1_14  and  C9_17 
REMARK    5  A    between atoms: C16_24  and  C17_25 
ROOT
HETATM    1  C6  UNL     1     -11.423  23.756  11.174  1.00  0.00    -0.018 A 
HETATM    2  C7  UNL     1     -12.678  24.008  11.671  1.00  0.00     0.042 A 
HETATM    3  C8  UNL     1     -13.840  23.560  11.016  1.00  0.00     0.044 A 
HETATM    4  C15 UNL     1     -13.703  22.853   9.853  1.00  0.00     0.048 A 
HETATM    5  C16 UNL     1     -12.431  22.583   9.330  1.00  0.00     0.043 A 
HETATM    6  C18 UNL     1     -11.323  23.040  10.002  1.00  0.00     0.031 A 
ENDROOT
BRANCH   3   7
HETATM    7  N2  UNL     1     -15.079  23.852  11.612  1.00  0.00    -0.281 N 
ATOM      8  H2  UNL     1     -15.436  23.210  12.320  1.00  0.00     0.179 HD
BRANCH   7   9
HETATM    9  S1  UNL     1     -16.015  25.219  11.220  1.00  0.00     0.263 S 
HETATM   10  O2  UNL     1     -15.146  26.333  10.649  1.00  0.00    -0.200 OA
HETATM   11  O3  UNL     1     -16.686  25.786  12.473  1.00  0.00    -0.200 OA
BRANCH   9  12
HETATM   12  C9  UNL     1     -17.256  24.830  10.073  1.00  0.00     0.079 A 
HETATM   13  C10 UNL     1     -18.432  25.536  10.076  1.00  0.00     0.025 A 
HETATM   14  C11 UNL     1     -19.464  25.261   9.173  1.00  0.00     0.002 A 
HETATM   15  C12 UNL     1     -19.304  24.236   8.234  1.00  0.00     0.000 A 
HETATM   16  C13 UNL     1     -18.124  23.517   8.221  1.00  0.00     0.002 A 
HETATM   17  C14 UNL     1     -17.117  23.819   9.135  1.00  0.00     0.025 A 
ENDBRANCH   9  12
ENDBRANCH   7   9
ENDBRANCH   3   7
BRANCH   1  18
HETATM   18  C5  UNL     1     -10.246  24.259  11.892  1.00  0.00     0.030 A 
HETATM   19  C2  UNL     1      -9.426  25.329  11.606  1.00  0.00     0.042 A 
HETATM   20  C1  UNL     1      -9.571  26.242  10.443  1.00  0.00     0.071 C 
HETATM   21  N1  UNL     1      -8.479  25.390  12.565  1.00  0.00    -0.265 N 
HETATM   22  O1  UNL     1      -8.673  24.426  13.415  1.00  0.00    -0.242 OA
ATOM     23  H1  UNL     1      -7.732  26.082  12.614  1.00  0.00     0.194 HD
HETATM   24  C3  UNL     1      -9.711  23.718  13.067  1.00  0.00     0.085 A 
HETATM   25  C4  UNL     1     -10.312  22.523  13.729  1.00  0.00     0.079 C 
ENDBRANCH   1  18
BRANCH   5  26
HETATM   26  C17 UNL     1     -12.280  21.840   8.106  1.00  0.00     0.209 C 
HETATM   27  O4  UNL     1     -11.157  21.660   7.589  1.00  0.00    -0.644 OA
HETATM   28  O5  UNL     1     -13.385  21.291   7.444  1.00  0.00    -0.644 OA
ENDBRANCH   5  26
TORSDOF 5
ENDMDL
