MODEL 2
REMARK VINA RESULT: -7.828232756      3.108      6.697
REMARK  5 active torsions:
REMARK  status: ('A' for Active; 'I' for Inactive)
REMARK    1  A    between atoms: C5_8  and  C6_9 
REMARK    2  A    between atoms: C8_11  and  N2_12 
REMARK    3  A    between atoms: N2_12  and  S1_14 
REMARK    4  A    between atoms: S1_14  and  C9_17 
REMARK    5  A    between atoms: C16_24  and  C17_25 
ROOT
HETATM    1  C6  UNL     1     -13.456  22.399   9.744  1.00  0.00    -0.018 A 
HETATM    2  C7  UNL     1     -12.339  22.760   9.031  1.00  0.00     0.042 A 
HETATM    3  C8  UNL     1     -11.583  21.818   8.308  1.00  0.00     0.044 A 
HETATM    4  C15 UNL     1     -11.983  20.510   8.322  1.00  0.00     0.048 A 
HETATM    5  C16 UNL     1     -13.121  20.121   9.042  1.00  0.00     0.043 A 
HETATM    6  C18 UNL     1     -13.829  21.074   9.734  1.00  0.00     0.031 A 
ENDROOT
BRANCH   3   7
HETATM    7  N2  UNL     1     -10.467  22.287   7.595  1.00  0.00    -0.281 N 
ATOM      8  H2  UNL     1     -10.476  22.207   6.578  1.00  0.00     0.179 HD
BRANCH   7   9
HETATM    9  S1  UNL     1      -9.101  22.983   8.334  1.00  0.00     0.263 S 
HETATM   10  O2  UNL     1      -7.828  22.247   7.938  1.00  0.00    -0.200 OA
HETATM   11  O3  UNL     1      -9.207  22.883   9.858  1.00  0.00    -0.200 OA
BRANCH   9  12
HETATM   12  C9  UNL     1      -8.935  24.658   7.915  1.00  0.00     0.079 A 
HETATM   13  C10 UNL     1      -9.935  25.288   7.220  1.00  0.00     0.025 A 
HETATM   14  C11 UNL     1      -9.850  26.636   6.857  1.00  0.00     0.002 A 
HETATM   15  C12 UNL     1      -8.715  27.374   7.207  1.00  0.00     0.000 A 
HETATM   16  C13 UNL     1      -7.700  26.751   7.907  1.00  0.00     0.002 A 
HETATM   17  C14 UNL     1      -7.818  25.406   8.253  1.00  0.00     0.025 A 
ENDBRANCH   9  12
ENDBRANCH   7   9
ENDBRANCH   3   7
BRANCH   1  18
HETATM   18  C5  UNL     1     -14.199  23.421  10.491  1.00  0.00     0.030 A 
HETATM   19  C2  UNL     1     -15.293  24.170  10.116  1.00  0.00     0.042 A 
HETATM   20  C1  UNL     1     -15.982  24.095   8.802  1.00  0.00     0.071 C 
HETATM   21  N1  UNL     1     -15.616  24.974  11.150  1.00  0.00    -0.265 N 
HETATM   22  O1  UNL     1     -14.787  24.760  12.128  1.00  0.00    -0.242 OA
ATOM     23  H1  UNL     1     -16.386  25.642  11.162  1.00  0.00     0.194 HD
HETATM   24  C3  UNL     1     -13.920  23.845  11.796  1.00  0.00     0.085 A 
HETATM   25  C4  UNL     1     -12.788  23.275  12.584  1.00  0.00     0.079 C 
ENDBRANCH   1  18
BRANCH   5  26
HETATM   26  C17 UNL     1     -13.546  18.746   9.062  1.00  0.00     0.209 C 
HETATM   27  O4  UNL     1     -13.189  17.967   9.971  1.00  0.00    -0.644 OA
HETATM   28  O5  UNL     1     -14.378  18.224   8.063  1.00  0.00    -0.644 OA
ENDBRANCH   5  26
TORSDOF 5
ENDMDL
