MODEL 3
REMARK VINA RESULT: -4.636292312      1.117      1.117
REMARK  5 active torsions:
REMARK  status: ('A' for Active; 'I' for Inactive)
REMARK       I    between atoms: N1_2  and  C2_4 
REMARK    1  A    between atoms: C2_4  and  C3_6 
REMARK    2  A    between atoms: C3_6  and  C4_7 
REMARK    3  A    between atoms: C4_7  and  O2_9 
REMARK    4  A    between atoms: O2_9  and  P1_10 
REMARK    5  A    between atoms: P1_10  and  O5_13 
ROOT
HETATM    1  C4  UNL     1      -4.148  15.376   8.237  1.00  0.00     0.139 C 
HETATM    2  C5  UNL     1      -3.227  14.707   9.231  1.00  0.00     0.040 C 
ENDROOT
BRANCH   1   3
HETATM    3  C3  UNL     1      -5.539  15.561   8.797  1.00  0.00     0.135 C 
BRANCH   3   4
HETATM    4  C2  UNL     1      -6.514  14.921   7.889  1.00  0.00     0.219 C 
HETATM    5  N1  UNL     1      -6.089  13.900   7.007  1.00  0.00    -0.365 N 
HETATM    6  C1  UNL     1      -7.016  13.233   6.085  1.00  0.00     0.149 C 
ATOM      7  H1  UNL     1      -5.109  13.619   7.013  1.00  0.00     0.161 HD
HETATM    8  O1  UNL     1      -7.706  15.296   7.914  1.00  0.00    -0.274 OA
ENDBRANCH   3   4
ENDBRANCH   1   3
BRANCH   1   9
HETATM    9  O2  UNL     1      -3.652  16.562   7.760  1.00  0.00    -0.284 OA
BRANCH   9  10
HETATM   10  P1  UNL     1      -3.505  16.507   6.108  1.00  0.00     0.408 P 
HETATM   11  O3  UNL     1      -3.740  18.018   6.054  1.00  0.00    -0.624 OA
HETATM   12  O4  UNL     1      -2.030  16.484   5.418  1.00  0.00    -0.624 OA
BRANCH  10  13
HETATM   13  O5  UNL     1      -4.879  16.254   5.193  1.00  0.00    -0.295 OA
HETATM   14  C6  UNL     1      -4.665  15.490   4.083  1.00  0.00     0.216 C 
ENDBRANCH  10  13
ENDBRANCH   9  10
ENDBRANCH   1   9
TORSDOF 5
ENDMDL
