MODEL 1
REMARK VINA RESULT: -4.733674508      0.000      0.000
REMARK  5 active torsions:
REMARK  status: ('A' for Active; 'I' for Inactive)
REMARK       I    between atoms: N1_2  and  C2_4 
REMARK    1  A    between atoms: C2_4  and  C3_6 
REMARK    2  A    between atoms: C3_6  and  C4_7 
REMARK    3  A    between atoms: C4_7  and  O2_9 
REMARK    4  A    between atoms: O2_9  and  P1_10 
REMARK    5  A    between atoms: P1_10  and  O5_13 
ROOT
HETATM    1  C4  UNL     1      -4.251  15.432   8.513  1.00  0.00     0.139 C 
HETATM    2  C5  UNL     1      -2.945  14.851   9.004  1.00  0.00     0.040 C 
ENDROOT
BRANCH   1   3
HETATM    3  C3  UNL     1      -5.272  15.534   9.623  1.00  0.00     0.135 C 
BRANCH   3   4
HETATM    4  C2  UNL     1      -6.627  15.551   9.033  1.00  0.00     0.219 C 
HETATM    5  N1  UNL     1      -6.798  15.271   7.657  1.00  0.00    -0.365 N 
HETATM    6  C1  UNL     1      -8.121  15.275   7.021  1.00  0.00     0.149 C 
ATOM      7  H1  UNL     1      -5.977  15.058   7.090  1.00  0.00     0.161 HD
HETATM    8  O1  UNL     1      -7.606  15.815   9.763  1.00  0.00    -0.274 OA
ENDBRANCH   3   4
ENDBRANCH   1   3
BRANCH   1   9
HETATM    9  O2  UNL     1      -4.098  16.638   7.880  1.00  0.00    -0.284 OA
BRANCH   9  10
HETATM   10  P1  UNL     1      -3.785  16.409   6.266  1.00  0.00     0.408 P 
HETATM   11  O3  UNL     1      -3.776  17.927   6.071  1.00  0.00    -0.624 OA
HETATM   12  O4  UNL     1      -2.266  16.108   5.761  1.00  0.00    -0.624 OA
BRANCH  10  13
HETATM   13  O5  UNL     1      -5.076  16.276   5.215  1.00  0.00    -0.295 OA
HETATM   14  C6  UNL     1      -4.829  15.468   4.143  1.00  0.00     0.216 C 
ENDBRANCH  10  13
ENDBRANCH   9  10
ENDBRANCH   1   9
TORSDOF 5
ENDMDL
