MODEL 2
REMARK VINA RESULT: -4.680947818      2.164      3.267
REMARK  5 active torsions:
REMARK  status: ('A' for Active; 'I' for Inactive)
REMARK       I    between atoms: N1_2  and  C2_4 
REMARK    1  A    between atoms: C2_4  and  C3_6 
REMARK    2  A    between atoms: C3_6  and  C4_7 
REMARK    3  A    between atoms: C4_7  and  O2_9 
REMARK    4  A    between atoms: O2_9  and  P1_10 
REMARK    5  A    between atoms: P1_10  and  O5_13 
ROOT
HETATM    1  C4  UNL     1      -3.835  15.964   5.828  1.00  0.00     0.139 C 
HETATM    2  C5  UNL     1      -2.338  16.081   5.659  1.00  0.00     0.040 C 
ENDROOT
BRANCH   1   3
HETATM    3  C3  UNL     1      -4.351  16.881   6.913  1.00  0.00     0.135 C 
BRANCH   3   4
HETATM    4  C2  UNL     1      -4.729  16.070   8.090  1.00  0.00     0.219 C 
HETATM    5  N1  UNL     1      -4.708  14.659   8.008  1.00  0.00    -0.365 N 
HETATM    6  C1  UNL     1      -5.075  13.808   9.146  1.00  0.00     0.149 C 
ATOM      7  H1  UNL     1      -4.429  14.218   7.131  1.00  0.00     0.161 HD
HETATM    8  O1  UNL     1      -5.064  16.650   9.145  1.00  0.00    -0.274 OA
ENDBRANCH   3   4
ENDBRANCH   1   3
BRANCH   1   9
HETATM    9  O2  UNL     1      -4.523  16.157   4.658  1.00  0.00    -0.284 OA
BRANCH   9  10
HETATM   10  P1  UNL     1      -5.588  14.911   4.398  1.00  0.00     0.408 P 
HETATM   11  O3  UNL     1      -6.564  15.901   3.760  1.00  0.00    -0.624 OA
HETATM   12  O4  UNL     1      -5.397  13.924   3.116  1.00  0.00    -0.624 OA
BRANCH  10  13
HETATM   13  O5  UNL     1      -6.709  14.560   5.585  1.00  0.00    -0.295 OA
HETATM   14  C6  UNL     1      -7.675  15.515   5.725  1.00  0.00     0.216 C 
ENDBRANCH  10  13
ENDBRANCH   9  10
ENDBRANCH   1   9
TORSDOF 5
ENDMDL
