MODEL 2
REMARK VINA RESULT: -10.188409708      0.992      1.098
REMARK  5 active torsions:
REMARK  status: ('A' for Active; 'I' for Inactive)
REMARK       I    between atoms: N1_2  and  C2_4 
REMARK    1  A    between atoms: C2_4  and  C3_6 
REMARK    2  A    between atoms: C8_11  and  S1_12 
REMARK    3  A    between atoms: S1_12  and  C9_13 
REMARK    4  A    between atoms: C13_17  and  C14_18 
REMARK    5  A    between atoms: C15_19  and  C16_20 
ROOT
HETATM    1  C9  UNL     1      59.862  16.216  48.574  1.00  0.00     0.007 A 
HETATM    2  C10 UNL     1      59.740  16.180  49.949  1.00  0.00     0.020 A 
HETATM    3  C11 UNL     1      58.902  15.255  50.566  1.00  0.00     0.017 A 
HETATM    4  C12 UNL     1      58.155  14.335  49.870  1.00  0.00     0.020 A 
HETATM    5  C13 UNL     1      57.288  13.334  50.247  1.00  0.00     0.060 A 
HETATM    6  N3  UNL     1      56.915  12.783  49.043  1.00  0.00    -0.299 N 
ATOM      7  H3  UNL     1      56.269  12.000  48.943  1.00  0.00     0.187 HD
HETATM    8  N4  UNL     1      57.497  13.396  48.039  1.00  0.00    -0.299 N 
ATOM      9  H4  UNL     1      57.366  13.156  47.056  1.00  0.00     0.187 HD
HETATM   10  C21 UNL     1      58.291  14.383  48.484  1.00  0.00     0.061 A 
HETATM   11  C22 UNL     1      59.125  15.303  47.868  1.00  0.00     0.050 A 
ENDROOT
BRANCH   1  12
HETATM   12  S1  UNL     1      60.946  17.432  47.839  1.00  0.00    -0.089 SA
BRANCH  12  13
HETATM   13  C8  UNL     1      62.473  17.518  48.779  1.00  0.00     0.021 A 
HETATM   14  C3  UNL     1      63.040  18.740  49.006  1.00  0.00     0.049 A 
HETATM   15  C4  UNL     1      64.203  18.716  49.792  1.00  0.00     0.018 A 
HETATM   16  C5  UNL     1      64.763  17.581  50.312  1.00  0.00     0.001 A 
HETATM   17  C6  UNL     1      64.159  16.355  50.060  1.00  0.00     0.001 A 
HETATM   18  C7  UNL     1      63.024  16.342  49.296  1.00  0.00     0.020 A 
BRANCH  14  19
HETATM   19  C2  UNL     1      62.577  20.013  48.498  1.00  0.00     0.252 C 
HETATM   20  N1  UNL     1      63.214  21.268  48.601  1.00  0.00    -0.361 N 
HETATM   21  C1  UNL     1      62.625  22.476  48.025  1.00  0.00     0.149 C 
ATOM     22  H1  UNL     1      64.107  21.334  49.089  1.00  0.00     0.162 HD
HETATM   23  O1  UNL     1      61.462  20.030  47.885  1.00  0.00    -0.268 OA
ENDBRANCH  14  19
ENDBRANCH  12  13
ENDBRANCH   1  12
BRANCH   5  24
HETATM   24  C14 UNL     1      56.760  12.933  51.517  1.00  0.00     0.034 C 
HETATM   25  C15 UNL     1      57.379  12.978  52.645  1.00  0.00     0.032 C 
BRANCH  25  26
HETATM   26  C16 UNL     1      56.714  12.523  53.895  1.00  0.00     0.031 A 
HETATM   27  C17 UNL     1      56.591  13.341  54.988  1.00  0.00     0.029 A 
HETATM   28  C18 UNL     1      55.990  12.942  56.139  1.00  0.00     0.004 A 
HETATM   29  C19 UNL     1      55.486  11.650  56.194  1.00  0.00     0.017 A 
HETATM   30  C20 UNL     1      55.611  10.831  55.094  1.00  0.00     0.088 A 
HETATM   31  N2  UNL     1      56.228  11.298  53.966  1.00  0.00    -0.366 N 
ATOM     32  H2  UNL     1      56.314  10.682  53.157  1.00  0.00     0.165 HD
ENDBRANCH  25  26
ENDBRANCH   5  24
TORSDOF 5
ENDMDL
