MODEL 1
REMARK VINA RESULT: -10.460458219      0.000      0.000
REMARK  5 active torsions:
REMARK  status: ('A' for Active; 'I' for Inactive)
REMARK       I    between atoms: N1_2  and  C2_4 
REMARK    1  A    between atoms: C2_4  and  C3_6 
REMARK    2  A    between atoms: C8_11  and  S1_12 
REMARK    3  A    between atoms: S1_12  and  C9_13 
REMARK    4  A    between atoms: C13_17  and  C14_18 
REMARK    5  A    between atoms: C15_19  and  C16_20 
ROOT
HETATM    1  C9  UNL     1      60.200  17.082  48.301  1.00  0.00     0.007 A 
HETATM    2  C10 UNL     1      60.043  16.972  49.669  1.00  0.00     0.020 A 
HETATM    3  C11 UNL     1      59.249  15.969  50.216  1.00  0.00     0.017 A 
HETATM    4  C12 UNL     1      58.580  15.040  49.455  1.00  0.00     0.020 A 
HETATM    5  C13 UNL     1      57.766  13.970  49.758  1.00  0.00     0.060 A 
HETATM    6  N3  UNL     1      57.461  13.457  48.519  1.00  0.00    -0.299 N 
ATOM      7  H3  UNL     1      56.869  12.642  48.362  1.00  0.00     0.187 HD
HETATM    8  N4  UNL     1      58.032  14.153  47.563  1.00  0.00    -0.299 N 
ATOM      9  H4  UNL     1      57.942  13.954  46.566  1.00  0.00     0.187 HD
HETATM   10  C21 UNL     1      58.750  15.163  48.078  1.00  0.00     0.061 A 
HETATM   11  C22 UNL     1      59.541  16.162  47.531  1.00  0.00     0.050 A 
ENDROOT
BRANCH   1  12
HETATM   12  S1  UNL     1      61.225  18.397  47.657  1.00  0.00    -0.089 SA
BRANCH  12  13
HETATM   13  C8  UNL     1      62.707  18.545  48.660  1.00  0.00     0.021 A 
HETATM   14  C3  UNL     1      63.274  19.778  48.822  1.00  0.00     0.049 A 
HETATM   15  C4  UNL     1      64.398  19.808  49.661  1.00  0.00     0.018 A 
HETATM   16  C5  UNL     1      64.923  18.711  50.291  1.00  0.00     0.001 A 
HETATM   17  C6  UNL     1      64.321  17.473  50.103  1.00  0.00     0.001 A 
HETATM   18  C7  UNL     1      63.223  17.409  49.289  1.00  0.00     0.020 A 
BRANCH  14  19
HETATM   19  C2  UNL     1      62.846  21.012  48.199  1.00  0.00     0.252 C 
HETATM   20  N1  UNL     1      61.793  21.862  48.599  1.00  0.00    -0.361 N 
HETATM   21  C1  UNL     1      61.482  23.091  47.871  1.00  0.00     0.149 C 
ATOM     22  H1  UNL     1      61.236  21.613  49.416  1.00  0.00     0.162 HD
HETATM   23  O1  UNL     1      63.476  21.396  47.163  1.00  0.00    -0.268 OA
ENDBRANCH  14  19
ENDBRANCH  12  13
ENDBRANCH   1  12
BRANCH   5  24
HETATM   24  C14 UNL     1      57.230  13.476  50.991  1.00  0.00     0.034 C 
HETATM   25  C15 UNL     1      57.825  13.479  52.134  1.00  0.00     0.032 C 
BRANCH  25  26
HETATM   26  C16 UNL     1      57.155  12.928  53.340  1.00  0.00     0.031 A 
HETATM   27  C17 UNL     1      57.033  13.654  54.496  1.00  0.00     0.029 A 
HETATM   28  C18 UNL     1      56.427  13.166  55.610  1.00  0.00     0.004 A 
HETATM   29  C19 UNL     1      55.916  11.876  55.558  1.00  0.00     0.017 A 
HETATM   30  C20 UNL     1      56.040  11.149  54.395  1.00  0.00     0.088 A 
HETATM   31  N2  UNL     1      56.662  11.703  53.310  1.00  0.00    -0.366 N 
ATOM     32  H2  UNL     1      56.747  11.155  52.454  1.00  0.00     0.165 HD
ENDBRANCH  25  26
ENDBRANCH   5  24
TORSDOF 5
ENDMDL
