MODEL 7
REMARK VINA RESULT: -9.215649519      2.318      4.428
REMARK  5 active torsions:
REMARK  status: ('A' for Active; 'I' for Inactive)
REMARK       I    between atoms: N1_2  and  C2_4 
REMARK    1  A    between atoms: C2_4  and  C3_6 
REMARK    2  A    between atoms: C8_11  and  S1_12 
REMARK    3  A    between atoms: S1_12  and  C9_13 
REMARK    4  A    between atoms: C13_17  and  C14_18 
REMARK    5  A    between atoms: C15_19  and  C16_20 
ROOT
HETATM    1  C9  UNL     1      62.610  19.593  48.171  1.00  0.00     0.007 A 
HETATM    2  C10 UNL     1      61.982  19.079  49.288  1.00  0.00     0.020 A 
HETATM    3  C11 UNL     1      61.202  17.930  49.200  1.00  0.00     0.017 A 
HETATM    4  C12 UNL     1      61.005  17.242  48.026  1.00  0.00     0.020 A 
HETATM    5  C13 UNL     1      60.307  16.100  47.698  1.00  0.00     0.060 A 
HETATM    6  N3  UNL     1      60.559  15.964  46.352  1.00  0.00    -0.299 N 
ATOM      7  H3  UNL     1      60.194  15.209  45.771  1.00  0.00     0.187 HD
HETATM    8  N4  UNL     1      61.329  16.932  45.913  1.00  0.00    -0.299 N 
ATOM      9  H4  UNL     1      61.642  17.032  44.947  1.00  0.00     0.187 HD
HETATM   10  C21 UNL     1      61.648  17.772  46.910  1.00  0.00     0.061 A 
HETATM   11  C22 UNL     1      62.426  18.917  46.995  1.00  0.00     0.050 A 
ENDROOT
BRANCH   1  12
HETATM   12  S1  UNL     1      63.592  21.077  48.345  1.00  0.00    -0.089 SA
BRANCH  12  13
HETATM   13  C8  UNL     1      62.603  22.505  47.889  1.00  0.00     0.021 A 
HETATM   14  C3  UNL     1      63.085  23.366  46.945  1.00  0.00     0.049 A 
HETATM   15  C4  UNL     1      62.225  24.425  46.615  1.00  0.00     0.018 A 
HETATM   16  C5  UNL     1      60.988  24.619  47.169  1.00  0.00     0.001 A 
HETATM   17  C6  UNL     1      60.530  23.722  48.127  1.00  0.00     0.001 A 
HETATM   18  C7  UNL     1      61.345  22.679  48.473  1.00  0.00     0.020 A 
BRANCH  14  19
HETATM   19  C2  UNL     1      64.378  23.302  46.299  1.00  0.00     0.252 C 
HETATM   20  N1  UNL     1      65.569  23.954  46.681  1.00  0.00    -0.361 N 
HETATM   21  C1  UNL     1      66.812  23.783  45.930  1.00  0.00     0.149 C 
ATOM     22  H1  UNL     1      65.563  24.559  47.503  1.00  0.00     0.162 HD
HETATM   23  O1  UNL     1      64.478  22.579  45.256  1.00  0.00    -0.268 OA
ENDBRANCH  14  19
ENDBRANCH  12  13
ENDBRANCH   1  12
BRANCH   5  24
HETATM   24  C14 UNL     1      59.437  15.245  48.448  1.00  0.00     0.034 C 
HETATM   25  C15 UNL     1      59.308  15.227  49.729  1.00  0.00     0.032 C 
BRANCH  25  26
HETATM   26  C16 UNL     1      58.368  14.280  50.384  1.00  0.00     0.031 A 
HETATM   27  C17 UNL     1      58.420  14.023  51.729  1.00  0.00     0.029 A 
HETATM   28  C18 UNL     1      57.572  13.159  52.346  1.00  0.00     0.004 A 
HETATM   29  C19 UNL     1      56.620  12.517  51.566  1.00  0.00     0.017 A 
HETATM   30  C20 UNL     1      56.570  12.777  50.214  1.00  0.00     0.088 A 
HETATM   31  N2  UNL     1      57.455  13.660  49.659  1.00  0.00    -0.366 N 
ATOM     32  H2  UNL     1      57.408  13.845  48.657  1.00  0.00     0.165 HD
ENDBRANCH  25  26
ENDBRANCH   5  24
TORSDOF 5
ENDMDL
