MODEL 5
REMARK VINA RESULT: -9.711758804      3.979      9.901
REMARK  5 active torsions:
REMARK  status: ('A' for Active; 'I' for Inactive)
REMARK       I    between atoms: N1_2  and  C2_4 
REMARK    1  A    between atoms: C2_4  and  C3_6 
REMARK    2  A    between atoms: C8_11  and  S1_12 
REMARK    3  A    between atoms: S1_12  and  C9_13 
REMARK    4  A    between atoms: C13_17  and  C14_18 
REMARK    5  A    between atoms: C15_19  and  C16_20 
ROOT
HETATM    1  C9  UNL     1      56.715  12.110  53.303  1.00  0.00     0.007 A 
HETATM    2  C10 UNL     1      57.589  13.138  53.593  1.00  0.00     0.020 A 
HETATM    3  C11 UNL     1      58.126  13.924  52.578  1.00  0.00     0.017 A 
HETATM    4  C12 UNL     1      57.833  13.738  51.248  1.00  0.00     0.020 A 
HETATM    5  C13 UNL     1      58.216  14.379  50.091  1.00  0.00     0.060 A 
HETATM    6  N3  UNL     1      57.528  13.692  49.118  1.00  0.00    -0.299 N 
ATOM      7  H3  UNL     1      57.573  13.904  48.121  1.00  0.00     0.187 HD
HETATM    8  N4  UNL     1      56.804  12.728  49.638  1.00  0.00    -0.299 N 
ATOM      9  H4  UNL     1      56.214  12.091  49.103  1.00  0.00     0.187 HD
HETATM   10  C21 UNL     1      56.948  12.698  50.972  1.00  0.00     0.061 A 
HETATM   11  C22 UNL     1      56.412  11.914  51.983  1.00  0.00     0.050 A 
ENDROOT
BRANCH   1  12
HETATM   12  S1  UNL     1      56.065  11.130  54.650  1.00  0.00    -0.089 SA
BRANCH  12  13
HETATM   13  C8  UNL     1      55.456  12.217  55.942  1.00  0.00     0.021 A 
HETATM   14  C3  UNL     1      56.295  12.560  56.965  1.00  0.00     0.049 A 
HETATM   15  C4  UNL     1      55.751  13.453  57.901  1.00  0.00     0.018 A 
HETATM   16  C5  UNL     1      54.484  13.967  57.837  1.00  0.00     0.001 A 
HETATM   17  C6  UNL     1      53.658  13.594  56.783  1.00  0.00     0.001 A 
HETATM   18  C7  UNL     1      54.157  12.725  55.852  1.00  0.00     0.020 A 
BRANCH  14  19
HETATM   19  C2  UNL     1      57.642  12.076  57.175  1.00  0.00     0.252 C 
HETATM   20  N1  UNL     1      58.040  10.864  57.778  1.00  0.00    -0.361 N 
HETATM   21  C1  UNL     1      59.450  10.502  57.912  1.00  0.00     0.149 C 
ATOM     22  H1  UNL     1      57.326  10.225  58.128  1.00  0.00     0.162 HD
HETATM   23  O1  UNL     1      58.600  12.815  56.780  1.00  0.00    -0.268 OA
ENDBRANCH  14  19
ENDBRANCH  12  13
ENDBRANCH   1  12
BRANCH   5  24
HETATM   24  C14 UNL     1      59.150  15.433  49.828  1.00  0.00     0.034 C 
HETATM   25  C15 UNL     1      60.427  15.308  49.719  1.00  0.00     0.032 C 
BRANCH  25  26
HETATM   26  C16 UNL     1      61.286  16.491  49.449  1.00  0.00     0.031 A 
HETATM   27  C17 UNL     1      60.761  17.688  49.040  1.00  0.00     0.029 A 
HETATM   28  C18 UNL     1      61.530  18.779  48.785  1.00  0.00     0.004 A 
HETATM   29  C19 UNL     1      62.902  18.658  48.951  1.00  0.00     0.017 A 
HETATM   30  C20 UNL     1      63.428  17.453  49.362  1.00  0.00     0.088 A 
HETATM   31  N2  UNL     1      62.594  16.395  49.602  1.00  0.00    -0.366 N 
ATOM     32  H2  UNL     1      62.994  15.508  49.907  1.00  0.00     0.165 HD
ENDBRANCH  25  26
ENDBRANCH   5  24
TORSDOF 5
ENDMDL
