MODEL 4
REMARK VINA RESULT: -9.924207005      1.398      2.007
REMARK  5 active torsions:
REMARK  status: ('A' for Active; 'I' for Inactive)
REMARK       I    between atoms: N1_2  and  C2_4 
REMARK    1  A    between atoms: C2_4  and  C3_6 
REMARK    2  A    between atoms: C8_11  and  S1_12 
REMARK    3  A    between atoms: S1_12  and  C9_13 
REMARK    4  A    between atoms: C13_17  and  C14_18 
REMARK    5  A    between atoms: C15_19  and  C16_20 
ROOT
HETATM    1  C9  UNL     1      59.517  15.615  48.954  1.00  0.00     0.007 A 
HETATM    2  C10 UNL     1      59.538  15.602  50.335  1.00  0.00     0.020 A 
HETATM    3  C11 UNL     1      58.713  14.740  51.051  1.00  0.00     0.017 A 
HETATM    4  C12 UNL     1      57.840  13.863  50.452  1.00  0.00     0.020 A 
HETATM    5  C13 UNL     1      56.955  12.924  50.934  1.00  0.00     0.060 A 
HETATM    6  N3  UNL     1      56.423  12.387  49.784  1.00  0.00    -0.299 N 
ATOM      7  H3  UNL     1      55.722  11.646  49.765  1.00  0.00     0.187 HD
HETATM    8  N4  UNL     1      56.935  12.951  48.715  1.00  0.00    -0.299 N 
ATOM      9  H4  UNL     1      56.686  12.710  47.755  1.00  0.00     0.187 HD
HETATM   10  C21 UNL     1      57.832  13.888  49.059  1.00  0.00     0.061 A 
HETATM   11  C22 UNL     1      58.654  14.746  48.343  1.00  0.00     0.050 A 
ENDROOT
BRANCH   1  12
HETATM   12  S1  UNL     1      60.593  16.751  48.090  1.00  0.00    -0.089 SA
BRANCH  12  13
HETATM   13  C8  UNL     1      62.221  16.728  48.849  1.00  0.00     0.021 A 
HETATM   14  C3  UNL     1      62.960  17.877  48.859  1.00  0.00     0.049 A 
HETATM   15  C4  UNL     1      64.196  17.780  49.517  1.00  0.00     0.018 A 
HETATM   16  C5  UNL     1      64.666  16.644  50.117  1.00  0.00     0.001 A 
HETATM   17  C6  UNL     1      63.887  15.493  50.086  1.00  0.00     0.001 A 
HETATM   18  C7  UNL     1      62.676  15.553  49.452  1.00  0.00     0.020 A 
BRANCH  14  19
HETATM   19  C2  UNL     1      62.603  19.138  48.244  1.00  0.00     0.252 C 
HETATM   20  N1  UNL     1      62.505  20.403  48.861  1.00  0.00    -0.361 N 
HETATM   21  C1  UNL     1      62.141  21.599  48.103  1.00  0.00     0.149 C 
ATOM     22  H1  UNL     1      62.694  20.485  49.860  1.00  0.00     0.162 HD
HETATM   23  O1  UNL     1      62.338  19.130  46.999  1.00  0.00    -0.268 OA
ENDBRANCH  14  19
ENDBRANCH  12  13
ENDBRANCH   1  12
BRANCH   5  24
HETATM   24  C14 UNL     1      56.539  12.571  52.258  1.00  0.00     0.034 C 
HETATM   25  C15 UNL     1      57.029  13.031  53.357  1.00  0.00     0.032 C 
BRANCH  25  26
HETATM   26  C16 UNL     1      56.507  12.574  54.671  1.00  0.00     0.031 A 
HETATM   27  C17 UNL     1      55.838  11.387  54.811  1.00  0.00     0.029 A 
HETATM   28  C18 UNL     1      55.351  10.954  56.003  1.00  0.00     0.004 A 
HETATM   29  C19 UNL     1      55.546  11.761  57.115  1.00  0.00     0.017 A 
HETATM   30  C20 UNL     1      56.219  12.954  56.972  1.00  0.00     0.088 A 
HETATM   31  N2  UNL     1      56.684  13.328  55.741  1.00  0.00    -0.366 N 
ATOM     32  H2  UNL     1      57.181  14.214  55.647  1.00  0.00     0.165 HD
ENDBRANCH  25  26
ENDBRANCH   5  24
TORSDOF 5
ENDMDL
