MODEL 8
REMARK VINA RESULT: -9.210703496      5.695     11.146
REMARK  5 active torsions:
REMARK  status: ('A' for Active; 'I' for Inactive)
REMARK       I    between atoms: N1_2  and  C2_4 
REMARK    1  A    between atoms: C2_4  and  C3_6 
REMARK    2  A    between atoms: C8_11  and  S1_12 
REMARK    3  A    between atoms: S1_12  and  C9_13 
REMARK    4  A    between atoms: C13_17  and  C14_18 
REMARK    5  A    between atoms: C15_19  and  C16_20 
ROOT
HETATM    1  C9  UNL     1      56.819  11.806  57.887  1.00  0.00     0.007 A 
HETATM    2  C10 UNL     1      57.506  12.901  57.403  1.00  0.00     0.020 A 
HETATM    3  C11 UNL     1      57.579  13.148  56.035  1.00  0.00     0.017 A 
HETATM    4  C12 UNL     1      56.990  12.340  55.092  1.00  0.00     0.020 A 
HETATM    5  C13 UNL     1      56.911  12.384  53.717  1.00  0.00     0.060 A 
HETATM    6  N3  UNL     1      56.148  11.279  53.420  1.00  0.00    -0.299 N 
ATOM      7  H3  UNL     1      55.882  10.999  52.475  1.00  0.00     0.187 HD
HETATM    8  N4  UNL     1      55.804  10.631  54.509  1.00  0.00    -0.299 N 
ATOM      9  H4  UNL     1      55.239   9.782  54.525  1.00  0.00     0.187 HD
HETATM   10  C21 UNL     1      56.299  11.241  55.597  1.00  0.00     0.061 A 
HETATM   11  C22 UNL     1      56.224  10.993  56.959  1.00  0.00     0.050 A 
ENDROOT
BRANCH   1  12
HETATM   12  S1  UNL     1      56.768  11.537  59.653  1.00  0.00    -0.089 SA
BRANCH  12  13
HETATM   13  C8  UNL     1      58.350  11.987  60.373  1.00  0.00     0.021 A 
HETATM   14  C3  UNL     1      59.390  11.106  60.285  1.00  0.00     0.049 A 
HETATM   15  C4  UNL     1      60.600  11.562  60.830  1.00  0.00     0.018 A 
HETATM   16  C5  UNL     1      60.773  12.787  61.415  1.00  0.00     0.001 A 
HETATM   17  C6  UNL     1      59.692  13.658  61.488  1.00  0.00     0.001 A 
HETATM   18  C7  UNL     1      58.497  13.244  60.966  1.00  0.00     0.020 A 
BRANCH  14  19
HETATM   19  C2  UNL     1      59.345   9.773  59.723  1.00  0.00     0.252 C 
HETATM   20  N1  UNL     1      59.081   8.561  60.394  1.00  0.00    -0.361 N 
HETATM   21  C1  UNL     1      59.060   7.282  59.686  1.00  0.00     0.149 C 
ATOM     22  H1  UNL     1      58.901   8.577  61.398  1.00  0.00     0.162 HD
HETATM   23  O1  UNL     1      59.571   9.654  58.477  1.00  0.00    -0.268 OA
ENDBRANCH  14  19
ENDBRANCH  12  13
ENDBRANCH   1  12
BRANCH   5  24
HETATM   24  C14 UNL     1      57.502  13.245  52.738  1.00  0.00     0.034 C 
HETATM   25  C15 UNL     1      57.475  13.075  51.461  1.00  0.00     0.032 C 
BRANCH  25  26
HETATM   26  C16 UNL     1      58.137  14.047  50.551  1.00  0.00     0.031 A 
HETATM   27  C17 UNL     1      59.083  14.930  51.001  1.00  0.00     0.029 A 
HETATM   28  C18 UNL     1      59.696  15.828  50.185  1.00  0.00     0.004 A 
HETATM   29  C19 UNL     1      59.336  15.837  48.845  1.00  0.00     0.017 A 
HETATM   30  C20 UNL     1      58.384  14.949  48.396  1.00  0.00     0.088 A 
HETATM   31  N2  UNL     1      57.808  14.071  49.273  1.00  0.00    -0.366 N 
ATOM     32  H2  UNL     1      57.105  13.417  48.929  1.00  0.00     0.165 HD
ENDBRANCH  25  26
ENDBRANCH   5  24
TORSDOF 5
ENDMDL
