MODEL 1
REMARK VINA RESULT: -8.198995826      0.000      0.000
REMARK  2 active torsions:
REMARK  status: ('A' for Active; 'I' for Inactive)
REMARK    1  A    between atoms: O1_2  and  C2_3 
REMARK    2  A    between atoms: C7_8  and  C8_9 
ROOT
HETATM    1  C8  UNL     1      15.734  33.323  75.018  1.00  0.00     0.088 A 
HETATM    2  N1  UNL     1      14.677  33.489  74.191  1.00  0.00    -0.257 N 
ATOM      3  H1  UNL     1      13.727  33.698  74.498  1.00  0.00     0.195 HD
HETATM    4  O2  UNL     1      15.043  33.343  72.951  1.00  0.00    -0.218 OA
HETATM    5  C9  UNL     1      16.309  33.082  72.848  1.00  0.00     0.189 A 
HETATM    6  N2  UNL     1      17.171  32.848  71.841  1.00  0.00    -0.324 N 
ATOM      7  H2  UNL     1      16.815  32.863  70.885  1.00  0.00     0.169 HD
HETATM    8  C10 UNL     1      18.479  32.596  72.032  1.00  0.00     0.081 A 
HETATM    9  C11 UNL     1      19.426  32.345  70.911  1.00  0.00     0.089 C 
HETATM   10  N3  UNL     1      18.916  32.581  73.318  1.00  0.00    -0.312 N 
ATOM     11  H3  UNL     1      19.903  32.391  73.492  1.00  0.00     0.170 HD
HETATM   12  C12 UNL     1      18.113  32.804  74.373  1.00  0.00     0.263 A 
HETATM   13  O3  UNL     1      18.547  32.785  75.571  1.00  0.00    -0.267 OA
HETATM   14  C13 UNL     1      16.789  33.060  74.163  1.00  0.00     0.115 A 
ENDROOT
BRANCH   1  15
HETATM   15  C7  UNL     1      15.731  33.405  76.474  1.00  0.00     0.027 A 
HETATM   16  C2  UNL     1      15.566  34.623  77.118  1.00  0.00     0.080 A 
HETATM   17  C3  UNL     1      15.549  34.707  78.510  1.00  0.00     0.037 A 
HETATM   18  C4  UNL     1      15.694  33.578  79.286  1.00  0.00     0.003 A 
HETATM   19  C5  UNL     1      15.858  32.363  78.657  1.00  0.00     0.001 A 
HETATM   20  C6  UNL     1      15.873  32.303  77.289  1.00  0.00     0.017 A 
BRANCH  16  21
HETATM   21  O1  UNL     1      15.415  35.770  76.360  1.00  0.00    -0.355 OA
HETATM   22  C1  UNL     1      15.070  36.987  77.017  1.00  0.00     0.210 C 
ENDBRANCH  16  21
ENDBRANCH   1  15
TORSDOF 2
ENDMDL
