MODEL 2
REMARK VINA RESULT: -7.889620770      3.010      5.931
REMARK  2 active torsions:
REMARK  status: ('A' for Active; 'I' for Inactive)
REMARK    1  A    between atoms: O1_2  and  C2_3 
REMARK    2  A    between atoms: C7_8  and  C8_9 
ROOT
HETATM    1  C8  UNL     1      16.306  33.575  77.520  1.00  0.00     0.088 A 
HETATM    2  N1  UNL     1      15.701  34.718  77.917  1.00  0.00    -0.257 N 
ATOM      3  H1  UNL     1      15.510  35.515  77.310  1.00  0.00     0.195 HD
HETATM    4  O2  UNL     1      15.398  34.656  79.181  1.00  0.00    -0.218 OA
HETATM    5  C9  UNL     1      15.755  33.526  79.709  1.00  0.00     0.189 A 
HETATM    6  N2  UNL     1      15.685  32.962  80.930  1.00  0.00    -0.324 N 
ATOM      7  H2  UNL     1      15.255  33.496  81.686  1.00  0.00     0.169 HD
HETATM    8  C10 UNL     1      16.153  31.730  81.202  1.00  0.00     0.081 A 
HETATM    9  C11 UNL     1      16.064  31.113  82.554  1.00  0.00     0.089 C 
HETATM   10  N3  UNL     1      16.720  31.052  80.171  1.00  0.00    -0.312 N 
ATOM     11  H3  UNL     1      17.084  30.116  80.349  1.00  0.00     0.170 HD
HETATM   12  C12 UNL     1      16.826  31.551  78.927  1.00  0.00     0.263 A 
HETATM   13  O3  UNL     1      17.363  30.895  77.976  1.00  0.00    -0.267 OA
HETATM   14  C13 UNL     1      16.345  32.802  78.667  1.00  0.00     0.115 A 
ENDROOT
BRANCH   1  15
HETATM   15  C7  UNL     1      16.796  33.260  76.184  1.00  0.00     0.027 A 
HETATM   16  C2  UNL     1      15.969  33.379  75.075  1.00  0.00     0.080 A 
HETATM   17  C3  UNL     1      16.435  33.092  73.793  1.00  0.00     0.037 A 
HETATM   18  C4  UNL     1      17.736  32.683  73.590  1.00  0.00     0.003 A 
HETATM   19  C5  UNL     1      18.566  32.563  74.683  1.00  0.00     0.001 A 
HETATM   20  C6  UNL     1      18.088  32.849  75.934  1.00  0.00     0.017 A 
BRANCH  16  21
HETATM   21  O1  UNL     1      14.660  33.790  75.253  1.00  0.00    -0.355 OA
HETATM   22  C1  UNL     1      13.888  34.138  74.107  1.00  0.00     0.210 C 
ENDBRANCH  16  21
ENDBRANCH   1  15
TORSDOF 2
ENDMDL
