MODEL 3
REMARK VINA RESULT: -7.795467977      2.879      4.079
REMARK  2 active torsions:
REMARK  status: ('A' for Active; 'I' for Inactive)
REMARK    1  A    between atoms: O1_2  and  C2_3 
REMARK    2  A    between atoms: C7_8  and  C8_9 
ROOT
HETATM    1  C8  UNL     1      14.649  33.889  74.319  1.00  0.00     0.088 A 
HETATM    2  N1  UNL     1      14.974  33.511  75.576  1.00  0.00    -0.257 N 
ATOM      3  H1  UNL     1      14.362  33.600  76.387  1.00  0.00     0.195 HD
HETATM    4  O2  UNL     1      16.177  33.017  75.605  1.00  0.00    -0.218 OA
HETATM    5  C9  UNL     1      16.731  33.022  74.431  1.00  0.00     0.189 A 
HETATM    6  N2  UNL     1      17.916  32.644  73.918  1.00  0.00    -0.324 N 
ATOM      7  H2  UNL     1      18.611  32.241  74.547  1.00  0.00     0.169 HD
HETATM    8  C10 UNL     1      18.230  32.771  72.615  1.00  0.00     0.081 A 
HETATM    9  C11 UNL     1      19.542  32.343  72.055  1.00  0.00     0.089 C 
HETATM   10  N3  UNL     1      17.281  33.314  71.809  1.00  0.00    -0.312 N 
ATOM     11  H3  UNL     1      17.494  33.423  70.818  1.00  0.00     0.170 HD
HETATM   12  C12 UNL     1      16.078  33.715  72.252  1.00  0.00     0.263 A 
HETATM   13  O3  UNL     1      15.204  34.223  71.476  1.00  0.00    -0.267 OA
HETATM   14  C13 UNL     1      15.773  33.579  73.575  1.00  0.00     0.115 A 
ENDROOT
BRANCH   1  15
HETATM   15  C7  UNL     1      13.394  34.487  73.880  1.00  0.00     0.027 A 
HETATM   16  C2  UNL     1      13.254  35.866  73.791  1.00  0.00     0.080 A 
HETATM   17  C3  UNL     1      12.061  36.443  73.359  1.00  0.00     0.037 A 
HETATM   18  C4  UNL     1      10.985  35.659  73.006  1.00  0.00     0.003 A 
HETATM   19  C5  UNL     1      11.112  34.290  73.089  1.00  0.00     0.001 A 
HETATM   20  C6  UNL     1      12.293  33.742  73.516  1.00  0.00     0.017 A 
BRANCH  16  21
HETATM   21  O1  UNL     1      14.322  36.674  74.138  1.00  0.00    -0.355 OA
HETATM   22  C1  UNL     1      14.951  37.453  73.124  1.00  0.00     0.210 C 
ENDBRANCH  16  21
ENDBRANCH   1  15
TORSDOF 2
ENDMDL
