MODEL 7
REMARK VINA RESULT: -8.747635654      2.471      3.773
REMARK  7 active torsions:
REMARK  status: ('A' for Active; 'I' for Inactive)
REMARK    1  A    between atoms: C5_5  and  O1_6 
REMARK    2  A    between atoms: O1_6  and  C6_7 
REMARK    3  A    between atoms: C6_7  and  C7_8 
REMARK    4  A    between atoms: C7_8  and  O2_9 
REMARK    5  A    between atoms: C7_8  and  C8_11 
REMARK    6  A    between atoms: C8_11  and  N1_12 
REMARK    7  A    between atoms: N1_12  and  C9_15 
ROOT
HETATM    1  C7  UNL     1      37.738  21.199  23.514  1.00  0.00     0.168 C 
ENDROOT
BRANCH   1   2
HETATM    2  C6  UNL     1      38.596  21.035  22.306  1.00  0.00     0.209 C 
BRANCH   2   3
HETATM    3  O1  UNL     1      38.688  22.127  21.543  1.00  0.00    -0.349 OA
BRANCH   3   4
HETATM    4  C5  UNL     1      38.120  22.753  20.499  1.00  0.00     0.069 A 
HETATM    5  C4  UNL     1      37.076  23.646  20.545  1.00  0.00     0.037 A 
HETATM    6  C3  UNL     1      36.620  24.189  19.355  1.00  0.00     0.010 A 
HETATM    7  C2  UNL     1      37.165  23.876  18.137  1.00  0.00    -0.056 A 
HETATM    8  C1  UNL     1      36.612  24.511  16.889  1.00  0.00     0.049 C 
HETATM    9  C19 UNL     1      38.221  22.979  18.063  1.00  0.00    -0.053 A 
HETATM   10  C18 UNL     1      38.666  22.447  19.232  1.00  0.00     0.044 A 
HETATM   11  C20 UNL     1      38.800  22.655  16.730  1.00  0.00     0.049 C 
ENDBRANCH   3   4
ENDBRANCH   2   3
ENDBRANCH   1   2
BRANCH   1  12
HETATM   12  O2  UNL     1      37.778  20.241  24.468  1.00  0.00    -0.392 OA
ATOM     13  H2  UNL     1      37.770  20.510  25.379  1.00  0.00     0.210 HD
ENDBRANCH   1  12
BRANCH   1  14
HETATM   14  C8  UNL     1      38.121  22.540  24.166  1.00  0.00     0.266 C 
BRANCH  14  15
HETATM   15  N1  UNL     1      38.120  22.309  25.574  1.00  0.00    -0.068 N 
ATOM     16  H12 UNL     1      37.206  22.529  25.968  1.00  0.00     0.277 HD
ATOM     17  H11 UNL     1      38.160  21.309  25.769  1.00  0.00     0.277 HD
BRANCH  15  18
HETATM   18  C9  UNL     1      39.155  23.001  26.296  1.00  0.00     0.194 C 
HETATM   19  C10 UNL     1      39.624  24.131  25.384  1.00  0.00     0.072 C 
HETATM   20  C11 UNL     1      40.005  25.177  26.336  1.00  0.00    -0.050 A 
HETATM   21  C12 UNL     1      40.814  26.296  26.122  1.00  0.00     0.007 A 
HETATM   22  C16 UNL     1      39.443  24.939  27.566  1.00  0.00    -0.050 A 
HETATM   23  C13 UNL     1      41.069  27.187  27.141  1.00  0.00     0.001 A 
HETATM   24  C14 UNL     1      40.489  26.918  28.361  1.00  0.00     0.001 A 
HETATM   25  C15 UNL     1      39.689  25.826  28.602  1.00  0.00     0.007 A 
HETATM   26  C17 UNL     1      38.633  23.693  27.527  1.00  0.00     0.072 C 
ENDBRANCH  15  18
ENDBRANCH  14  15
ENDBRANCH   1  14
TORSDOF 7
ENDMDL
