MODEL 1
REMARK VINA RESULT: -9.446487505      0.000      0.000
REMARK  7 active torsions:
REMARK  status: ('A' for Active; 'I' for Inactive)
REMARK    1  A    between atoms: C5_5  and  O1_6 
REMARK    2  A    between atoms: O1_6  and  C6_7 
REMARK    3  A    between atoms: C6_7  and  C7_8 
REMARK    4  A    between atoms: C7_8  and  O2_9 
REMARK    5  A    between atoms: C7_8  and  C8_11 
REMARK    6  A    between atoms: C8_11  and  N1_12 
REMARK    7  A    between atoms: N1_12  and  C9_15 
ROOT
HETATM    1  C7  UNL     1      36.837  22.788  23.420  1.00  0.00     0.168 C 
ENDROOT
BRANCH   1   2
HETATM    2  C6  UNL     1      36.485  21.612  22.573  1.00  0.00     0.209 C 
BRANCH   2   3
HETATM    3  O1  UNL     1      37.437  20.678  22.503  1.00  0.00    -0.349 OA
BRANCH   3   4
HETATM    4  C5  UNL     1      38.093  19.882  21.643  1.00  0.00     0.069 A 
HETATM    5  C4  UNL     1      38.645  20.249  20.440  1.00  0.00     0.037 A 
HETATM    6  C3  UNL     1      39.283  19.278  19.684  1.00  0.00     0.010 A 
HETATM    7  C2  UNL     1      39.389  17.973  20.084  1.00  0.00    -0.056 A 
HETATM    8  C1  UNL     1      40.100  16.979  19.205  1.00  0.00     0.049 C 
HETATM    9  C19 UNL     1      38.842  17.576  21.297  1.00  0.00    -0.053 A 
HETATM   10  C18 UNL     1      38.216  18.529  22.036  1.00  0.00     0.044 A 
HETATM   11  C20 UNL     1      38.971  16.153  21.715  1.00  0.00     0.049 C 
ENDBRANCH   3   4
ENDBRANCH   2   3
ENDBRANCH   1   2
BRANCH   1  12
HETATM   12  O2  UNL     1      36.055  23.072  24.485  1.00  0.00    -0.392 OA
ATOM     13  H2  UNL     1      35.446  23.798  24.420  1.00  0.00     0.210 HD
ENDBRANCH   1  12
BRANCH   1  14
HETATM   14  C8  UNL     1      38.275  22.569  23.925  1.00  0.00     0.266 C 
BRANCH  14  15
HETATM   15  N1  UNL     1      38.166  22.310  25.324  1.00  0.00    -0.068 N 
ATOM     16  H12 UNL     1      37.230  22.543  25.656  1.00  0.00     0.277 HD
ATOM     17  H11 UNL     1      38.170  21.305  25.500  1.00  0.00     0.277 HD
BRANCH  15  18
HETATM   18  C9  UNL     1      39.160  22.962  26.134  1.00  0.00     0.194 C 
HETATM   19  C10 UNL     1      39.663  24.147  25.315  1.00  0.00     0.072 C 
HETATM   20  C11 UNL     1      39.990  25.136  26.346  1.00  0.00    -0.050 A 
HETATM   21  C12 UNL     1      40.800  26.269  26.237  1.00  0.00     0.007 A 
HETATM   22  C16 UNL     1      39.373  24.822  27.531  1.00  0.00    -0.050 A 
HETATM   23  C13 UNL     1      40.999  27.099  27.318  1.00  0.00     0.001 A 
HETATM   24  C14 UNL     1      40.365  26.755  28.491  1.00  0.00     0.001 A 
HETATM   25  C15 UNL     1      39.562  25.646  28.629  1.00  0.00     0.007 A 
HETATM   26  C17 UNL     1      38.575  23.577  27.379  1.00  0.00     0.072 C 
ENDBRANCH  15  18
ENDBRANCH  14  15
ENDBRANCH   1  14
TORSDOF 7
ENDMDL
