MODEL 6
REMARK VINA RESULT: -8.976863729      0.864      1.555
REMARK  7 active torsions:
REMARK  status: ('A' for Active; 'I' for Inactive)
REMARK    1  A    between atoms: C5_5  and  O1_6 
REMARK    2  A    between atoms: O1_6  and  C6_7 
REMARK    3  A    between atoms: C6_7  and  C7_8 
REMARK    4  A    between atoms: C7_8  and  O2_9 
REMARK    5  A    between atoms: C7_8  and  C8_11 
REMARK    6  A    between atoms: C8_11  and  N1_12 
REMARK    7  A    between atoms: N1_12  and  C9_15 
ROOT
HETATM    1  C7  UNL     1      37.502  22.203  23.195  1.00  0.00     0.168 C 
ENDROOT
BRANCH   1   2
HETATM    2  C6  UNL     1      38.050  22.395  21.822  1.00  0.00     0.209 C 
BRANCH   2   3
HETATM    3  O1  UNL     1      37.901  21.340  21.017  1.00  0.00    -0.349 OA
BRANCH   3   4
HETATM    4  C5  UNL     1      38.569  20.314  20.464  1.00  0.00     0.069 A 
HETATM    5  C4  UNL     1      39.278  20.333  19.287  1.00  0.00     0.037 A 
HETATM    6  C3  UNL     1      39.900  19.166  18.874  1.00  0.00     0.010 A 
HETATM    7  C2  UNL     1      39.840  17.998  19.587  1.00  0.00    -0.056 A 
HETATM    8  C1  UNL     1      40.545  16.772  19.069  1.00  0.00     0.049 C 
HETATM    9  C19 UNL     1      39.132  17.952  20.779  1.00  0.00    -0.053 A 
HETATM   10  C18 UNL     1      38.522  19.097  21.182  1.00  0.00     0.044 A 
HETATM   11  C20 UNL     1      39.082  16.673  21.540  1.00  0.00     0.049 C 
ENDBRANCH   3   4
ENDBRANCH   2   3
ENDBRANCH   1   2
BRANCH   1  12
HETATM   12  O2  UNL     1      36.394  21.443  23.346  1.00  0.00    -0.392 OA
ATOM     13  H2  UNL     1      36.399  20.761  24.008  1.00  0.00     0.210 HD
ENDBRANCH   1  12
BRANCH   1  14
HETATM   14  C8  UNL     1      38.625  21.588  24.051  1.00  0.00     0.266 C 
BRANCH  14  15
HETATM   15  N1  UNL     1      38.326  21.935  25.402  1.00  0.00    -0.068 N 
ATOM     16  H12 UNL     1      37.419  21.555  25.673  1.00  0.00     0.277 HD
ATOM     17  H11 UNL     1      38.930  21.419  26.042  1.00  0.00     0.277 HD
BRANCH  15  18
HETATM   18  C9  UNL     1      38.384  23.344  25.687  1.00  0.00     0.194 C 
HETATM   19  C10 UNL     1      38.501  23.465  27.204  1.00  0.00     0.072 C 
HETATM   20  C11 UNL     1      39.304  24.680  27.369  1.00  0.00    -0.050 A 
HETATM   21  C12 UNL     1      39.449  25.477  28.506  1.00  0.00     0.007 A 
HETATM   22  C16 UNL     1      39.959  24.988  26.202  1.00  0.00    -0.050 A 
HETATM   23  C13 UNL     1      40.254  26.595  28.485  1.00  0.00     0.001 A 
HETATM   24  C14 UNL     1      40.897  26.875  27.300  1.00  0.00     0.001 A 
HETATM   25  C15 UNL     1      40.774  26.109  26.164  1.00  0.00     0.007 A 
HETATM   26  C17 UNL     1      39.636  23.987  25.152  1.00  0.00     0.072 C 
ENDBRANCH  15  18
ENDBRANCH  14  15
ENDBRANCH   1  14
TORSDOF 7
ENDMDL
