MODEL 8
REMARK VINA RESULT: -8.720888754      2.806      5.128
REMARK  7 active torsions:
REMARK  status: ('A' for Active; 'I' for Inactive)
REMARK    1  A    between atoms: C5_5  and  O1_6 
REMARK    2  A    between atoms: O1_6  and  C6_7 
REMARK    3  A    between atoms: C6_7  and  C7_8 
REMARK    4  A    between atoms: C7_8  and  O2_9 
REMARK    5  A    between atoms: C7_8  and  C8_11 
REMARK    6  A    between atoms: C8_11  and  N1_12 
REMARK    7  A    between atoms: N1_12  and  C9_15 
ROOT
HETATM    1  C7  UNL     1      37.432  21.651  23.322  1.00  0.00     0.168 C 
ENDROOT
BRANCH   1   2
HETATM    2  C6  UNL     1      38.031  22.309  22.126  1.00  0.00     0.209 C 
BRANCH   2   3
HETATM    3  O1  UNL     1      37.280  23.279  21.596  1.00  0.00    -0.349 OA
BRANCH   3   4
HETATM    4  C5  UNL     1      36.011  23.696  21.461  1.00  0.00     0.069 A 
HETATM    5  C4  UNL     1      35.007  23.065  20.768  1.00  0.00     0.037 A 
HETATM    6  C3  UNL     1      33.754  23.656  20.738  1.00  0.00     0.010 A 
HETATM    7  C2  UNL     1      33.474  24.839  21.370  1.00  0.00    -0.056 A 
HETATM    8  C1  UNL     1      32.085  25.415  21.290  1.00  0.00     0.049 C 
HETATM    9  C19 UNL     1      34.470  25.496  22.078  1.00  0.00    -0.053 A 
HETATM   10  C18 UNL     1      35.698  24.915  22.105  1.00  0.00     0.044 A 
HETATM   11  C20 UNL     1      34.143  26.779  22.759  1.00  0.00     0.049 C 
ENDBRANCH   3   4
ENDBRANCH   2   3
ENDBRANCH   1   2
BRANCH   1  12
HETATM   12  O2  UNL     1      36.846  20.443  23.168  1.00  0.00    -0.392 OA
ATOM     13  H2  UNL     1      37.400  19.671  23.139  1.00  0.00     0.210 HD
ENDBRANCH   1  12
BRANCH   1  14
HETATM   14  C8  UNL     1      38.551  21.510  24.371  1.00  0.00     0.266 C 
BRANCH  14  15
HETATM   15  N1  UNL     1      38.104  22.222  25.524  1.00  0.00    -0.068 N 
ATOM     16  H12 UNL     1      37.345  22.856  25.276  1.00  0.00     0.277 HD
ATOM     17  H11 UNL     1      37.609  21.594  26.157  1.00  0.00     0.277 HD
BRANCH  15  18
HETATM   18  C9  UNL     1      39.138  22.931  26.230  1.00  0.00     0.194 C 
HETATM   19  C10 UNL     1      39.547  24.091  25.327  1.00  0.00     0.072 C 
HETATM   20  C11 UNL     1      39.924  25.130  26.290  1.00  0.00    -0.050 A 
HETATM   21  C12 UNL     1      40.693  26.277  26.075  1.00  0.00     0.007 A 
HETATM   22  C16 UNL     1      39.404  24.852  27.530  1.00  0.00    -0.050 A 
HETATM   23  C13 UNL     1      40.949  27.156  27.104  1.00  0.00     0.001 A 
HETATM   24  C14 UNL     1      40.413  26.847  28.334  1.00  0.00     0.001 A 
HETATM   25  C15 UNL     1      39.653  25.727  28.576  1.00  0.00     0.007 A 
HETATM   26  C17 UNL     1      38.630  23.583  27.489  1.00  0.00     0.072 C 
ENDBRANCH  15  18
ENDBRANCH  14  15
ENDBRANCH   1  14
TORSDOF 7
ENDMDL
