MODEL 4
REMARK VINA RESULT: -9.013102510      1.004      2.195
REMARK  7 active torsions:
REMARK  status: ('A' for Active; 'I' for Inactive)
REMARK    1  A    between atoms: C5_5  and  O1_6 
REMARK    2  A    between atoms: O1_6  and  C6_7 
REMARK    3  A    between atoms: C6_7  and  C7_8 
REMARK    4  A    between atoms: C7_8  and  O2_9 
REMARK    5  A    between atoms: C7_8  and  C8_11 
REMARK    6  A    between atoms: C8_11  and  N1_12 
REMARK    7  A    between atoms: N1_12  and  C9_15 
ROOT
HETATM    1  C7  UNL     1      37.516  20.971  23.227  1.00  0.00     0.168 C 
ENDROOT
BRANCH   1   2
HETATM    2  C6  UNL     1      37.545  19.571  23.738  1.00  0.00     0.209 C 
BRANCH   2   3
HETATM    3  O1  UNL     1      37.512  18.636  22.785  1.00  0.00    -0.349 OA
BRANCH   3   4
HETATM    4  C5  UNL     1      38.267  18.027  21.856  1.00  0.00     0.069 A 
HETATM    5  C4  UNL     1      38.571  16.689  21.792  1.00  0.00     0.037 A 
HETATM    6  C3  UNL     1      39.376  16.244  20.755  1.00  0.00     0.010 A 
HETATM    7  C2  UNL     1      39.878  17.079  19.792  1.00  0.00    -0.056 A 
HETATM    8  C1  UNL     1      40.745  16.517  18.696  1.00  0.00     0.049 C 
HETATM    9  C19 UNL     1      39.584  18.435  19.833  1.00  0.00    -0.053 A 
HETATM   10  C18 UNL     1      38.797  18.869  20.852  1.00  0.00     0.044 A 
HETATM   11  C20 UNL     1      40.138  19.325  18.775  1.00  0.00     0.049 C 
ENDBRANCH   3   4
ENDBRANCH   2   3
ENDBRANCH   1   2
BRANCH   1  12
HETATM   12  O2  UNL     1      36.393  21.701  23.411  1.00  0.00    -0.392 OA
ATOM     13  H2  UNL     1      36.126  21.905  24.300  1.00  0.00     0.210 HD
ENDBRANCH   1  12
BRANCH   1  14
HETATM   14  C8  UNL     1      38.687  21.721  23.889  1.00  0.00     0.266 C 
BRANCH  14  15
HETATM   15  N1  UNL     1      38.283  21.976  25.233  1.00  0.00    -0.068 N 
ATOM     16  H12 UNL     1      37.362  21.575  25.408  1.00  0.00     0.277 HD
ATOM     17  H11 UNL     1      38.842  21.422  25.882  1.00  0.00     0.277 HD
BRANCH  15  18
HETATM   18  C9  UNL     1      38.306  23.363  25.614  1.00  0.00     0.194 C 
HETATM   19  C10 UNL     1      38.500  23.385  27.127  1.00  0.00     0.072 C 
HETATM   20  C11 UNL     1      39.266  24.616  27.336  1.00  0.00    -0.050 A 
HETATM   21  C12 UNL     1      39.444  25.339  28.518  1.00  0.00     0.007 A 
HETATM   22  C16 UNL     1      39.846  25.030  26.162  1.00  0.00    -0.050 A 
HETATM   23  C13 UNL     1      40.206  26.487  28.534  1.00  0.00     0.001 A 
HETATM   24  C14 UNL     1      40.774  26.873  27.340  1.00  0.00     0.001 A 
HETATM   25  C15 UNL     1      40.616  26.182  26.161  1.00  0.00     0.007 A 
HETATM   26  C17 UNL     1      39.503  24.091  25.062  1.00  0.00     0.072 C 
ENDBRANCH  15  18
ENDBRANCH  14  15
ENDBRANCH   1  14
TORSDOF 7
ENDMDL
