MODEL 5
REMARK VINA RESULT: -8.987455730      1.301      8.482
REMARK  7 active torsions:
REMARK  status: ('A' for Active; 'I' for Inactive)
REMARK    1  A    between atoms: C5_5  and  O1_6 
REMARK    2  A    between atoms: O1_6  and  C6_7 
REMARK    3  A    between atoms: C6_7  and  C7_8 
REMARK    4  A    between atoms: C7_8  and  O2_9 
REMARK    5  A    between atoms: C7_8  and  C8_11 
REMARK    6  A    between atoms: C8_11  and  N1_12 
REMARK    7  A    between atoms: N1_12  and  C9_15 
ROOT
HETATM    1  C7  UNL     1      37.151  23.218  23.618  1.00  0.00     0.168 C 
ENDROOT
BRANCH   1   2
HETATM    2  C6  UNL     1      38.531  22.742  23.920  1.00  0.00     0.209 C 
BRANCH   2   3
HETATM    3  O1  UNL     1      38.910  22.917  25.189  1.00  0.00    -0.349 OA
BRANCH   3   4
HETATM    4  C5  UNL     1      39.180  23.863  26.104  1.00  0.00     0.069 A 
HETATM    5  C4  UNL     1      38.781  23.872  27.418  1.00  0.00     0.037 A 
HETATM    6  C3  UNL     1      39.155  24.944  28.213  1.00  0.00     0.010 A 
HETATM    7  C2  UNL     1      39.905  25.991  27.746  1.00  0.00    -0.056 A 
HETATM    8  C1  UNL     1      40.271  27.118  28.675  1.00  0.00     0.049 C 
HETATM    9  C19 UNL     1      40.323  26.005  26.423  1.00  0.00    -0.053 A 
HETATM   10  C18 UNL     1      39.953  24.954  25.645  1.00  0.00     0.044 A 
HETATM   11  C20 UNL     1      41.139  27.151  25.936  1.00  0.00     0.049 C 
ENDBRANCH   3   4
ENDBRANCH   2   3
ENDBRANCH   1   2
BRANCH   1  12
HETATM   12  O2  UNL     1      37.004  24.351  22.896  1.00  0.00    -0.392 OA
ATOM     13  H2  UNL     1      36.629  25.114  23.321  1.00  0.00     0.210 HD
ENDBRANCH   1  12
BRANCH   1  14
HETATM   14  C8  UNL     1      36.430  22.079  22.874  1.00  0.00     0.266 C 
BRANCH  14  15
HETATM   15  N1  UNL     1      37.014  20.866  23.348  1.00  0.00    -0.068 N 
ATOM     16  H12 UNL     1      37.915  21.055  23.785  1.00  0.00     0.277 HD
ATOM     17  H11 UNL     1      36.497  20.515  24.154  1.00  0.00     0.277 HD
BRANCH  15  18
HETATM   18  C9  UNL     1      37.146  19.836  22.352  1.00  0.00     0.194 C 
HETATM   19  C10 UNL     1      37.938  20.455  21.205  1.00  0.00     0.072 C 
HETATM   20  C11 UNL     1      38.685  19.311  20.674  1.00  0.00    -0.050 A 
HETATM   21  C12 UNL     1      39.306  19.180  19.430  1.00  0.00     0.007 A 
HETATM   22  C16 UNL     1      38.725  18.292  21.594  1.00  0.00    -0.050 A 
HETATM   23  C13 UNL     1      39.973  18.022  19.094  1.00  0.00     0.001 A 
HETATM   24  C14 UNL     1      39.995  17.021  20.039  1.00  0.00     0.001 A 
HETATM   25  C15 UNL     1      39.393  17.121  21.272  1.00  0.00     0.007 A 
HETATM   26  C17 UNL     1      37.994  18.684  22.827  1.00  0.00     0.072 C 
ENDBRANCH  15  18
ENDBRANCH  14  15
ENDBRANCH   1  14
TORSDOF 7
ENDMDL
