MODEL 3
REMARK VINA RESULT: -9.236803915      0.909      1.722
REMARK  7 active torsions:
REMARK  status: ('A' for Active; 'I' for Inactive)
REMARK    1  A    between atoms: C5_5  and  O1_6 
REMARK    2  A    between atoms: O1_6  and  C6_7 
REMARK    3  A    between atoms: C6_7  and  C7_8 
REMARK    4  A    between atoms: C7_8  and  O2_9 
REMARK    5  A    between atoms: C7_8  and  C8_11 
REMARK    6  A    between atoms: C8_11  and  N1_12 
REMARK    7  A    between atoms: N1_12  and  C9_15 
ROOT
HETATM    1  C7  UNL     1      37.446  21.257  23.237  1.00  0.00     0.168 C 
ENDROOT
BRANCH   1   2
HETATM    2  C6  UNL     1      37.646  19.870  23.747  1.00  0.00     0.209 C 
BRANCH   2   3
HETATM    3  O1  UNL     1      37.521  18.918  22.818  1.00  0.00    -0.349 OA
BRANCH   3   4
HETATM    4  C5  UNL     1      38.215  18.207  21.915  1.00  0.00     0.069 A 
HETATM    5  C4  UNL     1      38.423  16.849  21.922  1.00  0.00     0.037 A 
HETATM    6  C3  UNL     1      39.175  16.292  20.900  1.00  0.00     0.010 A 
HETATM    7  C2  UNL     1      39.716  17.034  19.884  1.00  0.00    -0.056 A 
HETATM    8  C1  UNL     1      40.521  16.353  18.809  1.00  0.00     0.049 C 
HETATM    9  C19 UNL     1      39.519  18.408  19.852  1.00  0.00    -0.053 A 
HETATM   10  C18 UNL     1      38.783  18.952  20.857  1.00  0.00     0.044 A 
HETATM   11  C20 UNL     1      40.114  19.196  18.738  1.00  0.00     0.049 C 
ENDBRANCH   3   4
ENDBRANCH   2   3
ENDBRANCH   1   2
BRANCH   1  12
HETATM   12  O2  UNL     1      36.246  21.848  23.431  1.00  0.00    -0.392 OA
ATOM     13  H2  UNL     1      36.089  22.696  23.033  1.00  0.00     0.210 HD
ENDBRANCH   1  12
BRANCH   1  14
HETATM   14  C8  UNL     1      38.526  22.141  23.888  1.00  0.00     0.266 C 
BRANCH  14  15
HETATM   15  N1  UNL     1      38.241  22.146  25.286  1.00  0.00    -0.068 N 
ATOM     16  H12 UNL     1      37.303  22.510  25.455  1.00  0.00     0.277 HD
ATOM     17  H11 UNL     1      38.124  21.193  25.628  1.00  0.00     0.277 HD
BRANCH  15  18
HETATM   18  C9  UNL     1      39.203  22.851  26.091  1.00  0.00     0.194 C 
HETATM   19  C10 UNL     1      39.661  24.044  25.258  1.00  0.00     0.072 C 
HETATM   20  C11 UNL     1      39.942  25.060  26.276  1.00  0.00    -0.050 A 
HETATM   21  C12 UNL     1      40.704  26.224  26.156  1.00  0.00     0.007 A 
HETATM   22  C16 UNL     1      39.331  24.736  27.463  1.00  0.00    -0.050 A 
HETATM   23  C13 UNL     1      40.863  27.076  27.227  1.00  0.00     0.001 A 
HETATM   24  C14 UNL     1      40.238  26.722  28.401  1.00  0.00     0.001 A 
HETATM   25  C15 UNL     1      39.481  25.582  28.550  1.00  0.00     0.007 A 
HETATM   26  C17 UNL     1      38.587  23.457  27.325  1.00  0.00     0.072 C 
ENDBRANCH  15  18
ENDBRANCH  14  15
ENDBRANCH   1  14
TORSDOF 7
ENDMDL
