MODEL 2
REMARK VINA RESULT: -8.727482045      1.646      2.232
REMARK  9 active torsions:
REMARK  status: ('A' for Active; 'I' for Inactive)
REMARK    1  A    between atoms: C1_2  and  C2_4 
REMARK    2  A    between atoms: C5_7  and  C6_8 
REMARK    3  A    between atoms: C8_12  and  C9_13 
REMARK    4  A    between atoms: C9_13  and  C10_14 
REMARK    5  A    between atoms: C9_13  and  N3_21 
REMARK    6  A    between atoms: C10_14  and  C11_15 
REMARK       I    between atoms: N3_21  and  C17_23 
REMARK    7  A    between atoms: C17_23  and  C18_25 
REMARK    8  A    between atoms: C21_28  and  C22_29 
REMARK    9  A    between atoms: C22_29  and  N4_30 
ROOT
HETATM    1  C9  UNL     1      38.358 -19.471  27.816  1.00  0.00     0.156 C 
ENDROOT
BRANCH   1   2
HETATM    2  C8  UNL     1      37.598 -20.392  26.953  1.00  0.00     0.105 A 
HETATM    3  N2  UNL     1      36.591 -20.048  26.159  1.00  0.00    -0.352 N 
HETATM    4  C7  UNL     1      36.157 -21.138  25.526  1.00  0.00     0.119 A 
ATOM      5  H2  UNL     1      36.212 -19.107  26.052  1.00  0.00     0.166 HD
HETATM    6  C6  UNL     1      36.907 -22.219  25.923  1.00  0.00     0.059 A 
HETATM    7  N5  UNL     1      37.783 -21.730  26.799  1.00  0.00    -0.342 N 
ATOM      8  H5  UNL     1      38.491 -22.280  27.284  1.00  0.00     0.167 HD
BRANCH   6   9
HETATM    9  C5  UNL     1      36.752 -23.603  25.464  1.00  0.00    -0.008 A 
HETATM   10  C4  UNL     1      37.718 -24.558  25.700  1.00  0.00     0.015 A 
HETATM   11  C3  UNL     1      37.529 -25.848  25.248  1.00  0.00     0.017 A 
HETATM   12  C2  UNL     1      36.405 -26.251  24.558  1.00  0.00     0.029 A 
HETATM   13  C26 UNL     1      35.434 -25.280  24.323  1.00  0.00     0.017 A 
HETATM   14  C25 UNL     1      35.635 -23.993  24.780  1.00  0.00     0.015 A 
BRANCH  12  15
HETATM   15  C1  UNL     1      36.230 -27.621  24.092  1.00  0.00     0.264 C 
HETATM   16  N1  UNL     1      35.295 -28.520  24.635  1.00  0.00    -0.057 NA
HETATM   17  O1  UNL     1      36.961 -28.014  23.150  1.00  0.00    -0.271 OA
ENDBRANCH  12  15
ENDBRANCH   6   9
ENDBRANCH   1   2
BRANCH   1  18
HETATM   18  C10 UNL     1      38.583 -18.164  27.098  1.00  0.00     0.071 C 
BRANCH  18  19
HETATM   19  C11 UNL     1      37.780 -17.036  27.569  1.00  0.00    -0.056 A 
HETATM   20  C12 UNL     1      37.891 -15.831  26.856  1.00  0.00     0.007 A 
HETATM   21  C13 UNL     1      37.208 -14.689  27.204  1.00  0.00     0.001 A 
HETATM   22  C14 UNL     1      36.365 -14.683  28.293  1.00  0.00     0.000 A 
HETATM   23  C15 UNL     1      36.237 -15.846  29.007  1.00  0.00     0.001 A 
HETATM   24  C16 UNL     1      36.936 -17.001  28.648  1.00  0.00     0.007 A 
ENDBRANCH  18  19
ENDBRANCH   1  18
BRANCH   1  25
HETATM   25  N3  UNL     1      39.647 -20.095  28.122  1.00  0.00    -0.349 N 
HETATM   26  C17 UNL     1      40.317 -19.889  29.336  1.00  0.00     0.222 C 
HETATM   27  O2  UNL     1      39.753 -19.128  30.173  1.00  0.00    -0.273 OA
ATOM     28  H3  UNL     1      40.075 -20.704  27.425  1.00  0.00     0.163 HD
BRANCH  26  29
HETATM   29  C18 UNL     1      41.608 -20.483  29.704  1.00  0.00     0.078 C 
HETATM   30  C19 UNL     1      41.400 -21.770  30.423  1.00  0.00     0.014 C 
HETATM   31  C20 UNL     1      42.448 -22.801  30.158  1.00  0.00     0.007 C 
HETATM   32  C21 UNL     1      43.840 -22.206  30.039  1.00  0.00     0.011 C 
HETATM   33  C23 UNL     1      43.890 -21.055  29.093  1.00  0.00     0.007 C 
HETATM   34  C24 UNL     1      42.507 -20.730  28.518  1.00  0.00     0.014 C 
BRANCH  32  35
HETATM   35  C22 UNL     1      44.390 -21.854  31.413  1.00  0.00     0.234 C 
BRANCH  35  36
HETATM   36  N4  UNL     1      44.675 -23.063  32.161  1.00  0.00    -0.079 N 
ATOM     37  H43 UNL     1      44.422 -22.971  33.145  1.00  0.00     0.274 HD
ATOM     38  H42 UNL     1      44.040 -23.823  31.914  1.00  0.00     0.274 HD
ATOM     39  H41 UNL     1      45.652 -23.329  32.041  1.00  0.00     0.274 HD
ENDBRANCH  35  36
ENDBRANCH  32  35
ENDBRANCH  26  29
ENDBRANCH   1  25
TORSDOF 9
ENDMDL
