MODEL 3
REMARK VINA RESULT: -8.676648481      4.158     10.308
REMARK  9 active torsions:
REMARK  status: ('A' for Active; 'I' for Inactive)
REMARK    1  A    between atoms: C1_2  and  C2_4 
REMARK    2  A    between atoms: C5_7  and  C6_8 
REMARK    3  A    between atoms: C8_12  and  C9_13 
REMARK    4  A    between atoms: C9_13  and  C10_14 
REMARK    5  A    between atoms: C9_13  and  N3_21 
REMARK    6  A    between atoms: C10_14  and  C11_15 
REMARK       I    between atoms: N3_21  and  C17_23 
REMARK    7  A    between atoms: C17_23  and  C18_25 
REMARK    8  A    between atoms: C21_28  and  C22_29 
REMARK    9  A    between atoms: C22_29  and  N4_30 
ROOT
HETATM    1  C9  UNL     1      40.357 -21.078  29.116  1.00  0.00     0.156 C 
ENDROOT
BRANCH   1   2
HETATM    2  C8  UNL     1      41.822 -20.942  29.043  1.00  0.00     0.105 A 
HETATM    3  N2  UNL     1      42.497 -20.436  28.017  1.00  0.00    -0.352 N 
HETATM    4  C7  UNL     1      43.798 -20.462  28.310  1.00  0.00     0.119 A 
ATOM      5  H2  UNL     1      42.090 -20.085  27.151  1.00  0.00     0.166 HD
HETATM    6  C6  UNL     1      43.967 -21.002  29.563  1.00  0.00     0.059 A 
HETATM    7  N5  UNL     1      42.738 -21.286  29.987  1.00  0.00    -0.342 N 
ATOM      8  H5  UNL     1      42.514 -21.702  30.891  1.00  0.00     0.167 HD
BRANCH   6   9
HETATM    9  C5  UNL     1      45.242 -21.208  30.258  1.00  0.00    -0.008 A 
HETATM   10  C4  UNL     1      46.443 -20.822  29.701  1.00  0.00     0.015 A 
HETATM   11  C3  UNL     1      47.617 -21.038  30.392  1.00  0.00     0.017 A 
HETATM   12  C2  UNL     1      47.665 -21.631  31.637  1.00  0.00     0.029 A 
HETATM   13  C26 UNL     1      46.448 -22.019  32.191  1.00  0.00     0.017 A 
HETATM   14  C25 UNL     1      45.280 -21.798  31.491  1.00  0.00     0.015 A 
BRANCH  12  15
HETATM   15  C1  UNL     1      48.921 -21.846  32.345  1.00  0.00     0.264 C 
HETATM   16  N1  UNL     1      49.113 -22.850  33.311  1.00  0.00    -0.057 NA
HETATM   17  O1  UNL     1      49.883 -21.089  32.069  1.00  0.00    -0.271 OA
ENDBRANCH  12  15
ENDBRANCH   6   9
ENDBRANCH   1   2
BRANCH   1  18
HETATM   18  C10 UNL     1      39.903 -22.213  28.233  1.00  0.00     0.071 C 
BRANCH  18  19
HETATM   19  C11 UNL     1      40.179 -23.558  28.735  1.00  0.00    -0.056 A 
HETATM   20  C12 UNL     1      40.331 -24.578  27.782  1.00  0.00     0.007 A 
HETATM   21  C13 UNL     1      40.574 -25.889  28.119  1.00  0.00     0.001 A 
HETATM   22  C14 UNL     1      40.680 -26.262  29.441  1.00  0.00     0.000 A 
HETATM   23  C15 UNL     1      40.536 -25.287  30.393  1.00  0.00     0.001 A 
HETATM   24  C16 UNL     1      40.289 -23.958  30.042  1.00  0.00     0.007 A 
ENDBRANCH  18  19
ENDBRANCH   1  18
BRANCH   1  25
HETATM   25  N3  UNL     1      39.760 -19.823  28.656  1.00  0.00    -0.349 N 
HETATM   26  C17 UNL     1      39.537 -18.735  29.509  1.00  0.00     0.222 C 
HETATM   27  O2  UNL     1      39.879 -18.882  30.717  1.00  0.00    -0.273 OA
ATOM     28  H3  UNL     1      39.496 -19.738  27.674  1.00  0.00     0.163 HD
BRANCH  26  29
HETATM   29  C18 UNL     1      38.944 -17.452  29.111  1.00  0.00     0.078 C 
HETATM   30  C19 UNL     1      38.470 -17.515  27.701  1.00  0.00     0.014 C 
HETATM   31  C20 UNL     1      37.241 -16.712  27.427  1.00  0.00     0.007 C 
HETATM   32  C21 UNL     1      37.218 -15.396  28.185  1.00  0.00     0.011 C 
HETATM   33  C23 UNL     1      37.498 -15.570  29.639  1.00  0.00     0.007 C 
HETATM   34  C24 UNL     1      37.792 -17.033  29.991  1.00  0.00     0.014 C 
BRANCH  32  35
HETATM   35  C22 UNL     1      38.146 -14.385  27.530  1.00  0.00     0.234 C 
BRANCH  35  36
HETATM   36  N4  UNL     1      37.504 -13.086  27.466  1.00  0.00    -0.079 N 
ATOM     37  H43 UNL     1      37.011 -12.947  26.584  1.00  0.00     0.274 HD
ATOM     38  H42 UNL     1      36.704 -13.024  28.096  1.00  0.00     0.274 HD
ATOM     39  H41 UNL     1      38.186 -12.348  27.643  1.00  0.00     0.274 HD
ENDBRANCH  35  36
ENDBRANCH  32  35
ENDBRANCH  26  29
ENDBRANCH   1  25
TORSDOF 9
ENDMDL
