MODEL 4
REMARK VINA RESULT: -8.647625095      1.531      2.298
REMARK  9 active torsions:
REMARK  status: ('A' for Active; 'I' for Inactive)
REMARK    1  A    between atoms: C1_2  and  C2_4 
REMARK    2  A    between atoms: C5_7  and  C6_8 
REMARK    3  A    between atoms: C8_12  and  C9_13 
REMARK    4  A    between atoms: C9_13  and  C10_14 
REMARK    5  A    between atoms: C9_13  and  N3_21 
REMARK    6  A    between atoms: C10_14  and  C11_15 
REMARK       I    between atoms: N3_21  and  C17_23 
REMARK    7  A    between atoms: C17_23  and  C18_25 
REMARK    8  A    between atoms: C21_28  and  C22_29 
REMARK    9  A    between atoms: C22_29  and  N4_30 
ROOT
HETATM    1  C9  UNL     1      38.320 -19.427  27.668  1.00  0.00     0.156 C 
ENDROOT
BRANCH   1   2
HETATM    2  C8  UNL     1      37.549 -20.369  26.838  1.00  0.00     0.105 A 
HETATM    3  N2  UNL     1      36.539 -20.042  26.040  1.00  0.00    -0.352 N 
HETATM    4  C7  UNL     1      36.095 -21.148  25.442  1.00  0.00     0.119 A 
ATOM      5  H2  UNL     1      36.165 -19.102  25.906  1.00  0.00     0.166 HD
HETATM    6  C6  UNL     1      36.841 -22.221  25.866  1.00  0.00     0.059 A 
HETATM    7  N5  UNL     1      37.724 -21.712  26.722  1.00  0.00    -0.342 N 
ATOM      8  H5  UNL     1      38.432 -22.252  27.219  1.00  0.00     0.167 HD
BRANCH   6   9
HETATM    9  C5  UNL     1      36.675 -23.617  25.449  1.00  0.00    -0.008 A 
HETATM   10  C4  UNL     1      37.625 -24.576  25.730  1.00  0.00     0.015 A 
HETATM   11  C3  UNL     1      37.426 -25.877  25.316  1.00  0.00     0.017 A 
HETATM   12  C2  UNL     1      36.306 -26.288  24.623  1.00  0.00     0.029 A 
HETATM   13  C26 UNL     1      35.351 -25.313  24.344  1.00  0.00     0.017 A 
HETATM   14  C25 UNL     1      35.562 -24.015  24.762  1.00  0.00     0.015 A 
BRANCH  12  15
HETATM   15  C1  UNL     1      36.121 -27.670  24.199  1.00  0.00     0.264 C 
HETATM   16  N1  UNL     1      36.560 -28.175  22.962  1.00  0.00    -0.057 NA
HETATM   17  O1  UNL     1      35.535 -28.449  24.989  1.00  0.00    -0.271 OA
ENDBRANCH  12  15
ENDBRANCH   6   9
ENDBRANCH   1   2
BRANCH   1  18
HETATM   18  C10 UNL     1      38.547 -18.143  26.911  1.00  0.00     0.071 C 
BRANCH  18  19
HETATM   19  C11 UNL     1      37.814 -16.977  27.403  1.00  0.00    -0.056 A 
HETATM   20  C12 UNL     1      37.049 -17.148  28.569  1.00  0.00     0.007 A 
HETATM   21  C13 UNL     1      36.297 -16.140  29.125  1.00  0.00     0.001 A 
HETATM   22  C14 UNL     1      36.264 -14.891  28.546  1.00  0.00     0.000 A 
HETATM   23  C15 UNL     1      37.002 -14.696  27.407  1.00  0.00     0.001 A 
HETATM   24  C16 UNL     1      37.762 -15.725  26.848  1.00  0.00     0.007 A 
ENDBRANCH  18  19
ENDBRANCH   1  18
BRANCH   1  25
HETATM   25  N3  UNL     1      39.607 -20.049  27.986  1.00  0.00    -0.349 N 
HETATM   26  C17 UNL     1      40.252 -19.866  29.216  1.00  0.00     0.222 C 
HETATM   27  O2  UNL     1      39.667 -19.127  30.058  1.00  0.00    -0.273 OA
ATOM     28  H3  UNL     1      40.051 -20.640  27.283  1.00  0.00     0.163 HD
BRANCH  26  29
HETATM   29  C18 UNL     1      41.539 -20.460  29.595  1.00  0.00     0.078 C 
HETATM   30  C19 UNL     1      41.339 -21.839  30.120  1.00  0.00     0.014 C 
HETATM   31  C20 UNL     1      42.447 -22.788  29.799  1.00  0.00     0.007 C 
HETATM   32  C21 UNL     1      43.817 -22.135  29.862  1.00  0.00     0.011 C 
HETATM   33  C23 UNL     1      43.881 -20.867  29.082  1.00  0.00     0.007 C 
HETATM   34  C24 UNL     1      42.527 -20.514  28.455  1.00  0.00     0.014 C 
BRANCH  32  35
HETATM   35  C22 UNL     1      44.257 -21.953  31.306  1.00  0.00     0.234 C 
BRANCH  35  36
HETATM   36  N4  UNL     1      44.547 -23.242  31.905  1.00  0.00    -0.079 N 
ATOM     37  H43 UNL     1      44.693 -23.966  31.202  1.00  0.00     0.274 HD
ATOM     38  H42 UNL     1      45.472 -23.263  32.336  1.00  0.00     0.274 HD
ATOM     39  H41 UNL     1      43.813 -23.495  32.567  1.00  0.00     0.274 HD
ENDBRANCH  35  36
ENDBRANCH  32  35
ENDBRANCH  26  29
ENDBRANCH   1  25
TORSDOF 9
ENDMDL
