MODEL 1
REMARK VINA RESULT: -8.968656954      0.000      0.000
REMARK  9 active torsions:
REMARK  status: ('A' for Active; 'I' for Inactive)
REMARK    1  A    between atoms: C1_2  and  C2_4 
REMARK    2  A    between atoms: C5_7  and  C6_8 
REMARK    3  A    between atoms: C8_12  and  C9_13 
REMARK    4  A    between atoms: C9_13  and  C10_14 
REMARK    5  A    between atoms: C9_13  and  N3_21 
REMARK    6  A    between atoms: C10_14  and  C11_15 
REMARK       I    between atoms: N3_21  and  C17_23 
REMARK    7  A    between atoms: C17_23  and  C18_25 
REMARK    8  A    between atoms: C21_28  and  C22_29 
REMARK    9  A    between atoms: C22_29  and  N4_30 
ROOT
HETATM    1  C9  UNL     1      38.250 -17.735  27.812  1.00  0.00     0.156 C 
ENDROOT
BRANCH   1   2
HETATM    2  C8  UNL     1      37.689 -18.447  26.651  1.00  0.00     0.105 A 
HETATM    3  N2  UNL     1      37.493 -17.922  25.446  1.00  0.00    -0.352 N 
HETATM    4  C7  UNL     1      36.983 -18.862  24.650  1.00  0.00     0.119 A 
ATOM      5  H2  UNL     1      37.699 -16.960  25.176  1.00  0.00     0.166 HD
HETATM    6  C6  UNL     1      36.846 -20.030  25.362  1.00  0.00     0.059 A 
HETATM    7  N5  UNL     1      37.287 -19.744  26.585  1.00  0.00    -0.342 N 
ATOM      8  H5  UNL     1      37.319 -20.404  27.362  1.00  0.00     0.167 HD
BRANCH   6   9
HETATM    9  C5  UNL     1      36.321 -21.303  24.856  1.00  0.00    -0.008 A 
HETATM   10  C4  UNL     1      35.597 -21.374  23.684  1.00  0.00     0.015 A 
HETATM   11  C3  UNL     1      35.123 -22.595  23.248  1.00  0.00     0.017 A 
HETATM   12  C2  UNL     1      35.335 -23.776  23.928  1.00  0.00     0.029 A 
HETATM   13  C26 UNL     1      36.066 -23.694  25.110  1.00  0.00     0.017 A 
HETATM   14  C25 UNL     1      36.535 -22.469  25.537  1.00  0.00     0.015 A 
BRANCH  12  15
HETATM   15  C1  UNL     1      34.822 -25.052  23.443  1.00  0.00     0.264 C 
HETATM   16  N1  UNL     1      34.847 -25.443  22.093  1.00  0.00    -0.057 NA
HETATM   17  O1  UNL     1      34.332 -25.841  24.287  1.00  0.00    -0.271 OA
ENDBRANCH  12  15
ENDBRANCH   6   9
ENDBRANCH   1   2
BRANCH   1  18
HETATM   18  C10 UNL     1      38.307 -16.255  27.527  1.00  0.00     0.071 C 
BRANCH  18  19
HETATM   19  C11 UNL     1      37.189 -15.465  28.040  1.00  0.00    -0.056 A 
HETATM   20  C12 UNL     1      37.055 -14.155  27.553  1.00  0.00     0.007 A 
HETATM   21  C13 UNL     1      36.061 -13.300  27.968  1.00  0.00     0.001 A 
HETATM   22  C14 UNL     1      35.133 -13.707  28.901  1.00  0.00     0.000 A 
HETATM   23  C15 UNL     1      35.239 -14.982  29.392  1.00  0.00     0.001 A 
HETATM   24  C16 UNL     1      36.253 -15.844  28.967  1.00  0.00     0.007 A 
ENDBRANCH  18  19
ENDBRANCH   1  18
BRANCH   1  25
HETATM   25  N3  UNL     1      39.601 -18.246  28.050  1.00  0.00    -0.349 N 
HETATM   26  C17 UNL     1      39.844 -19.469  28.688  1.00  0.00     0.222 C 
HETATM   27  O2  UNL     1      38.831 -20.127  29.059  1.00  0.00    -0.273 OA
ATOM     28  H3  UNL     1      40.397 -17.690  27.738  1.00  0.00     0.163 HD
BRANCH  26  29
HETATM   29  C18 UNL     1      41.171 -20.037  28.957  1.00  0.00     0.078 C 
HETATM   30  C19 UNL     1      41.049 -21.284  29.761  1.00  0.00     0.014 C 
HETATM   31  C20 UNL     1      42.075 -22.323  29.449  1.00  0.00     0.007 C 
HETATM   32  C21 UNL     1      43.443 -21.729  29.159  1.00  0.00     0.011 C 
HETATM   33  C23 UNL     1      43.387 -20.633  28.150  1.00  0.00     0.007 C 
HETATM   34  C24 UNL     1      41.949 -20.345  27.701  1.00  0.00     0.014 C 
BRANCH  32  35
HETATM   35  C22 UNL     1      44.124 -21.301  30.448  1.00  0.00     0.234 C 
BRANCH  35  36
HETATM   36  N4  UNL     1      43.977 -22.332  31.457  1.00  0.00    -0.079 N 
ATOM     37  H43 UNL     1      43.483 -21.991  32.283  1.00  0.00     0.274 HD
ATOM     38  H42 UNL     1      43.312 -23.052  31.173  1.00  0.00     0.274 HD
ATOM     39  H41 UNL     1      44.888 -22.726  31.693  1.00  0.00     0.274 HD
ENDBRANCH  35  36
ENDBRANCH  32  35
ENDBRANCH  26  29
ENDBRANCH   1  25
TORSDOF 9
ENDMDL
