MODEL 3
REMARK VINA RESULT: -9.748733058      4.032      8.698
REMARK  8 active torsions:
REMARK  status: ('A' for Active; 'I' for Inactive)
REMARK    1  A    between atoms: C4_9  and  C5_10 
REMARK    2  A    between atoms: C6_13  and  C7_14 
REMARK    3  A    between atoms: C7_14  and  C8_15 
REMARK    4  A    between atoms: C7_14  and  N5_22 
REMARK    5  A    between atoms: C8_15  and  C9_16 
REMARK       I    between atoms: N5_22  and  C15_24 
REMARK    6  A    between atoms: C15_24  and  C16_26 
REMARK    7  A    between atoms: C19_29  and  C20_30 
REMARK    8  A    between atoms: C20_30  and  N6_31 
ROOT
HETATM    1  C7  UNL     1      38.178 -19.270  27.930  1.00  0.00     0.156 C 
ENDROOT
BRANCH   1   2
HETATM    2  C6  UNL     1      39.312 -20.061  28.405  1.00  0.00     0.106 A 
HETATM    3  N4  UNL     1      40.534 -19.786  28.813  1.00  0.00    -0.341 N 
HETATM    4  C5  UNL     1      41.234 -20.875  29.161  1.00  0.00     0.083 A 
ATOM      5  H4  UNL     1      40.910 -18.839  28.860  1.00  0.00     0.167 HD
HETATM    6  C23 UNL     1      40.373 -21.931  28.953  1.00  0.00     0.132 A 
HETATM    7  N7  UNL     1      39.216 -21.426  28.496  1.00  0.00    -0.333 N 
HETATM    8 CL1  UNL     1      40.730 -23.620  29.235  1.00  0.00    -0.062 Cl
ATOM      9  H7  UNL     1      38.391 -21.974  28.252  1.00  0.00     0.168 HD
BRANCH   4  10
HETATM   10  C4  UNL     1      42.606 -20.942  29.655  1.00  0.00    -0.004 A 
HETATM   11  C3  UNL     1      42.930 -21.607  30.819  1.00  0.00     0.045 A 
HETATM   12  C2  UNL     1      44.236 -21.671  31.287  1.00  0.00     0.062 A 
HETATM   13  N3  UNL     1      44.817 -22.235  32.360  1.00  0.00    -0.299 N 
HETATM   14  C26 UNL     1      45.251 -21.059  30.584  1.00  0.00     0.035 A 
HETATM   15  N2  UNL     1      46.117 -22.022  32.381  1.00  0.00    -0.287 N 
ATOM     16  H3  UNL     1      44.312 -22.763  33.071  1.00  0.00     0.187 HD
HETATM   17  C1  UNL     1      46.416 -21.292  31.286  1.00  0.00     0.143 A 
ATOM     18  H2  UNL     1      46.774 -22.347  33.090  1.00  0.00     0.188 HD
HETATM   19  N1  UNL     1      47.711 -20.827  30.900  1.00  0.00    -0.080 NA
HETATM   20  C25 UNL     1      44.943 -20.392  29.421  1.00  0.00     0.018 A 
HETATM   21  C24 UNL     1      43.637 -20.335  28.964  1.00  0.00     0.015 A 
ENDBRANCH   4  10
ENDBRANCH   1   2
BRANCH   1  22
HETATM   22  C8  UNL     1      37.606 -18.341  28.918  1.00  0.00     0.071 C 
BRANCH  22  23
HETATM   23  C9  UNL     1      37.335 -17.021  28.319  1.00  0.00    -0.056 A 
HETATM   24  C10 UNL     1      36.531 -16.100  28.929  1.00  0.00     0.007 A 
HETATM   25  C11 UNL     1      36.295 -14.837  28.377  1.00  0.00     0.001 A 
HETATM   26  C12 UNL     1      36.877 -14.480  27.180  1.00  0.00     0.000 A 
HETATM   27  C13 UNL     1      37.685 -15.398  26.559  1.00  0.00     0.001 A 
HETATM   28  C14 UNL     1      37.912 -16.632  27.106  1.00  0.00     0.007 A 
ENDBRANCH  22  23
ENDBRANCH   1  22
BRANCH   1  29
HETATM   29  N5  UNL     1      37.209 -20.200  27.369  1.00  0.00    -0.349 N 
HETATM   30  C15 UNL     1      36.955 -20.336  25.979  1.00  0.00     0.222 C 
HETATM   31  O1  UNL     1      37.630 -19.587  25.229  1.00  0.00    -0.273 OA
ATOM     32  H5  UNL     1      36.680 -20.789  28.013  1.00  0.00     0.163 HD
BRANCH  30  33
HETATM   33  C16 UNL     1      35.985 -21.264  25.397  1.00  0.00     0.078 C 
HETATM   34  C17 UNL     1      35.776 -20.926  23.939  1.00  0.00     0.014 C 
HETATM   35  C18 UNL     1      36.238 -22.046  23.049  1.00  0.00     0.007 C 
HETATM   36  C19 UNL     1      35.562 -23.349  23.323  1.00  0.00     0.011 C 
HETATM   37  C21 UNL     1      35.516 -23.606  24.793  1.00  0.00     0.007 C 
HETATM   38  C22 UNL     1      36.410 -22.705  25.580  1.00  0.00     0.014 C 
BRANCH  36  39
HETATM   39  C20 UNL     1      34.171 -23.417  22.724  1.00  0.00     0.234 C 
BRANCH  39  40
HETATM   40  N6  UNL     1      34.218 -23.915  21.368  1.00  0.00    -0.079 N 
ATOM     41  H63 UNL     1      34.575 -23.213  20.721  1.00  0.00     0.274 HD
ATOM     42  H62 UNL     1      34.947 -24.619  21.250  1.00  0.00     0.274 HD
ATOM     43  H61 UNL     1      33.305 -24.266  21.078  1.00  0.00     0.274 HD
ENDBRANCH  39  40
ENDBRANCH  36  39
ENDBRANCH  30  33
ENDBRANCH   1  29
TORSDOF 8
ENDMDL
