MODEL 1
REMARK VINA RESULT: -9.856934231      0.000      0.000
REMARK  8 active torsions:
REMARK  status: ('A' for Active; 'I' for Inactive)
REMARK    1  A    between atoms: C4_9  and  C5_10 
REMARK    2  A    between atoms: C6_13  and  C7_14 
REMARK    3  A    between atoms: C7_14  and  C8_15 
REMARK    4  A    between atoms: C7_14  and  N5_22 
REMARK    5  A    between atoms: C8_15  and  C9_16 
REMARK       I    between atoms: N5_22  and  C15_24 
REMARK    6  A    between atoms: C15_24  and  C16_26 
REMARK    7  A    between atoms: C19_29  and  C20_30 
REMARK    8  A    between atoms: C20_30  and  N6_31 
ROOT
HETATM    1  C7  UNL     1      41.965 -20.648  28.955  1.00  0.00     0.156 C 
ENDROOT
BRANCH   1   2
HETATM    2  C6  UNL     1      40.906 -19.794  28.417  1.00  0.00     0.106 A 
HETATM    3  N4  UNL     1      40.237 -18.751  28.860  1.00  0.00    -0.341 N 
HETATM    4  C5  UNL     1      39.332 -18.291  27.983  1.00  0.00     0.083 A 
ATOM      5  H4  UNL     1      40.391 -18.333  29.777  1.00  0.00     0.167 HD
HETATM    6  C23 UNL     1      39.445 -19.123  26.890  1.00  0.00     0.132 A 
HETATM    7  N7  UNL     1      40.398 -20.026  27.164  1.00  0.00    -0.333 N 
HETATM    8 CL1  UNL     1      38.511 -19.014  25.415  1.00  0.00    -0.062 Cl
ATOM      9  H7  UNL     1      40.699 -20.773  26.537  1.00  0.00     0.168 HD
BRANCH   4  10
HETATM   10  C4  UNL     1      38.424 -17.159  28.138  1.00  0.00    -0.004 A 
HETATM   11  C3  UNL     1      38.731 -15.906  27.652  1.00  0.00     0.045 A 
HETATM   12  C2  UNL     1      37.864 -14.830  27.800  1.00  0.00     0.062 A 
HETATM   13  N3  UNL     1      37.910 -13.537  27.434  1.00  0.00    -0.299 N 
HETATM   14  C26 UNL     1      36.660 -14.999  28.448  1.00  0.00     0.035 A 
HETATM   15  N2  UNL     1      36.826 -12.886  27.805  1.00  0.00    -0.287 N 
ATOM     16  H3  UNL     1      38.689 -13.113  26.931  1.00  0.00     0.187 HD
HETATM   17  C1  UNL     1      36.029 -13.772  28.438  1.00  0.00     0.143 A 
ATOM     18  H2  UNL     1      36.626 -11.899  27.643  1.00  0.00     0.188 HD
HETATM   19  N1  UNL     1      34.747 -13.506  29.011  1.00  0.00    -0.080 NA
HETATM   20  C25 UNL     1      36.341 -16.244  28.939  1.00  0.00     0.018 A 
HETATM   21  C24 UNL     1      37.212 -17.309  28.785  1.00  0.00     0.015 A 
ENDBRANCH   4  10
ENDBRANCH   1   2
BRANCH   1  22
HETATM   22  C8  UNL     1      43.338 -20.188  28.684  1.00  0.00     0.071 C 
BRANCH  22  23
HETATM   23  C9  UNL     1      44.264 -20.607  29.751  1.00  0.00    -0.056 A 
HETATM   24  C10 UNL     1      43.882 -21.458  30.749  1.00  0.00     0.007 A 
HETATM   25  C11 UNL     1      44.767 -21.879  31.747  1.00  0.00     0.001 A 
HETATM   26  C12 UNL     1      46.072 -21.438  31.753  1.00  0.00     0.000 A 
HETATM   27  C13 UNL     1      46.465 -20.582  30.756  1.00  0.00     0.001 A 
HETATM   28  C14 UNL     1      45.594 -20.175  29.782  1.00  0.00     0.007 A 
ENDBRANCH  22  23
ENDBRANCH   1  22
BRANCH   1  29
HETATM   29  N5  UNL     1      41.700 -22.004  28.497  1.00  0.00    -0.349 N 
HETATM   30  C15 UNL     1      40.986 -22.969  29.255  1.00  0.00     0.222 C 
HETATM   31  O1  UNL     1      40.580 -22.583  30.380  1.00  0.00    -0.273 OA
ATOM     32  H5  UNL     1      42.047 -22.277  27.578  1.00  0.00     0.163 HD
BRANCH  30  33
HETATM   33  C16 UNL     1      40.709 -24.336  28.813  1.00  0.00     0.078 C 
HETATM   34  C17 UNL     1      41.749 -24.757  27.799  1.00  0.00     0.014 C 
HETATM   35  C18 UNL     1      42.577 -25.903  28.313  1.00  0.00     0.007 C 
HETATM   36  C19 UNL     1      41.774 -27.107  28.680  1.00  0.00     0.011 C 
HETATM   37  C21 UNL     1      40.577 -26.704  29.477  1.00  0.00     0.007 C 
HETATM   38  C22 UNL     1      40.645 -25.299  29.979  1.00  0.00     0.014 C 
BRANCH  36  39
HETATM   39  C20 UNL     1      41.362 -27.920  27.469  1.00  0.00     0.234 C 
BRANCH  39  40
HETATM   40  N6  UNL     1      42.079 -29.173  27.422  1.00  0.00    -0.079 N 
ATOM     41  H63 UNL     1      41.976 -29.699  28.290  1.00  0.00     0.274 HD
ATOM     42  H62 UNL     1      41.637 -29.837  26.786  1.00  0.00     0.274 HD
ATOM     43  H61 UNL     1      43.060 -29.022  27.187  1.00  0.00     0.274 HD
ENDBRANCH  39  40
ENDBRANCH  36  39
ENDBRANCH  30  33
ENDBRANCH   1  29
TORSDOF 8
ENDMDL
