MODEL 20
REMARK VINA RESULT: -8.872244037      2.954      9.568
REMARK  8 active torsions:
REMARK  status: ('A' for Active; 'I' for Inactive)
REMARK    1  A    between atoms: C4_9  and  C5_10 
REMARK    2  A    between atoms: C6_13  and  C7_14 
REMARK    3  A    between atoms: C7_14  and  C8_15 
REMARK    4  A    between atoms: C7_14  and  N5_22 
REMARK    5  A    between atoms: C8_15  and  C9_16 
REMARK       I    between atoms: N5_22  and  C15_24 
REMARK    6  A    between atoms: C15_24  and  C16_26 
REMARK    7  A    between atoms: C19_29  and  C20_30 
REMARK    8  A    between atoms: C20_30  and  N6_31 
ROOT
HETATM    1  C7  UNL     1      40.330 -20.857  28.739  1.00  0.00     0.156 C 
ENDROOT
BRANCH   1   2
HETATM    2  C6  UNL     1      41.786 -20.820  28.603  1.00  0.00     0.106 A 
HETATM    3  N4  UNL     1      42.802 -21.112  29.388  1.00  0.00    -0.341 N 
HETATM    4  C5  UNL     1      43.994 -20.912  28.808  1.00  0.00     0.083 A 
ATOM      5  H4  UNL     1      42.693 -21.456  30.343  1.00  0.00     0.167 HD
HETATM    6  C23 UNL     1      43.699 -20.452  27.542  1.00  0.00     0.132 A 
HETATM    7  N7  UNL     1      42.362 -20.401  27.432  1.00  0.00    -0.333 N 
HETATM    8 CL1  UNL     1      44.861 -20.017  26.309  1.00  0.00    -0.062 Cl
ATOM      9  H7  UNL     1      41.853 -20.097  26.602  1.00  0.00     0.168 HD
BRANCH   4  10
HETATM   10  C4  UNL     1      45.320 -21.129  29.378  1.00  0.00    -0.004 A 
HETATM   11  C3  UNL     1      46.170 -22.102  28.896  1.00  0.00     0.045 A 
HETATM   12  C2  UNL     1      47.432 -22.307  29.439  1.00  0.00     0.062 A 
HETATM   13  N3  UNL     1      48.437 -23.159  29.171  1.00  0.00    -0.299 N 
HETATM   14  C26 UNL     1      47.865 -21.529  30.491  1.00  0.00     0.035 A 
HETATM   15  N2  UNL     1      49.464 -22.972  29.975  1.00  0.00    -0.287 N 
ATOM     16  H3  UNL     1      48.407 -23.864  28.435  1.00  0.00     0.187 HD
HETATM   17  C1  UNL     1      49.136 -21.962  30.808  1.00  0.00     0.143 A 
ATOM     18  H2  UNL     1      50.342 -23.492  29.970  1.00  0.00     0.188 HD
HETATM   19  N1  UNL     1      49.950 -21.418  31.849  1.00  0.00    -0.080 NA
HETATM   20  C25 UNL     1      47.027 -20.554  30.982  1.00  0.00     0.018 A 
HETATM   21  C24 UNL     1      45.771 -20.359  30.433  1.00  0.00     0.015 A 
ENDBRANCH   4  10
ENDBRANCH   1   2
BRANCH   1  22
HETATM   22  C8  UNL     1      39.666 -21.979  28.055  1.00  0.00     0.071 C 
BRANCH  22  23
HETATM   23  C9  UNL     1      40.209 -23.275  28.501  1.00  0.00    -0.056 A 
HETATM   24  C10 UNL     1      40.821 -24.140  27.639  1.00  0.00     0.007 A 
HETATM   25  C11 UNL     1      41.362 -25.357  28.065  1.00  0.00     0.001 A 
HETATM   26  C12 UNL     1      41.288 -25.727  29.391  1.00  0.00     0.000 A 
HETATM   27  C13 UNL     1      40.674 -24.867  30.265  1.00  0.00     0.001 A 
HETATM   28  C14 UNL     1      40.148 -23.676  29.840  1.00  0.00     0.007 A 
ENDBRANCH  22  23
ENDBRANCH   1  22
BRANCH   1  29
HETATM   29  N5  UNL     1      39.827 -19.549  28.345  1.00  0.00    -0.349 N 
HETATM   30  C15 UNL     1      39.546 -18.501  29.260  1.00  0.00     0.222 C 
HETATM   31  O1  UNL     1      39.759 -18.765  30.470  1.00  0.00    -0.273 OA
ATOM     32  H5  UNL     1      39.667 -19.376  27.352  1.00  0.00     0.163 HD
BRANCH  30  33
HETATM   33  C16 UNL     1      39.040 -17.181  28.882  1.00  0.00     0.078 C 
HETATM   34  C17 UNL     1      38.607 -17.203  27.435  1.00  0.00     0.014 C 
HETATM   35  C18 UNL     1      37.127 -16.966  27.306  1.00  0.00     0.007 C 
HETATM   36  C19 UNL     1      36.670 -15.678  27.906  1.00  0.00     0.011 C 
HETATM   37  C21 UNL     1      37.288 -15.490  29.252  1.00  0.00     0.007 C 
HETATM   38  C22 UNL     1      37.918 -16.731  29.793  1.00  0.00     0.014 C 
BRANCH  36  39
HETATM   39  C20 UNL     1      36.960 -14.487  27.013  1.00  0.00     0.234 C 
BRANCH  39  40
HETATM   40  N6  UNL     1      37.611 -13.433  27.757  1.00  0.00    -0.079 N 
ATOM     41  H63 UNL     1      37.773 -13.701  28.728  1.00  0.00     0.274 HD
ATOM     42  H62 UNL     1      38.581 -13.310  27.467  1.00  0.00     0.274 HD
ATOM     43  H61 UNL     1      37.083 -12.562  27.690  1.00  0.00     0.274 HD
ENDBRANCH  39  40
ENDBRANCH  36  39
ENDBRANCH  30  33
ENDBRANCH   1  29
TORSDOF 8
ENDMDL
