MODEL 2
REMARK VINA RESULT: -9.792680790      1.728      1.872
REMARK  8 active torsions:
REMARK  status: ('A' for Active; 'I' for Inactive)
REMARK    1  A    between atoms: C4_9  and  C5_10 
REMARK    2  A    between atoms: C6_13  and  C7_14 
REMARK    3  A    between atoms: C7_14  and  C8_15 
REMARK    4  A    between atoms: C7_14  and  N5_22 
REMARK    5  A    between atoms: C8_15  and  C9_16 
REMARK       I    between atoms: N5_22  and  C15_24 
REMARK    6  A    between atoms: C15_24  and  C16_26 
REMARK    7  A    between atoms: C19_29  and  C20_30 
REMARK    8  A    between atoms: C20_30  and  N6_31 
ROOT
HETATM    1  C7  UNL     1      41.682 -20.656  28.261  1.00  0.00     0.156 C 
ENDROOT
BRANCH   1   2
HETATM    2  C6  UNL     1      40.815 -19.558  27.833  1.00  0.00     0.106 A 
HETATM    3  N4  UNL     1      39.941 -18.775  28.430  1.00  0.00    -0.341 N 
HETATM    4  C5  UNL     1      39.375 -17.885  27.602  1.00  0.00     0.083 A 
ATOM      5  H4  UNL     1      39.717 -18.838  29.423  1.00  0.00     0.167 HD
HETATM    6  C23 UNL     1      39.947 -18.133  26.372  1.00  0.00     0.132 A 
HETATM    7  N7  UNL     1      40.814 -19.145  26.525  1.00  0.00    -0.333 N 
HETATM    8 CL1  UNL     1      39.599 -17.277  24.886  1.00  0.00    -0.062 Cl
ATOM      9  H7  UNL     1      41.385 -19.547  25.782  1.00  0.00     0.168 HD
BRANCH   4  10
HETATM   10  C4  UNL     1      38.374 -16.871  27.919  1.00  0.00    -0.004 A 
HETATM   11  C3  UNL     1      38.534 -15.550  27.556  1.00  0.00     0.045 A 
HETATM   12  C2  UNL     1      37.579 -14.587  27.858  1.00  0.00     0.062 A 
HETATM   13  N3  UNL     1      37.483 -13.266  27.632  1.00  0.00    -0.299 N 
HETATM   14  C26 UNL     1      36.435 -14.940  28.539  1.00  0.00     0.035 A 
HETATM   15  N2  UNL     1      36.364 -12.767  28.119  1.00  0.00    -0.287 N 
ATOM     16  H3  UNL     1      38.189 -12.716  27.142  1.00  0.00     0.187 HD
HETATM   17  C1  UNL     1      35.692 -13.788  28.690  1.00  0.00     0.143 A 
ATOM     18  H2  UNL     1      36.064 -11.793  28.074  1.00  0.00     0.188 HD
HETATM   19  N1  UNL     1      34.424 -13.711  29.345  1.00  0.00    -0.080 NA
HETATM   20  C25 UNL     1      36.262 -16.255  28.907  1.00  0.00     0.018 A 
HETATM   21  C24 UNL     1      37.220 -17.206  28.600  1.00  0.00     0.015 A 
ENDBRANCH   4  10
ENDBRANCH   1   2
BRANCH   1  22
HETATM   22  C8  UNL     1      43.118 -20.455  28.007  1.00  0.00     0.071 C 
BRANCH  22  23
HETATM   23  C9  UNL     1      43.914 -20.673  29.228  1.00  0.00    -0.056 A 
HETATM   24  C10 UNL     1      43.508 -21.528  30.214  1.00  0.00     0.007 A 
HETATM   25  C11 UNL     1      44.276 -21.758  31.360  1.00  0.00     0.001 A 
HETATM   26  C12 UNL     1      45.483 -21.117  31.531  1.00  0.00     0.000 A 
HETATM   27  C13 UNL     1      45.899 -20.257  30.548  1.00  0.00     0.001 A 
HETATM   28  C14 UNL     1      45.143 -20.036  29.428  1.00  0.00     0.007 A 
ENDBRANCH  22  23
ENDBRANCH   1  22
BRANCH   1  29
HETATM   29  N5  UNL     1      41.148 -21.878  27.678  1.00  0.00    -0.349 N 
HETATM   30  C15 UNL     1      40.000 -22.553  28.169  1.00  0.00     0.222 C 
HETATM   31  O1  UNL     1      39.447 -22.027  29.167  1.00  0.00    -0.273 OA
ATOM     32  H5  UNL     1      41.628 -22.273  26.869  1.00  0.00     0.163 HD
BRANCH  30  33
HETATM   33  C16 UNL     1      39.450 -23.782  27.597  1.00  0.00     0.078 C 
HETATM   34  C17 UNL     1      39.187 -23.578  26.123  1.00  0.00     0.014 C 
HETATM   35  C18 UNL     1      40.052 -24.479  25.286  1.00  0.00     0.007 C 
HETATM   36  C19 UNL     1      39.879 -25.931  25.589  1.00  0.00     0.011 C 
HETATM   37  C21 UNL     1      39.874 -26.150  27.067  1.00  0.00     0.007 C 
HETATM   38  C22 UNL     1      40.357 -24.969  27.842  1.00  0.00     0.014 C 
BRANCH  36  39
HETATM   39  C20 UNL     1      38.628 -26.510  24.959  1.00  0.00     0.234 C 
BRANCH  39  40
HETATM   40  N6  UNL     1      37.558 -26.600  25.926  1.00  0.00    -0.079 N 
ATOM     41  H63 UNL     1      37.811 -26.156  26.809  1.00  0.00     0.274 HD
ATOM     42  H62 UNL     1      36.770 -26.005  25.673  1.00  0.00     0.274 HD
ATOM     43  H61 UNL     1      37.271 -27.570  26.061  1.00  0.00     0.274 HD
ENDBRANCH  39  40
ENDBRANCH  36  39
ENDBRANCH  30  33
ENDBRANCH   1  29
TORSDOF 8
ENDMDL
