MODEL 1
REMARK VINA RESULT: -7.829960180      0.000      0.000
REMARK  2 active torsions:
REMARK  status: ('A' for Active; 'I' for Inactive)
REMARK    1  A    between atoms: C5_6  and  C6_7 
REMARK    2  A    between atoms: C7_10  and  C8_11 
ROOT
HETATM    1  C6  UNL     1      26.137 -46.123  10.553  1.00  0.00     0.132 A 
HETATM    2  N2  UNL     1      24.813 -46.127  10.317  1.00  0.00    -0.325 N 
ATOM      3  H2  UNL     1      24.221 -46.957  10.277  1.00  0.00     0.169 HD
HETATM    4  C7  UNL     1      24.403 -44.881  10.147  1.00  0.00     0.132 A 
HETATM    5  N3  UNL     1      25.492 -44.104  10.279  1.00  0.00    -0.283 N 
ATOM      6  H3  UNL     1      25.494 -43.087  10.199  1.00  0.00     0.188 HD
HETATM    7  N4  UNL     1      26.570 -44.850  10.530  1.00  0.00    -0.283 N 
ATOM      8  H4  UNL     1      27.525 -44.522  10.675  1.00  0.00     0.188 HD
ENDROOT
BRANCH   1   9
HETATM    9  C5  UNL     1      27.017 -47.256  10.797  1.00  0.00     0.011 A 
HETATM   10  C4  UNL     1      28.250 -47.118  11.388  1.00  0.00     0.015 A 
HETATM   11  C3  UNL     1      29.080 -48.195  11.617  1.00  0.00     0.003 A 
HETATM   12  C2  UNL     1      28.616 -49.433  11.225  1.00  0.00     0.026 A 
HETATM   13  C1  UNL     1      27.371 -49.588  10.628  1.00  0.00     0.047 A 
HETATM   14  N1  UNL     1      26.947 -50.892  10.244  1.00  0.00    -0.102 NA
HETATM   15  C14 UNL     1      26.558 -48.514  10.406  1.00  0.00     0.041 A 
ENDBRANCH   1   9
BRANCH   4  16
HETATM   16  C8  UNL     1      23.049 -44.392   9.868  1.00  0.00     0.009 A 
HETATM   17  C9  UNL     1      22.203 -45.082   9.032  1.00  0.00     0.015 A 
HETATM   18  C10 UNL     1      20.928 -44.649   8.750  1.00  0.00     0.001 A 
HETATM   19  C11 UNL     1      20.484 -43.462   9.343  1.00  0.00     0.000 A 
HETATM   20  C12 UNL     1      21.304 -42.748  10.185  1.00  0.00     0.001 A 
HETATM   21  C13 UNL     1      22.571 -43.233  10.427  1.00  0.00     0.015 A 
ENDBRANCH   4  16
TORSDOF 2
ENDMDL
