MODEL 4
REMARK VINA RESULT: -7.562906019      2.327      3.154
REMARK  2 active torsions:
REMARK  status: ('A' for Active; 'I' for Inactive)
REMARK    1  A    between atoms: C5_6  and  C6_7 
REMARK    2  A    between atoms: C7_10  and  C8_11 
ROOT
HETATM    1  C6  UNL     1      24.623 -47.791   8.421  1.00  0.00     0.132 A 
HETATM    2  N2  UNL     1      24.415 -46.623   9.052  1.00  0.00    -0.325 N 
ATOM      3  H2  UNL     1      25.107 -46.117   9.606  1.00  0.00     0.169 HD
HETATM    4  C7  UNL     1      23.168 -46.236   8.840  1.00  0.00     0.132 A 
HETATM    5  N3  UNL     1      22.605 -47.182   8.068  1.00  0.00    -0.283 N 
ATOM      6  H3  UNL     1      21.641 -47.163   7.736  1.00  0.00     0.188 HD
HETATM    7  N4  UNL     1      23.486 -48.148   7.798  1.00  0.00    -0.283 N 
ATOM      8  H4  UNL     1      23.328 -48.985   7.236  1.00  0.00     0.188 HD
ENDROOT
BRANCH   1   9
HETATM    9  C5  UNL     1      25.838 -48.591   8.372  1.00  0.00     0.011 A 
HETATM   10  C4  UNL     1      26.281 -49.326   9.445  1.00  0.00     0.015 A 
HETATM   11  C3  UNL     1      27.433 -50.082   9.394  1.00  0.00     0.003 A 
HETATM   12  C2  UNL     1      28.131 -50.072   8.205  1.00  0.00     0.026 A 
HETATM   13  C1  UNL     1      27.696 -49.334   7.112  1.00  0.00     0.047 A 
HETATM   14  N1  UNL     1      28.461 -49.363   5.910  1.00  0.00    -0.102 NA
HETATM   15  C14 UNL     1      26.554 -48.589   7.175  1.00  0.00     0.041 A 
ENDBRANCH   1   9
BRANCH   4  16
HETATM   16  C8  UNL     1      22.488 -45.031   9.325  1.00  0.00     0.009 A 
HETATM   17  C9  UNL     1      23.131 -44.134  10.146  1.00  0.00     0.015 A 
HETATM   18  C10 UNL     1      22.520 -42.996  10.618  1.00  0.00     0.001 A 
HETATM   19  C11 UNL     1      21.195 -42.748  10.241  1.00  0.00     0.000 A 
HETATM   20  C12 UNL     1      20.523 -43.624   9.421  1.00  0.00     0.001 A 
HETATM   21  C13 UNL     1      21.189 -44.748   8.982  1.00  0.00     0.015 A 
ENDBRANCH   4  16
TORSDOF 2
ENDMDL
