MODEL 2
REMARK VINA RESULT: -7.829338810      0.013      1.121
REMARK  2 active torsions:
REMARK  status: ('A' for Active; 'I' for Inactive)
REMARK    1  A    between atoms: C5_6  and  C6_7 
REMARK    2  A    between atoms: C7_10  and  C8_11 
ROOT
HETATM    1  C6  UNL     1      26.140 -46.123  10.563  1.00  0.00     0.132 A 
HETATM    2  N2  UNL     1      24.818 -46.128  10.317  1.00  0.00    -0.325 N 
ATOM      3  H2  UNL     1      24.228 -46.959  10.264  1.00  0.00     0.169 HD
HETATM    4  C7  UNL     1      24.405 -44.881  10.156  1.00  0.00     0.132 A 
HETATM    5  N3  UNL     1      25.491 -44.102  10.304  1.00  0.00    -0.283 N 
ATOM      6  H3  UNL     1      25.491 -43.085  10.234  1.00  0.00     0.188 HD
HETATM    7  N4  UNL     1      26.570 -44.848  10.556  1.00  0.00    -0.283 N 
ATOM      8  H4  UNL     1      27.523 -44.519  10.711  1.00  0.00     0.188 HD
ENDROOT
BRANCH   1   9
HETATM    9  C5  UNL     1      27.021 -47.255  10.803  1.00  0.00     0.011 A 
HETATM   10  C4  UNL     1      28.258 -47.117  11.386  1.00  0.00     0.015 A 
HETATM   11  C3  UNL     1      29.089 -48.194  11.611  1.00  0.00     0.003 A 
HETATM   12  C2  UNL     1      28.622 -49.432  11.223  1.00  0.00     0.026 A 
HETATM   13  C1  UNL     1      27.375 -49.587  10.633  1.00  0.00     0.047 A 
HETATM   14  N1  UNL     1      26.948 -50.892  10.253  1.00  0.00    -0.102 NA
HETATM   15  C14 UNL     1      26.560 -48.513  10.415  1.00  0.00     0.041 A 
ENDBRANCH   1   9
BRANCH   4  16
HETATM   16  C8  UNL     1      23.052 -44.394   9.872  1.00  0.00     0.009 A 
HETATM   17  C9  UNL     1      22.583 -43.230  10.436  1.00  0.00     0.015 A 
HETATM   18  C10 UNL     1      21.319 -42.747  10.190  1.00  0.00     0.001 A 
HETATM   19  C11 UNL     1      20.487 -43.474   9.331  1.00  0.00     0.000 A 
HETATM   20  C12 UNL     1      20.924 -44.641   8.750  1.00  0.00     0.001 A 
HETATM   21  C13 UNL     1      22.201 -45.073   9.036  1.00  0.00     0.015 A 
ENDBRANCH   4  16
TORSDOF 2
ENDMDL
