MODEL 10
REMARK VINA RESULT: -6.731215658      9.194     10.384
REMARK  3 active torsions:
REMARK  status: ('A' for Active; 'I' for Inactive)
REMARK    1  A    between atoms: C2_5  and  C3_6 
REMARK    2  A    between atoms: C6_9  and  O2_10 
REMARK    3  A    between atoms: C11_20  and  C12_21 
ROOT
HETATM    1  O1  UNL     1      -8.928  74.256  -3.793  1.00  0.00    -0.266 OA
HETATM    2  C1  UNL     1      -9.930  74.734  -3.171  1.00  0.00     0.271 C 
HETATM    3  N1  UNL     1     -10.041  76.012  -2.609  1.00  0.00    -0.343 N 
ATOM      4  H1  UNL     1      -9.288  76.696  -2.531  1.00  0.00     0.163 HD
HETATM    5  C2  UNL     1     -11.384  76.198  -2.164  1.00  0.00     0.156 C 
HETATM    6  C9  UNL     1     -12.014  74.872  -2.233  1.00  0.00     0.032 A 
HETATM    7  C10 UNL     1     -11.176  74.039  -2.916  1.00  0.00     0.127 A 
HETATM    8  N2  UNL     1     -11.831  72.845  -3.031  1.00  0.00    -0.295 N 
ATOM      9  H2  UNL     1     -11.468  72.014  -3.497  1.00  0.00     0.187 HD
HETATM   10  N3  UNL     1     -13.003  72.939  -2.446  1.00  0.00    -0.299 N 
ATOM     11  H3  UNL     1     -13.684  72.181  -2.394  1.00  0.00     0.187 HD
HETATM   12  C11 UNL     1     -13.190  74.178  -1.920  1.00  0.00     0.069 A 
ENDROOT
BRANCH   5  13
HETATM   13  C3  UNL     1     -12.090  77.203  -2.997  1.00  0.00    -0.031 A 
HETATM   14  C4  UNL     1     -13.283  77.712  -2.593  1.00  0.00     0.012 A 
HETATM   15  C5  UNL     1     -13.988  78.655  -3.343  1.00  0.00     0.037 A 
HETATM   16  C6  UNL     1     -13.468  79.094  -4.536  1.00  0.00     0.065 A 
HETATM   17  C7  UNL     1     -12.255  78.584  -4.957  1.00  0.00     0.037 A 
HETATM   18  C8  UNL     1     -11.568  77.638  -4.187  1.00  0.00     0.012 A 
BRANCH  16  19
HETATM   19  O2  UNL     1     -14.155  80.046  -5.321  1.00  0.00    -0.361 OA
ATOM     20  H2  UNL     1     -14.125  80.970  -5.104  1.00  0.00     0.217 HD
ENDBRANCH  16  19
ENDBRANCH   5  13
BRANCH  12  21
HETATM   21  C12 UNL     1     -14.374  74.631  -1.205  1.00  0.00    -0.007 A 
HETATM   22  C13 UNL     1     -14.384  75.553  -0.194  1.00  0.00     0.014 A 
HETATM   23  C14 UNL     1     -15.529  75.980   0.446  1.00  0.00     0.001 A 
HETATM   24  C15 UNL     1     -16.745  75.471   0.074  1.00  0.00     0.000 A 
HETATM   25  C16 UNL     1     -16.780  74.541  -0.937  1.00  0.00     0.001 A 
HETATM   26  C17 UNL     1     -15.615  74.131  -1.562  1.00  0.00     0.014 A 
ENDBRANCH  12  21
TORSDOF 3
ENDMDL
