MODEL 9
REMARK VINA RESULT: -6.736279658      3.118      4.829
REMARK  3 active torsions:
REMARK  status: ('A' for Active; 'I' for Inactive)
REMARK    1  A    between atoms: C2_5  and  C3_6 
REMARK    2  A    between atoms: C6_9  and  O2_10 
REMARK    3  A    between atoms: C11_20  and  C12_21 
ROOT
HETATM    1  O1  UNL     1     -13.464  83.541   6.686  1.00  0.00    -0.266 OA
HETATM    2  C1  UNL     1     -14.180  82.786   5.954  1.00  0.00     0.271 C 
HETATM    3  N1  UNL     1     -15.557  82.893   5.725  1.00  0.00    -0.343 N 
ATOM      4  H1  UNL     1     -16.193  83.531   6.205  1.00  0.00     0.163 HD
HETATM    5  C2  UNL     1     -15.924  81.961   4.710  1.00  0.00     0.156 C 
HETATM    6  C9  UNL     1     -14.753  81.091   4.526  1.00  0.00     0.032 A 
HETATM    7  C10 UNL     1     -13.702  81.646   5.196  1.00  0.00     0.127 A 
HETATM    8  N2  UNL     1     -12.619  80.856   4.932  1.00  0.00    -0.295 N 
ATOM      9  H2  UNL     1     -11.675  81.009   5.288  1.00  0.00     0.187 HD
HETATM   10  N3  UNL     1     -12.986  79.868   4.149  1.00  0.00    -0.299 N 
ATOM     11  H3  UNL     1     -12.360  79.139   3.808  1.00  0.00     0.187 HD
HETATM   12  C11 UNL     1     -14.310  79.945   3.853  1.00  0.00     0.069 A 
ENDROOT
BRANCH   5  13
HETATM   13  C3  UNL     1     -16.312  82.657   3.458  1.00  0.00    -0.031 A 
HETATM   14  C4  UNL     1     -16.035  83.976   3.293  1.00  0.00     0.012 A 
HETATM   15  C5  UNL     1     -16.384  84.677   2.137  1.00  0.00     0.037 A 
HETATM   16  C6  UNL     1     -17.031  84.020   1.119  1.00  0.00     0.065 A 
HETATM   17  C7  UNL     1     -17.317  82.677   1.274  1.00  0.00     0.037 A 
HETATM   18  C8  UNL     1     -16.958  81.997   2.444  1.00  0.00     0.012 A 
BRANCH  16  19
HETATM   19  O2  UNL     1     -17.399  84.697  -0.064  1.00  0.00    -0.361 OA
ATOM     20  H2  UNL     1     -17.267  84.299  -0.916  1.00  0.00     0.217 HD
ENDBRANCH  16  19
ENDBRANCH   5  13
BRANCH  12  21
HETATM   21  C12 UNL     1     -15.051  79.017   3.011  1.00  0.00    -0.007 A 
HETATM   22  C13 UNL     1     -15.111  79.062   1.645  1.00  0.00     0.014 A 
HETATM   23  C14 UNL     1     -15.802  78.149   0.874  1.00  0.00     0.001 A 
HETATM   24  C15 UNL     1     -16.479  77.124   1.480  1.00  0.00     0.000 A 
HETATM   25  C16 UNL     1     -16.445  77.042   2.852  1.00  0.00     0.001 A 
HETATM   26  C17 UNL     1     -15.744  77.972   3.600  1.00  0.00     0.014 A 
ENDBRANCH  12  21
TORSDOF 3
ENDMDL
