MODEL 1
REMARK VINA RESULT: -9.432361064      0.000      0.000
REMARK  3 active torsions:
REMARK  status: ('A' for Active; 'I' for Inactive)
REMARK    1  A    between atoms: C2_5  and  C3_6 
REMARK    2  A    between atoms: C6_9  and  O2_10 
REMARK    3  A    between atoms: C11_20  and  C12_21 
ROOT
HETATM    1  O1  UNL     1     -15.064  79.604   7.378  1.00  0.00    -0.266 OA
HETATM    2  C1  UNL     1     -15.226  80.585   6.584  1.00  0.00     0.271 C 
HETATM    3  N1  UNL     1     -14.811  81.908   6.784  1.00  0.00    -0.343 N 
ATOM      4  H1  UNL     1     -14.417  82.285   7.646  1.00  0.00     0.163 HD
HETATM    5  C2  UNL     1     -15.033  82.641   5.580  1.00  0.00     0.156 C 
HETATM    6  C9  UNL     1     -15.856  81.769   4.729  1.00  0.00     0.032 A 
HETATM    7  C10 UNL     1     -15.883  80.527   5.293  1.00  0.00     0.127 A 
HETATM    8  N2  UNL     1     -16.583  79.729   4.433  1.00  0.00    -0.295 N 
ATOM      9  H2  UNL     1     -16.776  78.737   4.571  1.00  0.00     0.187 HD
HETATM   10  N3  UNL     1     -16.970  80.444   3.401  1.00  0.00    -0.299 N 
ATOM     11  H3  UNL     1     -17.512  80.080   2.618  1.00  0.00     0.187 HD
HETATM   12  C11 UNL     1     -16.555  81.733   3.515  1.00  0.00     0.069 A 
ENDROOT
BRANCH   5  13
HETATM   13  C3  UNL     1     -13.750  83.012   4.934  1.00  0.00    -0.031 A 
HETATM   14  C4  UNL     1     -13.319  84.300   4.955  1.00  0.00     0.012 A 
HETATM   15  C5  UNL     1     -12.122  84.700   4.358  1.00  0.00     0.037 A 
HETATM   16  C6  UNL     1     -11.340  83.767   3.723  1.00  0.00     0.065 A 
HETATM   17  C7  UNL     1     -11.767  82.454   3.695  1.00  0.00     0.037 A 
HETATM   18  C8  UNL     1     -12.972  82.078   4.301  1.00  0.00     0.012 A 
BRANCH  16  19
HETATM   19  O2  UNL     1     -10.124  84.137   3.108  1.00  0.00    -0.361 OA
ATOM     20  H2  UNL     1      -9.564  83.485   2.703  1.00  0.00     0.217 HD
ENDBRANCH  16  19
ENDBRANCH   5  13
BRANCH  12  21
HETATM   21  C12 UNL     1     -16.805  82.797   2.554  1.00  0.00    -0.007 A 
HETATM   22  C13 UNL     1     -16.451  84.109   2.716  1.00  0.00     0.014 A 
HETATM   23  C14 UNL     1     -16.680  85.089   1.772  1.00  0.00     0.001 A 
HETATM   24  C15 UNL     1     -17.296  84.765   0.592  1.00  0.00     0.000 A 
HETATM   25  C16 UNL     1     -17.668  83.458   0.389  1.00  0.00     0.001 A 
HETATM   26  C17 UNL     1     -17.426  82.495   1.354  1.00  0.00     0.014 A 
ENDBRANCH  12  21
TORSDOF 3
ENDMDL
