MODEL 8
REMARK VINA RESULT: -6.795330925      2.104      4.930
REMARK  3 active torsions:
REMARK  status: ('A' for Active; 'I' for Inactive)
REMARK    1  A    between atoms: C2_5  and  C3_6 
REMARK    2  A    between atoms: C6_9  and  O2_10 
REMARK    3  A    between atoms: C11_20  and  C12_21 
ROOT
HETATM    1  O1  UNL     1     -17.553  78.719   5.520  1.00  0.00    -0.266 OA
HETATM    2  C1  UNL     1     -16.675  79.406   4.906  1.00  0.00     0.271 C 
HETATM    3  N1  UNL     1     -16.499  79.504   3.520  1.00  0.00    -0.343 N 
ATOM      4  H1  UNL     1     -16.987  78.949   2.817  1.00  0.00     0.163 HD
HETATM    5  C2  UNL     1     -15.522  80.510   3.256  1.00  0.00     0.156 C 
HETATM    6  C9  UNL     1     -14.914  80.826   4.556  1.00  0.00     0.032 A 
HETATM    7  C10 UNL     1     -15.666  80.238   5.531  1.00  0.00     0.127 A 
HETATM    8  N2  UNL     1     -15.119  80.623   6.723  1.00  0.00    -0.295 N 
ATOM      9  H2  UNL     1     -15.459  80.351   7.645  1.00  0.00     0.187 HD
HETATM   10  N3  UNL     1     -14.085  81.399   6.491  1.00  0.00    -0.299 N 
ATOM     11  H3  UNL     1     -13.504  81.818   7.217  1.00  0.00     0.187 HD
HETATM   12  C11 UNL     1     -13.891  81.571   5.157  1.00  0.00     0.069 A 
ENDROOT
BRANCH   5  13
HETATM   13  C3  UNL     1     -16.137  81.699   2.616  1.00  0.00    -0.031 A 
HETATM   14  C4  UNL     1     -16.888  81.562   1.493  1.00  0.00     0.012 A 
HETATM   15  C5  UNL     1     -17.484  82.650   0.852  1.00  0.00     0.037 A 
HETATM   16  C6  UNL     1     -17.312  83.912   1.365  1.00  0.00     0.065 A 
HETATM   17  C7  UNL     1     -16.550  84.065   2.508  1.00  0.00     0.037 A 
HETATM   18  C8  UNL     1     -15.963  82.958   3.132  1.00  0.00     0.012 A 
BRANCH  16  19
HETATM   19  O2  UNL     1     -17.899  85.036   0.742  1.00  0.00    -0.361 OA
ATOM     20  H2  UNL     1     -18.828  85.214   0.832  1.00  0.00     0.217 HD
ENDBRANCH  16  19
ENDBRANCH   5  13
BRANCH  12  21
HETATM   21  C12 UNL     1     -12.839  82.369   4.545  1.00  0.00    -0.007 A 
HETATM   22  C13 UNL     1     -12.683  83.721   4.693  1.00  0.00     0.014 A 
HETATM   23  C14 UNL     1     -11.658  84.444   4.119  1.00  0.00     0.001 A 
HETATM   24  C15 UNL     1     -10.723  83.804   3.348  1.00  0.00     0.000 A 
HETATM   25  C16 UNL     1     -10.844  82.446   3.173  1.00  0.00     0.001 A 
HETATM   26  C17 UNL     1     -11.883  81.745   3.760  1.00  0.00     0.014 A 
ENDBRANCH  12  21
TORSDOF 3
ENDMDL
