MODEL 6
REMARK VINA RESULT: -7.454030836      1.446      1.699
REMARK  3 active torsions:
REMARK  status: ('A' for Active; 'I' for Inactive)
REMARK    1  A    between atoms: C2_5  and  C3_6 
REMARK    2  A    between atoms: C6_9  and  O2_10 
REMARK    3  A    between atoms: C11_20  and  C12_21 
ROOT
HETATM    1  O1  UNL     1     -15.263  77.575   5.519  1.00  0.00    -0.266 OA
HETATM    2  C1  UNL     1     -15.527  78.774   5.187  1.00  0.00     0.271 C 
HETATM    3  N1  UNL     1     -15.623  79.883   6.037  1.00  0.00    -0.343 N 
ATOM      4  H1  UNL     1     -15.599  79.855   7.057  1.00  0.00     0.163 HD
HETATM    5  C2  UNL     1     -15.760  81.058   5.240  1.00  0.00     0.156 C 
HETATM    6  C9  UNL     1     -16.018  80.583   3.872  1.00  0.00     0.032 A 
HETATM    7  C10 UNL     1     -15.785  79.240   3.838  1.00  0.00     0.127 A 
HETATM    8  N2  UNL     1     -15.954  78.854   2.538  1.00  0.00    -0.295 N 
ATOM      9  H2  UNL     1     -15.845  77.904   2.185  1.00  0.00     0.187 HD
HETATM   10  N3  UNL     1     -16.278  79.902   1.816  1.00  0.00    -0.299 N 
ATOM     11  H3  UNL     1     -16.460  79.878   0.813  1.00  0.00     0.187 HD
HETATM   12  C11 UNL     1     -16.341  81.023   2.582  1.00  0.00     0.069 A 
ENDROOT
BRANCH   5  13
HETATM   13  C3  UNL     1     -14.546  81.907   5.323  1.00  0.00    -0.031 A 
HETATM   14  C4  UNL     1     -14.573  83.076   6.011  1.00  0.00     0.012 A 
HETATM   15  C5  UNL     1     -13.459  83.912   6.115  1.00  0.00     0.037 A 
HETATM   16  C6  UNL     1     -12.284  83.548   5.503  1.00  0.00     0.065 A 
HETATM   17  C7  UNL     1     -12.243  82.360   4.800  1.00  0.00     0.037 A 
HETATM   18  C8  UNL     1     -13.375  81.540   4.710  1.00  0.00     0.012 A 
BRANCH  16  19
HETATM   19  O2  UNL     1     -11.138  84.370   5.586  1.00  0.00    -0.361 OA
ATOM     20  H2  UNL     1     -10.661  84.623   4.805  1.00  0.00     0.217 HD
ENDBRANCH  16  19
ENDBRANCH   5  13
BRANCH  12  21
HETATM   21  C12 UNL     1     -16.671  82.360   2.111  1.00  0.00    -0.007 A 
HETATM   22  C13 UNL     1     -16.320  83.528   2.732  1.00  0.00     0.014 A 
HETATM   23  C14 UNL     1     -16.626  84.781   2.243  1.00  0.00     0.001 A 
HETATM   24  C15 UNL     1     -17.323  84.901   1.069  1.00  0.00     0.000 A 
HETATM   25  C16 UNL     1     -17.696  83.752   0.413  1.00  0.00     0.001 A 
HETATM   26  C17 UNL     1     -17.375  82.508   0.927  1.00  0.00     0.014 A 
ENDBRANCH  12  21
TORSDOF 3
ENDMDL
