MODEL 2
REMARK VINA RESULT: -9.369137856      0.096      1.001
REMARK  3 active torsions:
REMARK  status: ('A' for Active; 'I' for Inactive)
REMARK    1  A    between atoms: C2_5  and  C3_6 
REMARK    2  A    between atoms: C6_9  and  O2_10 
REMARK    3  A    between atoms: C11_20  and  C12_21 
ROOT
HETATM    1  O1  UNL     1     -15.003  79.715   7.473  1.00  0.00    -0.266 OA
HETATM    2  C1  UNL     1     -15.172  80.663   6.641  1.00  0.00     0.271 C 
HETATM    3  N1  UNL     1     -14.775  81.998   6.793  1.00  0.00    -0.343 N 
ATOM      4  H1  UNL     1     -14.391  82.412   7.642  1.00  0.00     0.163 HD
HETATM    5  C2  UNL     1     -14.999  82.682   5.561  1.00  0.00     0.156 C 
HETATM    6  C9  UNL     1     -15.805  81.768   4.738  1.00  0.00     0.032 A 
HETATM    7  C10 UNL     1     -15.820  80.548   5.349  1.00  0.00     0.127 A 
HETATM    8  N2  UNL     1     -16.505  79.709   4.516  1.00  0.00    -0.295 N 
ATOM      9  H2  UNL     1     -16.686  78.721   4.690  1.00  0.00     0.187 HD
HETATM   10  N3  UNL     1     -16.894  80.380   3.456  1.00  0.00    -0.299 N 
ATOM     11  H3  UNL     1     -17.426  79.979   2.683  1.00  0.00     0.187 HD
HETATM   12  C11 UNL     1     -16.495  81.677   3.523  1.00  0.00     0.069 A 
ENDROOT
BRANCH   5  13
HETATM   13  C3  UNL     1     -13.716  83.045   4.909  1.00  0.00    -0.031 A 
HETATM   14  C4  UNL     1     -13.296  84.336   4.894  1.00  0.00     0.012 A 
HETATM   15  C5  UNL     1     -12.100  84.728   4.290  1.00  0.00     0.037 A 
HETATM   16  C6  UNL     1     -11.308  83.784   3.685  1.00  0.00     0.065 A 
HETATM   17  C7  UNL     1     -11.724  82.467   3.693  1.00  0.00     0.037 A 
HETATM   18  C8  UNL     1     -12.929  82.099   4.305  1.00  0.00     0.012 A 
BRANCH  16  19
HETATM   19  O2  UNL     1     -10.092  84.145   3.063  1.00  0.00    -0.361 OA
ATOM     20  H2  UNL     1     -10.024  84.197   2.117  1.00  0.00     0.217 HD
ENDBRANCH  16  19
ENDBRANCH   5  13
BRANCH  12  21
HETATM   21  C12 UNL     1     -16.753  82.701   2.521  1.00  0.00    -0.007 A 
HETATM   22  C13 UNL     1     -17.314  82.483   1.292  1.00  0.00     0.014 A 
HETATM   23  C14 UNL     1     -17.569  83.482   0.375  1.00  0.00     0.001 A 
HETATM   24  C15 UNL     1     -17.254  84.780   0.679  1.00  0.00     0.000 A 
HETATM   25  C16 UNL     1     -16.687  85.043   1.903  1.00  0.00     0.001 A 
HETATM   26  C17 UNL     1     -16.442  84.021   2.804  1.00  0.00     0.014 A 
ENDBRANCH  12  21
TORSDOF 3
ENDMDL
