MODEL 7
REMARK VINA RESULT: -7.277219208      1.047      1.059
REMARK  3 active torsions:
REMARK  status: ('A' for Active; 'I' for Inactive)
REMARK    1  A    between atoms: C2_5  and  C3_6 
REMARK    2  A    between atoms: C6_9  and  O2_10 
REMARK    3  A    between atoms: C11_20  and  C12_21 
ROOT
HETATM    1  O1  UNL     1     -14.177  78.114   6.187  1.00  0.00    -0.266 OA
HETATM    2  C1  UNL     1     -14.482  79.252   5.705  1.00  0.00     0.271 C 
HETATM    3  N1  UNL     1     -14.188  80.506   6.254  1.00  0.00    -0.343 N 
ATOM      4  H1  UNL     1     -13.781  80.673   7.174  1.00  0.00     0.163 HD
HETATM    5  C2  UNL     1     -14.553  81.513   5.310  1.00  0.00     0.156 C 
HETATM    6  C9  UNL     1     -15.335  80.822   4.275  1.00  0.00     0.032 A 
HETATM    7  C10 UNL     1     -15.206  79.478   4.469  1.00  0.00     0.127 A 
HETATM    8  N2  UNL     1     -15.875  78.875   3.442  1.00  0.00    -0.295 N 
ATOM      9  H2  UNL     1     -15.961  77.869   3.302  1.00  0.00     0.187 HD
HETATM   10  N3  UNL     1     -16.392  79.798   2.664  1.00  0.00    -0.299 N 
ATOM     11  H3  UNL     1     -16.941  79.606   1.826  1.00  0.00     0.187 HD
HETATM   12  C11 UNL     1     -16.098  81.044   3.121  1.00  0.00     0.069 A 
ENDROOT
BRANCH   5  13
HETATM   13  C3  UNL     1     -13.353  82.187   4.756  1.00  0.00    -0.031 A 
HETATM   14  C4  UNL     1     -13.248  83.540   4.794  1.00  0.00     0.012 A 
HETATM   15  C5  UNL     1     -12.143  84.222   4.282  1.00  0.00     0.037 A 
HETATM   16  C6  UNL     1     -11.114  83.510   3.715  1.00  0.00     0.065 A 
HETATM   17  C7  UNL     1     -11.209  82.132   3.671  1.00  0.00     0.037 A 
HETATM   18  C8  UNL     1     -12.328  81.472   4.191  1.00  0.00     0.012 A 
BRANCH  16  19
HETATM   19  O2  UNL     1      -9.981  84.166   3.186  1.00  0.00    -0.361 OA
ATOM     20  H2  UNL     1      -9.618  84.934   3.613  1.00  0.00     0.217 HD
ENDBRANCH  16  19
ENDBRANCH   5  13
BRANCH  12  21
HETATM   21  C12 UNL     1     -16.509  82.297   2.504  1.00  0.00    -0.007 A 
HETATM   22  C13 UNL     1     -16.050  83.538   2.851  1.00  0.00     0.014 A 
HETATM   23  C14 UNL     1     -16.440  84.705   2.227  1.00  0.00     0.001 A 
HETATM   24  C15 UNL     1     -17.341  84.655   1.196  1.00  0.00     0.000 A 
HETATM   25  C16 UNL     1     -17.828  83.428   0.816  1.00  0.00     0.001 A 
HETATM   26  C17 UNL     1     -17.419  82.273   1.460  1.00  0.00     0.014 A 
ENDBRANCH  12  21
TORSDOF 3
ENDMDL
