MODEL 1
REMARK VINA RESULT: -11.904286868      0.000      0.000
REMARK  7 active torsions:
REMARK  status: ('A' for Active; 'I' for Inactive)
REMARK    1  A    between atoms: C5_5  and  C6_6 
REMARK       I    between atoms: C6_6  and  N1_8 
REMARK    2  A    between atoms: N1_8  and  C7_10 
REMARK    3  A    between atoms: C10_13  and  C11_14 
REMARK    4  A    between atoms: C11_14  and  N2_15 
REMARK    5  A    between atoms: C17_22  and  C18_23 
REMARK    6  A    between atoms: C21_29  and  C22_30 
REMARK    7  A    between atoms: C23_31  and  C24_32 
ROOT
HETATM    1  C6  UNL     1      36.236  11.950  40.824  1.00  0.00     0.256 C 
HETATM    2  O1  UNL     1      36.835  12.676  41.679  1.00  0.00    -0.267 OA
HETATM    3  N1  UNL     1      36.161  12.422  39.507  1.00  0.00    -0.323 N 
ATOM      4  H1  UNL     1      35.671  11.819  38.845  1.00  0.00     0.169 HD
ENDROOT
BRANCH   1   5
HETATM    5  C5  UNL     1      35.681  10.689  41.300  1.00  0.00     0.033 A 
HETATM    6  C4  UNL     1      35.325   9.720  40.374  1.00  0.00     0.017 A 
HETATM    7  C3  UNL     1      34.798   8.527  40.813  1.00  0.00     0.009 A 
HETATM    8  C2  UNL     1      34.605   8.246  42.146  1.00  0.00    -0.043 A 
HETATM    9  C1  UNL     1      34.030   6.940  42.596  1.00  0.00     0.049 C 
HETATM   10  C21 UNL     1      34.950   9.191  43.079  1.00  0.00     0.025 A 
HETATM   11  C20 UNL     1      35.485  10.401  42.624  1.00  0.00     0.038 A 
BRANCH  10  12
HETATM   12  C22 UNL     1      34.776   8.968  44.485  1.00  0.00    -0.059 C 
HETATM   13  C23 UNL     1      34.636   8.799  45.682  1.00  0.00    -0.040 C 
BRANCH  13  14
HETATM   14  C24 UNL     1      34.472   8.626  47.096  1.00  0.00     0.127 A 
HETATM   15  C25 UNL     1      33.643   9.370  47.889  1.00  0.00     0.130 A 
HETATM   16  N4  UNL     1      33.785   8.885  49.148  1.00  0.00    -0.348 N 
HETATM   17  C26 UNL     1      34.674   7.866  49.158  1.00  0.00     0.128 A 
ATOM     18  H4  UNL     1      33.293   9.237  49.969  1.00  0.00     0.167 HD
HETATM   19  C27 UNL     1      35.144   7.065  50.181  1.00  0.00     0.052 A 
HETATM   20  N6  UNL     1      35.084   7.721  47.887  1.00  0.00    -0.231 N 
HETATM   21  C28 UNL     1      36.067   6.094  49.852  1.00  0.00     0.022 A 
HETATM   22  C29 UNL     1      36.469   5.976  48.520  1.00  0.00     0.108 A 
HETATM   23  N5  UNL     1      35.973   6.787  47.568  1.00  0.00    -0.303 N 
ATOM     24  H5  UNL     1      36.281   6.685  46.600  1.00  0.00     0.186 HD
ENDBRANCH  13  14
ENDBRANCH  10  12
ENDBRANCH   1   5
BRANCH   3  25
HETATM   25  C7  UNL     1      36.678  13.629  38.978  1.00  0.00     0.035 A 
HETATM   26  C8  UNL     1      35.954  14.634  38.408  1.00  0.00     0.030 A 
HETATM   27  C9  UNL     1      36.522  15.796  37.892  1.00  0.00     0.012 A 
HETATM   28  C10 UNL     1      37.881  15.942  37.958  1.00  0.00    -0.015 A 
HETATM   29  C17 UNL     1      38.642  14.943  38.528  1.00  0.00     0.058 A 
HETATM   30  C19 UNL     1      38.062  13.811  39.028  1.00  0.00     0.046 A 
BRANCH  28  31
HETATM   31  C11 UNL     1      38.519  17.163  37.388  1.00  0.00     0.311 C 
BRANCH  31  32
HETATM   32  N2  UNL     1      38.285  17.292  35.961  1.00  0.00     0.096 N 
HETATM   33  C12 UNL     1      39.566  17.356  35.250  1.00  0.00     0.303 C 
HETATM   34  C13 UNL     1      40.517  18.336  35.890  1.00  0.00     0.302 C 
HETATM   35  N3  UNL     1      39.768  19.540  36.148  1.00  0.00     0.087 N 
HETATM   36  C14 UNL     1      40.602  20.722  36.158  1.00  0.00     0.310 C 
HETATM   37  C15 UNL     1      38.616  19.666  35.312  1.00  0.00     0.302 C 
HETATM   38  C16 UNL     1      37.625  18.577  35.676  1.00  0.00     0.303 C 
ENDBRANCH  31  32
ENDBRANCH  28  31
BRANCH  29  39
HETATM   39  C18 UNL     1      40.127  15.101  38.600  1.00  0.00     0.418 C 
HETATM   40  F1  UNL     1      40.693  13.897  38.960  1.00  0.00    -0.166 F 
HETATM   41  F2  UNL     1      40.507  16.008  39.572  1.00  0.00    -0.166 F 
HETATM   42  F3  UNL     1      40.573  15.427  37.347  1.00  0.00    -0.166 F 
ENDBRANCH  29  39
ENDBRANCH   3  25
TORSDOF 7
ENDMDL
