MODEL 6
REMARK VINA RESULT: -11.030112767      4.449     13.391
REMARK  7 active torsions:
REMARK  status: ('A' for Active; 'I' for Inactive)
REMARK    1  A    between atoms: C5_5  and  C6_6 
REMARK       I    between atoms: C6_6  and  N1_8 
REMARK    2  A    between atoms: N1_8  and  C7_10 
REMARK    3  A    between atoms: C10_13  and  C11_14 
REMARK    4  A    between atoms: C11_14  and  N2_15 
REMARK    5  A    between atoms: C17_22  and  C18_23 
REMARK    6  A    between atoms: C21_29  and  C22_30 
REMARK    7  A    between atoms: C23_31  and  C24_32 
ROOT
HETATM    1  C6  UNL     1      35.030   9.087  44.854  1.00  0.00     0.256 C 
HETATM    2  O1  UNL     1      35.357  10.184  45.407  1.00  0.00    -0.267 OA
HETATM    3  N1  UNL     1      34.765   7.991  45.687  1.00  0.00    -0.323 N 
ATOM      4  H1  UNL     1      34.510   7.124  45.215  1.00  0.00     0.169 HD
ENDROOT
BRANCH   1   5
HETATM    5  C5  UNL     1      34.965   9.073  43.399  1.00  0.00     0.033 A 
HETATM    6  C4  UNL     1      34.674   7.881  42.750  1.00  0.00     0.017 A 
HETATM    7  C3  UNL     1      34.612   7.858  41.375  1.00  0.00     0.009 A 
HETATM    8  C2  UNL     1      34.829   8.975  40.603  1.00  0.00    -0.043 A 
HETATM    9  C1  UNL     1      34.754   8.921  39.109  1.00  0.00     0.049 C 
HETATM   10  C21 UNL     1      35.118  10.164  41.224  1.00  0.00     0.025 A 
HETATM   11  C20 UNL     1      35.179  10.179  42.622  1.00  0.00     0.038 A 
BRANCH  10  12
HETATM   12  C22 UNL     1      35.355  11.369  40.483  1.00  0.00    -0.059 C 
HETATM   13  C23 UNL     1      35.537  12.399  39.862  1.00  0.00    -0.040 C 
BRANCH  13  14
HETATM   14  C24 UNL     1      35.732  13.625  39.143  1.00  0.00     0.127 A 
HETATM   15  C25 UNL     1      34.732  14.422  38.660  1.00  0.00     0.130 A 
HETATM   16  N4  UNL     1      35.341  15.471  38.053  1.00  0.00    -0.348 N 
HETATM   17  C26 UNL     1      36.684  15.347  38.145  1.00  0.00     0.128 A 
ATOM     18  H4  UNL     1      34.857  16.242  37.593  1.00  0.00     0.167 HD
HETATM   19  C27 UNL     1      37.715  16.148  37.690  1.00  0.00     0.052 A 
HETATM   20  N6  UNL     1      36.905  14.207  38.819  1.00  0.00    -0.231 N 
HETATM   21  C28 UNL     1      39.003  15.731  37.953  1.00  0.00     0.022 A 
HETATM   22  C29 UNL     1      39.192  14.539  38.657  1.00  0.00     0.108 A 
HETATM   23  N5  UNL     1      38.146  13.804  39.074  1.00  0.00    -0.303 N 
ATOM     24  H5  UNL     1      38.304  12.935  39.585  1.00  0.00     0.186 HD
ENDBRANCH  13  14
ENDBRANCH  10  12
ENDBRANCH   1   5
BRANCH   3  25
HETATM   25  C7  UNL     1      34.806   7.936  47.101  1.00  0.00     0.035 A 
HETATM   26  C8  UNL     1      35.415   6.974  47.852  1.00  0.00     0.030 A 
HETATM   27  C9  UNL     1      35.409   6.966  49.245  1.00  0.00     0.012 A 
HETATM   28  C10 UNL     1      34.760   7.976  49.900  1.00  0.00    -0.015 A 
HETATM   29  C17 UNL     1      34.134   8.964  49.169  1.00  0.00     0.058 A 
HETATM   30  C19 UNL     1      34.152   8.951  47.802  1.00  0.00     0.046 A 
BRANCH  28  31
HETATM   31  C11 UNL     1      34.715   7.978  51.390  1.00  0.00     0.311 C 
BRANCH  31  32
HETATM   32  N2  UNL     1      34.128   6.762  51.925  1.00  0.00     0.096 N 
HETATM   33  C12 UNL     1      34.490   6.614  53.338  1.00  0.00     0.303 C 
HETATM   34  C13 UNL     1      35.965   6.833  53.568  1.00  0.00     0.302 C 
HETATM   35  N3  UNL     1      36.662   6.080  52.555  1.00  0.00     0.087 N 
HETATM   36  C14 UNL     1      37.984   5.674  52.979  1.00  0.00     0.310 C 
HETATM   37  C15 UNL     1      35.882   5.008  52.025  1.00  0.00     0.302 C 
HETATM   38  C16 UNL     1      34.711   5.587  51.255  1.00  0.00     0.303 C 
ENDBRANCH  31  32
ENDBRANCH  28  31
BRANCH  29  39
HETATM   39  C18 UNL     1      33.423  10.068  49.884  1.00  0.00     0.418 C 
HETATM   40  F1  UNL     1      32.791  10.873  48.960  1.00  0.00    -0.166 F 
HETATM   41  F2  UNL     1      34.297  10.889  50.573  1.00  0.00    -0.166 F 
HETATM   42  F3  UNL     1      32.466   9.500  50.682  1.00  0.00    -0.166 F 
ENDBRANCH  29  39
ENDBRANCH   3  25
TORSDOF 7
ENDMDL
