MODEL 15
REMARK VINA RESULT: -9.606984420      4.489     13.569
REMARK  7 active torsions:
REMARK  status: ('A' for Active; 'I' for Inactive)
REMARK    1  A    between atoms: C5_5  and  C6_6 
REMARK       I    between atoms: C6_6  and  N1_8 
REMARK    2  A    between atoms: N1_8  and  C7_10 
REMARK    3  A    between atoms: C10_13  and  C11_14 
REMARK    4  A    between atoms: C11_14  and  N2_15 
REMARK    5  A    between atoms: C17_22  and  C18_23 
REMARK    6  A    between atoms: C21_29  and  C22_30 
REMARK    7  A    between atoms: C23_31  and  C24_32 
ROOT
HETATM    1  C6  UNL     1      34.802   8.762  45.028  1.00  0.00     0.256 C 
HETATM    2  O1  UNL     1      35.341   9.750  45.621  1.00  0.00    -0.267 OA
HETATM    3  N1  UNL     1      34.253   7.747  45.822  1.00  0.00    -0.323 N 
ATOM      4  H1  UNL     1      33.832   6.966  45.319  1.00  0.00     0.169 HD
ENDROOT
BRANCH   1   5
HETATM    5  C5  UNL     1      34.809   8.781  43.571  1.00  0.00     0.033 A 
HETATM    6  C4  UNL     1      34.192   7.746  42.883  1.00  0.00     0.017 A 
HETATM    7  C3  UNL     1      34.196   7.754  41.506  1.00  0.00     0.009 A 
HETATM    8  C2  UNL     1      34.789   8.753  40.771  1.00  0.00    -0.043 A 
HETATM    9  C1  UNL     1      34.776   8.736  39.274  1.00  0.00     0.049 C 
HETATM   10  C21 UNL     1      35.404   9.786  41.431  1.00  0.00     0.025 A 
HETATM   11  C20 UNL     1      35.397   9.770  42.830  1.00  0.00     0.038 A 
BRANCH  10  12
HETATM   12  C22 UNL     1      36.043  10.861  40.730  1.00  0.00    -0.059 C 
HETATM   13  C23 UNL     1      36.599  11.776  40.151  1.00  0.00    -0.040 C 
BRANCH  13  14
HETATM   14  C24 UNL     1      37.273  12.854  39.487  1.00  0.00     0.127 A 
HETATM   15  C25 UNL     1      38.623  12.929  39.279  1.00  0.00     0.130 A 
HETATM   16  N4  UNL     1      38.841  14.095  38.621  1.00  0.00    -0.348 N 
HETATM   17  C26 UNL     1      37.672  14.742  38.417  1.00  0.00     0.128 A 
ATOM     18  H4  UNL     1      39.756  14.435  38.324  1.00  0.00     0.167 HD
HETATM   19  C27 UNL     1      37.382  15.946  37.804  1.00  0.00     0.052 A 
HETATM   20  N6  UNL     1      36.720  13.964  38.956  1.00  0.00    -0.231 N 
HETATM   21  C28 UNL     1      36.059  16.332  37.761  1.00  0.00     0.022 A 
HETATM   22  C29 UNL     1      35.098  15.494  38.331  1.00  0.00     0.108 A 
HETATM   23  N5  UNL     1      35.444  14.333  38.916  1.00  0.00    -0.303 N 
ATOM     24  H5  UNL     1      34.727  13.736  39.329  1.00  0.00     0.186 HD
ENDBRANCH  13  14
ENDBRANCH  10  12
ENDBRANCH   1   5
BRANCH   3  25
HETATM   25  C7  UNL     1      34.209   7.667  47.235  1.00  0.00     0.035 A 
HETATM   26  C8  UNL     1      34.327   6.531  47.982  1.00  0.00     0.030 A 
HETATM   27  C9  UNL     1      34.261   6.514  49.373  1.00  0.00     0.012 A 
HETATM   28  C10 UNL     1      34.070   7.698  50.031  1.00  0.00    -0.015 A 
HETATM   29  C17 UNL     1      33.947   8.864  49.305  1.00  0.00     0.058 A 
HETATM   30  C19 UNL     1      34.014   8.856  47.939  1.00  0.00     0.046 A 
BRANCH  28  31
HETATM   31  C11 UNL     1      33.969   7.705  51.518  1.00  0.00     0.311 C 
BRANCH  31  32
HETATM   32  N2  UNL     1      35.259   7.884  52.158  1.00  0.00     0.096 N 
HETATM   33  C12 UNL     1      36.134   6.750  51.842  1.00  0.00     0.303 C 
HETATM   34  C13 UNL     1      35.436   5.428  52.042  1.00  0.00     0.302 C 
HETATM   35  N3  UNL     1      34.766   5.496  53.317  1.00  0.00     0.087 N 
HETATM   36  C14 UNL     1      34.601   4.195  53.927  1.00  0.00     0.310 C 
HETATM   37  C15 UNL     1      35.342   6.465  54.194  1.00  0.00     0.302 C 
HETATM   38  C16 UNL     1      35.102   7.849  53.622  1.00  0.00     0.303 C 
ENDBRANCH  31  32
ENDBRANCH  28  31
BRANCH  29  39
HETATM   39  C18 UNL     1      33.737  10.158  50.023  1.00  0.00     0.418 C 
HETATM   40  F1  UNL     1      33.295  11.107  49.126  1.00  0.00    -0.166 F 
HETATM   41  F2  UNL     1      34.913  10.654  50.556  1.00  0.00    -0.166 F 
HETATM   42  F3  UNL     1      32.756   9.962  50.957  1.00  0.00    -0.166 F 
ENDBRANCH  29  39
ENDBRANCH   3  25
TORSDOF 7
ENDMDL
