MODEL 3
REMARK VINA RESULT: -11.467212378      0.803      1.605
REMARK  7 active torsions:
REMARK  status: ('A' for Active; 'I' for Inactive)
REMARK    1  A    between atoms: C5_5  and  C6_6 
REMARK       I    between atoms: C6_6  and  N1_8 
REMARK    2  A    between atoms: N1_8  and  C7_10 
REMARK    3  A    between atoms: C10_13  and  C11_14 
REMARK    4  A    between atoms: C11_14  and  N2_15 
REMARK    5  A    between atoms: C17_22  and  C18_23 
REMARK    6  A    between atoms: C21_29  and  C22_30 
REMARK    7  A    between atoms: C23_31  and  C24_32 
ROOT
HETATM    1  C6  UNL     1      36.229  11.811  40.933  1.00  0.00     0.256 C 
HETATM    2  O1  UNL     1      36.809  12.541  41.798  1.00  0.00    -0.267 OA
HETATM    3  N1  UNL     1      36.186  12.275  39.612  1.00  0.00    -0.323 N 
ATOM      4  H1  UNL     1      35.711  11.670  38.942  1.00  0.00     0.169 HD
ENDROOT
BRANCH   1   5
HETATM    5  C5  UNL     1      35.662  10.553  41.402  1.00  0.00     0.033 A 
HETATM    6  C4  UNL     1      35.233   9.620  40.470  1.00  0.00     0.017 A 
HETATM    7  C3  UNL     1      34.693   8.430  40.903  1.00  0.00     0.009 A 
HETATM    8  C2  UNL     1      34.558   8.118  42.236  1.00  0.00    -0.043 A 
HETATM    9  C1  UNL     1      33.968   6.816  42.679  1.00  0.00     0.049 C 
HETATM   10  C21 UNL     1      34.975   9.027  43.175  1.00  0.00     0.025 A 
HETATM   11  C20 UNL     1      35.522  10.234  42.726  1.00  0.00     0.038 A 
BRANCH  10  12
HETATM   12  C22 UNL     1      34.864   8.769  44.582  1.00  0.00    -0.059 C 
HETATM   13  C23 UNL     1      34.780   8.531  45.772  1.00  0.00    -0.040 C 
BRANCH  13  14
HETATM   14  C24 UNL     1      34.696   8.230  47.172  1.00  0.00     0.127 A 
HETATM   15  C25 UNL     1      35.252   7.137  47.776  1.00  0.00     0.130 A 
HETATM   16  N4  UNL     1      34.941   7.232  49.093  1.00  0.00    -0.348 N 
HETATM   17  C26 UNL     1      34.212   8.347  49.321  1.00  0.00     0.128 A 
ATOM     18  H4  UNL     1      35.218   6.560  49.809  1.00  0.00     0.167 HD
HETATM   19  C27 UNL     1      33.669   8.870  50.480  1.00  0.00     0.052 A 
HETATM   20  N6  UNL     1      34.072   8.947  48.129  1.00  0.00    -0.231 N 
HETATM   21  C28 UNL     1      32.963  10.050  50.371  1.00  0.00     0.022 A 
HETATM   22  C29 UNL     1      32.840  10.644  49.113  1.00  0.00     0.108 A 
HETATM   23  N5  UNL     1      33.393  10.085  48.022  1.00  0.00    -0.303 N 
ATOM     24  H5  UNL     1      33.290  10.533  47.111  1.00  0.00     0.186 HD
ENDBRANCH  13  14
ENDBRANCH  10  12
ENDBRANCH   1   5
BRANCH   3  25
HETATM   25  C7  UNL     1      36.717  13.479  39.090  1.00  0.00     0.035 A 
HETATM   26  C8  UNL     1      36.002  14.504  38.542  1.00  0.00     0.030 A 
HETATM   27  C9  UNL     1      36.583  15.662  38.030  1.00  0.00     0.012 A 
HETATM   28  C10 UNL     1      37.945  15.782  38.077  1.00  0.00    -0.015 A 
HETATM   29  C17 UNL     1      38.696  14.763  38.624  1.00  0.00     0.058 A 
HETATM   30  C19 UNL     1      38.103  13.636  39.120  1.00  0.00     0.046 A 
BRANCH  28  31
HETATM   31  C11 UNL     1      38.596  16.998  37.512  1.00  0.00     0.311 C 
BRANCH  31  32
HETATM   32  N2  UNL     1      38.393  17.116  36.079  1.00  0.00     0.096 N 
HETATM   33  C12 UNL     1      39.689  17.176  35.395  1.00  0.00     0.303 C 
HETATM   34  C13 UNL     1      40.626  18.162  36.048  1.00  0.00     0.302 C 
HETATM   35  N3  UNL     1      39.870  19.367  36.280  1.00  0.00     0.087 N 
HETATM   36  C14 UNL     1      40.703  20.549  36.299  1.00  0.00     0.310 C 
HETATM   37  C15 UNL     1      38.736  19.485  35.419  1.00  0.00     0.302 C 
HETATM   38  C16 UNL     1      37.738  18.399  35.770  1.00  0.00     0.303 C 
ENDBRANCH  31  32
ENDBRANCH  28  31
BRANCH  29  39
HETATM   39  C18 UNL     1      40.185  14.894  38.674  1.00  0.00     0.418 C 
HETATM   40  F1  UNL     1      40.735  13.676  39.015  1.00  0.00    -0.166 F 
HETATM   41  F2  UNL     1      40.596  15.784  39.649  1.00  0.00    -0.166 F 
HETATM   42  F3  UNL     1      40.618  15.223  37.418  1.00  0.00    -0.166 F 
ENDBRANCH  29  39
ENDBRANCH   3  25
TORSDOF 7
ENDMDL
