MODEL 5
REMARK VINA RESULT: -11.114406611      1.900      2.710
REMARK  7 active torsions:
REMARK  status: ('A' for Active; 'I' for Inactive)
REMARK    1  A    between atoms: C5_5  and  C6_6 
REMARK       I    between atoms: C6_6  and  N1_8 
REMARK    2  A    between atoms: N1_8  and  C7_10 
REMARK    3  A    between atoms: C10_13  and  C11_14 
REMARK    4  A    between atoms: C11_14  and  N2_15 
REMARK    5  A    between atoms: C17_22  and  C18_23 
REMARK    6  A    between atoms: C21_29  and  C22_30 
REMARK    7  A    between atoms: C23_31  and  C24_32 
ROOT
HETATM    1  C6  UNL     1      36.416  11.316  41.336  1.00  0.00     0.256 C 
HETATM    2  O1  UNL     1      36.854  12.112  42.226  1.00  0.00    -0.267 OA
HETATM    3  N1  UNL     1      36.626  11.660  39.994  1.00  0.00    -0.323 N 
ATOM      4  H1  UNL     1      36.260  11.004  39.304  1.00  0.00     0.169 HD
ENDROOT
BRANCH   1   5
HETATM    5  C5  UNL     1      35.734  10.115  41.801  1.00  0.00     0.033 A 
HETATM    6  C4  UNL     1      35.291   9.190  40.867  1.00  0.00     0.017 A 
HETATM    7  C3  UNL     1      34.643   8.054  41.296  1.00  0.00     0.009 A 
HETATM    8  C2  UNL     1      34.412   7.788  42.626  1.00  0.00    -0.043 A 
HETATM    9  C1  UNL     1      33.705   6.544  43.064  1.00  0.00     0.049 C 
HETATM   10  C21 UNL     1      34.842   8.690  43.566  1.00  0.00     0.025 A 
HETATM   11  C20 UNL     1      35.498   9.843  43.121  1.00  0.00     0.038 A 
BRANCH  10  12
HETATM   12  C22 UNL     1      34.635   8.479  44.969  1.00  0.00    -0.059 C 
HETATM   13  C23 UNL     1      34.463   8.278  46.157  1.00  0.00    -0.040 C 
BRANCH  13  14
HETATM   14  C24 UNL     1      34.270   8.018  47.554  1.00  0.00     0.127 A 
HETATM   15  C25 UNL     1      34.525   6.827  48.175  1.00  0.00     0.130 A 
HETATM   16  N4  UNL     1      34.212   7.005  49.483  1.00  0.00    -0.348 N 
HETATM   17  C26 UNL     1      33.772   8.267  49.689  1.00  0.00     0.128 A 
ATOM     18  H4  UNL     1      34.297   6.292  50.207  1.00  0.00     0.167 HD
HETATM   19  C27 UNL     1      33.342   8.916  50.831  1.00  0.00     0.052 A 
HETATM   20  N6  UNL     1      33.815   8.874  48.493  1.00  0.00    -0.231 N 
HETATM   21  C28 UNL     1      32.950  10.232  50.702  1.00  0.00     0.022 A 
HETATM   22  C29 UNL     1      33.010  10.828  49.440  1.00  0.00     0.108 A 
HETATM   23  N5  UNL     1      33.438  10.141  48.365  1.00  0.00    -0.303 N 
ATOM     24  H5  UNL     1      33.473  10.595  47.452  1.00  0.00     0.186 HD
ENDBRANCH  13  14
ENDBRANCH  10  12
ENDBRANCH   1   5
BRANCH   3  25
HETATM   25  C7  UNL     1      37.280  12.803  39.475  1.00  0.00     0.035 A 
HETATM   26  C8  UNL     1      38.621  12.935  39.259  1.00  0.00     0.030 A 
HETATM   27  C9  UNL     1      39.210  14.093  38.757  1.00  0.00     0.012 A 
HETATM   28  C10 UNL     1      38.404  15.159  38.464  1.00  0.00    -0.015 A 
HETATM   29  C17 UNL     1      37.045  15.058  38.672  1.00  0.00     0.058 A 
HETATM   30  C19 UNL     1      36.489  13.911  39.165  1.00  0.00     0.046 A 
BRANCH  28  31
HETATM   31  C11 UNL     1      39.011  16.421  37.952  1.00  0.00     0.311 C 
BRANCH  31  32
HETATM   32  N2  UNL     1      39.776  16.211  36.735  1.00  0.00     0.096 N 
HETATM   33  C12 UNL     1      41.206  16.148  37.050  1.00  0.00     0.303 C 
HETATM   34  C13 UNL     1      41.635  17.277  37.954  1.00  0.00     0.302 C 
HETATM   35  N3  UNL     1      41.061  18.485  37.415  1.00  0.00     0.087 N 
HETATM   36  C14 UNL     1      41.835  19.662  37.745  1.00  0.00     0.310 C 
HETATM   37  C15 UNL     1      40.752  18.381  36.025  1.00  0.00     0.302 C 
HETATM   38  C16 UNL     1      39.630  17.376  35.845  1.00  0.00     0.303 C 
ENDBRANCH  31  32
ENDBRANCH  28  31
BRANCH  29  39
HETATM   39  C18 UNL     1      36.164  16.223  38.352  1.00  0.00     0.418 C 
HETATM   40  F1  UNL     1      34.881  15.773  38.131  1.00  0.00    -0.166 F 
HETATM   41  F2  UNL     1      36.551  16.864  37.189  1.00  0.00    -0.166 F 
HETATM   42  F3  UNL     1      36.147  17.045  39.447  1.00  0.00    -0.166 F 
ENDBRANCH  29  39
ENDBRANCH   3  25
TORSDOF 7
ENDMDL
