MODEL 2
REMARK VINA RESULT: -11.729547303      4.408     13.377
REMARK  7 active torsions:
REMARK  status: ('A' for Active; 'I' for Inactive)
REMARK    1  A    between atoms: C5_5  and  C6_6 
REMARK       I    between atoms: C6_6  and  N1_8 
REMARK    2  A    between atoms: N1_8  and  C7_10 
REMARK    3  A    between atoms: C10_13  and  C11_14 
REMARK    4  A    between atoms: C11_14  and  N2_15 
REMARK    5  A    between atoms: C17_22  and  C18_23 
REMARK    6  A    between atoms: C21_29  and  C22_30 
REMARK    7  A    between atoms: C23_31  and  C24_32 
ROOT
HETATM    1  C6  UNL     1      34.928   8.958  44.755  1.00  0.00     0.256 C 
HETATM    2  O1  UNL     1      35.653   9.827  45.334  1.00  0.00    -0.267 OA
HETATM    3  N1  UNL     1      34.230   8.050  45.561  1.00  0.00    -0.323 N 
ATOM      4  H1  UNL     1      33.661   7.362  45.067  1.00  0.00     0.169 HD
ENDROOT
BRANCH   1   5
HETATM    5  C5  UNL     1      34.894   8.990  43.298  1.00  0.00     0.033 A 
HETATM    6  C4  UNL     1      34.615   7.820  42.607  1.00  0.00     0.017 A 
HETATM    7  C3  UNL     1      34.583   7.840  41.231  1.00  0.00     0.009 A 
HETATM    8  C2  UNL     1      34.818   8.980  40.499  1.00  0.00    -0.043 A 
HETATM    9  C1  UNL     1      34.776   8.973  39.003  1.00  0.00     0.049 C 
HETATM   10  C21 UNL     1      35.096  10.148  41.163  1.00  0.00     0.025 A 
HETATM   11  C20 UNL     1      35.127  10.120  42.561  1.00  0.00     0.038 A 
BRANCH  10  12
HETATM   12  C22 UNL     1      35.350  11.375  40.465  1.00  0.00    -0.059 C 
HETATM   13  C23 UNL     1      35.546  12.416  39.864  1.00  0.00    -0.040 C 
BRANCH  13  14
HETATM   14  C24 UNL     1      35.751  13.644  39.152  1.00  0.00     0.127 A 
HETATM   15  C25 UNL     1      34.757  14.451  38.673  1.00  0.00     0.130 A 
HETATM   16  N4  UNL     1      35.374  15.498  38.071  1.00  0.00    -0.348 N 
HETATM   17  C26 UNL     1      36.716  15.364  38.164  1.00  0.00     0.128 A 
ATOM     18  H4  UNL     1      34.896  16.275  37.616  1.00  0.00     0.167 HD
HETATM   19  C27 UNL     1      37.753  16.158  37.713  1.00  0.00     0.052 A 
HETATM   20  N6  UNL     1      36.928  14.218  38.831  1.00  0.00    -0.231 N 
HETATM   21  C28 UNL     1      39.038  15.731  37.974  1.00  0.00     0.022 A 
HETATM   22  C29 UNL     1      39.217  14.534  38.672  1.00  0.00     0.108 A 
HETATM   23  N5  UNL     1      38.165  13.804  39.084  1.00  0.00    -0.303 N 
ATOM     24  H5  UNL     1      38.317  12.932  39.591  1.00  0.00     0.186 HD
ENDBRANCH  13  14
ENDBRANCH  10  12
ENDBRANCH   1   5
BRANCH   3  25
HETATM   25  C7  UNL     1      34.215   7.965  46.974  1.00  0.00     0.035 A 
HETATM   26  C8  UNL     1      34.492   6.855  47.717  1.00  0.00     0.030 A 
HETATM   27  C9  UNL     1      34.447   6.829  49.109  1.00  0.00     0.012 A 
HETATM   28  C10 UNL     1      34.109   7.977  49.771  1.00  0.00    -0.015 A 
HETATM   29  C17 UNL     1      33.823   9.116  49.049  1.00  0.00     0.058 A 
HETATM   30  C19 UNL     1      33.873   9.118  47.683  1.00  0.00     0.046 A 
BRANCH  28  31
HETATM   31  C11 UNL     1      34.026   7.971  51.260  1.00  0.00     0.311 C 
BRANCH  31  32
HETATM   32  N2  UNL     1      35.302   8.271  51.884  1.00  0.00     0.096 N 
HETATM   33  C12 UNL     1      36.228   7.151  51.690  1.00  0.00     0.303 C 
HETATM   34  C13 UNL     1      35.587   5.826  52.023  1.00  0.00     0.302 C 
HETATM   35  N3  UNL     1      34.903   5.996  53.280  1.00  0.00     0.087 N 
HETATM   36  C14 UNL     1      34.788   4.758  54.020  1.00  0.00     0.310 C 
HETATM   37  C15 UNL     1      35.427   7.074  54.056  1.00  0.00     0.302 C 
HETATM   38  C16 UNL     1      35.133   8.380  53.343  1.00  0.00     0.303 C 
ENDBRANCH  31  32
ENDBRANCH  28  31
BRANCH  29  39
HETATM   39  C18 UNL     1      33.452  10.371  49.772  1.00  0.00     0.418 C 
HETATM   40  F1  UNL     1      32.912  11.268  48.875  1.00  0.00    -0.166 F 
HETATM   41  F2  UNL     1      34.554  10.999  50.324  1.00  0.00    -0.166 F 
HETATM   42  F3  UNL     1      32.489  10.053  50.692  1.00  0.00    -0.166 F 
ENDBRANCH  29  39
ENDBRANCH   3  25
TORSDOF 7
ENDMDL
