MODEL 16
REMARK VINA RESULT: -7.798231798      4.221      5.794
REMARK  8 active torsions:
REMARK  status: ('A' for Active; 'I' for Inactive)
REMARK    1  A    between atoms: N5_13  and  C6_14 
REMARK    2  A    between atoms: C7_16  and  C8_17 
REMARK    3  A    between atoms: C8_17  and  O2_18 
REMARK    4  A    between atoms: O2_18  and  P1_19 
REMARK    5  A    between atoms: P1_19  and  O5_22 
REMARK    6  A    between atoms: O5_22  and  P2_23 
REMARK    7  A    between atoms: C9_27  and  O9_28 
REMARK    8  A    between atoms: C10_30  and  O10_31 
ROOT
HETATM    1  C6  UNL     1      -8.045 -91.309  92.087  1.00  0.00     0.262 C 
HETATM    2  O1  UNL     1      -8.600 -90.226  92.736  1.00  0.00    -0.353 OA
HETATM    3  C7  UNL     1      -8.194 -90.220  94.038  1.00  0.00     0.180 C 
HETATM    4  C9  UNL     1      -7.010 -91.150  94.144  1.00  0.00     0.182 C 
HETATM    5  C10 UNL     1      -7.479 -92.211  93.138  1.00  0.00     0.198 C 
ENDROOT
BRANCH   1   6
HETATM    6  N5  UNL     1      -7.098 -90.843  91.127  1.00  0.00    -0.297 N 
HETATM    7  C3  UNL     1      -6.418 -91.551  90.209  1.00  0.00     0.142 A 
HETATM    8  N3  UNL     1      -6.404 -92.848  89.908  1.00  0.00    -0.336 N 
HETATM    9  C4  UNL     1      -5.616 -90.705  89.495  1.00  0.00     0.119 A 
HETATM   10  C2  UNL     1      -5.621 -93.329  88.925  1.00  0.00     0.183 A 
ATOM     11  H3  UNL     1      -6.999 -93.489  90.432  1.00  0.00     0.168 HD
HETATM   12  N2  UNL     1      -4.832 -92.518  88.218  1.00  0.00    -0.339 N 
HETATM   13  C1  UNL     1      -4.819 -91.212  88.490  1.00  0.00     0.148 A 
ATOM     14  H2  UNL     1      -4.243 -92.895  87.475  1.00  0.00     0.167 HD
HETATM   15  N1  UNL     1      -4.007 -90.297  87.782  1.00  0.00    -0.080 NA
HETATM   16  N4  UNL     1      -5.812 -89.486  89.983  1.00  0.00    -0.346 N 
HETATM   17  C5  UNL     1      -6.701 -89.568  90.962  1.00  0.00     0.188 A 
ATOM     18  H4  UNL     1      -5.356 -88.633  89.659  1.00  0.00     0.167 HD
ENDBRANCH   1   6
BRANCH   5  19
HETATM   19  O10 UNL     1      -8.552 -92.870  93.750  1.00  0.00    -0.388 OA
ATOM     20  H10 UNL     1      -8.212 -93.322  94.513  1.00  0.00     0.210 HD
ENDBRANCH   5  19
BRANCH   3  21
HETATM   21  C8  UNL     1      -7.929 -88.866  94.617  1.00  0.00     0.216 C 
BRANCH  21  22
HETATM   22  O2  UNL     1      -8.975 -88.342  95.332  1.00  0.00    -0.287 OA
BRANCH  22  23
HETATM   23  P1  UNL     1      -9.825 -87.295  94.279  1.00  0.00     0.418 P 
HETATM   24  O3  UNL     1     -10.639 -86.350  95.123  1.00  0.00    -0.624 OA
HETATM   25  O4  UNL     1     -10.889 -88.155  93.300  1.00  0.00    -0.624 OA
BRANCH  23  26
HETATM   26  O5  UNL     1      -8.718 -86.432  93.371  1.00  0.00    -0.173 OA
BRANCH  26  27
HETATM   27  P2  UNL     1      -9.311 -85.922  91.894  1.00  0.00     0.431 P 
HETATM   28  O6  UNL     1     -10.698 -85.321  92.014  1.00  0.00    -0.616 OA
HETATM   29  O7  UNL     1      -9.427 -87.188  90.773  1.00  0.00    -0.616 OA
HETATM   30  O8  UNL     1      -8.215 -84.773  91.268  1.00  0.00    -0.616 OA
ENDBRANCH  26  27
ENDBRANCH  23  26
ENDBRANCH  22  23
ENDBRANCH  21  22
ENDBRANCH   3  21
BRANCH   4  31
HETATM   31  O9  UNL     1      -6.834 -91.675  95.403  1.00  0.00    -0.390 OA
ATOM     32  H9  UNL     1      -7.420 -91.309  96.054  1.00  0.00     0.210 HD
ENDBRANCH   4  31
TORSDOF 8
ENDMDL
