MODEL 5
REMARK VINA RESULT: -8.392780488      1.284      2.007
REMARK  8 active torsions:
REMARK  status: ('A' for Active; 'I' for Inactive)
REMARK    1  A    between atoms: N5_13  and  C6_14 
REMARK    2  A    between atoms: C7_16  and  C8_17 
REMARK    3  A    between atoms: C8_17  and  O2_18 
REMARK    4  A    between atoms: O2_18  and  P1_19 
REMARK    5  A    between atoms: P1_19  and  O5_22 
REMARK    6  A    between atoms: O5_22  and  P2_23 
REMARK    7  A    between atoms: C9_27  and  O9_28 
REMARK    8  A    between atoms: C10_30  and  O10_31 
ROOT
HETATM    1  C6  UNL     1      -4.268 -85.545  92.605  1.00  0.00     0.262 C 
HETATM    2  O1  UNL     1      -5.075 -86.580  93.030  1.00  0.00    -0.353 OA
HETATM    3  C7  UNL     1      -6.346 -86.382  92.577  1.00  0.00     0.180 C 
HETATM    4  C9  UNL     1      -6.276 -85.344  91.483  1.00  0.00     0.182 C 
HETATM    5  C10 UNL     1      -5.169 -84.468  92.087  1.00  0.00     0.198 C 
ENDROOT
BRANCH   1   6
HETATM    6  N5  UNL     1      -3.329 -86.046  91.655  1.00  0.00    -0.297 N 
HETATM    7  C3  UNL     1      -2.037 -86.363  91.843  1.00  0.00     0.142 A 
HETATM    8  N3  UNL     1      -1.250 -86.319  92.916  1.00  0.00    -0.336 N 
HETATM    9  C4  UNL     1      -1.508 -86.806  90.663  1.00  0.00     0.119 A 
HETATM   10  C2  UNL     1       0.040 -86.697  92.855  1.00  0.00     0.183 A 
ATOM     11  H3  UNL     1      -1.633 -85.992  93.803  1.00  0.00     0.168 HD
HETATM   12  N2  UNL     1       0.573 -87.132  91.711  1.00  0.00    -0.339 N 
HETATM   13  C1  UNL     1      -0.184 -87.191  90.613  1.00  0.00     0.148 A 
ATOM     14  H2  UNL     1       1.552 -87.417  91.676  1.00  0.00     0.167 HD
HETATM   15  N1  UNL     1       0.315 -87.640  89.370  1.00  0.00    -0.080 NA
HETATM   16  N4  UNL     1      -2.482 -86.755  89.761  1.00  0.00    -0.346 N 
HETATM   17  C5  UNL     1      -3.575 -86.299  90.357  1.00  0.00     0.188 A 
ATOM     18  H4  UNL     1      -2.402 -87.021  88.780  1.00  0.00     0.167 HD
ENDBRANCH   1   6
BRANCH   5  19
HETATM   19  O10 UNL     1      -5.745 -83.833  93.194  1.00  0.00    -0.388 OA
ATOM     20  H10 UNL     1      -5.059 -83.343  93.631  1.00  0.00     0.210 HD
ENDBRANCH   5  19
BRANCH   3  21
HETATM   21  C8  UNL     1      -7.077 -87.619  92.163  1.00  0.00     0.216 C 
BRANCH  21  22
HETATM   22  O2  UNL     1      -8.182 -87.904  92.923  1.00  0.00    -0.287 OA
BRANCH  22  23
HETATM   23  P1  UNL     1      -9.537 -87.271  92.092  1.00  0.00     0.418 P 
HETATM   24  O3  UNL     1      -9.144 -87.065  90.653  1.00  0.00    -0.624 OA
HETATM   25  O4  UNL     1      -9.987 -85.776  92.719  1.00  0.00    -0.624 OA
BRANCH  23  26
HETATM   26  O5  UNL     1     -10.787 -88.376  92.185  1.00  0.00    -0.173 OA
BRANCH  26  27
HETATM   27  P2  UNL     1     -11.862 -88.074  93.429  1.00  0.00     0.431 P 
HETATM   28  O6  UNL     1     -12.651 -86.798  93.203  1.00  0.00    -0.616 OA
HETATM   29  O7  UNL     1     -11.084 -87.904  94.926  1.00  0.00    -0.616 OA
HETATM   30  O8  UNL     1     -12.913 -89.414  93.539  1.00  0.00    -0.616 OA
ENDBRANCH  26  27
ENDBRANCH  23  26
ENDBRANCH  22  23
ENDBRANCH  21  22
ENDBRANCH   3  21
BRANCH   4  31
HETATM   31  O9  UNL     1      -7.448 -84.646  91.310  1.00  0.00    -0.390 OA
ATOM     32  H9  UNL     1      -7.669 -84.493  90.399  1.00  0.00     0.210 HD
ENDBRANCH   4  31
TORSDOF 8
ENDMDL
