MODEL 1
REMARK VINA RESULT: -9.315483601      0.000      0.000
REMARK  8 active torsions:
REMARK  status: ('A' for Active; 'I' for Inactive)
REMARK    1  A    between atoms: N5_13  and  C6_14 
REMARK    2  A    between atoms: C7_16  and  C8_17 
REMARK    3  A    between atoms: C8_17  and  O2_18 
REMARK    4  A    between atoms: O2_18  and  P1_19 
REMARK    5  A    between atoms: P1_19  and  O5_22 
REMARK    6  A    between atoms: O5_22  and  P2_23 
REMARK    7  A    between atoms: C9_27  and  O9_28 
REMARK    8  A    between atoms: C10_30  and  O10_31 
ROOT
HETATM    1  C6  UNL     1      -4.216 -85.345  92.255  1.00  0.00     0.262 C 
HETATM    2  O1  UNL     1      -4.551 -86.327  93.165  1.00  0.00    -0.353 OA
HETATM    3  C7  UNL     1      -5.822 -86.756  92.922  1.00  0.00     0.180 C 
HETATM    4  C9  UNL     1      -6.200 -86.282  91.540  1.00  0.00     0.182 C 
HETATM    5  C10 UNL     1      -5.479 -84.927  91.572  1.00  0.00     0.198 C 
ENDROOT
BRANCH   1   6
HETATM    6  N5  UNL     1      -3.202 -85.843  91.384  1.00  0.00    -0.297 N 
HETATM    7  C3  UNL     1      -1.941 -86.199  91.683  1.00  0.00     0.142 A 
HETATM    8  N3  UNL     1      -1.258 -86.204  92.826  1.00  0.00    -0.336 N 
HETATM    9  C4  UNL     1      -1.313 -86.622  90.546  1.00  0.00     0.119 A 
HETATM   10  C2  UNL     1       0.022 -86.613  92.876  1.00  0.00     0.183 A 
ATOM     11  H3  UNL     1      -1.716 -85.891  93.683  1.00  0.00     0.168 HD
HETATM   12  N2  UNL     1       0.652 -87.029  91.775  1.00  0.00    -0.339 N 
HETATM   13  C1  UNL     1       0.001 -87.039  90.609  1.00  0.00     0.148 A 
ATOM     14  H2  UNL     1       1.623 -87.337  91.824  1.00  0.00     0.167 HD
HETATM   15  N1  UNL     1       0.605 -87.466  89.406  1.00  0.00    -0.080 NA
HETATM   16  N4  UNL     1      -2.195 -86.522  89.558  1.00  0.00    -0.346 N 
HETATM   17  C5  UNL     1      -3.329 -86.054  90.061  1.00  0.00     0.188 A 
ATOM     18  H4  UNL     1      -2.029 -86.763  88.582  1.00  0.00     0.167 HD
ENDBRANCH   1   6
BRANCH   5  19
HETATM   19  O10 UNL     1      -6.200 -84.131  92.471  1.00  0.00    -0.388 OA
ATOM     20  H10 UNL     1      -6.632 -83.452  91.967  1.00  0.00     0.210 HD
ENDBRANCH   5  19
BRANCH   3  21
HETATM   21  C8  UNL     1      -6.050 -88.221  93.120  1.00  0.00     0.216 C 
BRANCH  21  22
HETATM   22  O2  UNL     1      -6.517 -88.557  94.364  1.00  0.00    -0.287 OA
BRANCH  22  23
HETATM   23  P1  UNL     1      -8.220 -88.665  94.247  1.00  0.00     0.418 P 
HETATM   24  O3  UNL     1      -8.753 -89.080  95.593  1.00  0.00    -0.624 OA
HETATM   25  O4  UNL     1      -8.676 -89.840  93.131  1.00  0.00    -0.624 OA
BRANCH  23  26
HETATM   26  O5  UNL     1      -8.826 -87.162  93.837  1.00  0.00    -0.173 OA
BRANCH  26  27
HETATM   27  P2  UNL     1     -10.445 -86.965  94.207  1.00  0.00     0.431 P 
HETATM   28  O6  UNL     1     -10.649 -86.498  95.636  1.00  0.00    -0.616 OA
HETATM   29  O7  UNL     1     -11.325 -88.404  94.038  1.00  0.00    -0.616 OA
HETATM   30  O8  UNL     1     -11.090 -85.829  93.110  1.00  0.00    -0.616 OA
ENDBRANCH  26  27
ENDBRANCH  23  26
ENDBRANCH  22  23
ENDBRANCH  21  22
ENDBRANCH   3  21
BRANCH   4  31
HETATM   31  O9  UNL     1      -7.556 -86.140  91.358  1.00  0.00    -0.390 OA
ATOM     32  H9  UNL     1      -8.050 -86.929  91.545  1.00  0.00     0.210 HD
ENDBRANCH   4  31
TORSDOF 8
ENDMDL
