MODEL 2
REMARK VINA RESULT: -9.252271164      0.506      1.041
REMARK  8 active torsions:
REMARK  status: ('A' for Active; 'I' for Inactive)
REMARK    1  A    between atoms: N5_13  and  C6_14 
REMARK    2  A    between atoms: C7_16  and  C8_17 
REMARK    3  A    between atoms: C8_17  and  O2_18 
REMARK    4  A    between atoms: O2_18  and  P1_19 
REMARK    5  A    between atoms: P1_19  and  O5_22 
REMARK    6  A    between atoms: O5_22  and  P2_23 
REMARK    7  A    between atoms: C9_27  and  O9_28 
REMARK    8  A    between atoms: C10_30  and  O10_31 
ROOT
HETATM    1  C6  UNL     1      -4.298 -85.335  92.345  1.00  0.00     0.262 C 
HETATM    2  O1  UNL     1      -4.655 -86.360  93.198  1.00  0.00    -0.353 OA
HETATM    3  C7  UNL     1      -5.918 -86.779  92.900  1.00  0.00     0.180 C 
HETATM    4  C9  UNL     1      -6.261 -86.239  91.532  1.00  0.00     0.182 C 
HETATM    5  C10 UNL     1      -5.544 -84.887  91.649  1.00  0.00     0.198 C 
ENDROOT
BRANCH   1   6
HETATM    6  N5  UNL     1      -3.260 -85.791  91.479  1.00  0.00    -0.297 N 
HETATM    7  C3  UNL     1      -2.006 -86.156  91.794  1.00  0.00     0.142 A 
HETATM    8  N3  UNL     1      -1.354 -86.213  92.954  1.00  0.00    -0.336 N 
HETATM    9  C4  UNL     1      -1.347 -86.525  90.655  1.00  0.00     0.119 A 
HETATM   10  C2  UNL     1      -0.073 -86.621  93.018  1.00  0.00     0.183 A 
ATOM     11  H3  UNL     1      -1.835 -85.941  93.811  1.00  0.00     0.168 HD
HETATM   12  N2  UNL     1       0.586 -86.984  91.916  1.00  0.00    -0.339 N 
HETATM   13  C1  UNL     1      -0.034 -86.942  90.734  1.00  0.00     0.148 A 
ATOM     14  H2  UNL     1       1.556 -87.292  91.976  1.00  0.00     0.167 HD
HETATM   15  N1  UNL     1       0.603 -87.311  89.529  1.00  0.00    -0.080 NA
HETATM   16  N4  UNL     1      -2.203 -86.381  89.651  1.00  0.00    -0.346 N 
HETATM   17  C5  UNL     1      -3.352 -85.940  90.145  1.00  0.00     0.188 A 
ATOM     18  H4  UNL     1      -2.011 -86.576  88.669  1.00  0.00     0.167 HD
ENDBRANCH   1   6
BRANCH   5  19
HETATM   19  O10 UNL     1      -6.291 -84.136  92.565  1.00  0.00    -0.388 OA
ATOM     20  H10 UNL     1      -7.094 -84.612  92.737  1.00  0.00     0.210 HD
ENDBRANCH   5  19
BRANCH   3  21
HETATM   21  C8  UNL     1      -6.148 -88.252  93.022  1.00  0.00     0.216 C 
BRANCH  21  22
HETATM   22  O2  UNL     1      -6.367 -88.685  94.304  1.00  0.00    -0.287 OA
BRANCH  22  23
HETATM   23  P1  UNL     1      -8.061 -88.823  94.503  1.00  0.00     0.418 P 
HETATM   24  O3  UNL     1      -8.318 -89.523  95.812  1.00  0.00    -0.624 OA
HETATM   25  O4  UNL     1      -8.740 -89.757  93.280  1.00  0.00    -0.624 OA
BRANCH  23  26
HETATM   26  O5  UNL     1      -8.723 -87.289  94.543  1.00  0.00    -0.173 OA
BRANCH  26  27
HETATM   27  P2  UNL     1     -10.291 -87.217  93.968  1.00  0.00     0.431 P 
HETATM   28  O6  UNL     1     -10.347 -87.308  92.455  1.00  0.00    -0.616 OA
HETATM   29  O7  UNL     1     -11.069 -85.773  94.395  1.00  0.00    -0.616 OA
HETATM   30  O8  UNL     1     -11.159 -88.504  94.676  1.00  0.00    -0.616 OA
ENDBRANCH  26  27
ENDBRANCH  23  26
ENDBRANCH  22  23
ENDBRANCH  21  22
ENDBRANCH   3  21
BRANCH   4  31
HETATM   31  O9  UNL     1      -7.611 -86.090  91.321  1.00  0.00    -0.390 OA
ATOM     32  H9  UNL     1      -8.137 -86.772  91.721  1.00  0.00     0.210 HD
ENDBRANCH   4  31
TORSDOF 8
ENDMDL
