MODEL 4
REMARK VINA RESULT: -9.072506455      1.107      1.592
REMARK  8 active torsions:
REMARK  status: ('A' for Active; 'I' for Inactive)
REMARK    1  A    between atoms: N5_13  and  C6_14 
REMARK    2  A    between atoms: C7_16  and  C8_17 
REMARK    3  A    between atoms: C8_17  and  O2_18 
REMARK    4  A    between atoms: O2_18  and  P1_19 
REMARK    5  A    between atoms: P1_19  and  O5_22 
REMARK    6  A    between atoms: O5_22  and  P2_23 
REMARK    7  A    between atoms: C9_27  and  O9_28 
REMARK    8  A    between atoms: C10_30  and  O10_31 
ROOT
HETATM    1  C6  UNL     1      -4.291 -85.535  92.621  1.00  0.00     0.262 C 
HETATM    2  O1  UNL     1      -5.023 -86.571  93.163  1.00  0.00    -0.353 OA
HETATM    3  C7  UNL     1      -6.320 -86.473  92.753  1.00  0.00     0.180 C 
HETATM    4  C9  UNL     1      -6.351 -85.525  91.578  1.00  0.00     0.182 C 
HETATM    5  C10 UNL     1      -5.268 -84.550  92.061  1.00  0.00     0.198 C 
ENDROOT
BRANCH   1   6
HETATM    6  N5  UNL     1      -3.366 -86.064  91.672  1.00  0.00    -0.297 N 
HETATM    7  C3  UNL     1      -2.069 -86.370  91.848  1.00  0.00     0.142 A 
HETATM    8  N3  UNL     1      -1.264 -86.287  92.905  1.00  0.00    -0.336 N 
HETATM    9  C4  UNL     1      -1.559 -86.850  90.674  1.00  0.00     0.119 A 
HETATM   10  C2  UNL     1       0.026 -86.662  92.834  1.00  0.00     0.183 A 
ATOM     11  H3  UNL     1      -1.633 -85.931  93.787  1.00  0.00     0.168 HD
HETATM   12  N2  UNL     1       0.541 -87.133  91.696  1.00  0.00    -0.339 N 
HETATM   13  C1  UNL     1      -0.235 -87.232  90.614  1.00  0.00     0.148 A 
ATOM     14  H2  UNL     1       1.520 -87.415  91.654  1.00  0.00     0.167 HD
HETATM   15  N1  UNL     1       0.244 -87.721  89.378  1.00  0.00    -0.080 NA
HETATM   16  N4  UNL     1      -2.549 -86.834  89.789  1.00  0.00    -0.346 N 
HETATM   17  C5  UNL     1      -3.633 -86.361  90.388  1.00  0.00     0.188 A 
ATOM     18  H4  UNL     1      -2.485 -87.132  88.816  1.00  0.00     0.167 HD
ENDBRANCH   1   6
BRANCH   5  19
HETATM   19  O10 UNL     1      -5.831 -83.856  93.139  1.00  0.00    -0.388 OA
ATOM     20  H10 UNL     1      -5.334 -83.054  93.253  1.00  0.00     0.210 HD
ENDBRANCH   5  19
BRANCH   3  21
HETATM   21  C8  UNL     1      -7.001 -87.774  92.472  1.00  0.00     0.216 C 
BRANCH  21  22
HETATM   22  O2  UNL     1      -8.136 -87.990  93.210  1.00  0.00    -0.287 OA
BRANCH  22  23
HETATM   23  P1  UNL     1      -9.409 -88.268  92.102  1.00  0.00     0.418 P 
HETATM   24  O3  UNL     1      -9.367 -89.719  91.702  1.00  0.00    -0.624 OA
HETATM   25  O4  UNL     1      -9.211 -87.346  90.709  1.00  0.00    -0.624 OA
BRANCH  23  26
HETATM   26  O5  UNL     1     -10.861 -87.932  92.859  1.00  0.00    -0.173 OA
BRANCH  26  27
HETATM   27  P2  UNL     1     -10.914 -86.422  93.575  1.00  0.00     0.431 P 
HETATM   28  O6  UNL     1      -9.877 -85.480  92.994  1.00  0.00    -0.616 OA
HETATM   29  O7  UNL     1     -10.625 -86.490  95.244  1.00  0.00    -0.616 OA
HETATM   30  O8  UNL     1     -12.484 -85.796  93.344  1.00  0.00    -0.616 OA
ENDBRANCH  26  27
ENDBRANCH  23  26
ENDBRANCH  22  23
ENDBRANCH  21  22
ENDBRANCH   3  21
BRANCH   4  31
HETATM   31  O9  UNL     1      -7.564 -84.902  91.404  1.00  0.00    -0.390 OA
ATOM     32  H9  UNL     1      -7.659 -84.105  91.910  1.00  0.00     0.210 HD
ENDBRANCH   4  31
TORSDOF 8
ENDMDL
