MODEL 3
REMARK VINA RESULT: -9.215468521      0.954      1.140
REMARK  8 active torsions:
REMARK  status: ('A' for Active; 'I' for Inactive)
REMARK    1  A    between atoms: N5_13  and  C6_14 
REMARK    2  A    between atoms: C7_16  and  C8_17 
REMARK    3  A    between atoms: C8_17  and  O2_18 
REMARK    4  A    between atoms: O2_18  and  P1_19 
REMARK    5  A    between atoms: P1_19  and  O5_22 
REMARK    6  A    between atoms: O5_22  and  P2_23 
REMARK    7  A    between atoms: C9_27  and  O9_28 
REMARK    8  A    between atoms: C10_30  and  O10_31 
ROOT
HETATM    1  C6  UNL     1      -4.193 -85.585  92.492  1.00  0.00     0.262 C 
HETATM    2  O1  UNL     1      -4.753 -86.736  93.008  1.00  0.00    -0.353 OA
HETATM    3  C7  UNL     1      -6.034 -86.859  92.557  1.00  0.00     0.180 C 
HETATM    4  C9  UNL     1      -6.191 -85.922  91.385  1.00  0.00     0.182 C 
HETATM    5  C10 UNL     1      -5.307 -84.779  91.904  1.00  0.00     0.198 C 
ENDROOT
BRANCH   1   6
HETATM    6  N5  UNL     1      -3.162 -85.940  91.572  1.00  0.00    -0.297 N 
HETATM    7  C3  UNL     1      -1.872 -86.216  91.826  1.00  0.00     0.142 A 
HETATM    8  N3  UNL     1      -1.167 -86.247  92.956  1.00  0.00    -0.336 N 
HETATM    9  C4  UNL     1      -1.236 -86.508  90.652  1.00  0.00     0.119 A 
HETATM   10  C2  UNL     1       0.142 -86.557  92.957  1.00  0.00     0.183 A 
ATOM     11  H3  UNL     1      -1.630 -86.033  93.839  1.00  0.00     0.168 HD
HETATM   12  N2  UNL     1       0.779 -86.845  91.819  1.00  0.00    -0.339 N 
HETATM   13  C1  UNL     1       0.107 -86.824  90.666  1.00  0.00     0.148 A 
ATOM     14  H2  UNL     1       1.771 -87.079  91.832  1.00  0.00     0.167 HD
HETATM   15  N1  UNL     1       0.717 -87.117  89.426  1.00  0.00    -0.080 NA
HETATM   16  N4  UNL     1      -2.144 -86.408  89.688  1.00  0.00    -0.346 N 
HETATM   17  C5  UNL     1      -3.300 -86.068  90.240  1.00  0.00     0.188 A 
ATOM     18  H4  UNL     1      -1.979 -86.566  88.694  1.00  0.00     0.167 HD
ENDBRANCH   1   6
BRANCH   5  19
HETATM   19  O10 UNL     1      -6.014 -84.200  92.965  1.00  0.00    -0.388 OA
ATOM     20  H10 UNL     1      -5.964 -84.798  93.701  1.00  0.00     0.210 HD
ENDBRANCH   5  19
BRANCH   3  21
HETATM   21  C8  UNL     1      -6.472 -88.257  92.252  1.00  0.00     0.216 C 
BRANCH  21  22
HETATM   22  O2  UNL     1      -7.471 -88.345  91.318  1.00  0.00    -0.287 OA
BRANCH  22  23
HETATM   23  P1  UNL     1      -8.929 -88.624  92.169  1.00  0.00     0.418 P 
HETATM   24  O3  UNL     1      -8.620 -89.525  93.335  1.00  0.00    -0.624 OA
HETATM   25  O4  UNL     1     -10.055 -89.410  91.198  1.00  0.00    -0.624 OA
BRANCH  23  26
HETATM   26  O5  UNL     1      -9.514 -87.160  92.725  1.00  0.00    -0.173 OA
BRANCH  26  27
HETATM   27  P2  UNL     1     -10.408 -87.282  94.132  1.00  0.00     0.431 P 
HETATM   28  O6  UNL     1      -9.536 -87.585  95.336  1.00  0.00    -0.616 OA
HETATM   29  O7  UNL     1     -11.569 -88.515  94.053  1.00  0.00    -0.616 OA
HETATM   30  O8  UNL     1     -11.232 -85.804  94.350  1.00  0.00    -0.616 OA
ENDBRANCH  26  27
ENDBRANCH  23  26
ENDBRANCH  22  23
ENDBRANCH  21  22
ENDBRANCH   3  21
BRANCH   4  31
HETATM   31  O9  UNL     1      -7.487 -85.516  91.173  1.00  0.00    -0.390 OA
ATOM     32  H9  UNL     1      -7.605 -85.022  90.371  1.00  0.00     0.210 HD
ENDBRANCH   4  31
TORSDOF 8
ENDMDL
