MODEL 11
REMARK VINA RESULT: -7.938558767      4.705      7.586
REMARK  8 active torsions:
REMARK  status: ('A' for Active; 'I' for Inactive)
REMARK    1  A    between atoms: N5_13  and  C6_14 
REMARK    2  A    between atoms: C7_16  and  C8_17 
REMARK    3  A    between atoms: C8_17  and  O2_18 
REMARK    4  A    between atoms: O2_18  and  P1_19 
REMARK    5  A    between atoms: P1_19  and  O5_22 
REMARK    6  A    between atoms: O5_22  and  P2_23 
REMARK    7  A    between atoms: C9_27  and  O9_28 
REMARK    8  A    between atoms: C10_30  and  O10_31 
ROOT
HETATM    1  C6  UNL     1      -7.183 -86.838  91.905  1.00  0.00     0.262 C 
HETATM    2  O1  UNL     1      -6.110 -87.096  91.076  1.00  0.00    -0.353 OA
HETATM    3  C7  UNL     1      -5.159 -86.136  91.253  1.00  0.00     0.180 C 
HETATM    4  C9  UNL     1      -5.479 -85.417  92.541  1.00  0.00     0.182 C 
HETATM    5  C10 UNL     1      -7.010 -85.448  92.431  1.00  0.00     0.198 C 
ENDROOT
BRANCH   1   6
HETATM    6  N5  UNL     1      -7.253 -87.852  92.906  1.00  0.00    -0.297 N 
HETATM    7  C3  UNL     1      -6.999 -89.166  92.787  1.00  0.00     0.142 A 
HETATM    8  N3  UNL     1      -6.618 -89.915  91.754  1.00  0.00    -0.336 N 
HETATM    9  C4  UNL     1      -7.189 -89.771  93.997  1.00  0.00     0.119 A 
HETATM   10  C2  UNL     1      -6.423 -91.240  91.884  1.00  0.00     0.183 A 
ATOM     11  H3  UNL     1      -6.472 -89.475  90.845  1.00  0.00     0.168 HD
HETATM   12  N2  UNL     1      -6.605 -91.848  93.058  1.00  0.00    -0.339 N 
HETATM   13  C1  UNL     1      -6.985 -91.130  94.118  1.00  0.00     0.148 A 
ATOM     14  H2  UNL     1      -6.453 -92.852  93.145  1.00  0.00     0.167 HD
HETATM   15  N1  UNL     1      -7.196 -91.708  95.389  1.00  0.00    -0.080 NA
HETATM   16  N4  UNL     1      -7.559 -88.821  94.848  1.00  0.00    -0.346 N 
HETATM   17  C5  UNL     1      -7.597 -87.670  94.194  1.00  0.00     0.188 A 
ATOM     18  H4  UNL     1      -7.776 -88.956  95.836  1.00  0.00     0.167 HD
ENDBRANCH   1   6
BRANCH   5  19
HETATM   19  O10 UNL     1      -7.337 -84.563  91.396  1.00  0.00    -0.388 OA
ATOM     20  H10 UNL     1      -6.549 -84.414  90.888  1.00  0.00     0.210 HD
ENDBRANCH   5  19
BRANCH   3  21
HETATM   21  C8  UNL     1      -3.745 -86.618  91.189  1.00  0.00     0.216 C 
BRANCH  21  22
HETATM   22  O2  UNL     1      -2.804 -85.623  91.252  1.00  0.00    -0.287 OA
BRANCH  22  23
HETATM   23  P1  UNL     1      -1.338 -86.350  91.752  1.00  0.00     0.418 P 
HETATM   24  O3  UNL     1      -1.582 -87.020  93.079  1.00  0.00    -0.624 OA
HETATM   25  O4  UNL     1      -0.135 -85.195  91.974  1.00  0.00    -0.624 OA
BRANCH  23  26
HETATM   26  O5  UNL     1      -0.891 -87.491  90.616  1.00  0.00    -0.173 OA
BRANCH  26  27
HETATM   27  P2  UNL     1      -0.373 -86.833  89.169  1.00  0.00     0.431 P 
HETATM   28  O6  UNL     1       0.960 -86.124  89.310  1.00  0.00    -0.616 OA
HETATM   29  O7  UNL     1      -1.465 -85.693  88.551  1.00  0.00    -0.616 OA
HETATM   30  O8  UNL     1      -0.254 -88.105  88.037  1.00  0.00    -0.616 OA
ENDBRANCH  26  27
ENDBRANCH  23  26
ENDBRANCH  22  23
ENDBRANCH  21  22
ENDBRANCH   3  21
BRANCH   4  31
HETATM   31  O9  UNL     1      -4.993 -84.132  92.592  1.00  0.00    -0.390 OA
ATOM     32  H9  UNL     1      -4.204 -84.003  92.078  1.00  0.00     0.210 HD
ENDBRANCH   4  31
TORSDOF 8
ENDMDL
