MODEL 13
REMARK VINA RESULT: -7.909800333      4.958      6.281
REMARK  8 active torsions:
REMARK  status: ('A' for Active; 'I' for Inactive)
REMARK    1  A    between atoms: N5_13  and  C6_14 
REMARK    2  A    between atoms: C7_16  and  C8_17 
REMARK    3  A    between atoms: C8_17  and  O2_18 
REMARK    4  A    between atoms: O2_18  and  P1_19 
REMARK    5  A    between atoms: P1_19  and  O5_22 
REMARK    6  A    between atoms: O5_22  and  P2_23 
REMARK    7  A    between atoms: C9_27  and  O9_28 
REMARK    8  A    between atoms: C10_30  and  O10_31 
ROOT
HETATM    1  C6  UNL     1      -7.563 -91.719  93.196  1.00  0.00     0.262 C 
HETATM    2  O1  UNL     1      -8.426 -90.969  92.424  1.00  0.00    -0.353 OA
HETATM    3  C7  UNL     1      -8.234 -89.644  92.686  1.00  0.00     0.180 C 
HETATM    4  C9  UNL     1      -6.912 -89.514  93.402  1.00  0.00     0.182 C 
HETATM    5  C10 UNL     1      -6.987 -90.804  94.230  1.00  0.00     0.198 C 
ENDROOT
BRANCH   1   6
HETATM    6  N5  UNL     1      -6.600 -92.341  92.346  1.00  0.00    -0.297 N 
HETATM    7  C3  UNL     1      -6.657 -92.537  91.018  1.00  0.00     0.142 A 
HETATM    8  N3  UNL     1      -7.579 -92.232  90.106  1.00  0.00    -0.336 N 
HETATM    9  C4  UNL     1      -5.519 -93.173  90.609  1.00  0.00     0.119 A 
HETATM   10  C2  UNL     1      -7.406 -92.538  88.807  1.00  0.00     0.183 A 
ATOM     11  H3  UNL     1      -8.432 -91.756  90.398  1.00  0.00     0.168 HD
HETATM   12  N2  UNL     1      -6.301 -93.159  88.390  1.00  0.00    -0.339 N 
HETATM   13  C1  UNL     1      -5.354 -93.481  89.274  1.00  0.00     0.148 A 
ATOM     14  H2  UNL     1      -6.181 -93.385  87.403  1.00  0.00     0.167 HD
HETATM   15  N1  UNL     1      -4.160 -94.139  88.903  1.00  0.00    -0.080 NA
HETATM   16  N4  UNL     1      -4.773 -93.362  91.692  1.00  0.00    -0.346 N 
HETATM   17  C5  UNL     1      -5.422 -92.863  92.734  1.00  0.00     0.188 A 
ATOM     18  H4  UNL     1      -3.859 -93.813  91.716  1.00  0.00     0.167 HD
ENDBRANCH   1   6
BRANCH   5  19
HETATM   19  O10 UNL     1      -7.978 -90.582  95.194  1.00  0.00    -0.388 OA
ATOM     20  H10 UNL     1      -7.665 -89.897  95.773  1.00  0.00     0.210 HD
ENDBRANCH   5  19
BRANCH   3  21
HETATM   21  C8  UNL     1      -8.352 -88.736  91.503  1.00  0.00     0.216 C 
BRANCH  21  22
HETATM   22  O2  UNL     1      -7.795 -87.497  91.684  1.00  0.00    -0.287 OA
BRANCH  22  23
HETATM   23  P1  UNL     1      -9.080 -86.368  91.707  1.00  0.00     0.418 P 
HETATM   24  O3  UNL     1      -9.296 -85.881  90.299  1.00  0.00    -0.624 OA
HETATM   25  O4  UNL     1      -8.698 -85.034  92.658  1.00  0.00    -0.624 OA
BRANCH  23  26
HETATM   26  O5  UNL     1     -10.459 -87.137  92.257  1.00  0.00    -0.173 OA
BRANCH  26  27
HETATM   27  P2  UNL     1     -10.653 -87.069  93.916  1.00  0.00     0.431 P 
HETATM   28  O6  UNL     1     -11.312 -85.777  94.359  1.00  0.00    -0.616 OA
HETATM   29  O7  UNL     1      -9.176 -87.167  94.742  1.00  0.00    -0.616 OA
HETATM   30  O8  UNL     1     -11.599 -88.411  94.381  1.00  0.00    -0.616 OA
ENDBRANCH  26  27
ENDBRANCH  23  26
ENDBRANCH  22  23
ENDBRANCH  21  22
ENDBRANCH   3  21
BRANCH   4  31
HETATM   31  O9  UNL     1      -6.823 -88.395  94.196  1.00  0.00    -0.390 OA
ATOM     32  H9  UNL     1      -5.950 -88.025  94.237  1.00  0.00     0.210 HD
ENDBRANCH   4  31
TORSDOF 8
ENDMDL
