MODEL 1
REMARK VINA RESULT: -7.547110316      0.000      0.000
REMARK  7 active torsions:
REMARK  status: ('A' for Active; 'I' for Inactive)
REMARK       I    between atoms: C2_2  and  N1_4 
REMARK    1  A    between atoms: N1_4  and  C3_6 
REMARK    2  A    between atoms: C4_7  and  O2_8 
REMARK    3  A    between atoms: C5_11  and  C6_12 
REMARK    4  A    between atoms: C6_12  and  O4_13 
REMARK    5  A    between atoms: O4_13  and  P1_14 
REMARK    6  A    between atoms: C7_18  and  O8_19 
REMARK    7  A    between atoms: C8_21  and  O9_22 
ROOT
HETATM    1  C3  UNL     1     -41.447  -8.034  23.814  1.00  0.00     0.170 C 
HETATM    2  C4  UNL     1     -41.027  -9.278  24.517  1.00  0.00     0.282 C 
HETATM    3  O3  UNL     1     -41.824 -10.358  24.436  1.00  0.00    -0.349 OA
HETATM    4  C5  UNL     1     -43.167 -10.223  24.544  1.00  0.00     0.180 C 
HETATM    5  C7  UNL     1     -43.687  -8.828  24.305  1.00  0.00     0.180 C 
HETATM    6  C8  UNL     1     -42.849  -8.201  23.246  1.00  0.00     0.177 C 
ENDROOT
BRANCH   4   7
HETATM    7  C6  UNL     1     -43.966 -11.153  23.651  1.00  0.00     0.217 C 
BRANCH   7   8
HETATM    8  O4  UNL     1     -45.292 -10.786  23.646  1.00  0.00    -0.280 OA
BRANCH   8   9
HETATM    9  P1  UNL     1     -46.166 -12.050  24.486  1.00  0.00     0.422 P 
HETATM   10  O5  UNL     1     -45.419 -13.559  24.137  1.00  0.00    -0.617 OA
HETATM   11  O6  UNL     1     -47.772 -12.043  24.011  1.00  0.00    -0.617 OA
HETATM   12  O7  UNL     1     -46.053 -11.722  26.199  1.00  0.00    -0.617 OA
ENDBRANCH   8   9
ENDBRANCH   7   8
ENDBRANCH   4   7
BRANCH   5  13
HETATM   13  O8  UNL     1     -43.630  -8.148  25.493  1.00  0.00    -0.390 OA
ATOM     14  H8  UNL     1     -44.080  -7.319  25.377  1.00  0.00     0.210 HD
ENDBRANCH   5  13
BRANCH   2  15
HETATM   15  O2  UNL     1     -40.858  -8.950  25.880  1.00  0.00    -0.369 OA
ATOM     16  H2  UNL     1     -40.013  -9.292  26.148  1.00  0.00     0.212 HD
ENDBRANCH   2  15
BRANCH   6  17
HETATM   17  O9  UNL     1     -42.698  -9.019  22.127  1.00  0.00    -0.391 OA
ATOM     18  H9  UNL     1     -43.551  -9.413  21.987  1.00  0.00     0.210 HD
ENDBRANCH   6  17
BRANCH   1  19
HETATM   19  N1  UNL     1     -41.333  -6.844  24.619  1.00  0.00    -0.349 N 
HETATM   20  C2  UNL     1     -40.495  -5.787  24.185  1.00  0.00     0.214 C 
HETATM   21  C1  UNL     1     -40.354  -4.553  24.986  1.00  0.00     0.117 C 
HETATM   22  O1  UNL     1     -39.830  -5.850  23.096  1.00  0.00    -0.274 OA
ATOM     23  H1  UNL     1     -41.850  -6.764  25.494  1.00  0.00     0.163 HD
ENDBRANCH   1  19
TORSDOF 7
ENDMDL
