MODEL 5
REMARK VINA RESULT: -6.392495486      2.869      6.461
REMARK  7 active torsions:
REMARK  status: ('A' for Active; 'I' for Inactive)
REMARK       I    between atoms: C2_2  and  N1_4 
REMARK    1  A    between atoms: N1_4  and  C3_6 
REMARK    2  A    between atoms: C4_7  and  O2_8 
REMARK    3  A    between atoms: C5_11  and  C6_12 
REMARK    4  A    between atoms: C6_12  and  O4_13 
REMARK    5  A    between atoms: O4_13  and  P1_14 
REMARK    6  A    between atoms: C7_18  and  O8_19 
REMARK    7  A    between atoms: C8_21  and  O9_22 
ROOT
HETATM    1  C3  UNL     1     -43.515 -10.589  23.927  1.00  0.00     0.170 C 
HETATM    2  C4  UNL     1     -43.824  -9.723  22.755  1.00  0.00     0.282 C 
HETATM    3  O3  UNL     1     -43.033  -8.662  22.518  1.00  0.00    -0.349 OA
HETATM    4  C5  UNL     1     -42.616  -7.882  23.543  1.00  0.00     0.180 C 
HETATM    5  C7  UNL     1     -42.708  -8.520  24.906  1.00  0.00     0.180 C 
HETATM    6  C8  UNL     1     -42.400  -9.969  24.756  1.00  0.00     0.177 C 
ENDROOT
BRANCH   4   7
HETATM    7  C6  UNL     1     -41.202  -7.354  23.396  1.00  0.00     0.217 C 
BRANCH   7   8
HETATM    8  O4  UNL     1     -40.651  -7.115  24.633  1.00  0.00    -0.280 OA
BRANCH   8   9
HETATM    9  P1  UNL     1     -40.202  -5.423  24.666  1.00  0.00     0.422 P 
HETATM   10  O5  UNL     1     -39.390  -5.098  26.146  1.00  0.00    -0.617 OA
HETATM   11  O6  UNL     1     -41.568  -4.468  24.501  1.00  0.00    -0.617 OA
HETATM   12  O7  UNL     1     -39.114  -5.139  23.326  1.00  0.00    -0.617 OA
ENDBRANCH   8   9
ENDBRANCH   7   8
ENDBRANCH   4   7
BRANCH   5  13
HETATM   13  O8  UNL     1     -43.970  -8.297  25.391  1.00  0.00    -0.390 OA
ATOM     14  H8  UNL     1     -43.900  -7.690  26.119  1.00  0.00     0.210 HD
ENDBRANCH   5  13
BRANCH   2  15
HETATM   15  O2  UNL     1     -45.150  -9.265  22.912  1.00  0.00    -0.369 OA
ATOM     16  H2  UNL     1     -45.123  -8.316  22.898  1.00  0.00     0.212 HD
ENDBRANCH   2  15
BRANCH   6  17
HETATM   17  O9  UNL     1     -41.232 -10.198  24.031  1.00  0.00    -0.391 OA
ATOM     18  H9  UNL     1     -41.364 -11.033  23.598  1.00  0.00     0.210 HD
ENDBRANCH   6  17
BRANCH   1  19
HETATM   19  N1  UNL     1     -44.667 -10.909  24.732  1.00  0.00    -0.349 N 
HETATM   20  C2  UNL     1     -45.472 -12.023  24.385  1.00  0.00     0.214 C 
HETATM   21  C1  UNL     1     -46.660 -12.380  25.188  1.00  0.00     0.117 C 
HETATM   22  O1  UNL     1     -45.211 -12.761  23.375  1.00  0.00    -0.274 OA
ATOM     23  H1  UNL     1     -44.902 -10.339  25.545  1.00  0.00     0.163 HD
ENDBRANCH   1  19
TORSDOF 7
ENDMDL
