MODEL 17
REMARK VINA RESULT: -4.375758091      1.416      1.702
REMARK  7 active torsions:
REMARK  status: ('A' for Active; 'I' for Inactive)
REMARK       I    between atoms: C2_2  and  N1_4 
REMARK    1  A    between atoms: N1_4  and  C3_6 
REMARK    2  A    between atoms: C4_7  and  O2_8 
REMARK    3  A    between atoms: C5_11  and  C6_12 
REMARK    4  A    between atoms: C6_12  and  O4_13 
REMARK    5  A    between atoms: O4_13  and  P1_14 
REMARK    6  A    between atoms: C7_18  and  O8_19 
REMARK    7  A    between atoms: C8_21  and  O9_22 
ROOT
HETATM    1  C3  UNL     1     -40.846  -7.412  23.796  1.00  0.00     0.170 C 
HETATM    2  C4  UNL     1     -41.597  -7.960  24.960  1.00  0.00     0.282 C 
HETATM    3  O3  UNL     1     -42.483  -8.947  24.740  1.00  0.00    -0.349 OA
HETATM    4  C5  UNL     1     -43.308  -8.896  23.668  1.00  0.00     0.180 C 
HETATM    5  C7  UNL     1     -42.866  -7.963  22.569  1.00  0.00     0.180 C 
HETATM    6  C8  UNL     1     -41.379  -8.007  22.501  1.00  0.00     0.177 C 
ENDROOT
BRANCH   4   7
HETATM    7  C6  UNL     1     -43.584 -10.240  23.022  1.00  0.00     0.217 C 
BRANCH   7   8
HETATM    8  O4  UNL     1     -43.577 -11.236  23.971  1.00  0.00    -0.280 OA
BRANCH   8   9
HETATM    9  P1  UNL     1     -45.240 -11.743  24.181  1.00  0.00     0.422 P 
HETATM   10  O5  UNL     1     -45.320 -13.451  24.000  1.00  0.00    -0.617 OA
HETATM   11  O6  UNL     1     -46.217 -10.967  23.063  1.00  0.00    -0.617 OA
HETATM   12  O7  UNL     1     -45.726 -11.302  25.801  1.00  0.00    -0.617 OA
ENDBRANCH   8   9
ENDBRANCH   7   8
ENDBRANCH   4   7
BRANCH   5  13
HETATM   13  O8  UNL     1     -43.343  -6.713  22.861  1.00  0.00    -0.390 OA
ATOM     14  H8  UNL     1     -44.244  -6.804  23.150  1.00  0.00     0.210 HD
ENDBRANCH   5  13
BRANCH   2  15
HETATM   15  O2  UNL     1     -42.274  -6.880  25.565  1.00  0.00    -0.369 OA
ATOM     16  H2  UNL     1     -43.205  -7.067  25.513  1.00  0.00     0.212 HD
ENDBRANCH   2  15
BRANCH   6  17
HETATM   17  O9  UNL     1     -40.881  -9.309  22.461  1.00  0.00    -0.391 OA
ATOM     18  H9  UNL     1     -40.146  -9.278  21.860  1.00  0.00     0.210 HD
ENDBRANCH   6  17
BRANCH   1  19
HETATM   19  N1  UNL     1     -40.812  -5.972  23.751  1.00  0.00    -0.349 N 
HETATM   20  C2  UNL     1     -40.113  -5.259  24.756  1.00  0.00     0.214 C 
HETATM   21  C1  UNL     1     -40.058  -3.782  24.741  1.00  0.00     0.117 C 
HETATM   22  O1  UNL     1     -39.504  -5.852  25.710  1.00  0.00    -0.274 OA
ATOM     23  H1  UNL     1     -41.289  -5.470  23.002  1.00  0.00     0.163 HD
ENDBRANCH   1  19
TORSDOF 7
ENDMDL
