MODEL 13
REMARK VINA RESULT: -5.143105382      1.237      2.132
REMARK  7 active torsions:
REMARK  status: ('A' for Active; 'I' for Inactive)
REMARK       I    between atoms: C2_2  and  N1_4 
REMARK    1  A    between atoms: N1_4  and  C3_6 
REMARK    2  A    between atoms: C4_7  and  O2_8 
REMARK    3  A    between atoms: C5_11  and  C6_12 
REMARK    4  A    between atoms: C6_12  and  O4_13 
REMARK    5  A    between atoms: O4_13  and  P1_14 
REMARK    6  A    between atoms: C7_18  and  O8_19 
REMARK    7  A    between atoms: C8_21  and  O9_22 
ROOT
HETATM    1  C3  UNL     1     -41.338  -8.058  25.183  1.00  0.00     0.170 C 
HETATM    2  C4  UNL     1     -42.591  -8.216  25.973  1.00  0.00     0.282 C 
HETATM    3  O3  UNL     1     -43.487  -9.136  25.574  1.00  0.00    -0.349 OA
HETATM    4  C5  UNL     1     -43.774  -9.280  24.259  1.00  0.00     0.180 C 
HETATM    5  C7  UNL     1     -42.748  -8.704  23.316  1.00  0.00     0.180 C 
HETATM    6  C8  UNL     1     -41.403  -8.908  23.923  1.00  0.00     0.177 C 
ENDROOT
BRANCH   4   7
HETATM    7  C6  UNL     1     -44.023 -10.711  23.822  1.00  0.00     0.217 C 
BRANCH   7   8
HETATM    8  O4  UNL     1     -45.310 -10.852  23.360  1.00  0.00    -0.280 OA
BRANCH   8   9
HETATM    9  P1  UNL     1     -46.101 -12.002  24.417  1.00  0.00     0.422 P 
HETATM   10  O5  UNL     1     -47.775 -12.049  24.024  1.00  0.00    -0.617 OA
HETATM   11  O6  UNL     1     -45.865 -11.563  26.016  1.00  0.00    -0.617 OA
HETATM   12  O7  UNL     1     -45.386 -13.570  24.121  1.00  0.00    -0.617 OA
ENDBRANCH   8   9
ENDBRANCH   7   8
ENDBRANCH   4   7
BRANCH   5  13
HETATM   13  O8  UNL     1     -43.045  -7.381  23.127  1.00  0.00    -0.390 OA
ATOM     14  H8  UNL     1     -42.237  -6.927  22.916  1.00  0.00     0.210 HD
ENDBRANCH   5  13
BRANCH   2  15
HETATM   15  O2  UNL     1     -43.228  -6.957  26.002  1.00  0.00    -0.369 OA
ATOM     16  H2  UNL     1     -43.955  -6.995  25.390  1.00  0.00     0.212 HD
ENDBRANCH   2  15
BRANCH   6  17
HETATM   17  O9  UNL     1     -41.201 -10.219  24.352  1.00  0.00    -0.391 OA
ATOM     18  H9  UNL     1     -40.325 -10.446  24.061  1.00  0.00     0.210 HD
ENDBRANCH   6  17
BRANCH   1  19
HETATM   19  N1  UNL     1     -41.006  -6.687  24.888  1.00  0.00    -0.349 N 
HETATM   20  C2  UNL     1     -40.181  -5.962  25.784  1.00  0.00     0.214 C 
HETATM   21  C1  UNL     1     -39.820  -4.554  25.513  1.00  0.00     0.117 C 
HETATM   22  O1  UNL     1     -39.716  -6.484  26.854  1.00  0.00    -0.274 OA
ATOM     23  H1  UNL     1     -41.362  -6.242  24.042  1.00  0.00     0.163 HD
ENDBRANCH   1  19
TORSDOF 7
ENDMDL
