MODEL 11
REMARK VINA RESULT: -5.192944359      1.226      2.138
REMARK  7 active torsions:
REMARK  status: ('A' for Active; 'I' for Inactive)
REMARK       I    between atoms: C2_2  and  N1_4 
REMARK    1  A    between atoms: N1_4  and  C3_6 
REMARK    2  A    between atoms: C4_7  and  O2_8 
REMARK    3  A    between atoms: C5_11  and  C6_12 
REMARK    4  A    between atoms: C6_12  and  O4_13 
REMARK    5  A    between atoms: O4_13  and  P1_14 
REMARK    6  A    between atoms: C7_18  and  O8_19 
REMARK    7  A    between atoms: C8_21  and  O9_22 
ROOT
HETATM    1  C3  UNL     1     -41.338  -8.045  25.193  1.00  0.00     0.170 C 
HETATM    2  C4  UNL     1     -42.602  -8.184  25.970  1.00  0.00     0.282 C 
HETATM    3  O3  UNL     1     -43.498  -9.105  25.573  1.00  0.00    -0.349 OA
HETATM    4  C5  UNL     1     -43.770  -9.267  24.256  1.00  0.00     0.180 C 
HETATM    5  C7  UNL     1     -42.729  -8.711  23.319  1.00  0.00     0.180 C 
HETATM    6  C8  UNL     1     -41.393  -8.914  23.944  1.00  0.00     0.177 C 
ENDROOT
BRANCH   4   7
HETATM    7  C6  UNL     1     -44.022 -10.702  23.838  1.00  0.00     0.217 C 
BRANCH   7   8
HETATM    8  O4  UNL     1     -45.314 -10.849  23.389  1.00  0.00    -0.280 OA
BRANCH   8   9
HETATM    9  P1  UNL     1     -46.079 -12.028  24.434  1.00  0.00     0.422 P 
HETATM   10  O5  UNL     1     -45.874 -11.530  26.066  1.00  0.00    -0.617 OA
HETATM   11  O6  UNL     1     -45.409 -13.540  24.171  1.00  0.00    -0.617 OA
HETATM   12  O7  UNL     1     -47.782 -12.057  24.039  1.00  0.00    -0.617 OA
ENDBRANCH   8   9
ENDBRANCH   7   8
ENDBRANCH   4   7
BRANCH   5  13
HETATM   13  O8  UNL     1     -43.016  -7.389  23.106  1.00  0.00    -0.390 OA
ATOM     14  H8  UNL     1     -43.905  -7.332  22.776  1.00  0.00     0.210 HD
ENDBRANCH   5  13
BRANCH   2  15
HETATM   15  O2  UNL     1     -43.231  -6.921  25.972  1.00  0.00    -0.369 OA
ATOM     16  H2  UNL     1     -43.878  -6.931  26.669  1.00  0.00     0.212 HD
ENDBRANCH   2  15
BRANCH   6  17
HETATM   17  O9  UNL     1     -41.204 -10.219  24.395  1.00  0.00    -0.391 OA
ATOM     18  H9  UNL     1     -41.480 -10.776  23.676  1.00  0.00     0.210 HD
ENDBRANCH   6  17
BRANCH   1  19
HETATM   19  N1  UNL     1     -40.994  -6.681  24.882  1.00  0.00    -0.349 N 
HETATM   20  C2  UNL     1     -40.168  -5.951  25.772  1.00  0.00     0.214 C 
HETATM   21  C1  UNL     1     -39.795  -4.549  25.485  1.00  0.00     0.117 C 
HETATM   22  O1  UNL     1     -39.712  -6.463  26.850  1.00  0.00    -0.274 OA
ATOM     23  H1  UNL     1     -41.343  -6.244  24.029  1.00  0.00     0.163 HD
ENDBRANCH   1  19
TORSDOF 7
ENDMDL
