MODEL 6
REMARK VINA RESULT: -6.331796014      2.872      6.467
REMARK  7 active torsions:
REMARK  status: ('A' for Active; 'I' for Inactive)
REMARK       I    between atoms: C2_2  and  N1_4 
REMARK    1  A    between atoms: N1_4  and  C3_6 
REMARK    2  A    between atoms: C4_7  and  O2_8 
REMARK    3  A    between atoms: C5_11  and  C6_12 
REMARK    4  A    between atoms: C6_12  and  O4_13 
REMARK    5  A    between atoms: O4_13  and  P1_14 
REMARK    6  A    between atoms: C7_18  and  O8_19 
REMARK    7  A    between atoms: C8_21  and  O9_22 
ROOT
HETATM    1  C3  UNL     1     -43.513 -10.595  23.933  1.00  0.00     0.170 C 
HETATM    2  C4  UNL     1     -43.822  -9.733  22.757  1.00  0.00     0.282 C 
HETATM    3  O3  UNL     1     -43.031  -8.673  22.517  1.00  0.00    -0.349 OA
HETATM    4  C5  UNL     1     -42.614  -7.890  23.540  1.00  0.00     0.180 C 
HETATM    5  C7  UNL     1     -42.706  -8.523  24.905  1.00  0.00     0.180 C 
HETATM    6  C8  UNL     1     -42.397  -9.973  24.760  1.00  0.00     0.177 C 
ENDROOT
BRANCH   4   7
HETATM    7  C6  UNL     1     -41.200  -7.362  23.392  1.00  0.00     0.217 C 
BRANCH   7   8
HETATM    8  O4  UNL     1     -40.653  -7.108  24.628  1.00  0.00    -0.280 OA
BRANCH   8   9
HETATM    9  P1  UNL     1     -40.180  -5.422  24.633  1.00  0.00     0.422 P 
HETATM   10  O5  UNL     1     -41.595  -4.454  24.498  1.00  0.00    -0.617 OA
HETATM   11  O6  UNL     1     -39.118  -5.125  23.372  1.00  0.00    -0.617 OA
HETATM   12  O7  UNL     1     -39.393  -5.099  26.160  1.00  0.00    -0.617 OA
ENDBRANCH   8   9
ENDBRANCH   7   8
ENDBRANCH   4   7
BRANCH   5  13
HETATM   13  O8  UNL     1     -43.968  -8.299  25.389  1.00  0.00    -0.390 OA
ATOM     14  H8  UNL     1     -44.575  -8.813  24.869  1.00  0.00     0.210 HD
ENDBRANCH   5  13
BRANCH   2  15
HETATM   15  O2  UNL     1     -45.147  -9.275  22.912  1.00  0.00    -0.369 OA
ATOM     16  H2  UNL     1     -45.435  -8.955  22.065  1.00  0.00     0.212 HD
ENDBRANCH   2  15
BRANCH   6  17
HETATM   17  O9  UNL     1     -41.229 -10.203  24.035  1.00  0.00    -0.391 OA
ATOM     18  H9  UNL     1     -40.529 -10.196  24.678  1.00  0.00     0.210 HD
ENDBRANCH   6  17
BRANCH   1  19
HETATM   19  N1  UNL     1     -44.664 -10.913  24.738  1.00  0.00    -0.349 N 
HETATM   20  C2  UNL     1     -45.473 -12.024  24.390  1.00  0.00     0.214 C 
HETATM   21  C1  UNL     1     -46.662 -12.379  25.194  1.00  0.00     0.117 C 
HETATM   22  O1  UNL     1     -45.216 -12.761  23.379  1.00  0.00    -0.274 OA
ATOM     23  H1  UNL     1     -44.896 -10.344  25.552  1.00  0.00     0.163 HD
ENDBRANCH   1  19
TORSDOF 7
ENDMDL
