MODEL 2
REMARK VINA RESULT: -6.531587165      0.560      1.394
REMARK  7 active torsions:
REMARK  status: ('A' for Active; 'I' for Inactive)
REMARK    1  A    between atoms: C2_2  and  C3_3 
REMARK    2  A    between atoms: C3_3  and  C4_4 
REMARK    3  A    between atoms: C4_4  and  C5_5 
REMARK    4  A    between atoms: C4_4  and  C8_8 
REMARK    5  A    between atoms: C5_5  and  C6_6 
REMARK    6  A    between atoms: C8_8  and  N1_9 
REMARK    7  A    between atoms: C8_8  and  P1_13 
ROOT
HETATM    1  C8  UNL     1      22.286  -4.765   9.960  1.00  0.00     0.316 C 
ENDROOT
BRANCH   1   2
HETATM    2  C4  UNL     1      22.803  -5.957  10.747  1.00  0.00     0.030 C 
BRANCH   2   3
HETATM    3  C3  UNL     1      21.749  -6.808  11.359  1.00  0.00     0.007 C 
BRANCH   3   4
HETATM    4  C2  UNL     1      21.926  -7.060  12.833  1.00  0.00    -0.004 C 
HETATM    5  C1  UNL     1      20.568  -6.982  13.504  1.00  0.00     0.005 C 
ENDBRANCH   3   4
ENDBRANCH   2   3
BRANCH   2   6
HETATM    6  C5  UNL     1      23.896  -6.715  10.087  1.00  0.00     0.007 C 
BRANCH   6   7
HETATM    7  C6  UNL     1      23.630  -8.119   9.705  1.00  0.00    -0.004 C 
HETATM    8  C7  UNL     1      24.345  -9.030  10.723  1.00  0.00     0.005 C 
ENDBRANCH   6   7
ENDBRANCH   2   6
ENDBRANCH   1   2
BRANCH   1   9
HETATM    9  N1  UNL     1      23.404  -4.339   9.134  1.00  0.00    -0.062 N 
ATOM     10  H13 UNL     1      23.928  -5.111   8.723  1.00  0.00     0.275 HD
ATOM     11  H12 UNL     1      23.124  -3.905   8.255  1.00  0.00     0.275 HD
ATOM     12  H11 UNL     1      23.964  -3.733   9.733  1.00  0.00     0.275 HD
ENDBRANCH   1   9
BRANCH   1  13
HETATM   13  P1  UNL     1      21.502  -3.497  10.871  1.00  0.00     0.291 P 
HETATM   14  O1  UNL     1      21.585  -1.891  10.241  1.00  0.00    -0.638 OA
HETATM   15  O2  UNL     1      20.627  -3.777  12.181  1.00  0.00    -0.638 OA
HETATM   16  O3  UNL     1      22.761  -3.110  11.673  1.00  0.00    -0.638 OA
ENDBRANCH   1  13
TORSDOF 7
ENDMDL
