MODEL 16
REMARK VINA RESULT: -4.848149530      4.100      5.301
REMARK  7 active torsions:
REMARK  status: ('A' for Active; 'I' for Inactive)
REMARK    1  A    between atoms: C2_2  and  C3_3 
REMARK    2  A    between atoms: C3_3  and  C4_4 
REMARK    3  A    between atoms: C4_4  and  C5_5 
REMARK    4  A    between atoms: C4_4  and  C8_8 
REMARK    5  A    between atoms: C5_5  and  C6_6 
REMARK    6  A    between atoms: C8_8  and  N1_9 
REMARK    7  A    between atoms: C8_8  and  P1_13 
ROOT
HETATM    1  C8  UNL     1      19.382  -2.461  13.023  1.00  0.00     0.316 C 
ENDROOT
BRANCH   1   2
HETATM    2  C4  UNL     1      18.812  -3.411  14.063  1.00  0.00     0.030 C 
BRANCH   2   3
HETATM    3  C3  UNL     1      17.349  -3.288  14.288  1.00  0.00     0.007 C 
BRANCH   3   4
HETATM    4  C2  UNL     1      16.942  -3.211  15.735  1.00  0.00    -0.004 C 
HETATM    5  C1  UNL     1      15.880  -4.262  15.997  1.00  0.00     0.005 C 
ENDBRANCH   3   4
ENDBRANCH   2   3
BRANCH   2   6
HETATM    6  C5  UNL     1      19.303  -4.810  13.966  1.00  0.00     0.007 C 
BRANCH   6   7
HETATM    7  C6  UNL     1      19.870  -5.428  15.184  1.00  0.00    -0.004 C 
HETATM    8  C7  UNL     1      20.659  -6.682  14.756  1.00  0.00     0.005 C 
ENDBRANCH   6   7
ENDBRANCH   2   6
ENDBRANCH   1   2
BRANCH   1   9
HETATM    9  N1  UNL     1      18.264  -1.630  12.611  1.00  0.00    -0.062 N 
ATOM     10  H13 UNL     1      17.978  -0.948  13.313  1.00  0.00     0.275 HD
ATOM     11  H12 UNL     1      18.498  -0.957  11.881  1.00  0.00     0.275 HD
ATOM     12  H11 UNL     1      17.527  -2.283  12.347  1.00  0.00     0.275 HD
ENDBRANCH   1   9
BRANCH   1  13
HETATM   13  P1  UNL     1      20.305  -3.175  11.722  1.00  0.00     0.291 P 
HETATM   14  O1  UNL     1      21.514  -4.334  12.142  1.00  0.00    -0.638 OA
HETATM   15  O2  UNL     1      20.003  -2.887  10.178  1.00  0.00    -0.638 OA
HETATM   16  O3  UNL     1      21.452  -2.145  11.792  1.00  0.00    -0.638 OA
ENDBRANCH   1  13
TORSDOF 7
ENDMDL
