MODEL 12
REMARK VINA RESULT: -4.936245010      3.588      4.688
REMARK  7 active torsions:
REMARK  status: ('A' for Active; 'I' for Inactive)
REMARK    1  A    between atoms: C2_2  and  C3_3 
REMARK    2  A    between atoms: C3_3  and  C4_4 
REMARK    3  A    between atoms: C4_4  and  C5_5 
REMARK    4  A    between atoms: C4_4  and  C8_8 
REMARK    5  A    between atoms: C5_5  and  C6_6 
REMARK    6  A    between atoms: C8_8  and  N1_9 
REMARK    7  A    between atoms: C8_8  and  P1_13 
ROOT
HETATM    1  C8  UNL     1      23.660  -6.649  10.632  1.00  0.00     0.316 C 
ENDROOT
BRANCH   1   2
HETATM    2  C4  UNL     1      22.577  -5.766  11.229  1.00  0.00     0.030 C 
BRANCH   2   3
HETATM    3  C3  UNL     1      22.167  -4.617  10.379  1.00  0.00     0.007 C 
BRANCH   3   4
HETATM    4  C2  UNL     1      22.322  -3.269  11.032  1.00  0.00    -0.004 C 
HETATM    5  C1  UNL     1      20.947  -2.759  11.421  1.00  0.00     0.005 C 
ENDBRANCH   3   4
ENDBRANCH   2   3
BRANCH   2   6
HETATM    6  C5  UNL     1      21.448  -6.499  11.855  1.00  0.00     0.007 C 
BRANCH   6   7
HETATM    7  C6  UNL     1      21.447  -6.637  13.328  1.00  0.00    -0.004 C 
HETATM    8  C7  UNL     1      20.254  -5.830  13.878  1.00  0.00     0.005 C 
ENDBRANCH   6   7
ENDBRANCH   2   6
ENDBRANCH   1   2
BRANCH   1   9
HETATM    9  N1  UNL     1      24.171  -5.909   9.491  1.00  0.00    -0.062 N 
ATOM     10  H13 UNL     1      23.443  -5.564   8.865  1.00  0.00     0.275 HD
ATOM     11  H12 UNL     1      24.561  -4.998   9.731  1.00  0.00     0.275 HD
ATOM     12  H11 UNL     1      24.838  -6.536   9.041  1.00  0.00     0.275 HD
ENDBRANCH   1   9
BRANCH   1  13
HETATM   13  P1  UNL     1      23.237  -8.314  10.318  1.00  0.00     0.291 P 
HETATM   14  O1  UNL     1      24.191  -9.538  11.075  1.00  0.00    -0.638 OA
HETATM   15  O2  UNL     1      21.953  -8.742   9.463  1.00  0.00    -0.638 OA
HETATM   16  O3  UNL     1      24.205  -8.476   9.129  1.00  0.00    -0.638 OA
ENDBRANCH   1  13
TORSDOF 7
ENDMDL
