MODEL 3
REMARK VINA RESULT: -6.485400218      0.836      2.738
REMARK  7 active torsions:
REMARK  status: ('A' for Active; 'I' for Inactive)
REMARK    1  A    between atoms: C2_2  and  C3_3 
REMARK    2  A    between atoms: C3_3  and  C4_4 
REMARK    3  A    between atoms: C4_4  and  C5_5 
REMARK    4  A    between atoms: C4_4  and  C8_8 
REMARK    5  A    between atoms: C5_5  and  C6_6 
REMARK    6  A    between atoms: C8_8  and  N1_9 
REMARK    7  A    between atoms: C8_8  and  P1_13 
ROOT
HETATM    1  C8  UNL     1      22.146  -4.503   9.877  1.00  0.00     0.316 C 
ENDROOT
BRANCH   1   2
HETATM    2  C4  UNL     1      22.584  -5.843  10.443  1.00  0.00     0.030 C 
BRANCH   2   3
HETATM    3  C3  UNL     1      23.879  -6.351   9.921  1.00  0.00     0.007 C 
BRANCH   3   4
HETATM    4  C2  UNL     1      24.387  -7.591  10.607  1.00  0.00    -0.004 C 
HETATM    5  C1  UNL     1      23.631  -8.789  10.065  1.00  0.00     0.005 C 
ENDBRANCH   3   4
ENDBRANCH   2   3
BRANCH   2   6
HETATM    6  C5  UNL     1      22.416  -5.984  11.912  1.00  0.00     0.007 C 
BRANCH   6   7
HETATM    7  C6  UNL     1      21.419  -6.961  12.402  1.00  0.00    -0.004 C 
HETATM    8  C7  UNL     1      20.669  -6.318  13.586  1.00  0.00     0.005 C 
ENDBRANCH   6   7
ENDBRANCH   2   6
ENDBRANCH   1   2
BRANCH   1   9
HETATM    9  N1  UNL     1      23.228  -4.087   9.000  1.00  0.00    -0.062 N 
ATOM     10  H13 UNL     1      24.055  -4.681   9.057  1.00  0.00     0.275 HD
ATOM     11  H12 UNL     1      23.039  -4.243   8.010  1.00  0.00     0.275 HD
ATOM     12  H11 UNL     1      23.404  -3.111   9.236  1.00  0.00     0.275 HD
ENDBRANCH   1   9
BRANCH   1  13
HETATM   13  P1  UNL     1      21.605  -3.300  11.022  1.00  0.00     0.291 P 
HETATM   14  O1  UNL     1      19.917  -3.241  11.382  1.00  0.00    -0.638 OA
HETATM   15  O2  UNL     1      22.608  -2.344  11.823  1.00  0.00    -0.638 OA
HETATM   16  O3  UNL     1      21.284  -2.234   9.955  1.00  0.00    -0.638 OA
ENDBRANCH   1  13
TORSDOF 7
ENDMDL
