MODEL 1
REMARK VINA RESULT: -6.594703091      0.000      0.000
REMARK  7 active torsions:
REMARK  status: ('A' for Active; 'I' for Inactive)
REMARK    1  A    between atoms: C2_2  and  C3_3 
REMARK    2  A    between atoms: C3_3  and  C4_4 
REMARK    3  A    between atoms: C4_4  and  C5_5 
REMARK    4  A    between atoms: C4_4  and  C8_8 
REMARK    5  A    between atoms: C5_5  and  C6_6 
REMARK    6  A    between atoms: C8_8  and  N1_9 
REMARK    7  A    between atoms: C8_8  and  P1_13 
ROOT
HETATM    1  C8  UNL     1      22.249  -4.797   9.953  1.00  0.00     0.316 C 
ENDROOT
BRANCH   1   2
HETATM    2  C4  UNL     1      22.769  -5.961  10.778  1.00  0.00     0.030 C 
BRANCH   2   3
HETATM    3  C3  UNL     1      21.717  -6.811  11.395  1.00  0.00     0.007 C 
BRANCH   3   4
HETATM    4  C2  UNL     1      21.898  -7.059  12.869  1.00  0.00    -0.004 C 
HETATM    5  C1  UNL     1      20.546  -6.948  13.548  1.00  0.00     0.005 C 
ENDBRANCH   3   4
ENDBRANCH   2   3
BRANCH   2   6
HETATM    6  C5  UNL     1      23.883  -6.720  10.154  1.00  0.00     0.007 C 
BRANCH   6   7
HETATM    7  C6  UNL     1      23.621  -8.116   9.741  1.00  0.00    -0.004 C 
HETATM    8  C7  UNL     1      24.327  -9.048  10.747  1.00  0.00     0.005 C 
ENDBRANCH   6   7
ENDBRANCH   2   6
ENDBRANCH   1   2
BRANCH   1   9
HETATM    9  N1  UNL     1      23.312  -4.490   9.012  1.00  0.00    -0.062 N 
ATOM     10  H13 UNL     1      24.131  -4.061   9.443  1.00  0.00     0.275 HD
ATOM     11  H12 UNL     1      23.790  -5.314   8.646  1.00  0.00     0.275 HD
ATOM     12  H11 UNL     1      22.876  -3.915   8.292  1.00  0.00     0.275 HD
ENDBRANCH   1   9
BRANCH   1  13
HETATM   13  P1  UNL     1      21.607  -3.430  10.832  1.00  0.00     0.291 P 
HETATM   14  O1  UNL     1      20.527  -3.755  12.139  1.00  0.00    -0.638 OA
HETATM   15  O2  UNL     1      22.062  -1.922  10.551  1.00  0.00    -0.638 OA
HETATM   16  O3  UNL     1      20.330  -3.309   9.976  1.00  0.00    -0.638 OA
ENDBRANCH   1  13
TORSDOF 7
ENDMDL
