MODEL 5
REMARK VINA RESULT: -7.550657114      1.595      2.489
REMARK  2 active torsions:
REMARK  status: ('A' for Active; 'I' for Inactive)
REMARK    1  A    between atoms: C4_6  and  N2_7 
REMARK    2  A    between atoms: N2_7  and  C5_9 
ROOT
HETATM    1  C5  UNL     1      25.588  23.832  -8.432  1.00  0.00     0.136 A 
HETATM    2  N3  UNL     1      24.274  23.710  -8.327  1.00  0.00    -0.336 N 
ATOM      3  H3  UNL     1      23.766  24.338  -7.704  1.00  0.00     0.168 HD
HETATM    4  C6  UNL     1      23.596  22.789  -9.011  1.00  0.00     0.199 A 
HETATM    5  N4  UNL     1      24.223  21.926  -9.856  1.00  0.00    -0.289 N 
ATOM      6  H4  UNL     1      23.687  21.228 -10.372  1.00  0.00     0.188 HD
HETATM    7  N5  UNL     1      25.543  22.006 -10.000  1.00  0.00    -0.263 N 
HETATM    8  C7  UNL     1      26.367  21.272 -10.765  1.00  0.00     0.117 A 
HETATM    9  C8  UNL     1      27.659  21.721 -10.587  1.00  0.00     0.022 A 
HETATM   10  C9  UNL     1      27.538  22.751  -9.678  1.00  0.00     0.037 A 
HETATM   11  C10 UNL     1      26.214  22.928  -9.313  1.00  0.00     0.100 A 
ENDROOT
BRANCH   1  12
HETATM   12  N2  UNL     1      26.397  24.777  -7.748  1.00  0.00    -0.339 N 
ATOM     13  H2  UNL     1      27.344  24.915  -8.102  1.00  0.00     0.167 HD
BRANCH  12  14
HETATM   14  C4  UNL     1      26.018  25.542  -6.627  1.00  0.00     0.049 A 
HETATM   15  C3  UNL     1      24.719  25.392  -6.127  1.00  0.00     0.117 A 
HETATM   16  N1  UNL     1      24.260  26.071  -5.068  1.00  0.00    -0.373 N 
HETATM   17  C2  UNL     1      25.071  26.932  -4.453  1.00  0.00     0.088 A 
ATOM     18  H1  UNL     1      23.306  25.931  -4.736  1.00  0.00     0.164 HD
HETATM   19  C1  UNL     1      26.368  27.162  -4.855  1.00  0.00     0.019 A 
HETATM   20  C11 UNL     1      26.823  26.437  -5.967  1.00  0.00     0.032 A 
ENDBRANCH  12  14
ENDBRANCH   1  12
TORSDOF 2
ENDMDL
