MODEL 6
REMARK VINA RESULT: -7.530799643      1.372      1.750
REMARK  2 active torsions:
REMARK  status: ('A' for Active; 'I' for Inactive)
REMARK    1  A    between atoms: C4_6  and  N2_7 
REMARK    2  A    between atoms: N2_7  and  C5_9 
ROOT
HETATM    1  C5  UNL     1      25.562  24.384  -7.827  1.00  0.00     0.136 A 
HETATM    2  N3  UNL     1      26.717  25.015  -7.673  1.00  0.00    -0.336 N 
ATOM      3  H3  UNL     1      26.790  25.751  -6.970  1.00  0.00     0.168 HD
HETATM    4  C6  UNL     1      27.787  24.715  -8.409  1.00  0.00     0.199 A 
HETATM    5  N4  UNL     1      27.746  23.742  -9.360  1.00  0.00    -0.289 N 
ATOM      6  H4  UNL     1      28.575  23.526  -9.914  1.00  0.00     0.188 HD
HETATM    7  N5  UNL     1      26.610  23.076  -9.556  1.00  0.00    -0.263 N 
HETATM    8  C7  UNL     1      26.335  22.090 -10.423  1.00  0.00     0.117 A 
HETATM    9  C8  UNL     1      25.020  21.708 -10.263  1.00  0.00     0.022 A 
HETATM   10  C9  UNL     1      24.549  22.526  -9.258  1.00  0.00     0.037 A 
HETATM   11  C10 UNL     1      25.546  23.380  -8.816  1.00  0.00     0.100 A 
ENDROOT
BRANCH   1  12
HETATM   12  N2  UNL     1      24.371  24.629  -7.095  1.00  0.00    -0.339 N 
ATOM     13  H2  UNL     1      23.559  24.061  -7.334  1.00  0.00     0.167 HD
BRANCH  12  14
HETATM   14  C4  UNL     1      24.204  25.582  -6.069  1.00  0.00     0.049 A 
HETATM   15  C3  UNL     1      22.907  26.007  -5.761  1.00  0.00     0.117 A 
HETATM   16  N1  UNL     1      22.640  26.907  -4.806  1.00  0.00    -0.373 N 
HETATM   17  C2  UNL     1      23.651  27.427  -4.110  1.00  0.00     0.088 A 
ATOM     18  H1  UNL     1      21.679  27.189  -4.614  1.00  0.00     0.164 HD
HETATM   19  C1  UNL     1      24.967  27.084  -4.324  1.00  0.00     0.019 A 
HETATM   20  C11 UNL     1      25.218  26.139  -5.331  1.00  0.00     0.032 A 
ENDBRANCH  12  14
ENDBRANCH   1  12
TORSDOF 2
ENDMDL
