MODEL 1
REMARK VINA RESULT: -7.715185390      0.000      0.000
REMARK  2 active torsions:
REMARK  status: ('A' for Active; 'I' for Inactive)
REMARK    1  A    between atoms: C4_6  and  N2_7 
REMARK    2  A    between atoms: N2_7  and  C5_9 
ROOT
HETATM    1  C5  UNL     1      26.973  24.203  -8.814  1.00  0.00     0.136 A 
HETATM    2  N3  UNL     1      28.046  24.975  -8.731  1.00  0.00    -0.336 N 
ATOM      3  H3  UNL     1      28.031  25.778  -8.102  1.00  0.00     0.168 HD
HETATM    4  C6  UNL     1      29.145  24.732  -9.444  1.00  0.00     0.199 A 
HETATM    5  N4  UNL     1      29.220  23.675 -10.297  1.00  0.00    -0.289 N 
ATOM      6  H4  UNL     1      30.070  23.504 -10.836  1.00  0.00     0.188 HD
HETATM    7  N5  UNL     1      28.170  22.866 -10.419  1.00  0.00    -0.263 N 
HETATM    8  C7  UNL     1      28.014  21.776 -11.186  1.00  0.00     0.117 A 
HETATM    9  C8  UNL     1      26.751  21.261 -10.978  1.00  0.00     0.022 A 
HETATM   10  C9  UNL     1      26.186  22.112 -10.052  1.00  0.00     0.037 A 
HETATM   11  C10 UNL     1      27.075  23.114  -9.703  1.00  0.00     0.100 A 
ENDROOT
BRANCH   1  12
HETATM   12  N2  UNL     1      25.760  24.377  -8.098  1.00  0.00    -0.339 N 
ATOM     13  H2  UNL     1      24.944  23.873  -8.445  1.00  0.00     0.167 HD
BRANCH  12  14
HETATM   14  C4  UNL     1      25.575  25.180  -6.954  1.00  0.00     0.049 A 
HETATM   15  C3  UNL     1      24.301  25.230  -6.376  1.00  0.00     0.117 A 
HETATM   16  N1  UNL     1      24.020  25.961  -5.289  1.00  0.00    -0.373 N 
HETATM   17  C2  UNL     1      24.992  26.676  -4.724  1.00  0.00     0.088 A 
ATOM     18  H1  UNL     1      23.077  25.969  -4.900  1.00  0.00     0.164 HD
HETATM   19  C1  UNL     1      26.283  26.704  -5.204  1.00  0.00     0.019 A 
HETATM   20  C11 UNL     1      26.549  25.929  -6.344  1.00  0.00     0.032 A 
ENDBRANCH  12  14
ENDBRANCH   1  12
TORSDOF 2
ENDMDL
