MODEL 3
REMARK VINA RESULT: -9.277842655      3.128      7.106
REMARK  3 active torsions:
REMARK  status: ('A' for Active; 'I' for Inactive)
REMARK    1  A    between atoms: C4_4  and  C5_5 
REMARK    2  A    between atoms: C8_8  and  N1_9 
REMARK    3  A    between atoms: N1_9  and  C9_11 
ROOT
HETATM    1  C5  UNL     1     -15.854  -4.428  27.942  1.00  0.00    -0.006 A 
HETATM    2  C6  UNL     1     -16.010  -4.848  26.630  1.00  0.00     0.049 A 
HETATM    3  C7  UNL     1     -16.854  -5.930  26.605  1.00  0.00     0.101 A 
HETATM    4  C8  UNL     1     -17.329  -6.712  25.562  1.00  0.00     0.136 A 
HETATM    5  N3  UNL     1     -18.148  -7.698  25.910  1.00  0.00    -0.336 N 
ATOM      6  H3  UNL     1     -18.513  -8.288  25.162  1.00  0.00     0.168 HD
HETATM    7  C14 UNL     1     -18.535  -7.983  27.157  1.00  0.00     0.199 A 
HETATM    8  N4  UNL     1     -18.050  -7.198  28.138  1.00  0.00    -0.289 N 
ATOM      9  H4  UNL     1     -18.318  -7.376  29.106  1.00  0.00     0.188 HD
HETATM   10  N5  UNL     1     -17.224  -6.192  27.857  1.00  0.00    -0.262 N 
HETATM   11  C15 UNL     1     -16.624  -5.286  28.684  1.00  0.00     0.129 A 
ENDROOT
BRANCH   4  12
HETATM   12  N1  UNL     1     -16.910  -6.397  24.253  1.00  0.00    -0.340 N 
ATOM     13  H1  UNL     1     -15.961  -6.664  23.993  1.00  0.00     0.167 HD
BRANCH  12  14
HETATM   14  C9  UNL     1     -17.682  -5.750  23.274  1.00  0.00     0.036 A 
HETATM   15  C10 UNL     1     -17.635  -4.352  23.205  1.00  0.00     0.046 A 
HETATM   16  C11 UNL     1     -18.346  -3.618  22.290  1.00  0.00     0.090 A 
HETATM   17  N2  UNL     1     -19.129  -4.253  21.414  1.00  0.00    -0.375 N 
HETATM   18  C12 UNL     1     -19.214  -5.585  21.430  1.00  0.00     0.090 A 
ATOM     19  H2  UNL     1     -19.663  -3.717  20.729  1.00  0.00     0.164 HD
HETATM   20  C13 UNL     1     -18.498  -6.357  22.354  1.00  0.00     0.046 A 
ENDBRANCH  12  14
ENDBRANCH   4  12
BRANCH   1  21
HETATM   21  C4  UNL     1     -15.047  -3.315  28.430  1.00  0.00    -0.025 A 
HETATM   22  C3  UNL     1     -14.570  -2.331  27.584  1.00  0.00     0.012 A 
HETATM   23  C2  UNL     1     -13.806  -1.269  28.014  1.00  0.00     0.001 A 
HETATM   24  C1  UNL     1     -13.495  -1.171  29.351  1.00  0.00     0.000 A 
HETATM   25  C17 UNL     1     -13.949  -2.129  30.229  1.00  0.00     0.001 A 
HETATM   26  C16 UNL     1     -14.721  -3.195  29.766  1.00  0.00     0.012 A 
ENDBRANCH   1  21
TORSDOF 3
ENDMDL
