MODEL 2
REMARK VINA RESULT: -9.278548130      3.125      7.162
REMARK  3 active torsions:
REMARK  status: ('A' for Active; 'I' for Inactive)
REMARK    1  A    between atoms: C4_4  and  C5_5 
REMARK    2  A    between atoms: C8_8  and  N1_9 
REMARK    3  A    between atoms: N1_9  and  C9_11 
ROOT
HETATM    1  C5  UNL     1     -15.851  -4.420  27.933  1.00  0.00    -0.006 A 
HETATM    2  C6  UNL     1     -16.006  -4.840  26.621  1.00  0.00     0.049 A 
HETATM    3  C7  UNL     1     -16.850  -5.921  26.595  1.00  0.00     0.101 A 
HETATM    4  C8  UNL     1     -17.324  -6.702  25.551  1.00  0.00     0.136 A 
HETATM    5  N3  UNL     1     -18.145  -7.688  25.897  1.00  0.00    -0.336 N 
ATOM      6  H3  UNL     1     -18.509  -8.277  25.148  1.00  0.00     0.168 HD
HETATM    7  C14 UNL     1     -18.534  -7.973  27.144  1.00  0.00     0.199 A 
HETATM    8  N4  UNL     1     -18.049  -7.188  28.125  1.00  0.00    -0.289 N 
ATOM      9  H4  UNL     1     -18.319  -7.366  29.093  1.00  0.00     0.188 HD
HETATM   10  N5  UNL     1     -17.222  -6.182  27.846  1.00  0.00    -0.262 N 
HETATM   11  C15 UNL     1     -16.622  -5.277  28.674  1.00  0.00     0.129 A 
ENDROOT
BRANCH   4  12
HETATM   12  N1  UNL     1     -16.904  -6.388  24.242  1.00  0.00    -0.340 N 
ATOM     13  H1  UNL     1     -15.948  -6.639  23.989  1.00  0.00     0.167 HD
BRANCH  12  14
HETATM   14  C9  UNL     1     -17.681  -5.760  23.255  1.00  0.00     0.036 A 
HETATM   15  C10 UNL     1     -17.675  -4.361  23.191  1.00  0.00     0.046 A 
HETATM   16  C11 UNL     1     -18.395  -3.645  22.269  1.00  0.00     0.090 A 
HETATM   17  N2  UNL     1     -19.147  -4.299  21.380  1.00  0.00    -0.375 N 
HETATM   18  C12 UNL     1     -19.193  -5.633  21.391  1.00  0.00     0.090 A 
ATOM     19  H2  UNL     1     -19.687  -3.777  20.690  1.00  0.00     0.164 HD
HETATM   20  C13 UNL     1     -18.466  -6.387  22.322  1.00  0.00     0.046 A 
ENDBRANCH  12  14
ENDBRANCH   4  12
BRANCH   1  21
HETATM   21  C4  UNL     1     -15.043  -3.308  28.422  1.00  0.00    -0.025 A 
HETATM   22  C3  UNL     1     -14.705  -3.180  29.756  1.00  0.00     0.012 A 
HETATM   23  C2  UNL     1     -13.945  -2.143  30.248  1.00  0.00     0.001 A 
HETATM   24  C1  UNL     1     -13.493  -1.177  29.377  1.00  0.00     0.000 A 
HETATM   25  C17 UNL     1     -13.806  -1.266  28.039  1.00  0.00     0.001 A 
HETATM   26  C16 UNL     1     -14.579  -2.327  27.569  1.00  0.00     0.012 A 
ENDBRANCH   1  21
TORSDOF 3
ENDMDL
