MODEL 14
REMARK VINA RESULT: -8.637014472      2.914      7.600
REMARK  3 active torsions:
REMARK  status: ('A' for Active; 'I' for Inactive)
REMARK    1  A    between atoms: C4_4  and  C5_5 
REMARK    2  A    between atoms: C8_8  and  N1_9 
REMARK    3  A    between atoms: N1_9  and  C9_11 
ROOT
HETATM    1  C5  UNL     1     -14.091  -2.808  29.769  1.00  0.00    -0.006 A 
HETATM    2  C6  UNL     1     -15.220  -3.519  29.396  1.00  0.00     0.049 A 
HETATM    3  C7  UNL     1     -15.322  -4.639  30.181  1.00  0.00     0.101 A 
HETATM    4  C8  UNL     1     -16.254  -5.667  30.215  1.00  0.00     0.136 A 
HETATM    5  N3  UNL     1     -16.037  -6.610  31.124  1.00  0.00    -0.336 N 
ATOM      6  H3  UNL     1     -16.708  -7.377  31.171  1.00  0.00     0.168 HD
HETATM    7  C14 UNL     1     -15.013  -6.639  31.984  1.00  0.00     0.199 A 
HETATM    8  N4  UNL     1     -14.134  -5.622  31.916  1.00  0.00    -0.289 N 
ATOM      9  H4  UNL     1     -13.337  -5.600  32.553  1.00  0.00     0.188 HD
HETATM   10  N5  UNL     1     -14.293  -4.644  31.026  1.00  0.00    -0.262 N 
HETATM   11  C15 UNL     1     -13.533  -3.535  30.789  1.00  0.00     0.129 A 
ENDROOT
BRANCH   4  12
HETATM   12  N1  UNL     1     -17.327  -5.621  29.300  1.00  0.00    -0.340 N 
ATOM     13  H1  UNL     1     -18.189  -5.179  29.620  1.00  0.00     0.167 HD
BRANCH  12  14
HETATM   14  C9  UNL     1     -17.316  -6.128  27.990  1.00  0.00     0.036 A 
HETATM   15  C10 UNL     1     -18.226  -7.140  27.660  1.00  0.00     0.046 A 
HETATM   16  C11 UNL     1     -18.303  -7.707  26.414  1.00  0.00     0.090 A 
HETATM   17  N2  UNL     1     -17.476  -7.285  25.455  1.00  0.00    -0.375 N 
HETATM   18  C12 UNL     1     -16.587  -6.322  25.709  1.00  0.00     0.090 A 
ATOM     19  H2  UNL     1     -17.524  -7.700  24.524  1.00  0.00     0.164 HD
HETATM   20  C13 UNL     1     -16.488  -5.727  26.974  1.00  0.00     0.046 A 
ENDBRANCH  12  14
ENDBRANCH   4  12
BRANCH   1  21
HETATM   21  C4  UNL     1     -13.599  -1.557  29.202  1.00  0.00    -0.025 A 
HETATM   22  C3  UNL     1     -13.909  -1.166  27.913  1.00  0.00     0.012 A 
HETATM   23  C2  UNL     1     -13.461   0.008  27.349  1.00  0.00     0.001 A 
HETATM   24  C1  UNL     1     -12.663   0.843  28.098  1.00  0.00     0.000 A 
HETATM   25  C17 UNL     1     -12.329   0.493  29.387  1.00  0.00     0.001 A 
HETATM   26  C16 UNL     1     -12.797  -0.703  29.932  1.00  0.00     0.012 A 
ENDBRANCH   1  21
TORSDOF 3
ENDMDL
