MODEL 13
REMARK VINA RESULT: -8.677453791      2.923      7.673
REMARK  3 active torsions:
REMARK  status: ('A' for Active; 'I' for Inactive)
REMARK    1  A    between atoms: C4_4  and  C5_5 
REMARK    2  A    between atoms: C8_8  and  N1_9 
REMARK    3  A    between atoms: N1_9  and  C9_11 
ROOT
HETATM    1  C5  UNL     1     -14.100  -2.809  29.780  1.00  0.00    -0.006 A 
HETATM    2  C6  UNL     1     -15.234  -3.512  29.403  1.00  0.00     0.049 A 
HETATM    3  C7  UNL     1     -15.340  -4.637  30.181  1.00  0.00     0.101 A 
HETATM    4  C8  UNL     1     -16.277  -5.660  30.209  1.00  0.00     0.136 A 
HETATM    5  N3  UNL     1     -16.064  -6.611  31.111  1.00  0.00    -0.336 N 
ATOM      6  H3  UNL     1     -16.739  -7.375  31.154  1.00  0.00     0.168 HD
HETATM    7  C14 UNL     1     -15.039  -6.651  31.969  1.00  0.00     0.199 A 
HETATM    8  N4  UNL     1     -14.154  -5.638  31.907  1.00  0.00    -0.289 N 
ATOM      9  H4  UNL     1     -13.357  -5.624  32.542  1.00  0.00     0.188 HD
HETATM   10  N5  UNL     1     -14.310  -4.653  31.024  1.00  0.00    -0.262 N 
HETATM   11  C15 UNL     1     -13.545  -3.546  30.794  1.00  0.00     0.129 A 
ENDROOT
BRANCH   4  12
HETATM   12  N1  UNL     1     -17.351  -5.602  29.297  1.00  0.00    -0.340 N 
ATOM     13  H1  UNL     1     -18.205  -5.144  29.615  1.00  0.00     0.167 HD
BRANCH  12  14
HETATM   14  C9  UNL     1     -17.352  -6.117  27.990  1.00  0.00     0.036 A 
HETATM   15  C10 UNL     1     -18.212  -7.183  27.695  1.00  0.00     0.046 A 
HETATM   16  C11 UNL     1     -18.295  -7.763  26.454  1.00  0.00     0.090 A 
HETATM   17  N2  UNL     1     -17.524  -7.300  25.467  1.00  0.00    -0.375 N 
HETATM   18  C12 UNL     1     -16.685  -6.286  25.688  1.00  0.00     0.090 A 
ATOM     19  H2  UNL     1     -17.576  -7.724  24.541  1.00  0.00     0.164 HD
HETATM   20  C13 UNL     1     -16.582  -5.677  26.945  1.00  0.00     0.046 A 
ENDBRANCH  12  14
ENDBRANCH   4  12
BRANCH   1  21
HETATM   21  C4  UNL     1     -13.603  -1.556  29.220  1.00  0.00    -0.025 A 
HETATM   22  C3  UNL     1     -12.804  -0.695  29.949  1.00  0.00     0.012 A 
HETATM   23  C2  UNL     1     -12.320   0.493  29.450  1.00  0.00     0.001 A 
HETATM   24  C1  UNL     1     -12.641   0.853  28.160  1.00  0.00     0.000 A 
HETATM   25  C17 UNL     1     -13.434   0.025  27.398  1.00  0.00     0.001 A 
HETATM   26  C16 UNL     1     -13.911  -1.173  27.930  1.00  0.00     0.012 A 
ENDBRANCH   1  21
TORSDOF 3
ENDMDL
