MODEL 1
REMARK VINA RESULT: -9.282424020      0.000      0.000
REMARK  3 active torsions:
REMARK  status: ('A' for Active; 'I' for Inactive)
REMARK    1  A    between atoms: C4_4  and  C5_5 
REMARK    2  A    between atoms: C8_8  and  N1_9 
REMARK    3  A    between atoms: N1_9  and  C9_11 
ROOT
HETATM    1  C5  UNL     1     -16.464  -5.281  27.183  1.00  0.00    -0.006 A 
HETATM    2  C6  UNL     1     -16.047  -4.017  27.574  1.00  0.00     0.049 A 
HETATM    3  C7  UNL     1     -15.384  -3.423  26.530  1.00  0.00     0.101 A 
HETATM    4  C8  UNL     1     -14.779  -2.182  26.402  1.00  0.00     0.136 A 
HETATM    5  N3  UNL     1     -14.219  -1.933  25.224  1.00  0.00    -0.336 N 
ATOM      6  H3  UNL     1     -13.768  -1.026  25.103  1.00  0.00     0.168 HD
HETATM    7  C14 UNL     1     -14.197  -2.771  24.182  1.00  0.00     0.199 A 
HETATM    8  N4  UNL     1     -14.797  -3.965  24.351  1.00  0.00    -0.289 N 
ATOM      9  H4  UNL     1     -14.806  -4.638  23.584  1.00  0.00     0.188 HD
HETATM   10  N5  UNL     1     -15.377  -4.277  25.508  1.00  0.00    -0.262 N 
HETATM   11  C15 UNL     1     -16.031  -5.413  25.889  1.00  0.00     0.129 A 
ENDROOT
BRANCH   4  12
HETATM   12  N1  UNL     1     -14.811  -1.310  27.511  1.00  0.00    -0.340 N 
ATOM     13  H1  UNL     1     -15.674  -1.283  28.054  1.00  0.00     0.167 HD
BRANCH  12  14
HETATM   14  C9  UNL     1     -13.763  -0.476  27.935  1.00  0.00     0.036 A 
HETATM   15  C10 UNL     1     -13.187  -0.714  29.189  1.00  0.00     0.046 A 
HETATM   16  C11 UNL     1     -12.160   0.037  29.701  1.00  0.00     0.090 A 
HETATM   17  N2  UNL     1     -11.673   1.051  28.982  1.00  0.00    -0.375 N 
HETATM   18  C12 UNL     1     -12.181   1.326  27.779  1.00  0.00     0.090 A 
ATOM     19  H2  UNL     1     -10.910   1.616  29.353  1.00  0.00     0.164 HD
HETATM   20  C13 UNL     1     -13.230   0.574  27.233  1.00  0.00     0.046 A 
ENDBRANCH  12  14
ENDBRANCH   4  12
BRANCH   1  21
HETATM   21  C4  UNL     1     -17.204  -6.258  27.974  1.00  0.00    -0.025 A 
HETATM   22  C3  UNL     1     -18.122  -7.119  27.402  1.00  0.00     0.012 A 
HETATM   23  C2  UNL     1     -18.835  -8.051  28.122  1.00  0.00     0.001 A 
HETATM   24  C1  UNL     1     -18.632  -8.141  29.480  1.00  0.00     0.000 A 
HETATM   25  C17 UNL     1     -17.727  -7.303  30.091  1.00  0.00     0.001 A 
HETATM   26  C16 UNL     1     -17.018  -6.367  29.338  1.00  0.00     0.012 A 
ENDBRANCH   1  21
TORSDOF 3
ENDMDL
