MODEL 3
REMARK VINA RESULT: -5.062686252      1.969      6.128
REMARK  3 active torsions:
REMARK  status: ('A' for Active; 'I' for Inactive)
REMARK    1  A    between atoms: N1_2  and  C2_5 
REMARK    2  A    between atoms: C2_5  and  C3_6 
REMARK    3  A    between atoms: C7_10  and  C8_11 
ROOT
HETATM    1  C3  UNL     1      -2.327 128.156 -12.476  1.00  0.00    -0.032 A 
HETATM    2  C4  UNL     1      -2.261 128.734 -11.224  1.00  0.00     0.009 A 
HETATM    3  C5  UNL     1      -1.588 128.035 -10.243  1.00  0.00     0.001 A 
HETATM    4  C6  UNL     1      -1.001 126.814 -10.470  1.00  0.00     0.012 A 
HETATM    5  C7  UNL     1      -1.066 126.225 -11.736  1.00  0.00    -0.024 A 
HETATM    6  C13 UNL     1      -1.736 126.930 -12.705  1.00  0.00     0.021 A 
ENDROOT
BRANCH   5   7
HETATM    7  C8  UNL     1      -0.442 124.938 -11.965  1.00  0.00    -0.011 A 
HETATM    8  C9  UNL     1      -1.087 123.924 -12.638  1.00  0.00     0.015 A 
HETATM    9  C10 UNL     1      -0.452 122.691 -12.840  1.00  0.00     0.018 A 
HETATM   10  C11 UNL     1       0.825 122.475 -12.370  1.00  0.00     0.087 A 
HETATM   11  N2  UNL     1       1.433 123.480 -11.716  1.00  0.00    -0.374 N 
HETATM   12  C12 UNL     1       0.831 124.690 -11.507  1.00  0.00     0.099 A 
ATOM     13  H2  UNL     1       2.379 123.336 -11.362  1.00  0.00     0.164 HD
ENDBRANCH   5   7
BRANCH   1  14
HETATM   14  C2  UNL     1      -3.029 128.845 -13.578  1.00  0.00     0.270 C 
BRANCH  14  15
HETATM   15  N1  UNL     1      -2.169 129.798 -14.252  1.00  0.00    -0.075 N 
HETATM   16  C1  UNL     1      -2.524 129.975 -15.627  1.00  0.00     0.267 C 
ATOM     17  H12 UNL     1      -1.187 129.540 -14.156  1.00  0.00     0.277 HD
ATOM     18  H11 UNL     1      -2.152 130.691 -13.759  1.00  0.00     0.277 HD
ENDBRANCH  14  15
ENDBRANCH   1  14
TORSDOF 3
ENDMDL
