MODEL 1
REMARK VINA RESULT: -5.195723481      0.000      0.000
REMARK  3 active torsions:
REMARK  status: ('A' for Active; 'I' for Inactive)
REMARK    1  A    between atoms: N1_2  and  C2_5 
REMARK    2  A    between atoms: C2_5  and  C3_6 
REMARK    3  A    between atoms: C7_10  and  C8_11 
ROOT
HETATM    1  C3  UNL     1      -0.500 122.578 -12.909  1.00  0.00    -0.032 A 
HETATM    2  C4  UNL     1      -1.557 122.148 -13.687  1.00  0.00     0.009 A 
HETATM    3  C5  UNL     1      -2.616 123.018 -13.846  1.00  0.00     0.001 A 
HETATM    4  C6  UNL     1      -2.648 124.263 -13.266  1.00  0.00     0.012 A 
HETATM    5  C7  UNL     1      -1.581 124.701 -12.477  1.00  0.00    -0.024 A 
HETATM    6  C13 UNL     1      -0.532 123.828 -12.328  1.00  0.00     0.021 A 
ENDROOT
BRANCH   5   7
HETATM    7  C8  UNL     1      -1.626 126.016 -11.871  1.00  0.00    -0.011 A 
HETATM    8  C9  UNL     1      -2.096 127.118 -12.552  1.00  0.00     0.015 A 
HETATM    9  C10 UNL     1      -2.124 128.375 -11.932  1.00  0.00     0.018 A 
HETATM   10  C11 UNL     1      -1.682 128.528 -10.636  1.00  0.00     0.087 A 
HETATM   11  N2  UNL     1      -1.227 127.437  -9.994  1.00  0.00    -0.374 N 
HETATM   12  C12 UNL     1      -1.192 126.202 -10.580  1.00  0.00     0.099 A 
ATOM     13  H2  UNL     1      -0.898 127.535  -9.033  1.00  0.00     0.164 HD
ENDBRANCH   5   7
BRANCH   1  14
HETATM   14  C2  UNL     1       0.670 121.702 -12.695  1.00  0.00     0.270 C 
BRANCH  14  15
HETATM   15  N1  UNL     1       0.812 121.323 -11.302  1.00  0.00    -0.075 N 
HETATM   16  C1  UNL     1       0.049 120.158 -10.974  1.00  0.00     0.267 C 
ATOM     17  H12 UNL     1       0.581 122.100 -10.684  1.00  0.00     0.277 HD
ATOM     18  H11 UNL     1       1.794 121.202 -11.052  1.00  0.00     0.277 HD
ENDBRANCH  14  15
ENDBRANCH   1  14
TORSDOF 3
ENDMDL
