MODEL 2
REMARK VINA RESULT: -5.130350370      1.198      1.550
REMARK  3 active torsions:
REMARK  status: ('A' for Active; 'I' for Inactive)
REMARK    1  A    between atoms: N1_2  and  C2_5 
REMARK    2  A    between atoms: C2_5  and  C3_6 
REMARK    3  A    between atoms: C7_10  and  C8_11 
ROOT
HETATM    1  C3  UNL     1      -0.324 123.490 -12.468  1.00  0.00    -0.032 A 
HETATM    2  C4  UNL     1      -1.302 122.850 -13.203  1.00  0.00     0.009 A 
HETATM    3  C5  UNL     1      -2.431 123.578 -13.517  1.00  0.00     0.001 A 
HETATM    4  C6  UNL     1      -2.605 124.884 -13.127  1.00  0.00     0.012 A 
HETATM    5  C7  UNL     1      -1.618 125.535 -12.383  1.00  0.00    -0.024 A 
HETATM    6  C13 UNL     1      -0.498 124.802 -12.078  1.00  0.00     0.021 A 
ENDROOT
BRANCH   5   7
HETATM    7  C8  UNL     1      -1.811 126.912 -11.978  1.00  0.00    -0.011 A 
HETATM    8  C9  UNL     1      -1.787 127.295 -10.655  1.00  0.00     0.015 A 
HETATM    9  C10 UNL     1      -1.979 128.638 -10.301  1.00  0.00     0.018 A 
HETATM   10  C11 UNL     1      -2.194 129.594 -11.270  1.00  0.00     0.087 A 
HETATM   11  N2  UNL     1      -2.212 129.195 -12.554  1.00  0.00    -0.374 N 
HETATM   12  C12 UNL     1      -2.028 127.891 -12.920  1.00  0.00     0.099 A 
ATOM     13  H2  UNL     1      -2.369 129.892 -13.282  1.00  0.00     0.164 HD
ENDBRANCH   5   7
BRANCH   1  14
HETATM   14  C2  UNL     1       0.914 122.775 -12.096  1.00  0.00     0.270 C 
BRANCH  14  15
HETATM   15  N1  UNL     1       0.770 121.339 -12.237  1.00  0.00    -0.075 N 
HETATM   16  C1  UNL     1       0.347 120.713 -11.022  1.00  0.00     0.267 C 
ATOM     17  H12 UNL     1       1.629 120.916 -12.589  1.00  0.00     0.277 HD
ATOM     18  H11 UNL     1       0.145 121.106 -13.008  1.00  0.00     0.277 HD
ENDBRANCH  14  15
ENDBRANCH   1  14
TORSDOF 3
ENDMDL
