MODEL 7
REMARK VINA RESULT: -4.964941147      1.668      2.692
REMARK  3 active torsions:
REMARK  status: ('A' for Active; 'I' for Inactive)
REMARK    1  A    between atoms: N1_2  and  C2_5 
REMARK    2  A    between atoms: C2_5  and  C3_6 
REMARK    3  A    between atoms: C7_10  and  C8_11 
ROOT
HETATM    1  C3  UNL     1      -1.213 123.203 -13.005  1.00  0.00    -0.032 A 
HETATM    2  C4  UNL     1       0.044 122.803 -12.598  1.00  0.00     0.009 A 
HETATM    3  C5  UNL     1       0.806 123.724 -11.908  1.00  0.00     0.001 A 
HETATM    4  C6  UNL     1       0.361 124.992 -11.626  1.00  0.00     0.012 A 
HETATM    5  C7  UNL     1      -0.911 125.401 -12.036  1.00  0.00    -0.024 A 
HETATM    6  C13 UNL     1      -1.660 124.476 -12.720  1.00  0.00     0.021 A 
ENDROOT
BRANCH   5   7
HETATM    7  C8  UNL     1      -1.370 126.741 -11.732  1.00  0.00    -0.011 A 
HETATM    8  C9  UNL     1      -1.461 127.205 -10.438  1.00  0.00     0.015 A 
HETATM    9  C10 UNL     1      -1.911 128.508 -10.182  1.00  0.00     0.018 A 
HETATM   10  C11 UNL     1      -2.267 129.343 -11.218  1.00  0.00     0.087 A 
HETATM   11  N2  UNL     1      -2.168 128.867 -12.472  1.00  0.00    -0.374 N 
HETATM   12  C12 UNL     1      -1.733 127.599 -12.743  1.00  0.00     0.099 A 
ATOM     13  H2  UNL     1      -2.427 129.474 -13.250  1.00  0.00     0.164 HD
ENDBRANCH   5   7
BRANCH   1  14
HETATM   14  C2  UNL     1      -2.086 122.271 -13.746  1.00  0.00     0.270 C 
BRANCH  14  15
HETATM   15  N1  UNL     1      -1.355 121.115 -14.229  1.00  0.00    -0.075 N 
HETATM   16  C1  UNL     1      -1.875 120.619 -15.466  1.00  0.00     0.267 C 
ATOM     17  H12 UNL     1      -1.321 120.380 -13.524  1.00  0.00     0.277 HD
ATOM     18  H11 UNL     1      -0.358 121.316 -14.304  1.00  0.00     0.277 HD
ENDBRANCH  14  15
ENDBRANCH   1  14
TORSDOF 3
ENDMDL
