MODEL 11
REMARK VINA RESULT: -5.936857960      8.251      9.684
REMARK  9 active torsions:
REMARK  status: ('A' for Active; 'I' for Inactive)
REMARK    1  A    between atoms: C1_2  and  C2_4 
REMARK    2  A    between atoms: C2_4  and  C3_5 
REMARK    3  A    between atoms: C2_4  and  N3_13 
REMARK    4  A    between atoms: C4_6  and  C5_7 
REMARK    5  A    between atoms: C5_7  and  C6_8 
REMARK    6  A    between atoms: C6_8  and  N2_9 
REMARK    7  A    between atoms: N3_13  and  C7_15 
REMARK    8  A    between atoms: C7_15  and  C8_16 
REMARK    9  A    between atoms: C11_19  and  C12_20 
ROOT
HETATM    1  N3  UNL     1       1.640  36.433   9.170  1.00  0.00    -0.403 N 
ATOM      2  H3  UNL     1       1.331  35.582   8.700  1.00  0.00     0.154 HD
ENDROOT
BRANCH   1   3
HETATM    3  C2  UNL     1       2.311  37.539   8.444  1.00  0.00     0.190 C 
BRANCH   3   4
HETATM    4  C1  UNL     1       3.709  37.514   8.880  1.00  0.00     0.257 C 
HETATM    5  N1  UNL     1       4.532  36.355   8.652  1.00  0.00    -0.060 NA
HETATM    6  O1  UNL     1       4.325  38.444   9.472  1.00  0.00    -0.274 OA
ENDBRANCH   3   4
BRANCH   3   7
HETATM    7  C3  UNL     1       2.092  37.422   7.011  1.00  0.00     0.003 C 
HETATM    8  C4  UNL     1       1.270  38.270   6.182  1.00  0.00    -0.027 C 
BRANCH   8   9
HETATM    9  C5  UNL     1       1.479  39.694   5.951  1.00  0.00     0.054 C 
BRANCH   9  10
HETATM   10  C6  UNL     1       0.459  40.111   4.840  1.00  0.00     0.233 C 
BRANCH  10  11
HETATM   11  N2  UNL     1       1.203  40.444   3.638  1.00  0.00    -0.079 N 
ATOM     12  H23 UNL     1       1.984  41.074   3.821  1.00  0.00     0.274 HD
ATOM     13  H22 UNL     1       1.742  39.656   3.279  1.00  0.00     0.274 HD
ATOM     14  H21 UNL     1       0.551  40.819   2.950  1.00  0.00     0.274 HD
ENDBRANCH  10  11
ENDBRANCH   9  10
ENDBRANCH   8   9
ENDBRANCH   3   7
ENDBRANCH   1   3
BRANCH   1  15
HETATM   15  C7  UNL     1       1.458  36.636  10.554  1.00  0.00     0.153 C 
BRANCH  15  16
HETATM   16  C8  UNL     1       1.186  35.281  11.164  1.00  0.00    -0.041 A 
HETATM   17  C9  UNL     1       0.204  34.529  10.545  1.00  0.00     0.009 A 
HETATM   18  C10 UNL     1      -0.120  33.271  11.034  1.00  0.00     0.013 A 
HETATM   19  C11 UNL     1       0.542  32.785  12.137  1.00  0.00    -0.025 A 
HETATM   20  C17 UNL     1       1.510  33.522  12.752  1.00  0.00     0.013 A 
HETATM   21  C18 UNL     1       1.827  34.787  12.247  1.00  0.00     0.009 A 
BRANCH  19  22
HETATM   22  C12 UNL     1       0.218  31.464  12.672  1.00  0.00    -0.011 A 
HETATM   23  C13 UNL     1       1.072  30.778  13.513  1.00  0.00     0.015 A 
HETATM   24  C14 UNL     1       0.731  29.524  14.003  1.00  0.00     0.018 A 
HETATM   25  C15 UNL     1      -0.482  28.985  13.627  1.00  0.00     0.087 A 
HETATM   26  N4  UNL     1      -1.301  29.648  12.819  1.00  0.00    -0.374 N 
HETATM   27  C16 UNL     1      -0.974  30.863  12.341  1.00  0.00     0.099 A 
ATOM     28  H4  UNL     1      -2.193  29.229  12.555  1.00  0.00     0.164 HD
ENDBRANCH  19  22
ENDBRANCH  15  16
ENDBRANCH   1  15
TORSDOF 9
ENDMDL
