MODEL 3
REMARK VINA RESULT: -6.780529493      1.079      1.105
REMARK  9 active torsions:
REMARK  status: ('A' for Active; 'I' for Inactive)
REMARK    1  A    between atoms: C1_2  and  C2_4 
REMARK    2  A    between atoms: C2_4  and  C3_5 
REMARK    3  A    between atoms: C2_4  and  N3_13 
REMARK    4  A    between atoms: C4_6  and  C5_7 
REMARK    5  A    between atoms: C5_7  and  C6_8 
REMARK    6  A    between atoms: C6_8  and  N2_9 
REMARK    7  A    between atoms: N3_13  and  C7_15 
REMARK    8  A    between atoms: C7_15  and  C8_16 
REMARK    9  A    between atoms: C11_19  and  C12_20 
ROOT
HETATM    1  N3  UNL     1       2.356  27.189   3.565  1.00  0.00    -0.403 N 
ATOM      2  H3  UNL     1       1.705  27.429   2.817  1.00  0.00     0.154 HD
ENDROOT
BRANCH   1   3
HETATM    3  C2  UNL     1       3.382  28.142   4.057  1.00  0.00     0.190 C 
BRANCH   3   4
HETATM    4  C1  UNL     1       3.925  28.795   2.866  1.00  0.00     0.257 C 
HETATM    5  N1  UNL     1       3.095  29.633   2.039  1.00  0.00    -0.060 NA
HETATM    6  O1  UNL     1       5.111  28.709   2.441  1.00  0.00    -0.274 OA
ENDBRANCH   3   4
BRANCH   3   7
HETATM    7  C3  UNL     1       2.820  29.027   5.066  1.00  0.00     0.003 C 
HETATM    8  C4  UNL     1       3.542  29.828   6.023  1.00  0.00    -0.027 C 
BRANCH   8   9
HETATM    9  C5  UNL     1       4.465  30.910   5.704  1.00  0.00     0.054 C 
BRANCH   9  10
HETATM   10  C6  UNL     1       4.150  32.065   6.711  1.00  0.00     0.233 C 
BRANCH  10  11
HETATM   11  N2  UNL     1       2.856  31.802   7.318  1.00  0.00    -0.079 N 
ATOM     12  H23 UNL     1       2.078  32.047   6.704  1.00  0.00     0.274 HD
ATOM     13  H22 UNL     1       2.657  30.806   7.403  1.00  0.00     0.274 HD
ATOM     14  H21 UNL     1       2.816  32.289   8.213  1.00  0.00     0.274 HD
ENDBRANCH  10  11
ENDBRANCH   9  10
ENDBRANCH   8   9
ENDBRANCH   3   7
ENDBRANCH   1   3
BRANCH   1  15
HETATM   15  C7  UNL     1       2.340  25.930   4.202  1.00  0.00     0.153 C 
BRANCH  15  16
HETATM   16  C8  UNL     1       1.090  25.884   5.050  1.00  0.00    -0.041 A 
HETATM   17  C9  UNL     1       1.248  26.249   6.374  1.00  0.00     0.009 A 
HETATM   18  C10 UNL     1       0.158  26.234   7.234  1.00  0.00     0.013 A 
HETATM   19  C11 UNL     1      -1.073  25.854   6.756  1.00  0.00    -0.025 A 
HETATM   20  C17 UNL     1      -1.235  25.492   5.451  1.00  0.00     0.013 A 
HETATM   21  C18 UNL     1      -0.128  25.512   4.596  1.00  0.00     0.009 A 
BRANCH  19  22
HETATM   22  C12 UNL     1      -2.236  25.829   7.640  1.00  0.00    -0.011 A 
HETATM   23  C13 UNL     1      -3.501  25.509   7.189  1.00  0.00     0.015 A 
HETATM   24  C14 UNL     1      -4.583  25.496   8.059  1.00  0.00     0.018 A 
HETATM   25  C15 UNL     1      -4.359  25.810   9.385  1.00  0.00     0.087 A 
HETATM   26  N4  UNL     1      -3.141  26.115   9.815  1.00  0.00    -0.374 N 
HETATM   27  C16 UNL     1      -2.089  26.130   8.974  1.00  0.00     0.099 A 
ATOM     28  H4  UNL     1      -2.999  26.343  10.799  1.00  0.00     0.164 HD
ENDBRANCH  19  22
ENDBRANCH  15  16
ENDBRANCH   1  15
TORSDOF 9
ENDMDL
