MODEL 13
REMARK VINA RESULT: -5.752967246      8.392     10.100
REMARK  9 active torsions:
REMARK  status: ('A' for Active; 'I' for Inactive)
REMARK    1  A    between atoms: C1_2  and  C2_4 
REMARK    2  A    between atoms: C2_4  and  C3_5 
REMARK    3  A    between atoms: C2_4  and  N3_13 
REMARK    4  A    between atoms: C4_6  and  C5_7 
REMARK    5  A    between atoms: C5_7  and  C6_8 
REMARK    6  A    between atoms: C6_8  and  N2_9 
REMARK    7  A    between atoms: N3_13  and  C7_15 
REMARK    8  A    between atoms: C7_15  and  C8_16 
REMARK    9  A    between atoms: C11_19  and  C12_20 
ROOT
HETATM    1  N3  UNL     1       2.927  37.212   9.731  1.00  0.00    -0.403 N 
ATOM      2  H3  UNL     1       3.555  36.413   9.638  1.00  0.00     0.154 HD
ENDROOT
BRANCH   1   3
HETATM    3  C2  UNL     1       2.841  38.275   8.699  1.00  0.00     0.190 C 
BRANCH   3   4
HETATM    4  C1  UNL     1       4.221  38.679   8.425  1.00  0.00     0.257 C 
HETATM    5  N1  UNL     1       5.010  39.343   9.431  1.00  0.00    -0.060 NA
HETATM    6  O1  UNL     1       4.850  38.509   7.343  1.00  0.00    -0.274 OA
ENDBRANCH   3   4
BRANCH   3   7
HETATM    7  C3  UNL     1       2.074  37.817   7.551  1.00  0.00     0.003 C 
HETATM    8  C4  UNL     1       1.252  38.615   6.676  1.00  0.00    -0.027 C 
BRANCH   8   9
HETATM    9  C5  UNL     1       1.720  39.703   5.826  1.00  0.00     0.054 C 
BRANCH   9  10
HETATM   10  C6  UNL     1       0.571  39.984   4.803  1.00  0.00     0.233 C 
BRANCH  10  11
HETATM   11  N2  UNL     1       1.170  40.365   3.535  1.00  0.00    -0.079 N 
ATOM     12  H23 UNL     1       1.313  41.372   3.455  1.00  0.00     0.274 HD
ATOM     13  H22 UNL     1       2.146  40.080   3.461  1.00  0.00     0.274 HD
ATOM     14  H21 UNL     1       0.593  39.991   2.782  1.00  0.00     0.274 HD
ENDBRANCH  10  11
ENDBRANCH   9  10
ENDBRANCH   8   9
ENDBRANCH   3   7
ENDBRANCH   1   3
BRANCH   1  15
HETATM   15  C7  UNL     1       2.083  37.380  10.848  1.00  0.00     0.153 C 
BRANCH  15  16
HETATM   16  C8  UNL     1       1.533  36.015  11.191  1.00  0.00    -0.041 A 
HETATM   17  C9  UNL     1       1.963  35.478  12.392  1.00  0.00     0.009 A 
HETATM   18  C10 UNL     1       1.515  34.226  12.792  1.00  0.00     0.013 A 
HETATM   19  C11 UNL     1       0.646  33.530  11.986  1.00  0.00    -0.025 A 
HETATM   20  C17 UNL     1       0.220  34.055  10.802  1.00  0.00     0.013 A 
HETATM   21  C18 UNL     1       0.678  35.317  10.411  1.00  0.00     0.009 A 
BRANCH  19  22
HETATM   22  C12 UNL     1       0.161  32.211  12.385  1.00  0.00    -0.011 A 
HETATM   23  C13 UNL     1       0.914  31.350  13.159  1.00  0.00     0.015 A 
HETATM   24  C14 UNL     1       0.421  30.103  13.519  1.00  0.00     0.018 A 
HETATM   25  C15 UNL     1      -0.840  29.749  13.083  1.00  0.00     0.087 A 
HETATM   26  N4  UNL     1      -1.562  30.580  12.340  1.00  0.00    -0.374 N 
HETATM   27  C16 UNL     1      -1.087  31.790  11.988  1.00  0.00     0.099 A 
ATOM     28  H4  UNL     1      -2.491  30.297  12.030  1.00  0.00     0.164 HD
ENDBRANCH  19  22
ENDBRANCH  15  16
ENDBRANCH   1  15
TORSDOF 9
ENDMDL
