MODEL 1
REMARK VINA RESULT: -6.994496818      0.000      0.000
REMARK  9 active torsions:
REMARK  status: ('A' for Active; 'I' for Inactive)
REMARK    1  A    between atoms: C1_2  and  C2_4 
REMARK    2  A    between atoms: C2_4  and  C3_5 
REMARK    3  A    between atoms: C2_4  and  N3_13 
REMARK    4  A    between atoms: C4_6  and  C5_7 
REMARK    5  A    between atoms: C5_7  and  C6_8 
REMARK    6  A    between atoms: C6_8  and  N2_9 
REMARK    7  A    between atoms: N3_13  and  C7_15 
REMARK    8  A    between atoms: C7_15  and  C8_16 
REMARK    9  A    between atoms: C11_19  and  C12_20 
ROOT
HETATM    1  N3  UNL     1       2.305  27.163   3.532  1.00  0.00    -0.403 N 
ATOM      2  H3  UNL     1       1.636  27.422   2.806  1.00  0.00     0.154 HD
ENDROOT
BRANCH   1   3
HETATM    3  C2  UNL     1       3.366  28.089   3.999  1.00  0.00     0.190 C 
BRANCH   3   4
HETATM    4  C1  UNL     1       3.742  28.887   2.831  1.00  0.00     0.257 C 
HETATM    5  N1  UNL     1       5.114  28.962   2.399  1.00  0.00    -0.060 NA
HETATM    6  O1  UNL     1       2.962  29.564   2.105  1.00  0.00    -0.274 OA
ENDBRANCH   3   4
BRANCH   3   7
HETATM    7  C3  UNL     1       2.919  28.840   5.162  1.00  0.00     0.003 C 
HETATM    8  C4  UNL     1       3.686  29.163   6.339  1.00  0.00    -0.027 C 
BRANCH   8   9
HETATM    9  C5  UNL     1       4.888  29.987   6.371  1.00  0.00     0.054 C 
BRANCH   9  10
HETATM   10  C6  UNL     1       4.506  31.344   5.692  1.00  0.00     0.233 C 
BRANCH  10  11
HETATM   11  N2  UNL     1       5.291  31.484   4.477  1.00  0.00    -0.079 N 
ATOM     12  H23 UNL     1       5.561  32.451   4.294  1.00  0.00     0.274 HD
ATOM     13  H22 UNL     1       6.229  31.095   4.570  1.00  0.00     0.274 HD
ATOM     14  H21 UNL     1       4.768  31.070   3.706  1.00  0.00     0.274 HD
ENDBRANCH  10  11
ENDBRANCH   9  10
ENDBRANCH   8   9
ENDBRANCH   3   7
ENDBRANCH   1   3
BRANCH   1  15
HETATM   15  C7  UNL     1       2.282  25.899   4.159  1.00  0.00     0.153 C 
BRANCH  15  16
HETATM   16  C8  UNL     1       1.041  25.859   5.020  1.00  0.00    -0.041 A 
HETATM   17  C9  UNL     1       1.215  26.227   6.342  1.00  0.00     0.009 A 
HETATM   18  C10 UNL     1       0.134  26.219   7.213  1.00  0.00     0.013 A 
HETATM   19  C11 UNL     1      -1.104  25.842   6.749  1.00  0.00    -0.025 A 
HETATM   20  C17 UNL     1      -1.281  25.478   5.448  1.00  0.00     0.013 A 
HETATM   21  C18 UNL     1      -0.183  25.491   4.581  1.00  0.00     0.009 A 
BRANCH  19  22
HETATM   22  C12 UNL     1      -2.257  25.824   7.647  1.00  0.00    -0.011 A 
HETATM   23  C13 UNL     1      -3.528  25.506   7.210  1.00  0.00     0.015 A 
HETATM   24  C14 UNL     1      -4.601  25.499   8.092  1.00  0.00     0.018 A 
HETATM   25  C15 UNL     1      -4.361  25.817   9.414  1.00  0.00     0.087 A 
HETATM   26  N4  UNL     1      -3.138  26.122   9.830  1.00  0.00    -0.374 N 
HETATM   27  C16 UNL     1      -2.095  26.130   8.978  1.00  0.00     0.099 A 
ATOM     28  H4  UNL     1      -2.985  26.354  10.811  1.00  0.00     0.164 HD
ENDBRANCH  19  22
ENDBRANCH  15  16
ENDBRANCH   1  15
TORSDOF 9
ENDMDL
