MODEL 2
REMARK VINA RESULT: -6.861016619      0.720      1.222
REMARK  9 active torsions:
REMARK  status: ('A' for Active; 'I' for Inactive)
REMARK    1  A    between atoms: C1_2  and  C2_4 
REMARK    2  A    between atoms: C2_4  and  C3_5 
REMARK    3  A    between atoms: C2_4  and  N3_13 
REMARK    4  A    between atoms: C4_6  and  C5_7 
REMARK    5  A    between atoms: C5_7  and  C6_8 
REMARK    6  A    between atoms: C6_8  and  N2_9 
REMARK    7  A    between atoms: N3_13  and  C7_15 
REMARK    8  A    between atoms: C7_15  and  C8_16 
REMARK    9  A    between atoms: C11_19  and  C12_20 
ROOT
HETATM    1  N3  UNL     1       2.367  27.354   3.640  1.00  0.00    -0.403 N 
ATOM      2  H3  UNL     1       1.649  27.728   3.019  1.00  0.00     0.154 HD
ENDROOT
BRANCH   1   3
HETATM    3  C2  UNL     1       3.547  28.150   4.057  1.00  0.00     0.190 C 
BRANCH   3   4
HETATM    4  C1  UNL     1       4.027  28.817   2.846  1.00  0.00     0.257 C 
HETATM    5  N1  UNL     1       3.124  29.558   2.003  1.00  0.00    -0.060 NA
HETATM    6  O1  UNL     1       5.215  28.824   2.416  1.00  0.00    -0.274 OA
ENDBRANCH   3   4
BRANCH   3   7
HETATM    7  C3  UNL     1       3.212  29.023   5.171  1.00  0.00     0.003 C 
HETATM    8  C4  UNL     1       4.064  29.400   6.271  1.00  0.00    -0.027 C 
BRANCH   8   9
HETATM    9  C5  UNL     1       5.309  30.151   6.164  1.00  0.00     0.054 C 
BRANCH   9  10
HETATM   10  C6  UNL     1       4.975  31.434   5.334  1.00  0.00     0.233 C 
BRANCH  10  11
HETATM   11  N2  UNL     1       5.824  31.450   4.155  1.00  0.00    -0.079 N 
ATOM     12  H23 UNL     1       6.809  31.308   4.379  1.00  0.00     0.274 HD
ATOM     13  H22 UNL     1       5.695  30.626   3.568  1.00  0.00     0.274 HD
ATOM     14  H21 UNL     1       5.658  32.321   3.651  1.00  0.00     0.274 HD
ENDBRANCH  10  11
ENDBRANCH   9  10
ENDBRANCH   8   9
ENDBRANCH   3   7
ENDBRANCH   1   3
BRANCH   1  15
HETATM   15  C7  UNL     1       2.303  26.044   4.159  1.00  0.00     0.153 C 
BRANCH  15  16
HETATM   16  C8  UNL     1       1.156  26.017   5.143  1.00  0.00    -0.041 A 
HETATM   17  C9  UNL     1      -0.035  25.503   4.664  1.00  0.00     0.009 A 
HETATM   18  C10 UNL     1      -1.147  25.440   5.492  1.00  0.00     0.013 A 
HETATM   19  C11 UNL     1      -1.052  25.894   6.786  1.00  0.00    -0.025 A 
HETATM   20  C17 UNL     1       0.119  26.403   7.263  1.00  0.00     0.013 A 
HETATM   21  C18 UNL     1       1.233  26.460   6.418  1.00  0.00     0.009 A 
BRANCH  19  22
HETATM   22  C12 UNL     1      -2.208  25.840   7.677  1.00  0.00    -0.011 A 
HETATM   23  C13 UNL     1      -3.476  25.529   7.225  1.00  0.00     0.015 A 
HETATM   24  C14 UNL     1      -4.553  25.487   8.101  1.00  0.00     0.018 A 
HETATM   25  C15 UNL     1      -4.321  25.763   9.434  1.00  0.00     0.087 A 
HETATM   26  N4  UNL     1      -3.101  26.061   9.865  1.00  0.00    -0.374 N 
HETATM   27  C16 UNL     1      -2.054  26.103   9.018  1.00  0.00     0.099 A 
ATOM     28  H4  UNL     1      -2.953  26.260  10.854  1.00  0.00     0.164 HD
ENDBRANCH  19  22
ENDBRANCH  15  16
ENDBRANCH   1  15
TORSDOF 9
ENDMDL
