MODEL 17
REMARK VINA RESULT: -4.765299379      4.818      6.060
REMARK  5 active torsions:
REMARK  status: ('A' for Active; 'I' for Inactive)
REMARK    1  A    between atoms: C2_2  and  C3_3 
REMARK    2  A    between atoms: C3_3  and  C4_4 
REMARK    3  A    between atoms: C4_4  and  C6_6 
REMARK    4  A    between atoms: C6_6  and  N1_7 
REMARK    5  A    between atoms: C6_6  and  P1_11 
ROOT
HETATM    1  C6  UNL     1      19.756  -2.665  13.359  1.00  0.00     0.315 C 
ENDROOT
BRANCH   1   2
HETATM    2  C4  UNL     1      19.020  -3.750  14.114  1.00  0.00     0.026 C 
HETATM    3  C5  UNL     1      19.822  -4.438  15.166  1.00  0.00     0.012 C 
BRANCH   2   4
HETATM    4  C3  UNL     1      17.675  -3.287  14.648  1.00  0.00     0.006 C 
BRANCH   4   5
HETATM    5  C2  UNL     1      17.683  -3.631  16.136  1.00  0.00    -0.004 C 
HETATM    6  C1  UNL     1      16.355  -4.192  16.579  1.00  0.00     0.005 C 
ENDBRANCH   4   5
ENDBRANCH   2   4
ENDBRANCH   1   2
BRANCH   1   7
HETATM    7  N1  UNL     1      18.763  -1.660  13.006  1.00  0.00    -0.062 N 
ATOM      8  H13 UNL     1      18.420  -1.750  12.050  1.00  0.00     0.275 HD
ATOM      9  H12 UNL     1      17.868  -1.796  13.476  1.00  0.00     0.275 HD
ATOM     10  H11 UNL     1      19.188  -0.753  13.200  1.00  0.00     0.275 HD
ENDBRANCH   1   7
BRANCH   1  11
HETATM   11  P1  UNL     1      20.824  -3.228  12.120  1.00  0.00     0.291 P 
HETATM   12  O1  UNL     1      22.022  -2.305  12.356  1.00  0.00    -0.638 OA
HETATM   13  O2  UNL     1      21.857  -4.544  12.436  1.00  0.00    -0.638 OA
HETATM   14  O3  UNL     1      20.697  -2.676  10.579  1.00  0.00    -0.638 OA
ENDBRANCH   1  11
TORSDOF 5
ENDMDL
