MODEL 20
REMARK VINA RESULT: -4.553233099      5.302      6.566
REMARK  5 active torsions:
REMARK  status: ('A' for Active; 'I' for Inactive)
REMARK    1  A    between atoms: C2_2  and  C3_3 
REMARK    2  A    between atoms: C3_3  and  C4_4 
REMARK    3  A    between atoms: C4_4  and  C6_6 
REMARK    4  A    between atoms: C6_6  and  N1_7 
REMARK    5  A    between atoms: C6_6  and  P1_11 
ROOT
HETATM    1  C6  UNL     1      19.642  -3.194  14.645  1.00  0.00     0.315 C 
ENDROOT
BRANCH   1   2
HETATM    2  C4  UNL     1      18.430  -4.098  14.684  1.00  0.00     0.026 C 
HETATM    3  C5  UNL     1      18.729  -5.538  14.930  1.00  0.00     0.012 C 
BRANCH   2   4
HETATM    4  C3  UNL     1      17.342  -3.585  15.611  1.00  0.00     0.006 C 
BRANCH   4   5
HETATM    5  C2  UNL     1      17.153  -4.675  16.665  1.00  0.00    -0.004 C 
HETATM    6  C1  UNL     1      15.884  -4.465  17.453  1.00  0.00     0.005 C 
ENDBRANCH   4   5
ENDBRANCH   2   4
ENDBRANCH   1   2
BRANCH   1   7
HETATM    7  N1  UNL     1      19.384  -2.115  15.588  1.00  0.00    -0.062 N 
ATOM      8  H13 UNL     1      19.807  -1.228  15.313  1.00  0.00     0.275 HD
ATOM      9  H12 UNL     1      18.414  -1.800  15.584  1.00  0.00     0.275 HD
ATOM     10  H11 UNL     1      19.697  -2.446  16.501  1.00  0.00     0.275 HD
ENDBRANCH   1   7
BRANCH   1  11
HETATM   11  P1  UNL     1      20.198  -2.777  13.060  1.00  0.00     0.291 P 
HETATM   12  O1  UNL     1      20.818  -4.110  12.632  1.00  0.00    -0.638 OA
HETATM   13  O2  UNL     1      19.138  -2.918  11.735  1.00  0.00    -0.638 OA
HETATM   14  O3  UNL     1      21.643  -2.030  12.841  1.00  0.00    -0.638 OA
ENDBRANCH   1  11
TORSDOF 5
ENDMDL
