MODEL 1
REMARK VINA RESULT: -6.632915607      0.000      0.000
REMARK  5 active torsions:
REMARK  status: ('A' for Active; 'I' for Inactive)
REMARK    1  A    between atoms: C2_2  and  C3_3 
REMARK    2  A    between atoms: C3_3  and  C4_4 
REMARK    3  A    between atoms: C4_4  and  C6_6 
REMARK    4  A    between atoms: C6_6  and  N1_7 
REMARK    5  A    between atoms: C6_6  and  P1_11 
ROOT
HETATM    1  C6  UNL     1      23.042  -3.928  10.465  1.00  0.00     0.315 C 
ENDROOT
BRANCH   1   2
HETATM    2  C4  UNL     1      23.483  -5.149  11.243  1.00  0.00     0.026 C 
HETATM    3  C5  UNL     1      22.423  -5.773  12.085  1.00  0.00     0.012 C 
BRANCH   2   4
HETATM    4  C3  UNL     1      24.186  -6.178  10.374  1.00  0.00     0.006 C 
BRANCH   4   5
HETATM    5  C2  UNL     1      24.637  -7.282  11.329  1.00  0.00    -0.004 C 
HETATM    6  C1  UNL     1      24.423  -8.649  10.731  1.00  0.00     0.005 C 
ENDBRANCH   4   5
ENDBRANCH   2   4
ENDBRANCH   1   2
BRANCH   1   7
HETATM    7  N1  UNL     1      24.257  -3.241  10.051  1.00  0.00    -0.062 N 
ATOM      8  H13 UNL     1      25.083  -3.840  10.059  1.00  0.00     0.275 HD
ATOM      9  H12 UNL     1      24.274  -3.015   9.057  1.00  0.00     0.275 HD
ATOM     10  H11 UNL     1      24.347  -2.422  10.653  1.00  0.00     0.275 HD
ENDBRANCH   1   7
BRANCH   1  11
HETATM   11  P1  UNL     1      21.790  -2.996  11.210  1.00  0.00     0.291 P 
HETATM   12  O1  UNL     1      22.038  -1.635  10.553  1.00  0.00    -0.638 OA
HETATM   13  O2  UNL     1      20.234  -2.975  10.518  1.00  0.00    -0.638 OA
HETATM   14  O3  UNL     1      22.005  -2.323  12.692  1.00  0.00    -0.638 OA
ENDBRANCH   1  11
TORSDOF 5
ENDMDL
