MODEL 6
REMARK VINA RESULT: -6.051944113      1.121      1.693
REMARK  5 active torsions:
REMARK  status: ('A' for Active; 'I' for Inactive)
REMARK    1  A    between atoms: C2_2  and  C3_3 
REMARK    2  A    between atoms: C3_3  and  C4_4 
REMARK    3  A    between atoms: C4_4  and  C6_6 
REMARK    4  A    between atoms: C6_6  and  N1_7 
REMARK    5  A    between atoms: C6_6  and  P1_11 
ROOT
HETATM    1  C6  UNL     1      23.277  -3.994  10.230  1.00  0.00     0.315 C 
ENDROOT
BRANCH   1   2
HETATM    2  C4  UNL     1      23.767  -5.421  10.117  1.00  0.00     0.026 C 
HETATM    3  C5  UNL     1      24.988  -5.602   9.280  1.00  0.00     0.012 C 
BRANCH   2   4
HETATM    4  C3  UNL     1      23.906  -6.105  11.466  1.00  0.00     0.006 C 
BRANCH   4   5
HETATM    5  C2  UNL     1      24.772  -7.338  11.215  1.00  0.00    -0.004 C 
HETATM    6  C1  UNL     1      23.929  -8.580  11.060  1.00  0.00     0.005 C 
ENDBRANCH   4   5
ENDBRANCH   2   4
ENDBRANCH   1   2
BRANCH   1   7
HETATM    7  N1  UNL     1      24.425  -3.141   9.959  1.00  0.00    -0.062 N 
ATOM      8  H13 UNL     1      25.036  -3.017  10.767  1.00  0.00     0.275 HD
ATOM      9  H12 UNL     1      25.114  -3.574   9.344  1.00  0.00     0.275 HD
ATOM     10  H11 UNL     1      24.054  -2.263   9.595  1.00  0.00     0.275 HD
ENDBRANCH   1   7
BRANCH   1  11
HETATM   11  P1  UNL     1      22.320  -3.656  11.630  1.00  0.00     0.291 P 
HETATM   12  O1  UNL     1      21.003  -3.246  10.965  1.00  0.00    -0.638 OA
HETATM   13  O2  UNL     1      21.469  -4.919  12.391  1.00  0.00    -0.638 OA
HETATM   14  O3  UNL     1      22.401  -2.195  12.377  1.00  0.00    -0.638 OA
ENDBRANCH   1  11
TORSDOF 5
ENDMDL
