MODEL 5
REMARK VINA RESULT: -6.058086318      1.255      1.968
REMARK  5 active torsions:
REMARK  status: ('A' for Active; 'I' for Inactive)
REMARK    1  A    between atoms: C2_2  and  C3_3 
REMARK    2  A    between atoms: C3_3  and  C4_4 
REMARK    3  A    between atoms: C4_4  and  C6_6 
REMARK    4  A    between atoms: C6_6  and  N1_7 
REMARK    5  A    between atoms: C6_6  and  P1_11 
ROOT
HETATM    1  C6  UNL     1      23.224  -4.033  10.163  1.00  0.00     0.315 C 
ENDROOT
BRANCH   1   2
HETATM    2  C4  UNL     1      23.476  -5.489  10.486  1.00  0.00     0.026 C 
HETATM    3  C5  UNL     1      24.701  -6.067   9.862  1.00  0.00     0.012 C 
BRANCH   2   4
HETATM    4  C3  UNL     1      23.415  -5.782  11.975  1.00  0.00     0.006 C 
BRANCH   4   5
HETATM    5  C2  UNL     1      22.394  -6.907  12.131  1.00  0.00    -0.004 C 
HETATM    6  C1  UNL     1      21.619  -6.772  13.418  1.00  0.00     0.005 C 
ENDBRANCH   4   5
ENDBRANCH   2   4
ENDBRANCH   1   2
BRANCH   1   7
HETATM    7  N1  UNL     1      24.485  -3.492   9.676  1.00  0.00    -0.062 N 
ATOM      8  H13 UNL     1      25.301  -3.997  10.021  1.00  0.00     0.275 HD
ATOM      9  H12 UNL     1      24.640  -3.663   8.683  1.00  0.00     0.275 HD
ATOM     10  H11 UNL     1      24.490  -2.502   9.921  1.00  0.00     0.275 HD
ENDBRANCH   1   7
BRANCH   1  11
HETATM   11  P1  UNL     1      22.372  -3.148  11.382  1.00  0.00     0.291 P 
HETATM   12  O1  UNL     1      21.980  -1.900  10.586  1.00  0.00    -0.638 OA
HETATM   13  O2  UNL     1      20.712  -3.437  11.623  1.00  0.00    -0.638 OA
HETATM   14  O3  UNL     1      23.177  -2.211  12.464  1.00  0.00    -0.638 OA
ENDBRANCH   1  11
TORSDOF 5
ENDMDL
