MODEL 3
REMARK VINA RESULT: -6.256248142      0.938      1.344
REMARK  5 active torsions:
REMARK  status: ('A' for Active; 'I' for Inactive)
REMARK    1  A    between atoms: C2_2  and  C3_3 
REMARK    2  A    between atoms: C3_3  and  C4_4 
REMARK    3  A    between atoms: C4_4  and  C6_6 
REMARK    4  A    between atoms: C6_6  and  N1_7 
REMARK    5  A    between atoms: C6_6  and  P1_11 
ROOT
HETATM    1  C6  UNL     1      22.786  -4.721  10.399  1.00  0.00     0.315 C 
ENDROOT
BRANCH   1   2
HETATM    2  C4  UNL     1      23.364  -5.795  11.294  1.00  0.00     0.026 C 
HETATM    3  C5  UNL     1      22.355  -6.672  11.954  1.00  0.00     0.012 C 
BRANCH   2   4
HETATM    4  C3  UNL     1      24.452  -6.607  10.612  1.00  0.00     0.006 C 
BRANCH   4   5
HETATM    5  C2  UNL     1      23.891  -8.022  10.488  1.00  0.00    -0.004 C 
HETATM    6  C1  UNL     1      24.798  -9.034  11.142  1.00  0.00     0.005 C 
ENDBRANCH   4   5
ENDBRANCH   2   4
ENDBRANCH   1   2
BRANCH   1   7
HETATM    7  N1  UNL     1      23.815  -4.399   9.421  1.00  0.00    -0.062 N 
ATOM      8  H13 UNL     1      24.763  -4.489   9.787  1.00  0.00     0.275 HD
ATOM      9  H12 UNL     1      23.899  -5.096   8.680  1.00  0.00     0.275 HD
ATOM     10  H11 UNL     1      23.603  -3.464   9.073  1.00  0.00     0.275 HD
ENDBRANCH   1   7
BRANCH   1  11
HETATM   11  P1  UNL     1      22.009  -3.415  11.227  1.00  0.00     0.291 P 
HETATM   12  O1  UNL     1      20.752  -3.260  10.367  1.00  0.00    -0.638 OA
HETATM   13  O2  UNL     1      20.988  -3.747  12.548  1.00  0.00    -0.638 OA
HETATM   14  O3  UNL     1      22.418  -1.855  10.916  1.00  0.00    -0.638 OA
ENDBRANCH   1  11
TORSDOF 5
ENDMDL
