MODEL 11
REMARK VINA RESULT: -5.728337160      4.288      5.400
REMARK  5 active torsions:
REMARK  status: ('A' for Active; 'I' for Inactive)
REMARK    1  A    between atoms: N1_1  and  C1_5 
REMARK    2  A    between atoms: C1_5  and  C2_6 
REMARK    3  A    between atoms: C1_5  and  P1_13 
REMARK    4  A    between atoms: C2_6  and  C3_7 
REMARK    5  A    between atoms: C3_7  and  C4_8 
ROOT
HETATM    1  C1  UNL     1      21.300  -2.399  11.047  1.00  0.00     0.312 C 
ENDROOT
BRANCH   1   2
HETATM    2  N1  UNL     1      20.411  -2.334   9.929  1.00  0.00    -0.062 N 
ATOM      3  H13 UNL     1      19.468  -2.609  10.201  1.00  0.00     0.275 HD
ATOM      4  H12 UNL     1      20.235  -1.364   9.664  1.00  0.00     0.275 HD
ATOM      5  H11 UNL     1      20.728  -2.876   9.125  1.00  0.00     0.275 HD
ENDBRANCH   1   2
BRANCH   1   6
HETATM    6  C2  UNL     1      20.608  -2.640  12.341  1.00  0.00     0.048 C 
BRANCH   6   7
HETATM    7  C3  UNL     1      19.164  -2.609  12.411  1.00  0.00     0.007 C 
BRANCH   7   8
HETATM    8  C4  UNL     1      18.498  -3.566  13.316  1.00  0.00    -0.014 C 
HETATM    9  C5  UNL     1      17.617  -2.777  14.344  1.00  0.00     0.004 C 
HETATM   10  C6  UNL     1      17.560  -3.803  15.455  1.00  0.00     0.000 C 
HETATM   11  C7  UNL     1      19.064  -4.053  15.640  1.00  0.00     0.000 C 
HETATM   12  C8  UNL     1      19.472  -4.310  14.217  1.00  0.00     0.004 C 
ENDBRANCH   7   8
ENDBRANCH   6   7
ENDBRANCH   1   6
BRANCH   1  13
HETATM   13  P1  UNL     1      22.487  -3.632  10.760  1.00  0.00     0.290 P 
HETATM   14  O1  UNL     1      23.804  -3.311   9.760  1.00  0.00    -0.638 OA
HETATM   15  O2  UNL     1      21.814  -4.259   9.526  1.00  0.00    -0.638 OA
HETATM   16  O3  UNL     1      22.402  -5.059  11.586  1.00  0.00    -0.638 OA
ENDBRANCH   1  13
TORSDOF 5
ENDMDL
