MODEL 1
REMARK VINA RESULT: -7.599969483      0.000      0.000
REMARK  5 active torsions:
REMARK  status: ('A' for Active; 'I' for Inactive)
REMARK    1  A    between atoms: N1_1  and  C1_5 
REMARK    2  A    between atoms: C1_5  and  C2_6 
REMARK    3  A    between atoms: C1_5  and  P1_13 
REMARK    4  A    between atoms: C2_6  and  C3_7 
REMARK    5  A    between atoms: C3_7  and  C4_8 
ROOT
HETATM    1  C1  UNL     1      22.513  -3.881  10.348  1.00  0.00     0.312 C 
ENDROOT
BRANCH   1   2
HETATM    2  N1  UNL     1      23.544  -3.013   9.871  1.00  0.00    -0.062 N 
ATOM      3  H13 UNL     1      24.244  -3.538   9.347  1.00  0.00     0.275 HD
ATOM      4  H12 UNL     1      23.193  -2.410   9.127  1.00  0.00     0.275 HD
ATOM      5  H11 UNL     1      23.984  -2.460  10.607  1.00  0.00     0.275 HD
ENDBRANCH   1   2
BRANCH   1   6
HETATM    6  C2  UNL     1      22.978  -4.836  11.389  1.00  0.00     0.048 C 
BRANCH   6   7
HETATM    7  C3  UNL     1      22.089  -5.866  11.880  1.00  0.00     0.007 C 
BRANCH   7   8
HETATM    8  C4  UNL     1      22.500  -7.273  11.703  1.00  0.00    -0.014 C 
HETATM    9  C5  UNL     1      24.064  -7.355  11.684  1.00  0.00     0.004 C 
HETATM   10  C6  UNL     1      24.232  -8.649  10.918  1.00  0.00     0.000 C 
HETATM   11  C7  UNL     1      23.383  -8.318   9.682  1.00  0.00     0.000 C 
HETATM   12  C8  UNL     1      22.122  -7.836  10.341  1.00  0.00     0.004 C 
ENDBRANCH   7   8
ENDBRANCH   6   7
ENDBRANCH   1   6
BRANCH   1  13
HETATM   13  P1  UNL     1      21.197  -2.924  10.952  1.00  0.00     0.290 P 
HETATM   14  O1  UNL     1      19.759  -2.834  10.081  1.00  0.00    -0.638 OA
HETATM   15  O2  UNL     1      21.593  -1.604  10.268  1.00  0.00    -0.638 OA
HETATM   16  O3  UNL     1      21.306  -2.232  12.447  1.00  0.00    -0.638 OA
ENDBRANCH   1  13
TORSDOF 5
ENDMDL
