MODEL 2
REMARK VINA RESULT: -7.130008797      1.211      1.477
REMARK  5 active torsions:
REMARK  status: ('A' for Active; 'I' for Inactive)
REMARK    1  A    between atoms: N1_1  and  C1_5 
REMARK    2  A    between atoms: C1_5  and  C2_6 
REMARK    3  A    between atoms: C1_5  and  P1_13 
REMARK    4  A    between atoms: C2_6  and  C3_7 
REMARK    5  A    between atoms: C3_7  and  C4_8 
ROOT
HETATM    1  C1  UNL     1      22.123  -3.191  10.396  1.00  0.00     0.312 C 
ENDROOT
BRANCH   1   2
HETATM    2  N1  UNL     1      23.264  -2.720  11.118  1.00  0.00    -0.062 N 
ATOM      3  H13 UNL     1      24.122  -3.118  10.737  1.00  0.00     0.275 HD
ATOM      4  H12 UNL     1      23.433  -1.733  10.922  1.00  0.00     0.275 HD
ATOM      5  H11 UNL     1      23.205  -2.883  12.123  1.00  0.00     0.275 HD
ENDBRANCH   1   2
BRANCH   1   6
HETATM    6  C2  UNL     1      22.367  -4.465   9.669  1.00  0.00     0.048 C 
BRANCH   6   7
HETATM    7  C3  UNL     1      23.502  -5.293  10.011  1.00  0.00     0.007 C 
BRANCH   7   8
HETATM    8  C4  UNL     1      23.262  -6.475  10.862  1.00  0.00    -0.014 C 
HETATM    9  C5  UNL     1      24.516  -7.412  10.809  1.00  0.00     0.004 C 
HETATM   10  C6  UNL     1      23.858  -8.723  11.183  1.00  0.00     0.000 C 
HETATM   11  C7  UNL     1      22.736  -8.745  10.134  1.00  0.00     0.000 C 
HETATM   12  C8  UNL     1      22.155  -7.374  10.332  1.00  0.00     0.004 C 
ENDBRANCH   7   8
ENDBRANCH   6   7
ENDBRANCH   1   6
BRANCH   1  13
HETATM   13  P1  UNL     1      20.789  -3.369  11.492  1.00  0.00     0.290 P 
HETATM   14  O1  UNL     1      19.349  -2.546  11.199  1.00  0.00    -0.638 OA
HETATM   15  O2  UNL     1      21.159  -2.207  12.431  1.00  0.00    -0.638 OA
HETATM   16  O3  UNL     1      20.884  -4.457  12.729  1.00  0.00    -0.638 OA
ENDBRANCH   1  13
TORSDOF 5
ENDMDL
