MODEL 3
REMARK VINA RESULT: -7.052824468      1.108      2.122
REMARK  5 active torsions:
REMARK  status: ('A' for Active; 'I' for Inactive)
REMARK    1  A    between atoms: N1_1  and  C1_5 
REMARK    2  A    between atoms: C1_5  and  C2_6 
REMARK    3  A    between atoms: C1_5  and  P1_13 
REMARK    4  A    between atoms: C2_6  and  C3_7 
REMARK    5  A    between atoms: C3_7  and  C4_8 
ROOT
HETATM    1  C1  UNL     1      22.571  -3.405   9.979  1.00  0.00     0.312 C 
ENDROOT
BRANCH   1   2
HETATM    2  N1  UNL     1      23.807  -2.969  10.551  1.00  0.00    -0.062 N 
ATOM      3  H13 UNL     1      23.861  -3.230  11.535  1.00  0.00     0.275 HD
ATOM      4  H12 UNL     1      24.587  -3.517  10.187  1.00  0.00     0.275 HD
ATOM      5  H11 UNL     1      23.980  -1.971  10.431  1.00  0.00     0.275 HD
ENDBRANCH   1   2
BRANCH   1   6
HETATM    6  C2  UNL     1      22.473  -4.882   9.835  1.00  0.00     0.048 C 
BRANCH   6   7
HETATM    7  C3  UNL     1      23.617  -5.647   9.392  1.00  0.00     0.007 C 
BRANCH   7   8
HETATM    8  C4  UNL     1      24.161  -6.667  10.310  1.00  0.00    -0.014 C 
HETATM    9  C5  UNL     1      23.676  -8.085   9.852  1.00  0.00     0.004 C 
HETATM   10  C6  UNL     1      23.796  -8.822  11.168  1.00  0.00     0.000 C 
HETATM   11  C7  UNL     1      22.963  -7.884  12.055  1.00  0.00     0.000 C 
HETATM   12  C8  UNL     1      23.595  -6.563  11.718  1.00  0.00     0.004 C 
ENDBRANCH   7   8
ENDBRANCH   6   7
ENDBRANCH   1   6
BRANCH   1  13
HETATM   13  P1  UNL     1      21.255  -2.804  10.938  1.00  0.00     0.290 P 
HETATM   14  O1  UNL     1      21.571  -2.012  12.390  1.00  0.00    -0.638 OA
HETATM   15  O2  UNL     1      21.038  -4.074  11.779  1.00  0.00    -0.638 OA
HETATM   16  O3  UNL     1      19.714  -2.875  10.351  1.00  0.00    -0.638 OA
ENDBRANCH   1  13
TORSDOF 5
ENDMDL
