MODEL 5
REMARK VINA RESULT: -6.710524803      0.689      1.348
REMARK  5 active torsions:
REMARK  status: ('A' for Active; 'I' for Inactive)
REMARK    1  A    between atoms: N1_1  and  C1_5 
REMARK    2  A    between atoms: C1_5  and  C2_6 
REMARK    3  A    between atoms: C1_5  and  P1_13 
REMARK    4  A    between atoms: C2_6  and  C3_7 
REMARK    5  A    between atoms: C3_7  and  C4_8 
ROOT
HETATM    1  C1  UNL     1      22.172  -3.888  10.649  1.00  0.00     0.312 C 
ENDROOT
BRANCH   1   2
HETATM    2  N1  UNL     1      23.384  -3.151  10.472  1.00  0.00    -0.062 N 
ATOM      3  H13 UNL     1      24.115  -3.746  10.085  1.00  0.00     0.275 HD
ATOM      4  H12 UNL     1      23.290  -2.480   9.709  1.00  0.00     0.275 HD
ATOM      5  H11 UNL     1      23.706  -2.688  11.322  1.00  0.00     0.275 HD
ENDBRANCH   1   2
BRANCH   1   6
HETATM    6  C2  UNL     1      22.286  -4.986  11.645  1.00  0.00     0.048 C 
BRANCH   6   7
HETATM    7  C3  UNL     1      23.512  -5.747  11.751  1.00  0.00     0.007 C 
BRANCH   7   8
HETATM    8  C4  UNL     1      23.761  -6.796  10.743  1.00  0.00    -0.014 C 
HETATM    9  C5  UNL     1      22.418  -7.535  10.423  1.00  0.00     0.004 C 
HETATM   10  C6  UNL     1      22.974  -8.848   9.919  1.00  0.00     0.000 C 
HETATM   11  C7  UNL     1      23.880  -9.206  11.107  1.00  0.00     0.000 C 
HETATM   12  C8  UNL     1      24.643  -7.921  11.262  1.00  0.00     0.004 C 
ENDBRANCH   7   8
ENDBRANCH   6   7
ENDBRANCH   1   6
BRANCH   1  13
HETATM   13  P1  UNL     1      20.901  -2.795  11.100  1.00  0.00     0.290 P 
HETATM   14  O1  UNL     1      19.536  -2.650  10.125  1.00  0.00    -0.638 OA
HETATM   15  O2  UNL     1      21.447  -1.556  10.369  1.00  0.00    -0.638 OA
HETATM   16  O3  UNL     1      20.966  -2.019  12.555  1.00  0.00    -0.638 OA
ENDBRANCH   1  13
TORSDOF 5
ENDMDL
