MODEL 8
REMARK VINA RESULT: -6.116508979      4.338      4.855
REMARK  5 active torsions:
REMARK  status: ('A' for Active; 'I' for Inactive)
REMARK    1  A    between atoms: N1_1  and  C1_5 
REMARK    2  A    between atoms: C1_5  and  C2_6 
REMARK    3  A    between atoms: C1_5  and  P1_13 
REMARK    4  A    between atoms: C2_6  and  C3_7 
REMARK    5  A    between atoms: C3_7  and  C4_8 
ROOT
HETATM    1  C1  UNL     1      20.457  -6.608  14.107  1.00  0.00     0.312 C 
ENDROOT
BRANCH   1   2
HETATM    2  N1  UNL     1      20.163  -5.211  14.200  1.00  0.00    -0.062 N 
ATOM      3  H13 UNL     1      20.752  -4.764  14.902  1.00  0.00     0.275 HD
ATOM      4  H12 UNL     1      20.488  -4.718  13.368  1.00  0.00     0.275 HD
ATOM      5  H11 UNL     1      19.178  -5.014  14.375  1.00  0.00     0.275 HD
ENDBRANCH   1   2
BRANCH   1   6
HETATM    6  C2  UNL     1      21.618  -6.912  13.229  1.00  0.00     0.048 C 
BRANCH   6   7
HETATM    7  C3  UNL     1      21.983  -6.003  12.166  1.00  0.00     0.007 C 
BRANCH   7   8
HETATM    8  C4  UNL     1      22.790  -6.537  11.050  1.00  0.00    -0.014 C 
HETATM    9  C5  UNL     1      22.019  -7.724  10.378  1.00  0.00     0.004 C 
HETATM   10  C6  UNL     1      23.190  -8.457   9.759  1.00  0.00     0.000 C 
HETATM   11  C7  UNL     1      24.072  -8.614  11.006  1.00  0.00     0.000 C 
HETATM   12  C8  UNL     1      24.080  -7.199  11.512  1.00  0.00     0.004 C 
ENDBRANCH   7   8
ENDBRANCH   6   7
ENDBRANCH   1   6
BRANCH   1  13
HETATM   13  P1  UNL     1      20.724  -7.241  15.701  1.00  0.00     0.290 P 
HETATM   14  O1  UNL     1      20.357  -8.850  16.036  1.00  0.00    -0.638 OA
HETATM   15  O2  UNL     1      19.339  -6.896  16.277  1.00  0.00    -0.638 OA
HETATM   16  O3  UNL     1      21.476  -6.309  16.837  1.00  0.00    -0.638 OA
ENDBRANCH   1  13
TORSDOF 5
ENDMDL
