MODEL 1
REMARK VINA RESULT: -7.211610738      0.000      0.000
REMARK  7 active torsions:
REMARK  status: ('A' for Active; 'I' for Inactive)
REMARK    1  A    between atoms: C2_2  and  C3_3 
REMARK    2  A    between atoms: C3_3  and  C4_4 
REMARK    3  A    between atoms: C4_4  and  C5_5 
REMARK    4  A    between atoms: C4_4  and  C8_8 
REMARK    5  A    between atoms: C5_5  and  C6_6 
REMARK    6  A    between atoms: C8_8  and  N1_9 
REMARK    7  A    between atoms: C8_8  and  P1_13 
ROOT
HETATM    1  C8  UNL     1      23.141  -3.878  10.534  1.00  0.00     0.316 C 
ENDROOT
BRANCH   1   2
HETATM    2  C4  UNL     1      23.388  -5.243  11.155  1.00  0.00     0.030 C 
BRANCH   2   3
HETATM    3  C3  UNL     1      23.379  -6.378  10.196  1.00  0.00     0.007 C 
BRANCH   3   4
HETATM    4  C2  UNL     1      22.569  -7.566  10.640  1.00  0.00    -0.004 C 
HETATM    5  C1  UNL     1      23.336  -8.830  10.301  1.00  0.00     0.005 C 
ENDBRANCH   3   4
ENDBRANCH   2   3
BRANCH   2   6
HETATM    6  C5  UNL     1      24.492  -5.286  12.148  1.00  0.00     0.007 C 
BRANCH   6   7
HETATM    7  C6  UNL     1      25.513  -6.346  11.998  1.00  0.00    -0.004 C 
HETATM    8  C7  UNL     1      26.815  -5.683  11.507  1.00  0.00     0.005 C 
ENDBRANCH   6   7
ENDBRANCH   2   6
ENDBRANCH   1   2
BRANCH   1   9
HETATM    9  N1  UNL     1      24.365  -3.128  10.761  1.00  0.00    -0.062 N 
ATOM     10  H13 UNL     1      25.033  -3.605  11.367  1.00  0.00     0.275 HD
ATOM     11  H12 UNL     1      24.970  -3.069   9.942  1.00  0.00     0.275 HD
ATOM     12  H11 UNL     1      24.062  -2.221  11.114  1.00  0.00     0.275 HD
ENDBRANCH   1   9
BRANCH   1  13
HETATM   13  P1  UNL     1      21.665  -3.060  10.987  1.00  0.00     0.291 P 
HETATM   14  O1  UNL     1      21.700  -2.075  12.405  1.00  0.00    -0.638 OA
HETATM   15  O2  UNL     1      20.339  -3.094  10.093  1.00  0.00    -0.638 OA
HETATM   16  O3  UNL     1      21.177  -4.177  11.931  1.00  0.00    -0.638 OA
ENDBRANCH   1  13
TORSDOF 7
ENDMDL
