MODEL 5
REMARK VINA RESULT: -6.853989033      1.238      2.799
REMARK  7 active torsions:
REMARK  status: ('A' for Active; 'I' for Inactive)
REMARK    1  A    between atoms: C2_2  and  C3_3 
REMARK    2  A    between atoms: C3_3  and  C4_4 
REMARK    3  A    between atoms: C4_4  and  C5_5 
REMARK    4  A    between atoms: C4_4  and  C8_8 
REMARK    5  A    between atoms: C5_5  and  C6_6 
REMARK    6  A    between atoms: C8_8  and  N1_9 
REMARK    7  A    between atoms: C8_8  and  P1_13 
ROOT
HETATM    1  C8  UNL     1      23.093  -4.563   9.617  1.00  0.00     0.316 C 
ENDROOT
BRANCH   1   2
HETATM    2  C4  UNL     1      23.793  -5.817  10.113  1.00  0.00     0.030 C 
BRANCH   2   3
HETATM    3  C3  UNL     1      25.170  -5.604  10.629  1.00  0.00     0.007 C 
BRANCH   3   4
HETATM    4  C2  UNL     1      25.380  -6.045  12.053  1.00  0.00    -0.004 C 
HETATM    5  C1  UNL     1      26.818  -6.501  12.212  1.00  0.00     0.005 C 
ENDBRANCH   3   4
ENDBRANCH   2   3
BRANCH   2   6
HETATM    6  C5  UNL     1      22.953  -6.709  10.954  1.00  0.00     0.007 C 
BRANCH   6   7
HETATM    7  C6  UNL     1      22.529  -8.003  10.377  1.00  0.00    -0.004 C 
HETATM    8  C7  UNL     1      23.740  -8.957  10.412  1.00  0.00     0.005 C 
ENDBRANCH   6   7
ENDBRANCH   2   6
ENDBRANCH   1   2
BRANCH   1   9
HETATM    9  N1  UNL     1      24.119  -3.802   8.925  1.00  0.00    -0.062 N 
ATOM     10  H13 UNL     1      23.910  -2.807   8.846  1.00  0.00     0.275 HD
ATOM     11  H12 UNL     1      24.984  -3.699   9.455  1.00  0.00     0.275 HD
ATOM     12  H11 UNL     1      24.240  -4.270   8.027  1.00  0.00     0.275 HD
ENDBRANCH   1   9
BRANCH   1  13
HETATM   13  P1  UNL     1      22.156  -3.666  10.788  1.00  0.00     0.291 P 
HETATM   14  O1  UNL     1      21.984  -1.966  10.540  1.00  0.00    -0.638 OA
HETATM   15  O2  UNL     1      21.370  -4.363  11.995  1.00  0.00    -0.638 OA
HETATM   16  O3  UNL     1      23.366  -3.286  11.665  1.00  0.00    -0.638 OA
ENDBRANCH   1  13
TORSDOF 7
ENDMDL
