MODEL 3
REMARK VINA RESULT: -7.071722454      1.097      2.833
REMARK  7 active torsions:
REMARK  status: ('A' for Active; 'I' for Inactive)
REMARK    1  A    between atoms: C2_2  and  C3_3 
REMARK    2  A    between atoms: C3_3  and  C4_4 
REMARK    3  A    between atoms: C4_4  and  C5_5 
REMARK    4  A    between atoms: C4_4  and  C8_8 
REMARK    5  A    between atoms: C5_5  and  C6_6 
REMARK    6  A    between atoms: C8_8  and  N1_9 
REMARK    7  A    between atoms: C8_8  and  P1_13 
ROOT
HETATM    1  C8  UNL     1      22.976  -4.706   9.764  1.00  0.00     0.316 C 
ENDROOT
BRANCH   1   2
HETATM    2  C4  UNL     1      23.729  -5.829  10.457  1.00  0.00     0.030 C 
BRANCH   2   3
HETATM    3  C3  UNL     1      24.687  -5.387  11.504  1.00  0.00     0.007 C 
BRANCH   3   4
HETATM    4  C2  UNL     1      26.135  -5.621  11.165  1.00  0.00    -0.004 C 
HETATM    5  C1  UNL     1      26.754  -6.483  12.249  1.00  0.00     0.005 C 
ENDBRANCH   3   4
ENDBRANCH   2   3
BRANCH   2   6
HETATM    6  C5  UNL     1      22.894  -6.996  10.842  1.00  0.00     0.007 C 
BRANCH   6   7
HETATM    7  C6  UNL     1      23.067  -8.250  10.077  1.00  0.00    -0.004 C 
HETATM    8  C7  UNL     1      24.208  -9.052  10.735  1.00  0.00     0.005 C 
ENDBRANCH   6   7
ENDBRANCH   2   6
ENDBRANCH   1   2
BRANCH   1   9
HETATM    9  N1  UNL     1      23.927  -4.129   8.829  1.00  0.00    -0.062 N 
ATOM     10  H13 UNL     1      24.316  -3.238   9.137  1.00  0.00     0.275 HD
ATOM     11  H12 UNL     1      24.812  -4.633   8.778  1.00  0.00     0.275 HD
ATOM     12  H11 UNL     1      23.431  -4.077   7.940  1.00  0.00     0.275 HD
ENDBRANCH   1   9
BRANCH   1  13
HETATM   13  P1  UNL     1      22.143  -3.563  10.789  1.00  0.00     0.291 P 
HETATM   14  O1  UNL     1      21.121  -4.196  12.028  1.00  0.00    -0.638 OA
HETATM   15  O2  UNL     1      22.374  -1.982  10.700  1.00  0.00    -0.638 OA
HETATM   16  O3  UNL     1      20.862  -3.523   9.931  1.00  0.00    -0.638 OA
ENDBRANCH   1  13
TORSDOF 7
ENDMDL
