MODEL 2
REMARK VINA RESULT: -7.185520899      1.263      1.530
REMARK  7 active torsions:
REMARK  status: ('A' for Active; 'I' for Inactive)
REMARK    1  A    between atoms: C2_2  and  C3_3 
REMARK    2  A    between atoms: C3_3  and  C4_4 
REMARK    3  A    between atoms: C4_4  and  C5_5 
REMARK    4  A    between atoms: C4_4  and  C8_8 
REMARK    5  A    between atoms: C5_5  and  C6_6 
REMARK    6  A    between atoms: C8_8  and  N1_9 
REMARK    7  A    between atoms: C8_8  and  P1_13 
ROOT
HETATM    1  C8  UNL     1      22.937  -4.605   9.957  1.00  0.00     0.316 C 
ENDROOT
BRANCH   1   2
HETATM    2  C4  UNL     1      23.734  -5.677  10.681  1.00  0.00     0.030 C 
BRANCH   2   3
HETATM    3  C3  UNL     1      23.089  -7.016  10.723  1.00  0.00     0.007 C 
BRANCH   3   4
HETATM    4  C2  UNL     1      23.779  -8.068   9.897  1.00  0.00    -0.004 C 
HETATM    5  C1  UNL     1      24.167  -9.220  10.805  1.00  0.00     0.005 C 
ENDBRANCH   3   4
ENDBRANCH   2   3
BRANCH   2   6
HETATM    6  C5  UNL     1      25.183  -5.704  10.356  1.00  0.00     0.007 C 
BRANCH   6   7
HETATM    7  C6  UNL     1      26.136  -5.318  11.419  1.00  0.00    -0.004 C 
HETATM    8  C7  UNL     1      26.614  -6.607  12.118  1.00  0.00     0.005 C 
ENDBRANCH   6   7
ENDBRANCH   2   6
ENDBRANCH   1   2
BRANCH   1   9
HETATM    9  N1  UNL     1      23.887  -3.959   9.068  1.00  0.00    -0.062 N 
ATOM     10  H13 UNL     1      23.780  -4.223   8.089  1.00  0.00     0.275 HD
ATOM     11  H12 UNL     1      23.718  -2.961   8.939  1.00  0.00     0.275 HD
ATOM     12  H11 UNL     1      24.806  -4.173   9.454  1.00  0.00     0.275 HD
ENDBRANCH   1   9
BRANCH   1  13
HETATM   13  P1  UNL     1      21.983  -3.527  10.947  1.00  0.00     0.291 P 
HETATM   14  O1  UNL     1      22.006  -1.846  10.550  1.00  0.00    -0.638 OA
HETATM   15  O2  UNL     1      21.016  -4.040  12.114  1.00  0.00    -0.638 OA
HETATM   16  O3  UNL     1      23.133  -3.182  11.916  1.00  0.00    -0.638 OA
ENDBRANCH   1  13
TORSDOF 7
ENDMDL
