MODEL 4
REMARK VINA RESULT: -7.059335327      1.012      1.388
REMARK  7 active torsions:
REMARK  status: ('A' for Active; 'I' for Inactive)
REMARK    1  A    between atoms: C2_2  and  C3_3 
REMARK    2  A    between atoms: C3_3  and  C4_4 
REMARK    3  A    between atoms: C4_4  and  C5_5 
REMARK    4  A    between atoms: C4_4  and  C8_8 
REMARK    5  A    between atoms: C5_5  and  C6_6 
REMARK    6  A    between atoms: C8_8  and  N1_9 
REMARK    7  A    between atoms: C8_8  and  P1_13 
ROOT
HETATM    1  C8  UNL     1      22.965  -4.477   9.940  1.00  0.00     0.316 C 
ENDROOT
BRANCH   1   2
HETATM    2  C4  UNL     1      23.671  -5.568  10.726  1.00  0.00     0.030 C 
BRANCH   2   3
HETATM    3  C3  UNL     1      23.885  -6.837   9.983  1.00  0.00     0.007 C 
BRANCH   3   4
HETATM    4  C2  UNL     1      23.279  -8.053  10.633  1.00  0.00    -0.004 C 
HETATM    5  C1  UNL     1      24.315  -9.160  10.648  1.00  0.00     0.005 C 
ENDBRANCH   3   4
ENDBRANCH   2   3
BRANCH   2   6
HETATM    6  C5  UNL     1      24.846  -5.111  11.511  1.00  0.00     0.007 C 
BRANCH   6   7
HETATM    7  C6  UNL     1      26.179  -5.610  11.111  1.00  0.00    -0.004 C 
HETATM    8  C7  UNL     1      26.713  -6.501  12.252  1.00  0.00     0.005 C 
ENDBRANCH   6   7
ENDBRANCH   2   6
ENDBRANCH   1   2
BRANCH   1   9
HETATM    9  N1  UNL     1      23.991  -3.890   9.095  1.00  0.00    -0.062 N 
ATOM     10  H13 UNL     1      24.942  -4.074   9.414  1.00  0.00     0.275 HD
ATOM     11  H12 UNL     1      24.082  -4.341   8.184  1.00  0.00     0.275 HD
ATOM     12  H11 UNL     1      23.759  -2.898   9.041  1.00  0.00     0.275 HD
ENDBRANCH   1   9
BRANCH   1  13
HETATM   13  P1  UNL     1      22.005  -3.339  10.855  1.00  0.00     0.291 P 
HETATM   14  O1  UNL     1      20.976  -3.971  12.089  1.00  0.00    -0.638 OA
HETATM   15  O2  UNL     1      22.125  -1.753  10.675  1.00  0.00    -0.638 OA
HETATM   16  O3  UNL     1      20.765  -3.447   9.944  1.00  0.00    -0.638 OA
ENDBRANCH   1  13
TORSDOF 7
ENDMDL
