MODEL 4
REMARK VINA RESULT: -6.136393303      0.647      1.548
REMARK  5 active torsions:
REMARK  status: ('A' for Active; 'I' for Inactive)
REMARK    1  A    between atoms: C2_2  and  C3_3 
REMARK    2  A    between atoms: C3_3  and  C4_4 
REMARK    3  A    between atoms: C4_4  and  C6_6 
REMARK    4  A    between atoms: C6_6  and  N1_7 
REMARK    5  A    between atoms: C6_6  and  P1_11 
ROOT
HETATM    1  C6  UNL     1      22.679  -4.508   9.815  1.00  0.00     0.315 C 
ENDROOT
BRANCH   1   2
HETATM    2  C4  UNL     1      23.499  -5.353  10.804  1.00  0.00     0.026 C 
HETATM    3  C5  UNL     1      24.934  -5.446  10.393  1.00  0.00     0.012 C 
BRANCH   2   4
HETATM    4  C3  UNL     1      22.886  -6.726  10.954  1.00  0.00     0.006 C 
BRANCH   4   5
HETATM    5  C2  UNL     1      23.523  -7.686   9.980  1.00  0.00    -0.004 C 
HETATM    6  C1  UNL     1      23.901  -8.943  10.730  1.00  0.00     0.005 C 
ENDBRANCH   4   5
ENDBRANCH   2   4
ENDBRANCH   1   2
BRANCH   1   7
HETATM    7  N1  UNL     1      23.648  -4.030   8.844  1.00  0.00    -0.062 N 
ATOM      8  H13 UNL     1      24.295  -3.333   9.213  1.00  0.00     0.275 HD
ATOM      9  H12 UNL     1      24.355  -4.720   8.590  1.00  0.00     0.275 HD
ATOM     10  H11 UNL     1      23.089  -3.701   8.058  1.00  0.00     0.275 HD
ENDBRANCH   1   7
BRANCH   1  11
HETATM   11  P1  UNL     1      21.670  -3.373  10.615  1.00  0.00     0.291 P 
HETATM   12  O1  UNL     1      20.484  -3.345   9.661  1.00  0.00    -0.638 OA
HETATM   13  O2  UNL     1      20.573  -3.913  11.822  1.00  0.00    -0.638 OA
HETATM   14  O3  UNL     1      21.924  -1.754  10.454  1.00  0.00    -0.638 OA
ENDBRANCH   1  11
TORSDOF 5
ENDMDL
