MODEL 2
REMARK VINA RESULT: -6.338845882      0.675      1.095
REMARK  5 active torsions:
REMARK  status: ('A' for Active; 'I' for Inactive)
REMARK    1  A    between atoms: C2_2  and  C3_3 
REMARK    2  A    between atoms: C3_3  and  C4_4 
REMARK    3  A    between atoms: C4_4  and  C6_6 
REMARK    4  A    between atoms: C6_6  and  N1_7 
REMARK    5  A    between atoms: C6_6  and  P1_11 
ROOT
HETATM    1  C6  UNL     1      22.552  -4.347   9.699  1.00  0.00     0.315 C 
ENDROOT
BRANCH   1   2
HETATM    2  C4  UNL     1      23.174  -5.354  10.681  1.00  0.00     0.026 C 
HETATM    3  C5  UNL     1      24.667  -5.319  10.635  1.00  0.00     0.012 C 
BRANCH   2   4
HETATM    4  C3  UNL     1      22.654  -6.746  10.402  1.00  0.00     0.006 C 
BRANCH   4   5
HETATM    5  C2  UNL     1      23.779  -7.633   9.927  1.00  0.00    -0.004 C 
HETATM    6  C1  UNL     1      23.717  -8.931  10.698  1.00  0.00     0.005 C 
ENDBRANCH   4   5
ENDBRANCH   2   4
ENDBRANCH   1   2
BRANCH   1   7
HETATM    7  N1  UNL     1      23.667  -3.875   8.897  1.00  0.00    -0.062 N 
ATOM      8  H13 UNL     1      24.080  -4.591   8.300  1.00  0.00     0.275 HD
ATOM      9  H12 UNL     1      23.397  -3.241   8.145  1.00  0.00     0.275 HD
ATOM     10  H11 UNL     1      24.318  -3.469   9.568  1.00  0.00     0.275 HD
ENDBRANCH   1   7
BRANCH   1  11
HETATM   11  P1  UNL     1      21.553  -3.200  10.496  1.00  0.00     0.291 P 
HETATM   12  O1  UNL     1      21.001  -4.059  11.625  1.00  0.00    -0.638 OA
HETATM   13  O2  UNL     1      22.223  -2.189  11.712  1.00  0.00    -0.638 OA
HETATM   14  O3  UNL     1      20.045  -2.855   9.931  1.00  0.00    -0.638 OA
ENDBRANCH   1  11
TORSDOF 5
ENDMDL
