MODEL 3
REMARK VINA RESULT: -6.300694510      0.913      1.727
REMARK  5 active torsions:
REMARK  status: ('A' for Active; 'I' for Inactive)
REMARK    1  A    between atoms: C2_2  and  C3_3 
REMARK    2  A    between atoms: C3_3  and  C4_4 
REMARK    3  A    between atoms: C4_4  and  C6_6 
REMARK    4  A    between atoms: C6_6  and  N1_7 
REMARK    5  A    between atoms: C6_6  and  P1_11 
ROOT
HETATM    1  C6  UNL     1      22.373  -4.143   9.672  1.00  0.00     0.315 C 
ENDROOT
BRANCH   1   2
HETATM    2  C4  UNL     1      22.490  -5.596  10.161  1.00  0.00     0.026 C 
HETATM    3  C5  UNL     1      22.216  -5.710  11.627  1.00  0.00     0.012 C 
BRANCH   2   4
HETATM    4  C3  UNL     1      23.851  -6.157   9.817  1.00  0.00     0.006 C 
BRANCH   4   5
HETATM    5  C2  UNL     1      24.253  -7.200  10.830  1.00  0.00    -0.004 C 
HETATM    6  C1  UNL     1      23.852  -8.557  10.299  1.00  0.00     0.005 C 
ENDBRANCH   4   5
ENDBRANCH   2   4
ENDBRANCH   1   2
BRANCH   1   7
HETATM    7  N1  UNL     1      23.662  -3.850   9.069  1.00  0.00    -0.062 N 
ATOM      8  H13 UNL     1      23.762  -2.886   8.753  1.00  0.00     0.275 HD
ATOM      9  H12 UNL     1      24.436  -3.835   9.733  1.00  0.00     0.275 HD
ATOM     10  H11 UNL     1      23.765  -4.543   8.327  1.00  0.00     0.275 HD
ENDBRANCH   1   7
BRANCH   1  11
HETATM   11  P1  UNL     1      21.766  -3.098  10.891  1.00  0.00     0.291 P 
HETATM   12  O1  UNL     1      21.447  -1.864  10.056  1.00  0.00    -0.638 OA
HETATM   13  O2  UNL     1      20.097  -3.145  11.297  1.00  0.00    -0.638 OA
HETATM   14  O3  UNL     1      22.788  -2.255  11.869  1.00  0.00    -0.638 OA
ENDBRANCH   1  11
TORSDOF 5
ENDMDL
