MODEL 5
REMARK VINA RESULT: -6.018967783      1.144      1.914
REMARK  5 active torsions:
REMARK  status: ('A' for Active; 'I' for Inactive)
REMARK    1  A    between atoms: C2_2  and  C3_3 
REMARK    2  A    between atoms: C3_3  and  C4_4 
REMARK    3  A    between atoms: C4_4  and  C6_6 
REMARK    4  A    between atoms: C6_6  and  N1_7 
REMARK    5  A    between atoms: C6_6  and  P1_11 
ROOT
HETATM    1  C6  UNL     1      22.851  -5.127   9.993  1.00  0.00     0.315 C 
ENDROOT
BRANCH   1   2
HETATM    2  C4  UNL     1      22.742  -6.476  10.722  1.00  0.00     0.026 C 
HETATM    3  C5  UNL     1      22.083  -6.332  12.056  1.00  0.00     0.012 C 
BRANCH   2   4
HETATM    4  C3  UNL     1      24.108  -7.111  10.856  1.00  0.00     0.006 C 
BRANCH   4   5
HETATM    5  C2  UNL     1      24.016  -8.595  10.603  1.00  0.00    -0.004 C 
HETATM    6  C1  UNL     1      22.777  -8.861   9.780  1.00  0.00     0.005 C 
ENDBRANCH   4   5
ENDBRANCH   2   4
ENDBRANCH   1   2
BRANCH   1   7
HETATM    7  N1  UNL     1      24.110  -5.196   9.271  1.00  0.00    -0.062 N 
ATOM      8  H13 UNL     1      24.913  -4.869   9.807  1.00  0.00     0.275 HD
ATOM      9  H12 UNL     1      24.450  -6.146   9.122  1.00  0.00     0.275 HD
ATOM     10  H11 UNL     1      23.946  -4.674   8.411  1.00  0.00     0.275 HD
ENDBRANCH   1   7
BRANCH   1  11
HETATM   11  P1  UNL     1      22.564  -3.800  11.043  1.00  0.00     0.291 P 
HETATM   12  O1  UNL     1      22.587  -2.652  10.043  1.00  0.00    -0.638 OA
HETATM   13  O2  UNL     1      20.949  -3.335  11.404  1.00  0.00    -0.638 OA
HETATM   14  O3  UNL     1      23.786  -3.141  11.929  1.00  0.00    -0.638 OA
ENDBRANCH   1  11
TORSDOF 5
ENDMDL
