MODEL 20
REMARK VINA RESULT: -4.386407032      3.709      4.791
REMARK  5 active torsions:
REMARK  status: ('A' for Active; 'I' for Inactive)
REMARK    1  A    between atoms: C2_2  and  C3_3 
REMARK    2  A    between atoms: C3_3  and  C4_4 
REMARK    3  A    between atoms: C4_4  and  C6_6 
REMARK    4  A    between atoms: C6_6  and  N1_7 
REMARK    5  A    between atoms: C6_6  and  P1_11 
ROOT
HETATM    1  C6  UNL     1      23.642  -6.389  10.794  1.00  0.00     0.315 C 
ENDROOT
BRANCH   1   2
HETATM    2  C4  UNL     1      22.764  -5.332  10.103  1.00  0.00     0.026 C 
HETATM    3  C5  UNL     1      23.540  -4.542   9.098  1.00  0.00     0.012 C 
BRANCH   2   4
HETATM    4  C3  UNL     1      22.126  -4.427  11.131  1.00  0.00     0.006 C 
BRANCH   4   5
HETATM    5  C2  UNL     1      21.690  -3.135  10.484  1.00  0.00    -0.004 C 
HETATM    6  C1  UNL     1      20.552  -2.559  11.294  1.00  0.00     0.005 C 
ENDBRANCH   4   5
ENDBRANCH   2   4
ENDBRANCH   1   2
BRANCH   1   7
HETATM    7  N1  UNL     1      25.007  -5.979  10.511  1.00  0.00    -0.062 N 
ATOM      8  H13 UNL     1      25.387  -6.371   9.650  1.00  0.00     0.275 HD
ATOM      9  H12 UNL     1      25.098  -5.000  10.242  1.00  0.00     0.275 HD
ATOM     10  H11 UNL     1      25.533  -6.229  11.348  1.00  0.00     0.275 HD
ENDBRANCH   1   7
BRANCH   1  11
HETATM   11  P1  UNL     1      23.154  -7.988  10.409  1.00  0.00     0.291 P 
HETATM   12  O1  UNL     1      23.899  -8.191   9.096  1.00  0.00    -0.638 OA
HETATM   13  O2  UNL     1      24.051  -9.321  11.020  1.00  0.00    -0.638 OA
HETATM   14  O3  UNL     1      21.695  -8.282   9.705  1.00  0.00    -0.638 OA
ENDBRANCH   1  11
TORSDOF 5
ENDMDL
