MODEL 1
REMARK VINA RESULT: -6.352875832      0.000      0.000
REMARK  5 active torsions:
REMARK  status: ('A' for Active; 'I' for Inactive)
REMARK    1  A    between atoms: C2_2  and  C3_3 
REMARK    2  A    between atoms: C3_3  and  C4_4 
REMARK    3  A    between atoms: C4_4  and  C6_6 
REMARK    4  A    between atoms: C6_6  and  N1_7 
REMARK    5  A    between atoms: C6_6  and  P1_11 
ROOT
HETATM    1  C6  UNL     1      22.729  -4.394   9.763  1.00  0.00     0.315 C 
ENDROOT
BRANCH   1   2
HETATM    2  C4  UNL     1      23.479  -5.404  10.647  1.00  0.00     0.026 C 
HETATM    3  C5  UNL     1      24.914  -5.528  10.247  1.00  0.00     0.012 C 
BRANCH   2   4
HETATM    4  C3  UNL     1      22.787  -6.748  10.610  1.00  0.00     0.006 C 
BRANCH   4   5
HETATM    5  C2  UNL     1      23.640  -7.750   9.871  1.00  0.00    -0.004 C 
HETATM    6  C1  UNL     1      23.820  -8.962  10.755  1.00  0.00     0.005 C 
ENDBRANCH   4   5
ENDBRANCH   2   4
ENDBRANCH   1   2
BRANCH   1   7
HETATM    7  N1  UNL     1      23.754  -3.809   8.916  1.00  0.00    -0.062 N 
ATOM      8  H13 UNL     1      24.023  -2.863   9.184  1.00  0.00     0.275 HD
ATOM      9  H12 UNL     1      24.676  -4.229   9.033  1.00  0.00     0.275 HD
ATOM     10  H11 UNL     1      23.382  -3.882   7.969  1.00  0.00     0.275 HD
ENDBRANCH   1   7
BRANCH   1  11
HETATM   11  P1  UNL     1      21.716  -3.358  10.683  1.00  0.00     0.291 P 
HETATM   12  O1  UNL     1      22.708  -2.865  11.728  1.00  0.00    -0.638 OA
HETATM   13  O2  UNL     1      21.529  -1.715  10.214  1.00  0.00    -0.638 OA
HETATM   14  O3  UNL     1      20.704  -3.965  11.832  1.00  0.00    -0.638 OA
ENDBRANCH   1  11
TORSDOF 5
ENDMDL
