MODEL 3
REMARK VINA RESULT: -7.481524288      1.229      1.442
REMARK  4 active torsions:
REMARK  status: ('A' for Active; 'I' for Inactive)
REMARK    1  A    between atoms: N1_1  and  C1_5 
REMARK    2  A    between atoms: C1_5  and  C2_6 
REMARK    3  A    between atoms: C1_5  and  P1_13 
REMARK    4  A    between atoms: C2_6  and  C3_7 
ROOT
HETATM    1  C1  UNL     1      23.136  -4.486  10.551  1.00  0.00     0.312 C 
ENDROOT
BRANCH   1   2
HETATM    2  N1  UNL     1      23.634  -4.244   9.218  1.00  0.00    -0.062 N 
ATOM      3  H13 UNL     1      24.448  -4.820   9.000  1.00  0.00     0.275 HD
ATOM      4  H12 UNL     1      23.004  -4.603   8.500  1.00  0.00     0.275 HD
ATOM      5  H11 UNL     1      23.825  -3.248   9.099  1.00  0.00     0.275 HD
ENDBRANCH   1   2
BRANCH   1   6
HETATM    6  C2  UNL     1      24.208  -5.082  11.382  1.00  0.00     0.052 C 
BRANCH   6   7
HETATM    7  C3  UNL     1      23.994  -6.349  12.116  1.00  0.00    -0.012 C 
HETATM    8  C4  UNL     1      25.255  -7.180  11.923  1.00  0.00     0.005 C 
HETATM    9  C5  UNL     1      25.093  -8.276  10.917  1.00  0.00     0.000 C 
HETATM   10  C6  UNL     1      23.825  -9.079  11.075  1.00  0.00     0.000 C 
HETATM   11  C7  UNL     1      22.709  -8.059  10.796  1.00  0.00     0.000 C 
HETATM   12  C8  UNL     1      22.759  -7.116  11.984  1.00  0.00     0.005 C 
ENDBRANCH   6   7
ENDBRANCH   1   6
BRANCH   1  13
HETATM   13  P1  UNL     1      22.160  -3.218  11.265  1.00  0.00     0.290 P 
HETATM   14  O1  UNL     1      20.667  -2.849  10.661  1.00  0.00    -0.638 OA
HETATM   15  O2  UNL     1      22.808  -2.188  12.407  1.00  0.00    -0.638 OA
HETATM   16  O3  UNL     1      21.462  -4.046  12.348  1.00  0.00    -0.638 OA
ENDBRANCH   1  13
TORSDOF 4
ENDMDL
