MODEL 15
REMARK VINA RESULT: -5.363494403      4.221      4.926
REMARK  4 active torsions:
REMARK  status: ('A' for Active; 'I' for Inactive)
REMARK    1  A    between atoms: N1_1  and  C1_5 
REMARK    2  A    between atoms: C1_5  and  C2_6 
REMARK    3  A    between atoms: C1_5  and  P1_13 
REMARK    4  A    between atoms: C2_6  and  C3_7 
ROOT
HETATM    1  C1  UNL     1      21.164  -7.111  14.358  1.00  0.00     0.312 C 
ENDROOT
BRANCH   1   2
HETATM    2  N1  UNL     1      20.920  -5.718  14.062  1.00  0.00    -0.062 N 
ATOM      3  H13 UNL     1      21.430  -5.405  13.236  1.00  0.00     0.275 HD
ATOM      4  H12 UNL     1      19.973  -5.557  13.719  1.00  0.00     0.275 HD
ATOM      5  H11 UNL     1      21.133  -5.151  14.884  1.00  0.00     0.275 HD
ENDBRANCH   1   2
BRANCH   1   6
HETATM    6  C2  UNL     1      22.318  -7.593  13.563  1.00  0.00     0.052 C 
BRANCH   6   7
HETATM    7  C3  UNL     1      22.691  -6.948  12.285  1.00  0.00    -0.012 C 
HETATM    8  C4  UNL     1      22.379  -7.954  11.185  1.00  0.00     0.005 C 
HETATM    9  C5  UNL     1      23.595  -8.648  10.655  1.00  0.00     0.000 C 
HETATM   10  C6  UNL     1      24.753  -7.727  10.359  1.00  0.00     0.000 C 
HETATM   11  C7  UNL     1      25.136  -7.165  11.738  1.00  0.00     0.000 C 
HETATM   12  C8  UNL     1      23.971  -6.266  12.112  1.00  0.00     0.005 C 
ENDBRANCH   6   7
ENDBRANCH   1   6
BRANCH   1  13
HETATM   13  P1  UNL     1      21.080  -7.579  16.044  1.00  0.00     0.290 P 
HETATM   14  O1  UNL     1      21.883  -6.725  17.207  1.00  0.00    -0.638 OA
HETATM   15  O2  UNL     1      20.394  -9.035  16.487  1.00  0.00    -0.638 OA
HETATM   16  O3  UNL     1      19.809  -6.817  16.432  1.00  0.00    -0.638 OA
ENDBRANCH   1  13
TORSDOF 4
ENDMDL
