MODEL 2
REMARK VINA RESULT: -7.528061905      0.466      1.264
REMARK  4 active torsions:
REMARK  status: ('A' for Active; 'I' for Inactive)
REMARK    1  A    between atoms: N1_1  and  C1_5 
REMARK    2  A    between atoms: C1_5  and  C2_6 
REMARK    3  A    between atoms: C1_5  and  P1_13 
REMARK    4  A    between atoms: C2_6  and  C3_7 
ROOT
HETATM    1  C1  UNL     1      23.828  -3.807  10.635  1.00  0.00     0.312 C 
ENDROOT
BRANCH   1   2
HETATM    2  N1  UNL     1      24.821  -3.126  11.433  1.00  0.00    -0.062 N 
ATOM      3  H13 UNL     1      24.655  -3.240  12.433  1.00  0.00     0.275 HD
ATOM      4  H12 UNL     1      25.733  -3.581  11.383  1.00  0.00     0.275 HD
ATOM      5  H11 UNL     1      24.865  -2.144  11.159  1.00  0.00     0.275 HD
ENDBRANCH   1   2
BRANCH   1   6
HETATM    6  C2  UNL     1      24.209  -5.231  10.476  1.00  0.00     0.052 C 
BRANCH   6   7
HETATM    7  C3  UNL     1      23.858  -6.237  11.502  1.00  0.00    -0.012 C 
HETATM    8  C4  UNL     1      25.163  -6.893  11.930  1.00  0.00     0.005 C 
HETATM    9  C5  UNL     1      25.365  -8.252  11.334  1.00  0.00     0.000 C 
HETATM   10  C6  UNL     1      24.153  -9.147  11.410  1.00  0.00     0.000 C 
HETATM   11  C7  UNL     1      23.115  -8.433  10.529  1.00  0.00     0.000 C 
HETATM   12  C8  UNL     1      22.760  -7.181  11.311  1.00  0.00     0.005 C 
ENDBRANCH   6   7
ENDBRANCH   1   6
BRANCH   1  13
HETATM   13  P1  UNL     1      22.152  -3.445  10.995  1.00  0.00     0.290 P 
HETATM   14  O1  UNL     1      21.555  -3.604  12.527  1.00  0.00    -0.638 OA
HETATM   15  O2  UNL     1      21.059  -3.172   9.763  1.00  0.00    -0.638 OA
HETATM   16  O3  UNL     1      22.292  -1.943  11.258  1.00  0.00    -0.638 OA
ENDBRANCH   1  13
TORSDOF 4
ENDMDL
