MODEL 4
REMARK VINA RESULT: -7.421544602      1.082      1.389
REMARK  4 active torsions:
REMARK  status: ('A' for Active; 'I' for Inactive)
REMARK    1  A    between atoms: N1_1  and  C1_5 
REMARK    2  A    between atoms: C1_5  and  C2_6 
REMARK    3  A    between atoms: C1_5  and  P1_13 
REMARK    4  A    between atoms: C2_6  and  C3_7 
ROOT
HETATM    1  C1  UNL     1      23.592  -3.579  10.726  1.00  0.00     0.312 C 
ENDROOT
BRANCH   1   2
HETATM    2  N1  UNL     1      24.795  -3.208  11.434  1.00  0.00    -0.062 N 
ATOM      3  H13 UNL     1      25.433  -3.996  11.548  1.00  0.00     0.275 HD
ATOM      4  H12 UNL     1      25.401  -2.608  10.874  1.00  0.00     0.275 HD
ATOM      5  H11 UNL     1      24.548  -2.781  12.327  1.00  0.00     0.275 HD
ENDBRANCH   1   2
BRANCH   1   6
HETATM    6  C2  UNL     1      23.638  -5.021  10.388  1.00  0.00     0.052 C 
BRANCH   6   7
HETATM    7  C3  UNL     1      24.480  -5.962  11.159  1.00  0.00    -0.012 C 
HETATM    8  C4  UNL     1      25.000  -6.992  10.165  1.00  0.00     0.005 C 
HETATM    9  C5  UNL     1      24.281  -8.303  10.240  1.00  0.00     0.000 C 
HETATM   10  C6  UNL     1      24.084  -8.822  11.643  1.00  0.00     0.000 C 
HETATM   11  C7  UNL     1      23.161  -7.778  12.293  1.00  0.00     0.000 C 
HETATM   12  C8  UNL     1      24.030  -6.540  12.422  1.00  0.00     0.005 C 
ENDBRANCH   6   7
ENDBRANCH   1   6
BRANCH   1  13
HETATM   13  P1  UNL     1      22.086  -2.935  11.349  1.00  0.00     0.290 P 
HETATM   14  O1  UNL     1      20.694  -3.012  10.464  1.00  0.00    -0.638 OA
HETATM   15  O2  UNL     1      22.070  -2.010  12.739  1.00  0.00    -0.638 OA
HETATM   16  O3  UNL     1      21.607  -4.170  12.118  1.00  0.00    -0.638 OA
ENDBRANCH   1  13
TORSDOF 4
ENDMDL
