MODEL 14
REMARK VINA RESULT: -5.372865710      4.601      5.751
REMARK  4 active torsions:
REMARK  status: ('A' for Active; 'I' for Inactive)
REMARK    1  A    between atoms: N1_1  and  C1_5 
REMARK    2  A    between atoms: C1_5  and  C2_6 
REMARK    3  A    between atoms: C1_5  and  P1_13 
REMARK    4  A    between atoms: C2_6  and  C3_7 
ROOT
HETATM    1  C1  UNL     1      21.603  -2.533  11.218  1.00  0.00     0.312 C 
ENDROOT
BRANCH   1   2
HETATM    2  N1  UNL     1      20.631  -2.488  10.150  1.00  0.00    -0.062 N 
ATOM      3  H13 UNL     1      19.713  -2.188  10.478  1.00  0.00     0.275 HD
ATOM      4  H12 UNL     1      20.811  -1.724   9.498  1.00  0.00     0.275 HD
ATOM      5  H11 UNL     1      20.595  -3.394   9.681  1.00  0.00     0.275 HD
ENDBRANCH   1   2
BRANCH   1   6
HETATM    6  C2  UNL     1      20.909  -2.457  12.525  1.00  0.00     0.052 C 
BRANCH   6   7
HETATM    7  C3  UNL     1      19.940  -3.496  12.939  1.00  0.00    -0.012 C 
HETATM    8  C4  UNL     1      18.555  -2.886  12.774  1.00  0.00     0.005 C 
HETATM    9  C5  UNL     1      17.939  -2.455  14.068  1.00  0.00     0.000 C 
HETATM   10  C6  UNL     1      18.054  -3.471  15.178  1.00  0.00     0.000 C 
HETATM   11  C7  UNL     1      19.568  -3.574  15.425  1.00  0.00     0.000 C 
HETATM   12  C8  UNL     1      20.105  -4.252  14.177  1.00  0.00     0.005 C 
ENDBRANCH   6   7
ENDBRANCH   1   6
BRANCH   1  13
HETATM   13  P1  UNL     1      22.899  -3.699  11.047  1.00  0.00     0.290 P 
HETATM   14  O1  UNL     1      22.786  -5.204  11.719  1.00  0.00    -0.638 OA
HETATM   15  O2  UNL     1      24.376  -3.241  10.419  1.00  0.00    -0.638 OA
HETATM   16  O3  UNL     1      22.477  -4.319   9.711  1.00  0.00    -0.638 OA
ENDBRANCH   1  13
TORSDOF 4
ENDMDL
