MODEL 5
REMARK VINA RESULT: -7.305029438      1.071      1.943
REMARK  4 active torsions:
REMARK  status: ('A' for Active; 'I' for Inactive)
REMARK    1  A    between atoms: N1_1  and  C1_5 
REMARK    2  A    between atoms: C1_5  and  C2_6 
REMARK    3  A    between atoms: C1_5  and  P1_13 
REMARK    4  A    between atoms: C2_6  and  C3_7 
ROOT
HETATM    1  C1  UNL     1      23.251  -3.812  11.183  1.00  0.00     0.312 C 
ENDROOT
BRANCH   1   2
HETATM    2  N1  UNL     1      24.481  -3.181  11.603  1.00  0.00    -0.062 N 
ATOM      3  H13 UNL     1      25.295  -3.565  11.121  1.00  0.00     0.275 HD
ATOM      4  H12 UNL     1      24.553  -2.220  11.270  1.00  0.00     0.275 HD
ATOM      5  H11 UNL     1      24.569  -3.245  12.617  1.00  0.00     0.275 HD
ENDBRANCH   1   2
BRANCH   1   6
HETATM    6  C2  UNL     1      23.276  -5.246  11.556  1.00  0.00     0.052 C 
BRANCH   6   7
HETATM    7  C3  UNL     1      23.859  -6.263  10.654  1.00  0.00    -0.012 C 
HETATM    8  C4  UNL     1      22.944  -7.478  10.721  1.00  0.00     0.005 C 
HETATM    9  C5  UNL     1      23.492  -8.586  11.565  1.00  0.00     0.000 C 
HETATM   10  C6  UNL     1      24.944  -8.902  11.305  1.00  0.00     0.000 C 
HETATM   11  C7  UNL     1      25.680  -7.621  11.731  1.00  0.00     0.000 C 
HETATM   12  C8  UNL     1      25.280  -6.596  10.686  1.00  0.00     0.005 C 
ENDBRANCH   6   7
ENDBRANCH   1   6
BRANCH   1  13
HETATM   13  P1  UNL     1      21.773  -2.917  11.474  1.00  0.00     0.290 P 
HETATM   14  O1  UNL     1      21.509  -2.154  12.914  1.00  0.00    -0.638 OA
HETATM   15  O2  UNL     1      20.495  -3.018  10.405  1.00  0.00    -0.638 OA
HETATM   16  O3  UNL     1      22.204  -1.566  10.894  1.00  0.00    -0.638 OA
ENDBRANCH   1  13
TORSDOF 4
ENDMDL
