MODEL 1
REMARK VINA RESULT: -7.695744555      0.000      0.000
REMARK  4 active torsions:
REMARK  status: ('A' for Active; 'I' for Inactive)
REMARK    1  A    between atoms: N1_1  and  C1_5 
REMARK    2  A    between atoms: C1_5  and  C2_6 
REMARK    3  A    between atoms: C1_5  and  P1_13 
REMARK    4  A    between atoms: C2_6  and  C3_7 
ROOT
HETATM    1  C1  UNL     1      24.169  -3.729  10.958  1.00  0.00     0.312 C 
ENDROOT
BRANCH   1   2
HETATM    2  N1  UNL     1      25.217  -3.280  11.845  1.00  0.00    -0.062 N 
ATOM      3  H13 UNL     1      25.133  -3.686  12.777  1.00  0.00     0.275 HD
ATOM      4  H12 UNL     1      26.126  -3.673  11.596  1.00  0.00     0.275 HD
ATOM      5  H11 UNL     1      25.232  -2.260  11.869  1.00  0.00     0.275 HD
ENDBRANCH   1   2
BRANCH   1   6
HETATM    6  C2  UNL     1      24.353  -5.168  10.658  1.00  0.00     0.052 C 
BRANCH   6   7
HETATM    7  C3  UNL     1      24.032  -6.207  11.662  1.00  0.00    -0.012 C 
HETATM    8  C4  UNL     1      25.314  -6.995  11.895  1.00  0.00     0.005 C 
HETATM    9  C5  UNL     1      25.327  -8.323  11.206  1.00  0.00     0.000 C 
HETATM   10  C6  UNL     1      24.056  -9.120  11.374  1.00  0.00     0.000 C 
HETATM   11  C7  UNL     1      22.993  -8.267  10.663  1.00  0.00     0.000 C 
HETATM   12  C8  UNL     1      22.841  -7.044  11.549  1.00  0.00     0.005 C 
ENDBRANCH   6   7
ENDBRANCH   1   6
BRANCH   1  13
HETATM   13  P1  UNL     1      22.547  -3.170  11.318  1.00  0.00     0.290 P 
HETATM   14  O1  UNL     1      22.027  -1.684  10.820  1.00  0.00    -0.638 OA
HETATM   15  O2  UNL     1      21.575  -4.015  12.380  1.00  0.00    -0.638 OA
HETATM   16  O3  UNL     1      21.823  -3.774  10.111  1.00  0.00    -0.638 OA
ENDBRANCH   1  13
TORSDOF 4
ENDMDL
