MODEL 13
REMARK VINA RESULT: -5.433035098      5.846      6.786
REMARK  4 active torsions:
REMARK  status: ('A' for Active; 'I' for Inactive)
REMARK    1  A    between atoms: N1_1  and  C1_5 
REMARK    2  A    between atoms: C1_5  and  C2_6 
REMARK    3  A    between atoms: C1_5  and  P1_13 
REMARK    4  A    between atoms: C2_6  and  C3_7 
ROOT
HETATM    1  C1  UNL     1      19.773  -2.684  13.494  1.00  0.00     0.312 C 
ENDROOT
BRANCH   1   2
HETATM    2  N1  UNL     1      18.654  -1.785  13.329  1.00  0.00    -0.062 N 
ATOM      3  H13 UNL     1      17.838  -2.254  12.935  1.00  0.00     0.275 HD
ATOM      4  H12 UNL     1      18.247  -1.509  14.223  1.00  0.00     0.275 HD
ATOM      5  H11 UNL     1      18.941  -0.980  12.772  1.00  0.00     0.275 HD
ENDBRANCH   1   2
BRANCH   1   6
HETATM    6  C2  UNL     1      19.291  -3.990  14.001  1.00  0.00     0.052 C 
BRANCH   6   7
HETATM    7  C3  UNL     1      19.395  -4.341  15.435  1.00  0.00    -0.012 C 
HETATM    8  C4  UNL     1      18.208  -5.243  15.747  1.00  0.00     0.005 C 
HETATM    9  C5  UNL     1      17.107  -4.540  16.478  1.00  0.00     0.000 C 
HETATM   10  C6  UNL     1      17.575  -3.688  17.632  1.00  0.00     0.000 C 
HETATM   11  C7  UNL     1      18.423  -2.595  16.961  1.00  0.00     0.000 C 
HETATM   12  C8  UNL     1      19.652  -3.332  16.458  1.00  0.00     0.005 C 
ENDBRANCH   6   7
ENDBRANCH   1   6
BRANCH   1  13
HETATM   13  P1  UNL     1      20.963  -2.696  12.208  1.00  0.00     0.290 P 
HETATM   14  O1  UNL     1      22.508  -2.176  12.471  1.00  0.00    -0.638 OA
HETATM   15  O2  UNL     1      20.505  -2.997  10.631  1.00  0.00    -0.638 OA
HETATM   16  O3  UNL     1      21.470  -4.132  12.378  1.00  0.00    -0.638 OA
ENDBRANCH   1  13
TORSDOF 4
ENDMDL
