MODEL 17
REMARK VINA RESULT: -4.538300741      5.010      5.575
REMARK  3 active torsions:
REMARK  status: ('A' for Active; 'I' for Inactive)
REMARK    1  A    between atoms: N1_1  and  C1_5 
REMARK    2  A    between atoms: C1_5  and  C2_6 
REMARK    3  A    between atoms: C1_5  and  P1_12 
ROOT
HETATM    1  C1  UNL     1       3.503  -4.148   8.183  1.00  0.00     0.316 C 
ENDROOT
BRANCH   1   2
HETATM    2  N1  UNL     1       4.068  -3.109   7.301  1.00  0.00    -0.062 N 
ATOM      3  H13 UNL     1       4.183  -2.215   7.778  1.00  0.00     0.275 HD
ATOM      4  H12 UNL     1       5.048  -3.281   7.078  1.00  0.00     0.275 HD
ATOM      5  H11 UNL     1       3.488  -3.032   6.465  1.00  0.00     0.275 HD
ENDBRANCH   1   2
BRANCH   1   6
HETATM    6  C2  UNL     1       4.031  -5.506   7.753  1.00  0.00     0.030 C 
HETATM    7  C3  UNL     1       4.884  -6.028   8.879  1.00  0.00     0.007 C 
HETATM    8  C4  UNL     1       4.792  -7.544   8.924  1.00  0.00     0.000 C 
HETATM    9  C5  UNL     1       3.409  -8.049   9.174  1.00  0.00     0.000 C 
HETATM   10  C6  UNL     1       2.370  -7.093   8.627  1.00  0.00     0.000 C 
HETATM   11  C7  UNL     1       2.949  -6.463   7.378  1.00  0.00     0.007 C 
ENDBRANCH   1   6
BRANCH   1  12
HETATM   12  P1  UNL     1       3.766  -3.676   9.816  1.00  0.00     0.291 P 
HETATM   13  O1  UNL     1       3.049  -2.322   9.838  1.00  0.00    -0.638 OA
HETATM   14  O2  UNL     1       2.621  -4.171  10.999  1.00  0.00    -0.638 OA
HETATM   15  O3  UNL     1       5.177  -2.990  10.296  1.00  0.00    -0.638 OA
ENDBRANCH   1  12
TORSDOF 3
ENDMDL
