MODEL 3
REMARK VINA RESULT: -6.538659130      1.727      2.018
REMARK  3 active torsions:
REMARK  status: ('A' for Active; 'I' for Inactive)
REMARK    1  A    between atoms: N1_1  and  C1_5 
REMARK    2  A    between atoms: C1_5  and  C2_6 
REMARK    3  A    between atoms: C1_5  and  P1_12 
ROOT
HETATM    1  C1  UNL     1       0.149  -5.017  13.817  1.00  0.00     0.316 C 
ENDROOT
BRANCH   1   2
HETATM    2  N1  UNL     1      -0.957  -5.268  14.760  1.00  0.00    -0.062 N 
ATOM      3  H13 UNL     1      -1.526  -6.070  14.487  1.00  0.00     0.275 HD
ATOM      4  H12 UNL     1      -0.629  -5.623  15.658  1.00  0.00     0.275 HD
ATOM      5  H11 UNL     1      -1.509  -4.416  14.860  1.00  0.00     0.275 HD
ENDBRANCH   1   2
BRANCH   1   6
HETATM    6  C2  UNL     1       0.346  -6.247  12.946  1.00  0.00     0.030 C 
HETATM    7  C3  UNL     1       0.427  -7.435  13.867  1.00  0.00     0.007 C 
HETATM    8  C4  UNL     1      -0.152  -8.656  13.173  1.00  0.00     0.000 C 
HETATM    9  C5  UNL     1      -1.593  -8.504  12.808  1.00  0.00     0.000 C 
HETATM   10  C6  UNL     1      -1.939  -7.055  12.535  1.00  0.00     0.000 C 
HETATM   11  C7  UNL     1      -0.718  -6.409  11.913  1.00  0.00     0.007 C 
ENDBRANCH   1   6
BRANCH   1  12
HETATM   12  P1  UNL     1      -0.142  -3.521  13.022  1.00  0.00     0.291 P 
HETATM   13  O1  UNL     1      -0.976  -2.795  14.083  1.00  0.00    -0.638 OA
HETATM   14  O2  UNL     1       1.005  -2.256  13.226  1.00  0.00    -0.638 OA
HETATM   15  O3  UNL     1      -1.333  -3.357  11.906  1.00  0.00    -0.638 OA
ENDBRANCH   1  12
TORSDOF 3
ENDMDL
