MODEL 1
REMARK VINA RESULT: -7.013370350      0.000      0.000
REMARK  3 active torsions:
REMARK  status: ('A' for Active; 'I' for Inactive)
REMARK    1  A    between atoms: N1_1  and  C1_5 
REMARK    2  A    between atoms: C1_5  and  C2_6 
REMARK    3  A    between atoms: C1_5  and  P1_12 
ROOT
HETATM    1  C1  UNL     1      -0.000  -3.940  13.235  1.00  0.00     0.316 C 
ENDROOT
BRANCH   1   2
HETATM    2  N1  UNL     1      -1.123  -3.000  13.410  1.00  0.00    -0.062 N 
ATOM      3  H13 UNL     1      -1.843  -3.118  12.697  1.00  0.00     0.275 HD
ATOM      4  H12 UNL     1      -1.692  -3.223  14.227  1.00  0.00     0.275 HD
ATOM      5  H11 UNL     1      -0.758  -2.048  13.441  1.00  0.00     0.275 HD
ENDBRANCH   1   2
BRANCH   1   6
HETATM    6  C2  UNL     1      -0.430  -5.057  12.298  1.00  0.00     0.030 C 
HETATM    7  C3  UNL     1       0.780  -5.920  12.053  1.00  0.00     0.007 C 
HETATM    8  C4  UNL     1       0.341  -7.360  11.844  1.00  0.00     0.000 C 
HETATM    9  C5  UNL     1      -0.363  -7.944  13.024  1.00  0.00     0.000 C 
HETATM   10  C6  UNL     1      -1.097  -6.877  13.809  1.00  0.00     0.000 C 
HETATM   11  C7  UNL     1      -1.586  -5.844  12.816  1.00  0.00     0.007 C 
ENDBRANCH   1   6
BRANCH   1  12
HETATM   12  P1  UNL     1       1.401  -3.040  12.807  1.00  0.00     0.291 P 
HETATM   13  O1  UNL     1       1.084  -1.694  13.465  1.00  0.00    -0.638 OA
HETATM   14  O2  UNL     1       2.760  -3.104  13.860  1.00  0.00    -0.638 OA
HETATM   15  O3  UNL     1       1.554  -2.338  11.333  1.00  0.00    -0.638 OA
ENDBRANCH   1  12
TORSDOF 3
ENDMDL
