MODEL 4
REMARK VINA RESULT: -6.431239196      1.710      2.156
REMARK  3 active torsions:
REMARK  status: ('A' for Active; 'I' for Inactive)
REMARK    1  A    between atoms: N1_1  and  C1_5 
REMARK    2  A    between atoms: C1_5  and  C2_6 
REMARK    3  A    between atoms: C1_5  and  P1_12 
ROOT
HETATM    1  C1  UNL     1       0.195  -4.914  13.628  1.00  0.00     0.316 C 
ENDROOT
BRANCH   1   2
HETATM    2  N1  UNL     1       0.816  -4.701  14.949  1.00  0.00    -0.062 N 
ATOM      3  H13 UNL     1       0.156  -4.836  15.715  1.00  0.00     0.275 HD
ATOM      4  H12 UNL     1       1.473  -5.442  15.193  1.00  0.00     0.275 HD
ATOM      5  H11 UNL     1       1.250  -3.778  14.968  1.00  0.00     0.275 HD
ENDBRANCH   1   2
BRANCH   1   6
HETATM    6  C2  UNL     1      -0.956  -5.896  13.773  1.00  0.00     0.030 C 
HETATM    7  C3  UNL     1      -1.378  -6.293  12.383  1.00  0.00     0.007 C 
HETATM    8  C4  UNL     1      -1.885  -7.725  12.397  1.00  0.00     0.000 C 
HETATM    9  C5  UNL     1      -0.853  -8.717  12.824  1.00  0.00     0.000 C 
HETATM   10  C6  UNL     1       0.139  -8.096  13.785  1.00  0.00     0.000 C 
HETATM   11  C7  UNL     1      -0.613  -7.078  14.615  1.00  0.00     0.007 C 
ENDBRANCH   1   6
BRANCH   1  12
HETATM   12  P1  UNL     1      -0.155  -3.378  12.938  1.00  0.00     0.291 P 
HETATM   13  O1  UNL     1      -1.010  -2.759  14.047  1.00  0.00    -0.638 OA
HETATM   14  O2  UNL     1       0.946  -2.089  13.225  1.00  0.00    -0.638 OA
HETATM   15  O3  UNL     1      -1.356  -3.184  11.837  1.00  0.00    -0.638 OA
ENDBRANCH   1  12
TORSDOF 3
ENDMDL
