MODEL 16
REMARK VINA RESULT: -4.767572331      5.037      6.123
REMARK  3 active torsions:
REMARK  status: ('A' for Active; 'I' for Inactive)
REMARK    1  A    between atoms: N1_1  and  C1_5 
REMARK    2  A    between atoms: C1_5  and  C2_6 
REMARK    3  A    between atoms: C1_5  and  P1_12 
ROOT
HETATM    1  C1  UNL     1       3.651  -2.764  10.095  1.00  0.00     0.316 C 
ENDROOT
BRANCH   1   2
HETATM    2  N1  UNL     1       4.610  -1.898  10.805  1.00  0.00    -0.062 N 
ATOM      3  H13 UNL     1       4.400  -1.821  11.801  1.00  0.00     0.275 HD
ATOM      4  H12 UNL     1       5.533  -2.325  10.886  1.00  0.00     0.275 HD
ATOM      5  H11 UNL     1       4.643  -0.989  10.344  1.00  0.00     0.275 HD
ENDBRANCH   1   2
BRANCH   1   6
HETATM    6  C2  UNL     1       4.412  -3.882   9.400  1.00  0.00     0.030 C 
HETATM    7  C3  UNL     1       3.469  -4.511   8.409  1.00  0.00     0.007 C 
HETATM    8  C4  UNL     1       4.254  -5.013   7.209  1.00  0.00     0.000 C 
HETATM    9  C5  UNL     1       4.975  -3.929   6.475  1.00  0.00     0.000 C 
HETATM   10  C6  UNL     1       5.364  -2.801   7.408  1.00  0.00     0.000 C 
HETATM   11  C7  UNL     1       5.675  -3.417   8.756  1.00  0.00     0.007 C 
ENDBRANCH   1   6
BRANCH   1  12
HETATM   12  P1  UNL     1       2.409  -3.216  11.194  1.00  0.00     0.291 P 
HETATM   13  O1  UNL     1       3.161  -3.123  12.525  1.00  0.00    -0.638 OA
HETATM   14  O2  UNL     1       1.388  -1.981  11.818  1.00  0.00    -0.638 OA
HETATM   15  O3  UNL     1       2.029  -4.789  11.464  1.00  0.00    -0.638 OA
ENDBRANCH   1  12
TORSDOF 3
ENDMDL
