MODEL 2
REMARK VINA RESULT: -6.708555516      1.120      1.837
REMARK  3 active torsions:
REMARK  status: ('A' for Active; 'I' for Inactive)
REMARK    1  A    between atoms: N1_1  and  C1_5 
REMARK    2  A    between atoms: C1_5  and  C2_6 
REMARK    3  A    between atoms: C1_5  and  P1_12 
ROOT
HETATM    1  C1  UNL     1      -0.115  -4.541  13.075  1.00  0.00     0.316 C 
ENDROOT
BRANCH   1   2
HETATM    2  N1  UNL     1      -1.417  -4.013  12.627  1.00  0.00    -0.062 N 
ATOM      3  H13 UNL     1      -2.019  -4.741  12.240  1.00  0.00     0.275 HD
ATOM      4  H12 UNL     1      -2.012  -3.736  13.407  1.00  0.00     0.275 HD
ATOM      5  H11 UNL     1      -1.259  -3.250  11.970  1.00  0.00     0.275 HD
ENDBRANCH   1   2
BRANCH   1   6
HETATM    6  C2  UNL     1       0.128  -5.889  12.415  1.00  0.00     0.030 C 
HETATM    7  C3  UNL     1       0.581  -6.836  13.495  1.00  0.00     0.007 C 
HETATM    8  C4  UNL     1       0.103  -8.241  13.170  1.00  0.00     0.000 C 
HETATM    9  C5  UNL     1      -1.384  -8.362  13.099  1.00  0.00     0.000 C 
HETATM   10  C6  UNL     1      -2.019  -7.061  12.653  1.00  0.00     0.000 C 
HETATM   11  C7  UNL     1      -1.063  -6.404  11.680  1.00  0.00     0.007 C 
ENDBRANCH   1   6
BRANCH   1  12
HETATM   12  P1  UNL     1       1.075  -3.321  12.846  1.00  0.00     0.291 P 
HETATM   13  O1  UNL     1       1.959  -3.984  11.786  1.00  0.00    -0.638 OA
HETATM   14  O2  UNL     1       0.774  -2.105  11.668  1.00  0.00    -0.638 OA
HETATM   15  O3  UNL     1       2.345  -3.155  13.871  1.00  0.00    -0.638 OA
ENDBRANCH   1  12
TORSDOF 3
ENDMDL
