MODEL 14
REMARK VINA RESULT: -4.853397906      4.644      5.736
REMARK  3 active torsions:
REMARK  status: ('A' for Active; 'I' for Inactive)
REMARK    1  A    between atoms: N1_1  and  C1_5 
REMARK    2  A    between atoms: C1_5  and  C2_6 
REMARK    3  A    between atoms: C1_5  and  P1_12 
ROOT
HETATM    1  C1  UNL     1       3.492  -2.844  10.499  1.00  0.00     0.316 C 
ENDROOT
BRANCH   1   2
HETATM    2  N1  UNL     1       4.247  -1.615  10.809  1.00  0.00    -0.062 N 
ATOM      3  H13 UNL     1       5.048  -1.795  11.417  1.00  0.00     0.275 HD
ATOM      4  H12 UNL     1       4.758  -1.259  10.001  1.00  0.00     0.275 HD
ATOM      5  H11 UNL     1       3.610  -0.922  11.201  1.00  0.00     0.275 HD
ENDBRANCH   1   2
BRANCH   1   6
HETATM    6  C2  UNL     1       4.450  -3.892   9.958  1.00  0.00     0.030 C 
HETATM    7  C3  UNL     1       3.620  -4.916   9.227  1.00  0.00     0.007 C 
HETATM    8  C4  UNL     1       4.422  -5.485   8.069  1.00  0.00     0.000 C 
HETATM    9  C5  UNL     1       4.814  -4.460   7.057  1.00  0.00     0.000 C 
HETATM   10  C6  UNL     1       4.984  -3.097   7.695  1.00  0.00     0.000 C 
HETATM   11  C7  UNL     1       5.520  -3.317   9.094  1.00  0.00     0.007 C 
ENDBRANCH   1   6
BRANCH   1  12
HETATM   12  P1  UNL     1       2.550  -3.265  11.874  1.00  0.00     0.291 P 
HETATM   13  O1  UNL     1       1.394  -2.268  11.741  1.00  0.00    -0.638 OA
HETATM   14  O2  UNL     1       1.359  -4.493  11.698  1.00  0.00    -0.638 OA
HETATM   15  O3  UNL     1       2.920  -2.709  13.373  1.00  0.00    -0.638 OA
ENDBRANCH   1  12
TORSDOF 3
ENDMDL
