MODEL 5
REMARK VINA RESULT: -6.332319890      0.942      1.640
REMARK  3 active torsions:
REMARK  status: ('A' for Active; 'I' for Inactive)
REMARK    1  A    between atoms: N1_1  and  C1_5 
REMARK    2  A    between atoms: C1_5  and  C2_6 
REMARK    3  A    between atoms: C1_5  and  P1_12 
ROOT
HETATM    1  C1  UNL     1      -0.487  -3.504  13.507  1.00  0.00     0.316 C 
ENDROOT
BRANCH   1   2
HETATM    2  N1  UNL     1      -1.365  -3.063  12.407  1.00  0.00    -0.062 N 
ATOM      3  H13 UNL     1      -0.845  -2.621  11.648  1.00  0.00     0.275 HD
ATOM      4  H12 UNL     1      -1.750  -3.847  11.880  1.00  0.00     0.275 HD
ATOM      5  H11 UNL     1      -2.092  -2.456  12.785  1.00  0.00     0.275 HD
ENDBRANCH   1   2
BRANCH   1   6
HETATM    6  C2  UNL     1      -0.815  -4.947  13.855  1.00  0.00     0.030 C 
HETATM    7  C3  UNL     1      -2.022  -5.336  13.042  1.00  0.00     0.007 C 
HETATM    8  C4  UNL     1      -1.949  -6.815  12.703  1.00  0.00     0.000 C 
HETATM    9  C5  UNL     1      -0.753  -7.179  11.884  1.00  0.00     0.000 C 
HETATM   10  C6  UNL     1       0.411  -6.256  12.175  1.00  0.00     0.000 C 
HETATM   11  C7  UNL     1       0.331  -5.876  13.639  1.00  0.00     0.007 C 
ENDBRANCH   1   6
BRANCH   1  12
HETATM   12  P1  UNL     1       1.139  -3.141  13.083  1.00  0.00     0.291 P 
HETATM   13  O1  UNL     1       1.173  -1.635  13.358  1.00  0.00    -0.638 OA
HETATM   14  O2  UNL     1       2.345  -3.273  14.302  1.00  0.00    -0.638 OA
HETATM   15  O3  UNL     1       1.591  -2.915  11.522  1.00  0.00    -0.638 OA
ENDBRANCH   1  12
TORSDOF 3
ENDMDL
