MODEL 5
REMARK VINA RESULT: -6.813231144      0.378      1.354
REMARK  3 active torsions:
REMARK  status: ('A' for Active; 'I' for Inactive)
REMARK    1  A    between atoms: N1_1  and  C1_5 
REMARK    2  A    between atoms: C1_5  and  C2_6 
REMARK    3  A    between atoms: C1_5  and  P1_12 
ROOT
HETATM    1  C1  UNL     1      23.180  -4.568  10.228  1.00  0.00     0.344 C 
ENDROOT
BRANCH   1   2
HETATM    2  N1  UNL     1      24.220  -4.020   9.325  1.00  0.00    -0.058 N 
ATOM      3  H13 UNL     1      23.972  -3.133   8.888  1.00  0.00     0.275 HD
ATOM      4  H12 UNL     1      25.053  -3.677   9.803  1.00  0.00     0.275 HD
ATOM      5  H11 UNL     1      24.397  -4.779   8.665  1.00  0.00     0.275 HD
ENDBRANCH   1   2
BRANCH   1   6
HETATM    6  C2  UNL     1      23.677  -5.928  10.563  1.00  0.00    -0.015 A 
HETATM    7  C3  UNL     1      24.918  -6.220  11.066  1.00  0.00     0.010 A 
HETATM    8  C4  UNL     1      25.306  -7.511  11.352  1.00  0.00     0.001 A 
HETATM    9  C5  UNL     1      24.433  -8.556  11.129  1.00  0.00     0.000 A 
HETATM   10  C6  UNL     1      23.190  -8.292  10.629  1.00  0.00     0.001 A 
HETATM   11  C7  UNL     1      22.819  -6.985  10.348  1.00  0.00     0.010 A 
ENDBRANCH   1   6
BRANCH   1  12
HETATM   12  P1  UNL     1      22.780  -3.526  11.448  1.00  0.00     0.295 P 
HETATM   13  O1  UNL     1      21.972  -2.492  10.532  1.00  0.00    -0.638 OA
HETATM   14  O2  UNL     1      21.933  -4.834  12.172  1.00  0.00    -0.638 OA
HETATM   15  O3  UNL     1      24.319  -3.266  11.942  1.00  0.00    -0.638 OA
ENDBRANCH   1  12
TORSDOF 3
ENDMDL
