MODEL 4
REMARK VINA RESULT: -6.915083144      0.147      1.975
REMARK  3 active torsions:
REMARK  status: ('A' for Active; 'I' for Inactive)
REMARK    1  A    between atoms: N1_1  and  C1_5 
REMARK    2  A    between atoms: C1_5  and  C2_6 
REMARK    3  A    between atoms: C1_5  and  P1_12 
ROOT
HETATM    1  C1  UNL     1      23.113  -4.770  10.311  1.00  0.00     0.344 C 
ENDROOT
BRANCH   1   2
HETATM    2  N1  UNL     1      24.327  -4.098   9.790  1.00  0.00    -0.058 N 
ATOM      3  H13 UNL     1      24.653  -3.319  10.361  1.00  0.00     0.275 HD
ATOM      4  H12 UNL     1      25.180  -4.653   9.866  1.00  0.00     0.275 HD
ATOM      5  H11 UNL     1      24.075  -3.843   8.834  1.00  0.00     0.275 HD
ENDBRANCH   1   2
BRANCH   1   6
HETATM    6  C2  UNL     1      23.567  -6.156  10.599  1.00  0.00    -0.015 A 
HETATM    7  C3  UNL     1      22.817  -7.289  10.428  1.00  0.00     0.010 A 
HETATM    8  C4  UNL     1      23.310  -8.543  10.719  1.00  0.00     0.001 A 
HETATM    9  C5  UNL     1      24.595  -8.681  11.200  1.00  0.00     0.000 A 
HETATM   10  C6  UNL     1      25.364  -7.567  11.379  1.00  0.00     0.001 A 
HETATM   11  C7  UNL     1      24.849  -6.314  11.079  1.00  0.00     0.010 A 
ENDBRANCH   1   6
BRANCH   1  12
HETATM   12  P1  UNL     1      22.360  -3.898  11.498  1.00  0.00     0.295 P 
HETATM   13  O1  UNL     1      21.913  -5.158  12.378  1.00  0.00    -0.638 OA
HETATM   14  O2  UNL     1      23.884  -3.165  11.807  1.00  0.00    -0.638 OA
HETATM   15  O3  UNL     1      21.341  -3.108  10.489  1.00  0.00    -0.638 OA
ENDBRANCH   1  12
TORSDOF 3
ENDMDL
