MODEL 1
REMARK VINA RESULT: -7.046250351      0.000      0.000
REMARK  3 active torsions:
REMARK  status: ('A' for Active; 'I' for Inactive)
REMARK    1  A    between atoms: N1_1  and  C1_5 
REMARK    2  A    between atoms: C1_5  and  C2_6 
REMARK    3  A    between atoms: C1_5  and  P1_12 
ROOT
HETATM    1  C1  UNL     1      23.055  -4.775  10.267  1.00  0.00     0.344 C 
ENDROOT
BRANCH   1   2
HETATM    2  N1  UNL     1      24.109  -4.092   9.480  1.00  0.00    -0.058 N 
ATOM      3  H13 UNL     1      25.018  -4.553   9.507  1.00  0.00     0.275 HD
ATOM      4  H12 UNL     1      23.985  -4.154   8.470  1.00  0.00     0.275 HD
ATOM      5  H11 UNL     1      24.110  -3.140   9.846  1.00  0.00     0.275 HD
ENDBRANCH   1   2
BRANCH   1   6
HETATM    6  C2  UNL     1      23.652  -6.097  10.594  1.00  0.00    -0.015 A 
HETATM    7  C3  UNL     1      24.905  -6.297  11.111  1.00  0.00     0.010 A 
HETATM    8  C4  UNL     1      25.389  -7.557  11.388  1.00  0.00     0.001 A 
HETATM    9  C5  UNL     1      24.604  -8.664  11.142  1.00  0.00     0.000 A 
HETATM   10  C6  UNL     1      23.351  -8.492  10.627  1.00  0.00     0.001 A 
HETATM   11  C7  UNL     1      22.882  -7.214  10.356  1.00  0.00     0.010 A 
ENDBRANCH   1   6
BRANCH   1  12
HETATM   12  P1  UNL     1      22.454  -3.832  11.486  1.00  0.00     0.295 P 
HETATM   13  O1  UNL     1      23.830  -3.086  11.819  1.00  0.00    -0.638 OA
HETATM   14  O2  UNL     1      21.397  -3.146  10.317  1.00  0.00    -0.638 OA
HETATM   15  O3  UNL     1      21.876  -5.078  12.377  1.00  0.00    -0.638 OA
ENDBRANCH   1  12
TORSDOF 3
ENDMDL
