MODEL 2
REMARK VINA RESULT: -7.039169066      0.099      1.363
REMARK  3 active torsions:
REMARK  status: ('A' for Active; 'I' for Inactive)
REMARK    1  A    between atoms: N1_1  and  C1_5 
REMARK    2  A    between atoms: C1_5  and  C2_6 
REMARK    3  A    between atoms: C1_5  and  P1_12 
ROOT
HETATM    1  C1  UNL     1      23.073  -4.804  10.292  1.00  0.00     0.344 C 
ENDROOT
BRANCH   1   2
HETATM    2  N1  UNL     1      24.223  -4.167   9.608  1.00  0.00    -0.058 N 
ATOM      3  H13 UNL     1      24.844  -4.822   9.133  1.00  0.00     0.275 HD
ATOM      4  H12 UNL     1      23.974  -3.631   8.777  1.00  0.00     0.275 HD
ATOM      5  H11 UNL     1      24.673  -3.620  10.343  1.00  0.00     0.275 HD
ENDBRANCH   1   2
BRANCH   1   6
HETATM    6  C2  UNL     1      23.550  -6.180  10.588  1.00  0.00    -0.015 A 
HETATM    7  C3  UNL     1      22.819  -7.327  10.427  1.00  0.00     0.010 A 
HETATM    8  C4  UNL     1      23.334  -8.571  10.725  1.00  0.00     0.001 A 
HETATM    9  C5  UNL     1      24.623  -8.684  11.204  1.00  0.00     0.000 A 
HETATM   10  C6  UNL     1      25.373  -7.556  11.374  1.00  0.00     0.001 A 
HETATM   11  C7  UNL     1      24.836  -6.314  11.067  1.00  0.00     0.010 A 
ENDBRANCH   1   6
BRANCH   1  12
HETATM   12  P1  UNL     1      22.463  -3.875  11.516  1.00  0.00     0.295 P 
HETATM   13  O1  UNL     1      23.834  -3.127  11.864  1.00  0.00    -0.638 OA
HETATM   14  O2  UNL     1      21.408  -3.182  10.350  1.00  0.00    -0.638 OA
HETATM   15  O3  UNL     1      21.886  -5.132  12.393  1.00  0.00    -0.638 OA
ENDBRANCH   1  12
TORSDOF 3
ENDMDL
