MODEL 16
REMARK VINA RESULT: -5.069253957      6.078      6.933
REMARK  3 active torsions:
REMARK  status: ('A' for Active; 'I' for Inactive)
REMARK    1  A    between atoms: N1_1  and  C1_5 
REMARK    2  A    between atoms: C1_5  and  C2_6 
REMARK    3  A    between atoms: C1_5  and  P1_12 
ROOT
HETATM    1  C1  UNL     1      19.573  -2.285  13.706  1.00  0.00     0.344 C 
ENDROOT
BRANCH   1   2
HETATM    2  N1  UNL     1      18.345  -1.731  13.087  1.00  0.00    -0.058 N 
ATOM      3  H13 UNL     1      17.477  -2.095  13.478  1.00  0.00     0.275 HD
ATOM      4  H12 UNL     1      18.165  -0.752  13.313  1.00  0.00     0.275 HD
ATOM      5  H11 UNL     1      18.468  -1.917  12.091  1.00  0.00     0.275 HD
ENDBRANCH   1   2
BRANCH   1   6
HETATM    6  C2  UNL     1      19.077  -2.982  14.922  1.00  0.00    -0.015 A 
HETATM    7  C3  UNL     1      18.061  -3.900  14.953  1.00  0.00     0.010 A 
HETATM    8  C4  UNL     1      17.657  -4.504  16.124  1.00  0.00     0.001 A 
HETATM    9  C5  UNL     1      18.281  -4.187  17.312  1.00  0.00     0.000 A 
HETATM   10  C6  UNL     1      19.298  -3.274  17.308  1.00  0.00     0.001 A 
HETATM   11  C7  UNL     1      19.689  -2.677  16.118  1.00  0.00     0.010 A 
ENDBRANCH   1   6
BRANCH   1  12
HETATM   12  P1  UNL     1      20.518  -3.107  12.627  1.00  0.00     0.295 P 
HETATM   13  O1  UNL     1      20.541  -4.487  13.436  1.00  0.00    -0.638 OA
HETATM   14  O2  UNL     1      19.277  -2.842  11.468  1.00  0.00    -0.638 OA
HETATM   15  O3  UNL     1      21.756  -2.035  12.655  1.00  0.00    -0.638 OA
ENDBRANCH   1  12
TORSDOF 3
ENDMDL
