MODEL 13
REMARK VINA RESULT: -5.200970246      4.135      5.440
REMARK  3 active torsions:
REMARK  status: ('A' for Active; 'I' for Inactive)
REMARK    1  A    between atoms: N1_1  and  C1_5 
REMARK    2  A    between atoms: C1_5  and  C2_6 
REMARK    3  A    between atoms: C1_5  and  P1_12 
ROOT
HETATM    1  C1  UNL     1      21.576  -2.716  11.295  1.00  0.00     0.344 C 
ENDROOT
BRANCH   1   2
HETATM    2  N1  UNL     1      20.988  -2.579   9.941  1.00  0.00    -0.058 N 
ATOM      3  H13 UNL     1      20.542  -1.678   9.767  1.00  0.00     0.275 HD
ATOM      4  H12 UNL     1      21.675  -2.507   9.191  1.00  0.00     0.275 HD
ATOM      5  H11 UNL     1      20.362  -3.380   9.863  1.00  0.00     0.275 HD
ENDBRANCH   1   2
BRANCH   1   6
HETATM    6  C2  UNL     1      20.395  -2.732  12.197  1.00  0.00    -0.015 A 
HETATM    7  C3  UNL     1      20.440  -2.749  13.567  1.00  0.00     0.010 A 
HETATM    8  C4  UNL     1      19.297  -2.764  14.336  1.00  0.00     0.001 A 
HETATM    9  C5  UNL     1      18.059  -2.765  13.728  1.00  0.00     0.000 A 
HETATM   10  C6  UNL     1      17.986  -2.748  12.364  1.00  0.00     0.001 A 
HETATM   11  C7  UNL     1      19.149  -2.732  11.608  1.00  0.00     0.010 A 
ENDBRANCH   1   6
BRANCH   1  12
HETATM   12  P1  UNL     1      22.686  -3.938  11.389  1.00  0.00     0.295 P 
HETATM   13  O1  UNL     1      21.748  -4.962  12.183  1.00  0.00    -0.638 OA
HETATM   14  O2  UNL     1      22.678  -3.962   9.670  1.00  0.00    -0.638 OA
HETATM   15  O3  UNL     1      23.845  -3.039  12.118  1.00  0.00    -0.638 OA
ENDBRANCH   1  12
TORSDOF 3
ENDMDL
