MODEL 3
REMARK VINA RESULT: -6.937418567      0.152      1.395
REMARK  3 active torsions:
REMARK  status: ('A' for Active; 'I' for Inactive)
REMARK    1  A    between atoms: N1_1  and  C1_5 
REMARK    2  A    between atoms: C1_5  and  C2_6 
REMARK    3  A    between atoms: C1_5  and  P1_12 
ROOT
HETATM    1  C1  UNL     1      23.093  -4.796  10.153  1.00  0.00     0.344 C 
ENDROOT
BRANCH   1   2
HETATM    2  N1  UNL     1      24.176  -4.122   9.398  1.00  0.00    -0.058 N 
ATOM      3  H13 UNL     1      25.116  -4.338   9.730  1.00  0.00     0.275 HD
ATOM      4  H12 UNL     1      24.311  -4.476   8.451  1.00  0.00     0.275 HD
ATOM      5  H11 UNL     1      23.931  -3.133   9.446  1.00  0.00     0.275 HD
ENDBRANCH   1   2
BRANCH   1   6
HETATM    6  C2  UNL     1      23.681  -6.109  10.526  1.00  0.00    -0.015 A 
HETATM    7  C3  UNL     1      24.936  -6.302  11.040  1.00  0.00     0.010 A 
HETATM    8  C4  UNL     1      25.410  -7.555  11.362  1.00  0.00     0.001 A 
HETATM    9  C5  UNL     1      24.612  -8.663  11.166  1.00  0.00     0.000 A 
HETATM   10  C6  UNL     1      23.356  -8.498  10.655  1.00  0.00     0.001 A 
HETATM   11  C7  UNL     1      22.897  -7.227  10.338  1.00  0.00     0.010 A 
ENDBRANCH   1   6
BRANCH   1  12
HETATM   12  P1  UNL     1      22.441  -3.834  11.329  1.00  0.00     0.295 P 
HETATM   13  O1  UNL     1      22.076  -5.021  12.338  1.00  0.00    -0.638 OA
HETATM   14  O2  UNL     1      23.982  -3.082  11.450  1.00  0.00    -0.638 OA
HETATM   15  O3  UNL     1      21.336  -3.121  10.353  1.00  0.00    -0.638 OA
ENDBRANCH   1  12
TORSDOF 3
ENDMDL
