MODEL 15
REMARK VINA RESULT: -5.146328834      4.170      5.410
REMARK  3 active torsions:
REMARK  status: ('A' for Active; 'I' for Inactive)
REMARK    1  A    between atoms: N1_1  and  C1_5 
REMARK    2  A    between atoms: C1_5  and  C2_6 
REMARK    3  A    between atoms: C1_5  and  P1_12 
ROOT
HETATM    1  C1  UNL     1      21.551  -2.689  11.282  1.00  0.00     0.344 C 
ENDROOT
BRANCH   1   2
HETATM    2  N1  UNL     1      20.940  -2.490   9.947  1.00  0.00    -0.058 N 
ATOM      3  H13 UNL     1      21.031  -3.289   9.320  1.00  0.00     0.275 HD
ATOM      4  H12 UNL     1      19.920  -2.470   9.950  1.00  0.00     0.275 HD
ATOM      5  H11 UNL     1      21.375  -1.634   9.602  1.00  0.00     0.275 HD
ENDBRANCH   1   2
BRANCH   1   6
HETATM    6  C2  UNL     1      20.387  -2.730  12.206  1.00  0.00    -0.015 A 
HETATM    7  C3  UNL     1      20.458  -2.766  13.573  1.00  0.00     0.010 A 
HETATM    8  C4  UNL     1      19.329  -2.804  14.363  1.00  0.00     0.001 A 
HETATM    9  C5  UNL     1      18.080  -2.808  13.778  1.00  0.00     0.000 A 
HETATM   10  C6  UNL     1      17.982  -2.773  12.416  1.00  0.00     0.001 A 
HETATM   11  C7  UNL     1      19.131  -2.735  11.639  1.00  0.00     0.010 A 
ENDBRANCH   1   6
BRANCH   1  12
HETATM   12  P1  UNL     1      22.649  -3.925  11.304  1.00  0.00     0.295 P 
HETATM   13  O1  UNL     1      22.812  -4.039   9.716  1.00  0.00    -0.638 OA
HETATM   14  O2  UNL     1      23.690  -2.871  12.175  1.00  0.00    -0.638 OA
HETATM   15  O3  UNL     1      21.717  -4.947  12.180  1.00  0.00    -0.638 OA
ENDBRANCH   1  12
TORSDOF 3
ENDMDL
