MODEL 9
REMARK VINA RESULT: -9.062863449      1.456      2.702
REMARK  12 active torsions:
REMARK  status: ('A' for Active; 'I' for Inactive)
REMARK    1  A    between atoms: C4_4  and  C5_5 
REMARK    2  A    between atoms: C5_5  and  C6_6 
REMARK    3  A    between atoms: C6_6  and  C7_7 
REMARK    4  A    between atoms: C7_7  and  C9_9 
REMARK    5  A    between atoms: C9_9  and  C10_10 
REMARK    6  A    between atoms: C10_10  and  C11_11 
REMARK    7  A    between atoms: C11_11  and  C12_12 
REMARK    8  A    between atoms: C14_14  and  C15_15 
REMARK    9  A    between atoms: C15_15  and  S1_16 
REMARK   10  A    between atoms: S1_16  and  P1_17 
REMARK   11  A    between atoms: P1_17  and  O3_20 
REMARK   12  A    between atoms: O3_20  and  P2_21 
ROOT
HETATM    1  C12 UNL     1      26.347   0.106   9.221  1.00  0.00    -0.083 C 
HETATM    2  C13 UNL     1      26.944  -0.823  10.180  1.00  0.00     0.043 C 
HETATM    3  C14 UNL     1      25.507   1.047   9.497  1.00  0.00    -0.013 C 
ENDROOT
BRANCH   1   4
HETATM    4  C11 UNL     1      26.858  -0.080   7.763  1.00  0.00     0.060 C 
BRANCH   4   5
HETATM    5  C10 UNL     1      27.613  -1.341   7.723  1.00  0.00    -0.022 C 
BRANCH   5   6
HETATM    6  C9  UNL     1      28.810  -1.499   6.942  1.00  0.00    -0.001 C 
BRANCH   6   7
HETATM    7  C7  UNL     1      30.053  -1.215   7.256  1.00  0.00    -0.084 C 
HETATM    8  C8  UNL     1      30.439  -0.159   8.206  1.00  0.00     0.043 C 
BRANCH   7   9
HETATM    9  C6  UNL     1      31.168  -1.996   6.584  1.00  0.00     0.037 C 
BRANCH   9  10
HETATM   10  C5  UNL     1      30.991  -1.840   5.073  1.00  0.00     0.031 C 
BRANCH  10  11
HETATM   11  C4  UNL     1      32.321  -1.732   4.430  1.00  0.00    -0.024 C 
HETATM   12  C2  UNL     1      33.003  -0.601   4.279  1.00  0.00    -0.091 C 
HETATM   13  C1  UNL     1      34.355  -0.632   3.602  1.00  0.00     0.042 C 
HETATM   14  C3  UNL     1      32.530   0.726   4.735  1.00  0.00     0.042 C 
ENDBRANCH  10  11
ENDBRANCH   9  10
ENDBRANCH   7   9
ENDBRANCH   6   7
ENDBRANCH   5   6
ENDBRANCH   4   5
ENDBRANCH   1   4
BRANCH   3  15
HETATM   15  C15 UNL     1      24.870   1.443  10.745  1.00  0.00     0.114 C 
BRANCH  15  16
HETATM   16  S1  UNL     1      24.466   3.159  10.912  1.00  0.00    -0.038 SA
BRANCH  16  17
HETATM   17  P1  UNL     1      22.444   3.504  10.373  1.00  0.00     0.326 P 
HETATM   18  O1  UNL     1      21.529   2.682  11.228  1.00  0.00    -0.638 OA
HETATM   19  O2  UNL     1      22.115   5.134  10.616  1.00  0.00    -0.638 OA
BRANCH  17  20
HETATM   20  O3  UNL     1      22.290   3.070   8.745  1.00  0.00    -0.188 OA
BRANCH  20  21
HETATM   21  P2  UNL     1      21.579   4.266   7.818  1.00  0.00     0.430 P 
HETATM   22  O4  UNL     1      21.554   3.869   6.369  1.00  0.00    -0.616 OA
HETATM   23  O5  UNL     1      19.982   4.481   8.366  1.00  0.00    -0.616 OA
HETATM   24  O6  UNL     1      22.466   5.704   7.987  1.00  0.00    -0.616 OA
ENDBRANCH  20  21
ENDBRANCH  17  20
ENDBRANCH  16  17
ENDBRANCH  15  16
ENDBRANCH   3  15
TORSDOF 12
ENDMDL
