MODEL 16
REMARK VINA RESULT: -8.743062958      1.419      2.491
REMARK  12 active torsions:
REMARK  status: ('A' for Active; 'I' for Inactive)
REMARK    1  A    between atoms: C4_4  and  C5_5 
REMARK    2  A    between atoms: C5_5  and  C6_6 
REMARK    3  A    between atoms: C6_6  and  C7_7 
REMARK    4  A    between atoms: C7_7  and  C9_9 
REMARK    5  A    between atoms: C9_9  and  C10_10 
REMARK    6  A    between atoms: C10_10  and  C11_11 
REMARK    7  A    between atoms: C11_11  and  C12_12 
REMARK    8  A    between atoms: C14_14  and  C15_15 
REMARK    9  A    between atoms: C15_15  and  S1_16 
REMARK   10  A    between atoms: S1_16  and  P1_17 
REMARK   11  A    between atoms: P1_17  and  O3_20 
REMARK   12  A    between atoms: O3_20  and  P2_21 
ROOT
HETATM    1  C12 UNL     1      24.103   1.145   8.465  1.00  0.00    -0.083 C 
HETATM    2  C13 UNL     1      24.859   1.214   9.714  1.00  0.00     0.043 C 
HETATM    3  C14 UNL     1      23.242   2.014   8.050  1.00  0.00    -0.013 C 
ENDROOT
BRANCH   1   4
HETATM    4  C11 UNL     1      24.459  -0.084   7.580  1.00  0.00     0.060 C 
BRANCH   4   5
HETATM    5  C10 UNL     1      25.685  -0.678   8.132  1.00  0.00    -0.022 C 
BRANCH   5   6
HETATM    6  C9  UNL     1      26.873  -0.866   7.343  1.00  0.00    -0.001 C 
BRANCH   6   7
HETATM    7  C7  UNL     1      28.114  -1.033   7.734  1.00  0.00    -0.084 C 
HETATM    8  C8  UNL     1      28.648  -0.532   9.011  1.00  0.00     0.043 C 
BRANCH   7   9
HETATM    9  C6  UNL     1      29.076  -1.760   6.809  1.00  0.00     0.037 C 
BRANCH   9  10
HETATM   10  C5  UNL     1      30.495  -1.420   7.266  1.00  0.00     0.031 C 
BRANCH  10  11
HETATM   11  C4  UNL     1      31.447  -1.710   6.169  1.00  0.00    -0.024 C 
HETATM   12  C2  UNL     1      31.855  -0.828   5.262  1.00  0.00    -0.091 C 
HETATM   13  C1  UNL     1      32.834  -1.258   4.192  1.00  0.00     0.042 C 
HETATM   14  C3  UNL     1      31.413   0.584   5.216  1.00  0.00     0.042 C 
ENDBRANCH  10  11
ENDBRANCH   9  10
ENDBRANCH   7   9
ENDBRANCH   6   7
ENDBRANCH   5   6
ENDBRANCH   4   5
ENDBRANCH   1   4
BRANCH   3  15
HETATM   15  C15 UNL     1      22.723   3.232   8.656  1.00  0.00     0.114 C 
BRANCH  15  16
HETATM   16  S1  UNL     1      21.053   3.170   9.243  1.00  0.00    -0.038 SA
BRANCH  16  17
HETATM   17  P1  UNL     1      20.879   1.789  10.844  1.00  0.00     0.326 P 
HETATM   18  O1  UNL     1      20.571   0.421  10.321  1.00  0.00    -0.638 OA
HETATM   19  O2  UNL     1      22.349   1.755  11.658  1.00  0.00    -0.638 OA
BRANCH  17  20
HETATM   20  O3  UNL     1      19.628   2.346  11.837  1.00  0.00    -0.188 OA
BRANCH  20  21
HETATM   21  P2  UNL     1      19.020   1.159  12.845  1.00  0.00     0.430 P 
HETATM   22  O4  UNL     1      17.973   0.346  12.136  1.00  0.00    -0.616 OA
HETATM   23  O5  UNL     1      20.306   0.141  13.299  1.00  0.00    -0.616 OA
HETATM   24  O6  UNL     1      18.327   1.889  14.212  1.00  0.00    -0.616 OA
ENDBRANCH  20  21
ENDBRANCH  17  20
ENDBRANCH  16  17
ENDBRANCH  15  16
ENDBRANCH   3  15
TORSDOF 12
ENDMDL
