MODEL 2
REMARK VINA RESULT: -9.417057000      2.022      2.991
REMARK  12 active torsions:
REMARK  status: ('A' for Active; 'I' for Inactive)
REMARK    1  A    between atoms: C4_4  and  C5_5 
REMARK    2  A    between atoms: C5_5  and  C6_6 
REMARK    3  A    between atoms: C6_6  and  C7_7 
REMARK    4  A    between atoms: C7_7  and  C9_9 
REMARK    5  A    between atoms: C9_9  and  C10_10 
REMARK    6  A    between atoms: C10_10  and  C11_11 
REMARK    7  A    between atoms: C11_11  and  C12_12 
REMARK    8  A    between atoms: C14_14  and  C15_15 
REMARK    9  A    between atoms: C15_15  and  S1_16 
REMARK   10  A    between atoms: S1_16  and  P1_17 
REMARK   11  A    between atoms: P1_17  and  O3_20 
REMARK   12  A    between atoms: O3_20  and  P2_21 
ROOT
HETATM    1  C12 UNL     1      25.804   0.585   8.507  1.00  0.00    -0.083 C 
HETATM    2  C13 UNL     1      25.993   0.303   9.930  1.00  0.00     0.043 C 
HETATM    3  C14 UNL     1      24.767   1.138   7.974  1.00  0.00    -0.013 C 
ENDROOT
BRANCH   1   4
HETATM    4  C11 UNL     1      27.027   0.205   7.623  1.00  0.00     0.060 C 
BRANCH   4   5
HETATM    5  C10 UNL     1      28.000  -0.473   8.493  1.00  0.00    -0.022 C 
BRANCH   5   6
HETATM    6  C9  UNL     1      29.118  -1.211   7.970  1.00  0.00    -0.001 C 
BRANCH   6   7
HETATM    7  C7  UNL     1      30.259  -0.768   7.496  1.00  0.00    -0.084 C 
HETATM    8  C8  UNL     1      30.731   0.618   7.651  1.00  0.00     0.043 C 
BRANCH   7   9
HETATM    9  C6  UNL     1      31.141  -1.725   6.713  1.00  0.00     0.037 C 
BRANCH   9  10
HETATM   10  C5  UNL     1      30.958  -1.407   5.228  1.00  0.00     0.031 C 
BRANCH  10  11
HETATM   11  C4  UNL     1      32.241  -1.614   4.519  1.00  0.00    -0.024 C 
HETATM   12  C2  UNL     1      33.112  -0.654   4.226  1.00  0.00    -0.091 C 
HETATM   13  C1  UNL     1      34.389  -1.004   3.495  1.00  0.00     0.042 C 
HETATM   14  C3  UNL     1      32.926   0.774   4.571  1.00  0.00     0.042 C 
ENDBRANCH  10  11
ENDBRANCH   9  10
ENDBRANCH   7   9
ENDBRANCH   6   7
ENDBRANCH   5   6
ENDBRANCH   4   5
ENDBRANCH   1   4
BRANCH   3  15
HETATM   15  C15 UNL     1      23.504   1.586   8.545  1.00  0.00     0.114 C 
BRANCH  15  16
HETATM   16  S1  UNL     1      23.394   3.304   8.960  1.00  0.00    -0.038 SA
BRANCH  16  17
HETATM   17  P1  UNL     1      21.734   4.198   7.989  1.00  0.00     0.326 P 
HETATM   18  O1  UNL     1      21.651   3.738   6.567  1.00  0.00    -0.638 OA
HETATM   19  O2  UNL     1      20.343   3.729   8.807  1.00  0.00    -0.638 OA
BRANCH  17  20
HETATM   20  O3  UNL     1      21.968   5.873   8.063  1.00  0.00    -0.188 OA
BRANCH  20  21
HETATM   21  P2  UNL     1      21.253   6.571   9.402  1.00  0.00     0.430 P 
HETATM   22  O4  UNL     1      21.542   5.765  10.638  1.00  0.00    -0.616 OA
HETATM   23  O5  UNL     1      21.896   8.135   9.591  1.00  0.00    -0.616 OA
HETATM   24  O6  UNL     1      19.573   6.642   9.165  1.00  0.00    -0.616 OA
ENDBRANCH  20  21
ENDBRANCH  17  20
ENDBRANCH  16  17
ENDBRANCH  15  16
ENDBRANCH   3  15
TORSDOF 12
ENDMDL
