MODEL 13
REMARK VINA RESULT: -8.981160755      2.051      3.312
REMARK  12 active torsions:
REMARK  status: ('A' for Active; 'I' for Inactive)
REMARK    1  A    between atoms: C4_4  and  C5_5 
REMARK    2  A    between atoms: C5_5  and  C6_6 
REMARK    3  A    between atoms: C6_6  and  C7_7 
REMARK    4  A    between atoms: C7_7  and  C9_9 
REMARK    5  A    between atoms: C9_9  and  C10_10 
REMARK    6  A    between atoms: C10_10  and  C11_11 
REMARK    7  A    between atoms: C11_11  and  C12_12 
REMARK    8  A    between atoms: C14_14  and  C15_15 
REMARK    9  A    between atoms: C15_15  and  S1_16 
REMARK   10  A    between atoms: S1_16  and  P1_17 
REMARK   11  A    between atoms: P1_17  and  O3_20 
REMARK   12  A    between atoms: O3_20  and  P2_21 
ROOT
HETATM    1  C12 UNL     1      24.376   1.508   9.792  1.00  0.00    -0.083 C 
HETATM    2  C13 UNL     1      24.768   2.356  10.918  1.00  0.00     0.043 C 
HETATM    3  C14 UNL     1      23.177   1.357   9.338  1.00  0.00    -0.013 C 
ENDROOT
BRANCH   1   4
HETATM    4  C11 UNL     1      25.571   0.796   9.094  1.00  0.00     0.060 C 
BRANCH   4   5
HETATM    5  C10 UNL     1      26.303   0.055  10.132  1.00  0.00    -0.022 C 
BRANCH   5   6
HETATM    6  C9  UNL     1      27.232  -0.997   9.817  1.00  0.00    -0.001 C 
BRANCH   6   7
HETATM    7  C7  UNL     1      27.851  -1.251   8.688  1.00  0.00    -0.084 C 
HETATM    8  C8  UNL     1      27.284  -2.076   7.609  1.00  0.00     0.043 C 
BRANCH   7   9
HETATM    9  C6  UNL     1      29.247  -0.690   8.483  1.00  0.00     0.037 C 
BRANCH   9  10
HETATM   10  C5  UNL     1      29.802  -1.302   7.196  1.00  0.00     0.031 C 
BRANCH  10  11
HETATM   11  C4  UNL     1      30.665  -0.312   6.512  1.00  0.00    -0.024 C 
HETATM   12  C2  UNL     1      31.403  -0.560   5.435  1.00  0.00    -0.091 C 
HETATM   13  C1  UNL     1      32.241   0.546   4.834  1.00  0.00     0.042 C 
HETATM   14  C3  UNL     1      31.470  -1.875   4.756  1.00  0.00     0.042 C 
ENDBRANCH  10  11
ENDBRANCH   9  10
ENDBRANCH   7   9
ENDBRANCH   6   7
ENDBRANCH   5   6
ENDBRANCH   4   5
ENDBRANCH   1   4
BRANCH   3  15
HETATM   15  C15 UNL     1      21.896   1.887   9.783  1.00  0.00     0.114 C 
BRANCH  15  16
HETATM   16  S1  UNL     1      20.677   0.697  10.267  1.00  0.00    -0.038 SA
BRANCH  16  17
HETATM   17  P1  UNL     1      19.761   1.270  12.092  1.00  0.00     0.326 P 
HETATM   18  O1  UNL     1      20.664   0.964  13.247  1.00  0.00    -0.638 OA
HETATM   19  O2  UNL     1      19.480   2.925  12.031  1.00  0.00    -0.638 OA
BRANCH  17  20
HETATM   20  O3  UNL     1      18.319   0.394  12.213  1.00  0.00    -0.188 OA
BRANCH  20  21
HETATM   21  P2  UNL     1      17.307   0.969  13.412  1.00  0.00     0.430 P 
HETATM   22  O4  UNL     1      18.099   1.653  14.491  1.00  0.00    -0.616 OA
HETATM   23  O5  UNL     1      16.235   2.088  12.709  1.00  0.00    -0.616 OA
HETATM   24  O6  UNL     1      16.451  -0.331  14.090  1.00  0.00    -0.616 OA
ENDBRANCH  20  21
ENDBRANCH  17  20
ENDBRANCH  16  17
ENDBRANCH  15  16
ENDBRANCH   3  15
TORSDOF 12
ENDMDL
