MODEL 1
REMARK VINA RESULT: -10.338139833      0.000      0.000
REMARK  13 active torsions:
REMARK  status: ('A' for Active; 'I' for Inactive)
REMARK    1  A    between atoms: C2_2  and  C4_4 
REMARK    2  A    between atoms: C4_4  and  N1_5 
REMARK    3  A    between atoms: N1_5  and  C5_6 
REMARK    4  A    between atoms: N1_5  and  S1_33 
REMARK    5  A    between atoms: C5_6  and  C6_7 
REMARK    6  A    between atoms: C6_7  and  O1_8 
REMARK    7  A    between atoms: C6_7  and  C7_10 
REMARK    8  A    between atoms: C7_10  and  C8_11 
REMARK    9  A    between atoms: C7_10  and  N2_18 
REMARK   10  A    between atoms: C8_11  and  C9_12 
REMARK       I    between atoms: N2_18  and  C15_20 
REMARK   11  A    between atoms: C15_20  and  O3_22 
REMARK   12  A    between atoms: O3_22  and  C16_23 
REMARK   13  A    between atoms: S1_33  and  C22_36 
ROOT
HETATM    1  C7  UNL     1      11.718  19.051  18.265  1.00  0.00     0.124 C 
ENDROOT
BRANCH   1   2
HETATM    2  C6  UNL     1      13.157  18.772  17.933  1.00  0.00     0.180 C 
BRANCH   2   3
HETATM    3  C5  UNL     1      13.930  19.982  17.583  1.00  0.00     0.115 C 
BRANCH   3   4
HETATM    4  N1  UNL     1      13.331  21.006  16.855  1.00  0.00    -0.263 N 
BRANCH   4   5
HETATM    5  C4  UNL     1      12.984  22.233  17.374  1.00  0.00     0.085 C 
BRANCH   5   6
HETATM    6  C2  UNL     1      13.909  22.732  18.449  1.00  0.00     0.017 C 
HETATM    7  C1  UNL     1      14.350  24.155  18.307  1.00  0.00     0.015 C 
HETATM    8  C3  UNL     1      13.303  22.486  19.840  1.00  0.00     0.015 C 
ENDBRANCH   5   6
ENDBRANCH   4   5
BRANCH   4   9
HETATM    9  S1  UNL     1      13.771  20.963  15.210  1.00  0.00     0.267 S 
HETATM   10  O6  UNL     1      12.658  21.139  14.244  1.00  0.00    -0.200 OA
HETATM   11  O7  UNL     1      14.289  19.535  14.959  1.00  0.00    -0.200 OA
BRANCH   9  12
HETATM   12  C22 UNL     1      15.131  22.006  14.822  1.00  0.00     0.080 A 
HETATM   13  C23 UNL     1      16.215  22.177  15.651  1.00  0.00     0.027 A 
HETATM   14  C24 UNL     1      17.261  23.009  15.295  1.00  0.00     0.028 A 
HETATM   15  C25 UNL     1      17.263  23.695  14.107  1.00  0.00     0.046 A 
HETATM   16  N3  UNL     1      18.358  24.561  13.740  1.00  0.00    -0.102 NA
HETATM   17  C26 UNL     1      16.174  23.529  13.266  1.00  0.00     0.028 A 
HETATM   18  C27 UNL     1      15.138  22.697  13.630  1.00  0.00     0.027 A 
ENDBRANCH   9  12
ENDBRANCH   4   9
ENDBRANCH   3   4
ENDBRANCH   2   3
BRANCH   2  19
HETATM   19  O1  UNL     1      13.800  17.929  18.829  1.00  0.00    -0.388 OA
ATOM     20  H1  UNL     1      13.795  17.015  18.572  1.00  0.00     0.210 HD
ENDBRANCH   2  19
ENDBRANCH   1   2
BRANCH   1  21
HETATM   21  C8  UNL     1      11.408  19.421  19.653  1.00  0.00     0.066 C 
BRANCH  21  22
HETATM   22  C9  UNL     1      10.063  19.509  20.131  1.00  0.00    -0.056 A 
HETATM   23  C10 UNL     1       9.478  18.607  21.033  1.00  0.00     0.007 A 
HETATM   24  C11 UNL     1       8.193  18.706  21.463  1.00  0.00     0.001 A 
HETATM   25  C12 UNL     1       7.406  19.731  21.006  1.00  0.00     0.000 A 
HETATM   26  C13 UNL     1       7.936  20.630  20.127  1.00  0.00     0.001 A 
HETATM   27  C14 UNL     1       9.245  20.524  19.694  1.00  0.00     0.007 A 
ENDBRANCH  21  22
ENDBRANCH   1  21
BRANCH   1  28
HETATM   28  N2  UNL     1      10.927  17.904  17.796  1.00  0.00    -0.329 N 
HETATM   29  C15 UNL     1       9.935  17.995  16.799  1.00  0.00     0.361 C 
HETATM   30  O2  UNL     1       9.726  19.129  16.298  1.00  0.00    -0.238 OA
ATOM     31  H2  UNL     1      11.107  16.991  18.214  1.00  0.00     0.165 HD
BRANCH  29  32
HETATM   32  O3  UNL     1       9.190  16.904  16.355  1.00  0.00    -0.296 OA
BRANCH  32  33
HETATM   33  C16 UNL     1       8.739  16.932  15.015  1.00  0.00     0.172 C 
HETATM   34  C17 UNL     1       9.786  16.102  14.243  1.00  0.00     0.204 C 
HETATM   35  O4  UNL     1       9.403  14.800  14.575  1.00  0.00    -0.358 OA
HETATM   36  C18 UNL     1       8.029  14.748  14.533  1.00  0.00     0.272 C 
HETATM   37  O5  UNL     1       7.515  14.011  15.615  1.00  0.00    -0.355 OA
HETATM   38  C21 UNL     1       7.511  16.159  14.732  1.00  0.00     0.147 C 
HETATM   39  C19 UNL     1       6.211  14.519  15.781  1.00  0.00     0.250 C 
HETATM   40  C20 UNL     1       6.525  16.021  15.834  1.00  0.00     0.275 C 
HETATM   41  F1  UNL     1       5.369  16.704  15.428  1.00  0.00    -0.203 F 
HETATM   42  F2  UNL     1       6.938  16.424  17.063  1.00  0.00    -0.203 F 
ENDBRANCH  32  33
ENDBRANCH  29  32
ENDBRANCH   1  28
TORSDOF 13
ENDMDL
