MODEL 2
REMARK VINA RESULT: -10.250042946      1.919      2.882
REMARK  13 active torsions:
REMARK  status: ('A' for Active; 'I' for Inactive)
REMARK    1  A    between atoms: C2_2  and  C4_4 
REMARK    2  A    between atoms: C4_4  and  N1_5 
REMARK    3  A    between atoms: N1_5  and  C5_6 
REMARK    4  A    between atoms: N1_5  and  S1_33 
REMARK    5  A    between atoms: C5_6  and  C6_7 
REMARK    6  A    between atoms: C6_7  and  O1_8 
REMARK    7  A    between atoms: C6_7  and  C7_10 
REMARK    8  A    between atoms: C7_10  and  C8_11 
REMARK    9  A    between atoms: C7_10  and  N2_18 
REMARK   10  A    between atoms: C8_11  and  C9_12 
REMARK       I    between atoms: N2_18  and  C15_20 
REMARK   11  A    between atoms: C15_20  and  O3_22 
REMARK   12  A    between atoms: O3_22  and  C16_23 
REMARK   13  A    between atoms: S1_33  and  C22_36 
ROOT
HETATM    1  C7  UNL     1      11.534  18.830  18.450  1.00  0.00     0.124 C 
ENDROOT
BRANCH   1   2
HETATM    2  C6  UNL     1      12.981  18.538  18.174  1.00  0.00     0.180 C 
BRANCH   2   3
HETATM    3  C5  UNL     1      13.848  19.733  18.226  1.00  0.00     0.115 C 
BRANCH   3   4
HETATM    4  N1  UNL     1      13.676  20.760  17.302  1.00  0.00    -0.263 N 
BRANCH   4   5
HETATM    5  C4  UNL     1      13.206  20.587  16.020  1.00  0.00     0.085 C 
BRANCH   5   6
HETATM    6  C2  UNL     1      14.234  20.827  14.949  1.00  0.00     0.017 C 
HETATM    7  C1  UNL     1      15.452  19.961  15.020  1.00  0.00     0.015 C 
HETATM    8  C3  UNL     1      13.589  20.748  13.556  1.00  0.00     0.015 C 
ENDBRANCH   5   6
ENDBRANCH   4   5
BRANCH   4   9
HETATM    9  S1  UNL     1      13.325  22.247  18.056  1.00  0.00     0.267 S 
HETATM   10  O6  UNL     1      12.239  22.212  19.068  1.00  0.00    -0.200 OA
HETATM   11  O7  UNL     1      12.794  23.161  16.938  1.00  0.00    -0.200 OA
BRANCH   9  12
HETATM   12  C22 UNL     1      14.750  23.073  18.670  1.00  0.00     0.080 A 
HETATM   13  C23 UNL     1      14.786  23.724  19.881  1.00  0.00     0.027 A 
HETATM   14  C24 UNL     1      15.936  24.355  20.317  1.00  0.00     0.028 A 
HETATM   15  C25 UNL     1      17.084  24.361  19.566  1.00  0.00     0.046 A 
HETATM   16  N3  UNL     1      18.282  25.021  20.027  1.00  0.00    -0.102 NA
HETATM   17  C26 UNL     1      17.057  23.708  18.344  1.00  0.00     0.028 A 
HETATM   18  C27 UNL     1      15.906  23.081  17.919  1.00  0.00     0.027 A 
ENDBRANCH   9  12
ENDBRANCH   4   9
ENDBRANCH   3   4
ENDBRANCH   2   3
BRANCH   2  19
HETATM   19  O1  UNL     1      13.487  17.442  18.860  1.00  0.00    -0.388 OA
ATOM     20  H1  UNL     1      12.993  17.211  19.638  1.00  0.00     0.210 HD
ENDBRANCH   2  19
ENDBRANCH   1   2
BRANCH   1  21
HETATM   21  C8  UNL     1      11.168  19.168  19.833  1.00  0.00     0.066 C 
BRANCH  21  22
HETATM   22  C9  UNL     1       9.805  19.327  20.238  1.00  0.00    -0.056 A 
HETATM   23  C10 UNL     1       9.129  18.464  21.113  1.00  0.00     0.007 A 
HETATM   24  C11 UNL     1       7.830  18.631  21.474  1.00  0.00     0.001 A 
HETATM   25  C12 UNL     1       7.122  19.690  20.971  1.00  0.00     0.000 A 
HETATM   26  C13 UNL     1       7.741  20.554  20.117  1.00  0.00     0.001 A 
HETATM   27  C14 UNL     1       9.064  20.378  19.753  1.00  0.00     0.007 A 
ENDBRANCH  21  22
ENDBRANCH   1  21
BRANCH   1  28
HETATM   28  N2  UNL     1      10.747  17.708  17.915  1.00  0.00    -0.329 N 
HETATM   29  C15 UNL     1       9.814  17.838  16.867  1.00  0.00     0.361 C 
HETATM   30  O2  UNL     1       9.657  18.986  16.377  1.00  0.00    -0.238 OA
ATOM     31  H2  UNL     1      10.885  16.785  18.326  1.00  0.00     0.165 HD
BRANCH  29  32
HETATM   32  O3  UNL     1       9.074  16.771  16.362  1.00  0.00    -0.296 OA
BRANCH  32  33
HETATM   33  C16 UNL     1       8.635  16.868  15.021  1.00  0.00     0.172 C 
HETATM   34  C17 UNL     1       9.704  16.101  14.214  1.00  0.00     0.204 C 
HETATM   35  O4  UNL     1       9.341  14.776  14.467  1.00  0.00    -0.358 OA
HETATM   36  C18 UNL     1       7.969  14.702  14.409  1.00  0.00     0.272 C 
HETATM   37  O5  UNL     1       7.459  13.896  15.442  1.00  0.00    -0.355 OA
HETATM   38  C21 UNL     1       7.424  16.090  14.683  1.00  0.00     0.147 C 
HETATM   39  C19 UNL     1       6.144  14.371  15.623  1.00  0.00     0.250 C 
HETATM   40  C20 UNL     1       6.430  15.873  15.764  1.00  0.00     0.275 C 
HETATM   41  F1  UNL     1       5.265  16.557  15.386  1.00  0.00    -0.203 F 
HETATM   42  F2  UNL     1       6.824  16.212  17.018  1.00  0.00    -0.203 F 
ENDBRANCH  32  33
ENDBRANCH  29  32
ENDBRANCH   1  28
TORSDOF 13
ENDMDL
