MODEL 3
REMARK VINA RESULT: -10.146617139      1.481      1.863
REMARK  13 active torsions:
REMARK  status: ('A' for Active; 'I' for Inactive)
REMARK    1  A    between atoms: C2_2  and  C4_4 
REMARK    2  A    between atoms: C4_4  and  N1_5 
REMARK    3  A    between atoms: N1_5  and  C5_6 
REMARK    4  A    between atoms: N1_5  and  S1_33 
REMARK    5  A    between atoms: C5_6  and  C6_7 
REMARK    6  A    between atoms: C6_7  and  O1_8 
REMARK    7  A    between atoms: C6_7  and  C7_10 
REMARK    8  A    between atoms: C7_10  and  C8_11 
REMARK    9  A    between atoms: C7_10  and  N2_18 
REMARK   10  A    between atoms: C8_11  and  C9_12 
REMARK       I    between atoms: N2_18  and  C15_20 
REMARK   11  A    between atoms: C15_20  and  O3_22 
REMARK   12  A    between atoms: O3_22  and  C16_23 
REMARK   13  A    between atoms: S1_33  and  C22_36 
ROOT
HETATM    1  C7  UNL     1      12.158  19.801  18.023  1.00  0.00     0.124 C 
ENDROOT
BRANCH   1   2
HETATM    2  C6  UNL     1      13.501  19.168  17.788  1.00  0.00     0.180 C 
BRANCH   2   3
HETATM    3  C5  UNL     1      14.558  20.137  17.429  1.00  0.00     0.115 C 
BRANCH   3   4
HETATM    4  N1  UNL     1      14.228  21.318  16.772  1.00  0.00    -0.263 N 
BRANCH   4   5
HETATM    5  C4  UNL     1      14.410  22.579  17.294  1.00  0.00     0.085 C 
BRANCH   5   6
HETATM    6  C2  UNL     1      15.377  22.636  18.444  1.00  0.00     0.017 C 
HETATM    7  C1  UNL     1      16.595  23.476  18.219  1.00  0.00     0.015 C 
HETATM    8  C3  UNL     1      14.657  23.057  19.735  1.00  0.00     0.015 C 
ENDBRANCH   5   6
ENDBRANCH   4   5
BRANCH   4   9
HETATM    9  S1  UNL     1      14.340  21.162  15.080  1.00  0.00     0.267 S 
HETATM   10  O6  UNL     1      13.083  21.405  14.329  1.00  0.00    -0.200 OA
HETATM   11  O7  UNL     1      14.672  19.681  14.823  1.00  0.00    -0.200 OA
BRANCH   9  12
HETATM   12  C22 UNL     1      15.688  22.049  14.384  1.00  0.00     0.080 A 
HETATM   13  C23 UNL     1      17.004  21.787  14.685  1.00  0.00     0.027 A 
HETATM   14  C24 UNL     1      18.027  22.515  14.105  1.00  0.00     0.028 A 
HETATM   15  C25 UNL     1      17.775  23.524  13.210  1.00  0.00     0.046 A 
HETATM   16  N3  UNL     1      18.848  24.279  12.607  1.00  0.00    -0.102 NA
HETATM   17  C26 UNL     1      16.453  23.795  12.901  1.00  0.00     0.028 A 
HETATM   18  C27 UNL     1      15.441  23.063  13.484  1.00  0.00     0.027 A 
ENDBRANCH   9  12
ENDBRANCH   4   9
ENDBRANCH   3   4
ENDBRANCH   2   3
BRANCH   2  19
HETATM   19  O1  UNL     1      13.880  18.249  18.757  1.00  0.00    -0.388 OA
ATOM     20  H1  UNL     1      13.177  17.990  19.341  1.00  0.00     0.210 HD
ENDBRANCH   2  19
ENDBRANCH   1   2
BRANCH   1  21
HETATM   21  C8  UNL     1      11.901  20.357  19.359  1.00  0.00     0.066 C 
BRANCH  21  22
HETATM   22  C9  UNL     1      10.661  20.149  20.040  1.00  0.00    -0.056 A 
HETATM   23  C10 UNL     1      10.365  19.027  20.829  1.00  0.00     0.007 A 
HETATM   24  C11 UNL     1       9.174  18.847  21.457  1.00  0.00     0.001 A 
HETATM   25  C12 UNL     1       8.194  19.796  21.329  1.00  0.00     0.000 A 
HETATM   26  C13 UNL     1       8.440  20.902  20.570  1.00  0.00     0.001 A 
HETATM   27  C14 UNL     1       9.655  21.079  19.933  1.00  0.00     0.007 A 
ENDBRANCH  21  22
ENDBRANCH   1  21
BRANCH   1  28
HETATM   28  N2  UNL     1      11.135  18.830  17.608  1.00  0.00    -0.329 N 
HETATM   29  C15 UNL     1      10.202  19.069  16.579  1.00  0.00     0.361 C 
HETATM   30  O2  UNL     1      10.262  20.182  15.996  1.00  0.00    -0.238 OA
ATOM     31  H2  UNL     1      11.098  17.933  18.093  1.00  0.00     0.165 HD
BRANCH  29  32
HETATM   32  O3  UNL     1       9.236  18.144  16.188  1.00  0.00    -0.296 OA
BRANCH  32  33
HETATM   33  C16 UNL     1       9.081  16.993  16.995  1.00  0.00     0.172 C 
HETATM   34  C17 UNL     1       7.940  17.362  17.968  1.00  0.00     0.204 C 
HETATM   35  O4  UNL     1       6.820  17.207  17.147  1.00  0.00    -0.358 OA
HETATM   36  C18 UNL     1       7.007  16.070  16.398  1.00  0.00     0.272 C 
HETATM   37  O5  UNL     1       6.603  16.266  15.066  1.00  0.00    -0.355 OA
HETATM   38  C21 UNL     1       8.499  15.810  16.325  1.00  0.00     0.147 C 
HETATM   39  C19 UNL     1       7.358  15.323  14.340  1.00  0.00     0.250 C 
HETATM   40  C20 UNL     1       8.760  15.654  14.872  1.00  0.00     0.275 C 
HETATM   41  F1  UNL     1       9.546  14.501  14.725  1.00  0.00    -0.203 F 
HETATM   42  F2  UNL     1       9.318  16.721  14.244  1.00  0.00    -0.203 F 
ENDBRANCH  32  33
ENDBRANCH  29  32
ENDBRANCH   1  28
TORSDOF 13
ENDMDL
