MODEL 14
REMARK VINA RESULT: -9.481539399      4.151      9.826
REMARK  13 active torsions:
REMARK  status: ('A' for Active; 'I' for Inactive)
REMARK    1  A    between atoms: C2_2  and  C4_4 
REMARK    2  A    between atoms: C4_4  and  N1_5 
REMARK    3  A    between atoms: N1_5  and  C5_6 
REMARK    4  A    between atoms: N1_5  and  S1_33 
REMARK    5  A    between atoms: C5_6  and  C6_7 
REMARK    6  A    between atoms: C6_7  and  O1_8 
REMARK    7  A    between atoms: C6_7  and  C7_10 
REMARK    8  A    between atoms: C7_10  and  C8_11 
REMARK    9  A    between atoms: C7_10  and  N2_18 
REMARK   10  A    between atoms: C8_11  and  C9_12 
REMARK       I    between atoms: N2_18  and  C15_20 
REMARK   11  A    between atoms: C15_20  and  O3_22 
REMARK   12  A    between atoms: O3_22  and  C16_23 
REMARK   13  A    between atoms: S1_33  and  C22_36 
ROOT
HETATM    1  C7  UNL     1      13.844  20.133  17.292  1.00  0.00     0.124 C 
ENDROOT
BRANCH   1   2
HETATM    2  C6  UNL     1      13.446  19.009  18.206  1.00  0.00     0.180 C 
BRANCH   2   3
HETATM    3  C5  UNL     1      12.397  18.132  17.646  1.00  0.00     0.115 C 
BRANCH   3   4
HETATM    4  N1  UNL     1      11.066  18.536  17.666  1.00  0.00    -0.263 N 
BRANCH   4   5
HETATM    5  C4  UNL     1      10.532  19.421  18.575  1.00  0.00     0.085 C 
BRANCH   5   6
HETATM    6  C2  UNL     1       9.688  18.778  19.640  1.00  0.00     0.017 C 
HETATM    7  C1  UNL     1      10.210  18.902  21.037  1.00  0.00     0.015 C 
HETATM    8  C3  UNL     1       8.237  19.277  19.555  1.00  0.00     0.015 C 
ENDBRANCH   5   6
ENDBRANCH   4   5
BRANCH   4   9
HETATM    9  S1  UNL     1      10.367  18.513  16.113  1.00  0.00     0.267 S 
HETATM   10  O6  UNL     1      11.309  18.715  14.983  1.00  0.00    -0.200 OA
HETATM   11  O7  UNL     1       9.426  19.730  16.065  1.00  0.00    -0.200 OA
BRANCH   9  12
HETATM   12  C22 UNL     1       9.320  17.128  15.838  1.00  0.00     0.080 A 
HETATM   13  C23 UNL     1       8.455  16.632  16.785  1.00  0.00     0.027 A 
HETATM   14  C24 UNL     1       7.651  15.541  16.515  1.00  0.00     0.028 A 
HETATM   15  C25 UNL     1       7.680  14.909  15.297  1.00  0.00     0.046 A 
HETATM   16  N3  UNL     1       6.836  13.770  15.020  1.00  0.00    -0.102 NA
HETATM   17  C26 UNL     1       8.548  15.401  14.337  1.00  0.00     0.028 A 
HETATM   18  C27 UNL     1       9.345  16.491  14.616  1.00  0.00     0.027 A 
ENDBRANCH   9  12
ENDBRANCH   4   9
ENDBRANCH   3   4
ENDBRANCH   2   3
BRANCH   2  19
HETATM   19  O1  UNL     1      14.514  18.325  18.772  1.00  0.00    -0.388 OA
ATOM     20  H1  UNL     1      14.804  18.680  19.604  1.00  0.00     0.210 HD
ENDBRANCH   2  19
ENDBRANCH   1   2
BRANCH   1  21
HETATM   21  C8  UNL     1      14.288  19.773  15.938  1.00  0.00     0.066 C 
BRANCH  21  22
HETATM   22  C9  UNL     1      14.526  20.762  14.931  1.00  0.00    -0.056 A 
HETATM   23  C10 UNL     1      15.562  21.706  14.972  1.00  0.00     0.007 A 
HETATM   24  C11 UNL     1      15.760  22.643  14.008  1.00  0.00     0.001 A 
HETATM   25  C12 UNL     1      14.917  22.688  12.930  1.00  0.00     0.000 A 
HETATM   26  C13 UNL     1      13.895  21.787  12.850  1.00  0.00     0.001 A 
HETATM   27  C14 UNL     1      13.700  20.836  13.835  1.00  0.00     0.007 A 
ENDBRANCH  21  22
ENDBRANCH   1  21
BRANCH   1  28
HETATM   28  N2  UNL     1      14.827  20.958  18.009  1.00  0.00    -0.329 N 
HETATM   29  C15 UNL     1      14.601  22.300  18.377  1.00  0.00     0.361 C 
HETATM   30  O2  UNL     1      13.492  22.803  18.063  1.00  0.00    -0.238 OA
ATOM     31  H2  UNL     1      15.723  20.536  18.254  1.00  0.00     0.165 HD
BRANCH  29  32
HETATM   32  O3  UNL     1      15.535  23.076  19.060  1.00  0.00    -0.296 OA
BRANCH  32  33
HETATM   33  C16 UNL     1      15.116  24.354  19.497  1.00  0.00     0.172 C 
HETATM   34  C17 UNL     1      15.009  24.217  21.031  1.00  0.00     0.204 C 
HETATM   35  O4  UNL     1      16.353  24.287  21.406  1.00  0.00    -0.358 OA
HETATM   36  C18 UNL     1      16.947  25.268  20.647  1.00  0.00     0.272 C 
HETATM   37  O5  UNL     1      18.219  24.868  20.203  1.00  0.00    -0.355 OA
HETATM   38  C21 UNL     1      16.121  25.434  19.386  1.00  0.00     0.147 C 
HETATM   39  C19 UNL     1      18.427  25.632  19.038  1.00  0.00     0.250 C 
HETATM   40  C20 UNL     1      17.119  25.325  18.293  1.00  0.00     0.275 C 
HETATM   41  F1  UNL     1      16.877  26.394  17.417  1.00  0.00    -0.203 F 
HETATM   42  F2  UNL     1      17.161  24.138  17.634  1.00  0.00    -0.203 F 
ENDBRANCH  32  33
ENDBRANCH  29  32
ENDBRANCH   1  28
TORSDOF 13
ENDMDL
