MODEL 3
REMARK VINA RESULT: -8.281615841      1.628      2.704
REMARK  18 active torsions:
REMARK  status: ('A' for Active; 'I' for Inactive)
REMARK    1  A    between atoms: O1_1  and  C1_3 
REMARK    2  A    between atoms: C1_3  and  C2_4 
REMARK    3  A    between atoms: C3_6  and  O3_7 
REMARK    4  A    between atoms: O3_7  and  C4_8 
REMARK    5  A    between atoms: C5_9  and  C6_10 
REMARK    6  A    between atoms: C6_10  and  O4_11 
REMARK    7  A    between atoms: C7_14  and  O6_15 
REMARK    8  A    between atoms: O6_15  and  C8_16 
REMARK    9  A    between atoms: C9_17  and  C10_18 
REMARK   10  A    between atoms: C10_18  and  O7_19 
REMARK   11  A    between atoms: C11_22  and  O9_23 
REMARK   12  A    between atoms: C12_25  and  O10_26 
REMARK   13  A    between atoms: C13_28  and  O11_29 
REMARK   14  A    between atoms: C14_31  and  O12_32 
REMARK   15  A    between atoms: C15_34  and  O13_35 
REMARK   16  A    between atoms: C16_37  and  O14_38 
REMARK   17  A    between atoms: C17_40  and  O15_41 
REMARK   18  A    between atoms: C18_43  and  O16_44 
ROOT
HETATM    1  C4  UNL     1     -30.530   7.029  -4.735  1.00  0.00     0.187 C 
HETATM    2  C5  UNL     1     -30.268   8.474  -4.482  1.00  0.00     0.180 C 
HETATM    3  O5  UNL     1     -28.929   8.818  -4.592  1.00  0.00    -0.348 OA
HETATM    4  C7  UNL     1     -28.122   8.122  -3.710  1.00  0.00     0.292 C 
HETATM    5  C14 UNL     1     -28.306   6.630  -3.809  1.00  0.00     0.204 C 
HETATM    6  C15 UNL     1     -29.259   6.228  -4.914  1.00  0.00     0.183 C 
ENDROOT
BRANCH   1   7
HETATM    7  O3  UNL     1     -31.340   6.839  -5.846  1.00  0.00    -0.348 OA
BRANCH   7   8
HETATM    8  C3  UNL     1     -32.668   7.156  -5.632  1.00  0.00     0.292 C 
HETATM    9  O2  UNL     1     -33.002   8.418  -6.066  1.00  0.00    -0.348 OA
HETATM   10  C2  UNL     1     -34.243   8.877  -5.764  1.00  0.00     0.179 C 
HETATM   11  C18 UNL     1     -35.220   7.752  -5.583  1.00  0.00     0.180 C 
HETATM   12  C17 UNL     1     -34.900   6.668  -6.608  1.00  0.00     0.183 C 
HETATM   13  C16 UNL     1     -33.525   6.092  -6.297  1.00  0.00     0.204 C 
BRANCH  10  14
HETATM   14  C1  UNL     1     -34.158   9.598  -4.422  1.00  0.00     0.198 C 
BRANCH  14  15
HETATM   15  O1  UNL     1     -35.340  10.267  -4.118  1.00  0.00    -0.398 OA
ATOM     16  H1  UNL     1     -35.185  11.181  -3.909  1.00  0.00     0.209 HD
ENDBRANCH  14  15
ENDBRANCH  10  14
BRANCH  11  17
HETATM   17  O16 UNL     1     -36.548   8.161  -5.699  1.00  0.00    -0.390 OA
ATOM     18  H16 UNL     1     -36.971   8.290  -4.858  1.00  0.00     0.210 HD
ENDBRANCH  11  17
BRANCH  12  19
HETATM   19  O15 UNL     1     -35.894   5.721  -6.600  1.00  0.00    -0.390 OA
ATOM     20  H15 UNL     1     -36.001   5.302  -5.755  1.00  0.00     0.210 HD
ENDBRANCH  12  19
BRANCH  13  21
HETATM   21  O14 UNL     1     -32.953   5.555  -7.434  1.00  0.00    -0.388 OA
ATOM     22  H14 UNL     1     -33.570   5.430  -8.146  1.00  0.00     0.210 HD
ENDBRANCH  13  21
ENDBRANCH   7   8
ENDBRANCH   1   7
BRANCH   2  23
HETATM   23  C6  UNL     1     -30.881   8.894  -3.186  1.00  0.00     0.198 C 
BRANCH  23  24
HETATM   24  O4  UNL     1     -30.859  10.285  -3.081  1.00  0.00    -0.398 OA
ATOM     25  H4  UNL     1     -30.051  10.563  -2.667  1.00  0.00     0.209 HD
ENDBRANCH  23  24
ENDBRANCH   2  23
BRANCH   6  26
HETATM   26  O13 UNL     1     -29.462   4.874  -4.852  1.00  0.00    -0.390 OA
ATOM     27  H13 UNL     1     -28.672   4.387  -4.648  1.00  0.00     0.210 HD
ENDBRANCH   6  26
BRANCH   5  28
HETATM   28  O12 UNL     1     -27.054   6.019  -4.053  1.00  0.00    -0.388 OA
ATOM     29  H12 UNL     1     -27.168   5.077  -4.105  1.00  0.00     0.210 HD
ENDBRANCH   5  28
BRANCH   4  30
HETATM   30  O6  UNL     1     -26.786   8.411  -3.958  1.00  0.00    -0.348 OA
BRANCH  30  31
HETATM   31  C8  UNL     1     -26.593   9.619  -4.573  1.00  0.00     0.187 C 
HETATM   32  C9  UNL     1     -25.553   9.471  -5.655  1.00  0.00     0.180 C 
HETATM   33  O8  UNL     1     -25.685  10.564  -6.516  1.00  0.00    -0.349 OA
HETATM   34  C11 UNL     1     -25.679  11.753  -5.802  1.00  0.00     0.288 C 
HETATM   35  C12 UNL     1     -25.258  11.645  -4.380  1.00  0.00     0.204 C 
HETATM   36  C13 UNL     1     -25.944  10.591  -3.569  1.00  0.00     0.183 C 
BRANCH  32  37
HETATM   37  C10 UNL     1     -25.610   8.170  -6.369  1.00  0.00     0.198 C 
BRANCH  37  38
HETATM   38  O7  UNL     1     -24.904   7.223  -5.629  1.00  0.00    -0.398 OA
ATOM     39  H7  UNL     1     -25.182   6.356  -5.900  1.00  0.00     0.209 HD
ENDBRANCH  37  38
ENDBRANCH  32  37
BRANCH  34  40
HETATM   40  O9  UNL     1     -24.720  12.573  -6.448  1.00  0.00    -0.369 OA
ATOM     41  H9  UNL     1     -24.715  12.287  -7.354  1.00  0.00     0.212 HD
ENDBRANCH  34  40
BRANCH  35  42
HETATM   42  O10 UNL     1     -23.869  11.604  -4.305  1.00  0.00    -0.388 OA
ATOM     43  H10 UNL     1     -23.554  12.340  -3.794  1.00  0.00     0.210 HD
ENDBRANCH  35  42
BRANCH  36  44
HETATM   44  O11 UNL     1     -26.892  11.124  -2.697  1.00  0.00    -0.390 OA
ATOM     45  H11 UNL     1     -26.490  11.712  -2.069  1.00  0.00     0.210 HD
ENDBRANCH  36  44
ENDBRANCH  30  31
ENDBRANCH   4  30
TORSDOF 18
ENDMDL
