MODEL 1
REMARK VINA RESULT: -8.559543422      0.000      0.000
REMARK  18 active torsions:
REMARK  status: ('A' for Active; 'I' for Inactive)
REMARK    1  A    between atoms: O1_1  and  C1_3 
REMARK    2  A    between atoms: C1_3  and  C2_4 
REMARK    3  A    between atoms: C3_6  and  O3_7 
REMARK    4  A    between atoms: O3_7  and  C4_8 
REMARK    5  A    between atoms: C5_9  and  C6_10 
REMARK    6  A    between atoms: C6_10  and  O4_11 
REMARK    7  A    between atoms: C7_14  and  O6_15 
REMARK    8  A    between atoms: O6_15  and  C8_16 
REMARK    9  A    between atoms: C9_17  and  C10_18 
REMARK   10  A    between atoms: C10_18  and  O7_19 
REMARK   11  A    between atoms: C11_22  and  O9_23 
REMARK   12  A    between atoms: C12_25  and  O10_26 
REMARK   13  A    between atoms: C13_28  and  O11_29 
REMARK   14  A    between atoms: C14_31  and  O12_32 
REMARK   15  A    between atoms: C15_34  and  O13_35 
REMARK   16  A    between atoms: C16_37  and  O14_38 
REMARK   17  A    between atoms: C17_40  and  O15_41 
REMARK   18  A    between atoms: C18_43  and  O16_44 
ROOT
HETATM    1  C4  UNL     1     -31.765   7.223  -5.609  1.00  0.00     0.187 C 
HETATM    2  C5  UNL     1     -31.525   8.616  -5.135  1.00  0.00     0.180 C 
HETATM    3  O5  UNL     1     -30.203   8.861  -4.797  1.00  0.00    -0.348 OA
HETATM    4  C7  UNL     1     -29.743   8.030  -3.791  1.00  0.00     0.292 C 
HETATM    5  C14 UNL     1     -29.959   6.571  -4.101  1.00  0.00     0.204 C 
HETATM    6  C15 UNL     1     -30.541   6.344  -5.479  1.00  0.00     0.183 C 
ENDROOT
BRANCH   1   7
HETATM    7  O3  UNL     1     -32.199   7.196  -6.928  1.00  0.00    -0.348 OA
BRANCH   7   8
HETATM    8  C3  UNL     1     -33.269   6.350  -7.147  1.00  0.00     0.292 C 
HETATM    9  O2  UNL     1     -33.735   5.754  -5.998  1.00  0.00    -0.348 OA
HETATM   10  C2  UNL     1     -34.684   4.794  -6.130  1.00  0.00     0.179 C 
HETATM   11  C18 UNL     1     -35.495   4.985  -7.379  1.00  0.00     0.180 C 
HETATM   12  C17 UNL     1     -35.712   6.481  -7.587  1.00  0.00     0.183 C 
HETATM   13  C16 UNL     1     -34.363   7.138  -7.850  1.00  0.00     0.204 C 
BRANCH  10  14
HETATM   14  C1  UNL     1     -33.971   3.452  -6.278  1.00  0.00     0.198 C 
BRANCH  14  15
HETATM   15  O1  UNL     1     -33.209   3.145  -5.155  1.00  0.00    -0.398 OA
ATOM     16  H1  UNL     1     -33.320   2.239  -4.890  1.00  0.00     0.209 HD
ENDBRANCH  14  15
ENDBRANCH  10  14
BRANCH  11  17
HETATM   17  O16 UNL     1     -36.716   4.312  -7.343  1.00  0.00    -0.390 OA
ATOM     18  H16 UNL     1     -36.754   3.582  -7.950  1.00  0.00     0.210 HD
ENDBRANCH  11  17
BRANCH  12  19
HETATM   19  O15 UNL     1     -36.613   6.677  -8.604  1.00  0.00    -0.390 OA
ATOM     20  H15 UNL     1     -37.441   6.237  -8.457  1.00  0.00     0.210 HD
ENDBRANCH  12  19
BRANCH  13  21
HETATM   21  O14 UNL     1     -34.394   8.473  -7.497  1.00  0.00    -0.388 OA
ATOM     22  H14 UNL     1     -33.542   8.892  -7.521  1.00  0.00     0.210 HD
ENDBRANCH  13  21
ENDBRANCH   7   8
ENDBRANCH   1   7
BRANCH   2  23
HETATM   23  C6  UNL     1     -32.488   8.969  -4.050  1.00  0.00     0.198 C 
BRANCH  23  24
HETATM   24  O4  UNL     1     -33.789   8.680  -4.460  1.00  0.00    -0.398 OA
ATOM     25  H4  UNL     1     -33.925   7.740  -4.461  1.00  0.00     0.209 HD
ENDBRANCH  23  24
ENDBRANCH   2  23
BRANCH   6  26
HETATM   26  O13 UNL     1     -30.818   5.009  -5.627  1.00  0.00    -0.390 OA
ATOM     27  H13 UNL     1     -30.303   4.594  -6.308  1.00  0.00     0.210 HD
ENDBRANCH   6  26
BRANCH   5  28
HETATM   28  O12 UNL     1     -28.725   5.887  -4.017  1.00  0.00    -0.388 OA
ATOM     29  H12 UNL     1     -28.886   4.964  -3.859  1.00  0.00     0.210 HD
ENDBRANCH   5  28
BRANCH   4  30
HETATM   30  O6  UNL     1     -28.384   8.233  -3.590  1.00  0.00    -0.348 OA
BRANCH  30  31
HETATM   31  C8  UNL     1     -27.925   9.415  -4.107  1.00  0.00     0.187 C 
HETATM   32  C9  UNL     1     -26.502   9.239  -4.577  1.00  0.00     0.180 C 
HETATM   33  O8  UNL     1     -26.219  10.288  -5.456  1.00  0.00    -0.349 OA
HETATM   34  C11 UNL     1     -26.540  11.509  -4.881  1.00  0.00     0.288 C 
HETATM   35  C12 UNL     1     -26.824  11.476  -3.423  1.00  0.00     0.204 C 
HETATM   36  C13 UNL     1     -27.811  10.446  -2.967  1.00  0.00     0.183 C 
BRANCH  32  37
HETATM   37  C10 UNL     1     -26.227   7.906  -5.170  1.00  0.00     0.198 C 
BRANCH  37  38
HETATM   38  O7  UNL     1     -26.008   6.994  -4.137  1.00  0.00    -0.398 OA
ATOM     39  H7  UNL     1     -26.738   6.388  -4.107  1.00  0.00     0.209 HD
ENDBRANCH  37  38
ENDBRANCH  32  37
BRANCH  34  40
HETATM   40  O9  UNL     1     -25.390  12.318  -5.053  1.00  0.00    -0.369 OA
ATOM     41  H9  UNL     1     -24.679  11.833  -4.649  1.00  0.00     0.212 HD
ENDBRANCH  34  40
BRANCH  35  42
HETATM   42  O10 UNL     1     -25.628  11.467  -2.712  1.00  0.00    -0.388 OA
ATOM     43  H10 UNL     1     -24.927  11.795  -3.262  1.00  0.00     0.210 HD
ENDBRANCH  35  42
BRANCH  36  44
HETATM   44  O11 UNL     1     -29.054  10.998  -2.660  1.00  0.00    -0.390 OA
ATOM     45  H11 UNL     1     -29.283  10.844  -1.751  1.00  0.00     0.210 HD
ENDBRANCH  36  44
ENDBRANCH  30  31
ENDBRANCH   4  30
TORSDOF 18
ENDMDL
