MODEL 2
REMARK VINA RESULT: -8.419725549      1.263      2.201
REMARK  18 active torsions:
REMARK  status: ('A' for Active; 'I' for Inactive)
REMARK    1  A    between atoms: O1_1  and  C1_3 
REMARK    2  A    between atoms: C1_3  and  C2_4 
REMARK    3  A    between atoms: C3_6  and  O3_7 
REMARK    4  A    between atoms: O3_7  and  C4_8 
REMARK    5  A    between atoms: C5_9  and  C6_10 
REMARK    6  A    between atoms: C6_10  and  O4_11 
REMARK    7  A    between atoms: C7_14  and  O6_15 
REMARK    8  A    between atoms: O6_15  and  C8_16 
REMARK    9  A    between atoms: C9_17  and  C10_18 
REMARK   10  A    between atoms: C10_18  and  O7_19 
REMARK   11  A    between atoms: C11_22  and  O9_23 
REMARK   12  A    between atoms: C12_25  and  O10_26 
REMARK   13  A    between atoms: C13_28  and  O11_29 
REMARK   14  A    between atoms: C14_31  and  O12_32 
REMARK   15  A    between atoms: C15_34  and  O13_35 
REMARK   16  A    between atoms: C16_37  and  O14_38 
REMARK   17  A    between atoms: C17_40  and  O15_41 
REMARK   18  A    between atoms: C18_43  and  O16_44 
ROOT
HETATM    1  C4  UNL     1     -30.765   6.794  -5.138  1.00  0.00     0.187 C 
HETATM    2  C5  UNL     1     -30.616   8.256  -4.889  1.00  0.00     0.180 C 
HETATM    3  O5  UNL     1     -29.295   8.663  -4.782  1.00  0.00    -0.348 OA
HETATM    4  C7  UNL     1     -28.618   8.029  -3.757  1.00  0.00     0.292 C 
HETATM    5  C14 UNL     1     -28.714   6.527  -3.840  1.00  0.00     0.204 C 
HETATM    6  C15 UNL     1     -29.447   6.054  -5.077  1.00  0.00     0.183 C 
ENDROOT
BRANCH   1   7
HETATM    7  O3  UNL     1     -31.366   6.540  -6.364  1.00  0.00    -0.348 OA
BRANCH   7   8
HETATM    8  C3  UNL     1     -32.710   6.233  -6.275  1.00  0.00     0.292 C 
HETATM    9  O2  UNL     1     -33.424   6.588  -7.396  1.00  0.00    -0.348 OA
HETATM   10  C2  UNL     1     -34.774   6.464  -7.345  1.00  0.00     0.179 C 
HETATM   11  C18 UNL     1     -35.196   5.408  -6.366  1.00  0.00     0.180 C 
HETATM   12  C17 UNL     1     -34.203   4.253  -6.446  1.00  0.00     0.183 C 
HETATM   13  C16 UNL     1     -32.840   4.748  -5.977  1.00  0.00     0.204 C 
BRANCH  10  14
HETATM   14  C1  UNL     1     -35.342   7.784  -6.832  1.00  0.00     0.198 C 
BRANCH  14  15
HETATM   15  O1  UNL     1     -36.149   7.600  -5.713  1.00  0.00    -0.398 OA
ATOM     16  H1  UNL     1     -37.067   7.524  -5.948  1.00  0.00     0.209 HD
ENDBRANCH  14  15
ENDBRANCH  10  14
BRANCH  11  17
HETATM   17  O16 UNL     1     -36.497   4.954  -6.584  1.00  0.00    -0.390 OA
ATOM     18  H16 UNL     1     -37.157   5.603  -6.370  1.00  0.00     0.210 HD
ENDBRANCH  11  17
BRANCH  12  19
HETATM   19  O15 UNL     1     -34.671   3.192  -5.711  1.00  0.00    -0.390 OA
ATOM     20  H15 UNL     1     -35.619   3.144  -5.692  1.00  0.00     0.210 HD
ENDBRANCH  12  19
BRANCH  13  21
HETATM   21  O14 UNL     1     -31.829   3.985  -6.528  1.00  0.00    -0.388 OA
ATOM     22  H14 UNL     1     -31.629   3.202  -6.028  1.00  0.00     0.210 HD
ENDBRANCH  13  21
ENDBRANCH   7   8
ENDBRANCH   1   7
BRANCH   2  23
HETATM   23  C6  UNL     1     -31.458   8.674  -3.728  1.00  0.00     0.198 C 
BRANCH  23  24
HETATM   24  O4  UNL     1     -32.752   8.960  -4.162  1.00  0.00    -0.398 OA
ATOM     25  H4  UNL     1     -32.791   8.917  -5.109  1.00  0.00     0.209 HD
ENDBRANCH  23  24
ENDBRANCH   2  23
BRANCH   6  26
HETATM   26  O13 UNL     1     -29.595   4.694  -5.010  1.00  0.00    -0.390 OA
ATOM     27  H13 UNL     1     -29.772   4.294  -5.853  1.00  0.00     0.210 HD
ENDBRANCH   6  26
BRANCH   5  28
HETATM   28  O12 UNL     1     -27.412   5.975  -3.852  1.00  0.00    -0.388 OA
ATOM     29  H12 UNL     1     -27.169   5.726  -2.968  1.00  0.00     0.210 HD
ENDBRANCH   5  28
BRANCH   4  30
HETATM   30  O6  UNL     1     -27.274   8.379  -3.786  1.00  0.00    -0.348 OA
BRANCH  30  31
HETATM   31  C8  UNL     1     -27.039   9.599  -4.360  1.00  0.00     0.187 C 
HETATM   32  C9  UNL     1     -25.904   9.480  -5.348  1.00  0.00     0.180 C 
HETATM   33  O8  UNL     1     -25.971  10.587  -6.198  1.00  0.00    -0.349 OA
HETATM   34  C11 UNL     1     -26.039  11.763  -5.465  1.00  0.00     0.288 C 
HETATM   35  C12 UNL     1     -25.745  11.633  -4.014  1.00  0.00     0.204 C 
HETATM   36  C13 UNL     1     -26.491  10.559  -3.285  1.00  0.00     0.183 C 
BRANCH  32  37
HETATM   37  C10 UNL     1     -25.885   8.192  -6.087  1.00  0.00     0.198 C 
BRANCH  37  38
HETATM   38  O7  UNL     1     -25.275   7.226  -5.286  1.00  0.00    -0.398 OA
ATOM     39  H7  UNL     1     -24.371   7.478  -5.142  1.00  0.00     0.209 HD
ENDBRANCH  37  38
ENDBRANCH  32  37
BRANCH  34  40
HETATM   40  O9  UNL     1     -25.036  12.603  -6.009  1.00  0.00    -0.369 OA
ATOM     41  H9  UNL     1     -24.213  12.249  -5.691  1.00  0.00     0.212 HD
ENDBRANCH  34  40
BRANCH  35  42
HETATM   42  O10 UNL     1     -24.369  11.602  -3.815  1.00  0.00    -0.388 OA
ATOM     43  H10 UNL     1     -24.135  12.184  -3.103  1.00  0.00     0.210 HD
ENDBRANCH  35  42
BRANCH  36  44
HETATM   44  O11 UNL     1     -27.518  11.067  -2.492  1.00  0.00    -0.390 OA
ATOM     45  H11 UNL     1     -27.793  11.925  -2.793  1.00  0.00     0.210 HD
ENDBRANCH  36  44
ENDBRANCH  30  31
ENDBRANCH   4  30
TORSDOF 18
ENDMDL
