MODEL 7
REMARK VINA RESULT: -4.832412650      8.504      9.774
REMARK  6 active torsions:
REMARK  status: ('A' for Active; 'I' for Inactive)
REMARK       I    between atoms: C2_2  and  N1_4 
REMARK    1  A    between atoms: N1_4  and  C3_6 
REMARK    2  A    between atoms: C4_7  and  O2_8 
REMARK    3  A    between atoms: C5_11  and  C6_12 
REMARK    4  A    between atoms: C6_12  and  O4_13 
REMARK    5  A    between atoms: C7_15  and  O5_16 
REMARK    6  A    between atoms: C8_18  and  O6_19 
ROOT
HETATM    1  C3  UNL     1     -12.192   9.294  42.215  1.00  0.00     0.170 C 
HETATM    2  C4  UNL     1     -12.341   8.005  42.942  1.00  0.00     0.282 C 
HETATM    3  O3  UNL     1     -12.484   6.885  42.190  1.00  0.00    -0.349 OA
HETATM    4  C5  UNL     1     -11.773   6.801  41.035  1.00  0.00     0.179 C 
HETATM    5  C7  UNL     1     -10.762   7.890  40.829  1.00  0.00     0.180 C 
HETATM    6  C8  UNL     1     -11.548   9.188  40.868  1.00  0.00     0.177 C 
ENDROOT
BRANCH   1   7
HETATM    7  N1  UNL     1     -13.454  10.009  42.152  1.00  0.00    -0.349 N 
HETATM    8  C2  UNL     1     -13.579  11.414  42.203  1.00  0.00     0.214 C 
HETATM    9  C1  UNL     1     -14.892  12.122  42.137  1.00  0.00     0.117 C 
HETATM   10  O1  UNL     1     -12.539  12.098  42.311  1.00  0.00    -0.274 OA
ATOM     11  H1  UNL     1     -14.309   9.459  42.064  1.00  0.00     0.163 HD
ENDBRANCH   1   7
BRANCH   2  12
HETATM   12  O2  UNL     1     -11.311   7.850  43.898  1.00  0.00    -0.369 OA
ATOM     13  H2  UNL     1     -11.366   6.996  44.313  1.00  0.00     0.212 HD
ENDBRANCH   2  12
BRANCH   6  14
HETATM   14  O6  UNL     1     -10.746  10.282  40.563  1.00  0.00    -0.391 OA
ATOM     15  H6  UNL     1      -9.822  10.066  40.524  1.00  0.00     0.210 HD
ENDBRANCH   6  14
BRANCH   5  16
HETATM   16  O5  UNL     1      -9.757   7.897  41.767  1.00  0.00    -0.390 OA
ATOM     17  H5  UNL     1      -9.668   7.077  42.238  1.00  0.00     0.210 HD
ENDBRANCH   5  16
BRANCH   4  18
HETATM   18  C6  UNL     1     -11.170   5.420  40.885  1.00  0.00     0.198 C 
BRANCH  18  19
HETATM   19  O4  UNL     1     -10.161   5.193  41.817  1.00  0.00    -0.398 OA
ATOM     20  H4  UNL     1      -9.395   5.729  41.645  1.00  0.00     0.209 HD
ENDBRANCH  18  19
ENDBRANCH   4  18
TORSDOF 6
ENDMDL
