MODEL 20
REMARK VINA RESULT: -4.484429852      1.198      1.306
REMARK  6 active torsions:
REMARK  status: ('A' for Active; 'I' for Inactive)
REMARK       I    between atoms: C2_2  and  N1_4 
REMARK    1  A    between atoms: N1_4  and  C3_6 
REMARK    2  A    between atoms: C4_7  and  O2_8 
REMARK    3  A    between atoms: C5_11  and  C6_12 
REMARK    4  A    between atoms: C6_12  and  O4_13 
REMARK    5  A    between atoms: C7_15  and  O5_16 
REMARK    6  A    between atoms: C8_18  and  O6_19 
ROOT
HETATM    1  C3  UNL     1     -10.308  12.089  48.261  1.00  0.00     0.170 C 
HETATM    2  C4  UNL     1     -10.245  13.322  49.091  1.00  0.00     0.282 C 
HETATM    3  O3  UNL     1      -9.376  13.322  50.132  1.00  0.00    -0.349 OA
HETATM    4  C5  UNL     1      -8.182  12.696  49.962  1.00  0.00     0.179 C 
HETATM    5  C7  UNL     1      -7.894  12.242  48.562  1.00  0.00     0.180 C 
HETATM    6  C8  UNL     1      -9.033  11.308  48.195  1.00  0.00     0.177 C 
ENDROOT
BRANCH   1   7
HETATM    7  N1  UNL     1     -11.431  11.254  48.647  1.00  0.00    -0.349 N 
HETATM    8  C2  UNL     1     -12.204  10.490  47.747  1.00  0.00     0.214 C 
HETATM    9  C1  UNL     1     -13.354   9.640  48.174  1.00  0.00     0.117 C 
HETATM   10  O1  UNL     1     -11.910  10.528  46.533  1.00  0.00    -0.274 OA
ATOM     11  H1  UNL     1     -11.678  11.217  49.636  1.00  0.00     0.163 HD
ENDBRANCH   1   7
BRANCH   2  12
HETATM   12  O2  UNL     1     -10.064  14.463  48.276  1.00  0.00    -0.369 OA
ATOM     13  H2  UNL     1     -10.890  14.914  48.143  1.00  0.00     0.212 HD
ENDBRANCH   2  12
BRANCH   6  14
HETATM   14  O6  UNL     1      -8.827  10.709  46.957  1.00  0.00    -0.391 OA
ATOM     15  H6  UNL     1      -7.953  10.350  46.859  1.00  0.00     0.210 HD
ENDBRANCH   6  14
BRANCH   5  16
HETATM   16  O5  UNL     1      -7.794  13.271  47.656  1.00  0.00    -0.390 OA
ATOM     17  H5  UNL     1      -7.527  12.992  46.788  1.00  0.00     0.210 HD
ENDBRANCH   5  16
BRANCH   4  18
HETATM   18  C6  UNL     1      -7.059  13.535  50.537  1.00  0.00     0.198 C 
BRANCH  18  19
HETATM   19  O4  UNL     1      -5.990  13.642  49.652  1.00  0.00    -0.398 OA
ATOM     20  H4  UNL     1      -6.108  13.090  48.888  1.00  0.00     0.209 HD
ENDBRANCH  18  19
ENDBRANCH   4  18
TORSDOF 6
ENDMDL
