MODEL 3
REMARK VINA RESULT: -5.227288649      1.102      1.164
REMARK  6 active torsions:
REMARK  status: ('A' for Active; 'I' for Inactive)
REMARK       I    between atoms: C2_2  and  N1_4 
REMARK    1  A    between atoms: N1_4  and  C3_6 
REMARK    2  A    between atoms: C4_7  and  O2_8 
REMARK    3  A    between atoms: C5_11  and  C6_12 
REMARK    4  A    between atoms: C6_12  and  O4_13 
REMARK    5  A    between atoms: C7_15  and  O5_16 
REMARK    6  A    between atoms: C8_18  and  O6_19 
ROOT
HETATM    1  C3  UNL     1      -9.511  12.707  48.449  1.00  0.00     0.170 C 
HETATM    2  C4  UNL     1      -9.793  13.854  49.354  1.00  0.00     0.282 C 
HETATM    3  O3  UNL     1      -9.213  13.831  50.579  1.00  0.00    -0.349 OA
HETATM    4  C5  UNL     1      -7.951  13.334  50.675  1.00  0.00     0.179 C 
HETATM    5  C7  UNL     1      -7.279  13.047  49.365  1.00  0.00     0.180 C 
HETATM    6  C8  UNL     1      -8.181  12.054  48.654  1.00  0.00     0.177 C 
ENDROOT
BRANCH   1   7
HETATM    7  N1  UNL     1     -10.594  11.741  48.475  1.00  0.00    -0.349 N 
HETATM    8  C2  UNL     1     -11.590  11.631  47.481  1.00  0.00     0.214 C 
HETATM    9  C1  UNL     1     -12.693  10.627  47.535  1.00  0.00     0.117 C 
HETATM   10  O1  UNL     1     -11.546  12.415  46.509  1.00  0.00    -0.274 OA
ATOM     11  H1  UNL     1     -10.639  11.097  49.265  1.00  0.00     0.163 HD
ENDBRANCH   1   7
BRANCH   2  12
HETATM   12  O2  UNL     1      -9.545  15.081  48.696  1.00  0.00    -0.369 OA
ATOM     13  H2  UNL     1      -8.636  15.138  48.424  1.00  0.00     0.212 HD
ENDBRANCH   2  12
BRANCH   6  14
HETATM   14  O6  UNL     1      -7.610  11.600  47.470  1.00  0.00    -0.391 OA
ATOM     15  H6  UNL     1      -7.723  10.667  47.338  1.00  0.00     0.210 HD
ENDBRANCH   6  14
BRANCH   5  16
HETATM   16  O5  UNL     1      -7.074  14.164  48.591  1.00  0.00    -0.390 OA
ATOM     17  H5  UNL     1      -7.066  13.987  47.658  1.00  0.00     0.210 HD
ENDBRANCH   5  16
BRANCH   4  18
HETATM   18  C6  UNL     1      -7.106  14.211  51.575  1.00  0.00     0.198 C 
BRANCH  18  19
HETATM   19  O4  UNL     1      -7.727  15.428  51.842  1.00  0.00    -0.398 OA
ATOM     20  H4  UNL     1      -7.257  16.156  51.451  1.00  0.00     0.209 HD
ENDBRANCH  18  19
ENDBRANCH   4  18
TORSDOF 6
ENDMDL
