MODEL 5
REMARK VINA RESULT: -4.948492572      2.007      5.038
REMARK  6 active torsions:
REMARK  status: ('A' for Active; 'I' for Inactive)
REMARK       I    between atoms: C2_2  and  N1_4 
REMARK    1  A    between atoms: N1_4  and  C3_6 
REMARK    2  A    between atoms: C4_7  and  O2_8 
REMARK    3  A    between atoms: C5_11  and  C6_12 
REMARK    4  A    between atoms: C6_12  and  O4_13 
REMARK    5  A    between atoms: C7_15  and  O5_16 
REMARK    6  A    between atoms: C8_18  and  O6_19 
ROOT
HETATM    1  C3  UNL     1      -8.790  13.062  49.767  1.00  0.00     0.170 C 
HETATM    2  C4  UNL     1      -8.717  12.937  48.287  1.00  0.00     0.282 C 
HETATM    3  O3  UNL     1      -8.674  11.681  47.775  1.00  0.00    -0.349 OA
HETATM    4  C5  UNL     1      -9.418  10.722  48.386  1.00  0.00     0.179 C 
HETATM    5  C7  UNL     1     -10.353  11.220  49.448  1.00  0.00     0.180 C 
HETATM    6  C8  UNL     1      -9.474  11.928  50.464  1.00  0.00     0.177 C 
ENDROOT
BRANCH   1   7
HETATM    7  N1  UNL     1      -7.481  13.331  50.336  1.00  0.00    -0.349 N 
HETATM    8  C2  UNL     1      -7.185  14.431  51.169  1.00  0.00     0.214 C 
HETATM    9  C1  UNL     1      -5.828  14.682  51.740  1.00  0.00     0.117 C 
HETATM   10  O1  UNL     1      -8.102  15.234  51.441  1.00  0.00    -0.274 OA
ATOM     11  H1  UNL     1      -6.726  12.682  50.119  1.00  0.00     0.163 HD
ENDBRANCH   1   7
BRANCH   2  12
HETATM   12  O2  UNL     1      -9.730  13.705  47.670  1.00  0.00    -0.369 OA
ATOM     13  H2  UNL     1     -10.008  13.301  46.855  1.00  0.00     0.212 HD
ENDBRANCH   2  12
BRANCH   6  14
HETATM   14  O6  UNL     1     -10.202  12.335  51.577  1.00  0.00    -0.391 OA
ATOM     15  H6  UNL     1     -10.104  11.749  52.318  1.00  0.00     0.210 HD
ENDBRANCH   6  14
BRANCH   5  16
HETATM   16  O5  UNL     1     -11.330  12.062  48.974  1.00  0.00    -0.390 OA
ATOM     17  H5  UNL     1     -11.259  12.952  49.298  1.00  0.00     0.210 HD
ENDBRANCH   5  16
BRANCH   4  18
HETATM   18  C6  UNL     1     -10.123   9.865  47.355  1.00  0.00     0.198 C 
BRANCH  18  19
HETATM   19  O4  UNL     1      -9.302   9.584  46.267  1.00  0.00    -0.398 OA
ATOM     20  H4  UNL     1      -9.805   9.348  45.497  1.00  0.00     0.209 HD
ENDBRANCH  18  19
ENDBRANCH   4  18
TORSDOF 6
ENDMDL
