MODEL 2
REMARK VINA RESULT: -6.179682714      4.346      6.008
REMARK  4 active torsions:
REMARK  status: ('A' for Active; 'I' for Inactive)
REMARK    1  A    between atoms: C1_2  and  C2_4 
REMARK    2  A    between atoms: C4_6  and  C5_7 
REMARK    3  A    between atoms: N1_10  and  C6_11 
REMARK    4  A    between atoms: C6_11  and  C7_12 
ROOT
HETATM    1  C2  UNL     1     -20.326  13.792 -20.631  1.00  0.00     0.127 A 
HETATM    2  C3  UNL     1     -18.992  14.049 -20.802  1.00  0.00     0.076 A 
HETATM    3  C4  UNL     1     -18.786  15.443 -20.641  1.00  0.00     0.130 A 
HETATM    4  N1  UNL     1     -19.976  15.959 -20.379  1.00  0.00    -0.281 N 
HETATM    5  N2  UNL     1     -20.881  14.965 -20.380  1.00  0.00    -0.291 N 
ATOM      6  H2  UNL     1     -21.877  15.101 -20.208  1.00  0.00     0.187 HD
ENDROOT
BRANCH   4   7
HETATM    7  C6  UNL     1     -20.282  17.326 -19.994  1.00  0.00     0.189 C 
BRANCH   7   8
HETATM    8  C7  UNL     1     -20.561  17.501 -18.567  1.00  0.00    -0.017 A 
HETATM    9  C8  UNL     1     -19.441  17.503 -17.703  1.00  0.00     0.012 A 
HETATM   10  C9  UNL     1     -19.594  17.685 -16.356  1.00  0.00     0.024 A 
HETATM   11  C10 UNL     1     -20.842  17.867 -15.832  1.00  0.00     0.035 A 
HETATM   12 CL1  UNL     1     -20.984  18.103 -14.079  1.00  0.00    -0.084 Cl
HETATM   13  C11 UNL     1     -21.948  17.870 -16.628  1.00  0.00     0.048 A 
HETATM   14  C12 UNL     1     -21.770  17.682 -18.008  1.00  0.00     0.043 A 
HETATM   15 CL2  UNL     1     -23.272  17.695 -18.933  1.00  0.00    -0.084 Cl
ENDBRANCH   7   8
ENDBRANCH   4   7
BRANCH   3  16
HETATM   16  C5  UNL     1     -17.471  16.068 -20.827  1.00  0.00     0.228 C 
HETATM   17  O3  UNL     1     -16.977  16.718 -19.885  1.00  0.00    -0.643 OA
HETATM   18  O4  UNL     1     -16.747  15.969 -21.993  1.00  0.00    -0.643 OA
ENDBRANCH   3  16
BRANCH   1  19
HETATM   19  C1  UNL     1     -20.949  12.465 -20.711  1.00  0.00     0.228 C 
HETATM   20  O1  UNL     1     -20.318  11.470 -21.147  1.00  0.00    -0.643 OA
HETATM   21  O2  UNL     1     -22.256  12.236 -20.313  1.00  0.00    -0.643 OA
ENDBRANCH   1  19
TORSDOF 4
ENDMDL
