MODEL 1
REMARK VINA RESULT: -6.305951751      0.000      0.000
REMARK  4 active torsions:
REMARK  status: ('A' for Active; 'I' for Inactive)
REMARK    1  A    between atoms: C1_2  and  C2_4 
REMARK    2  A    between atoms: C4_6  and  C5_7 
REMARK    3  A    between atoms: N1_10  and  C6_11 
REMARK    4  A    between atoms: C6_11  and  C7_12 
ROOT
HETATM    1  C2  UNL     1     -21.718   9.217 -20.111  1.00  0.00     0.127 A 
HETATM    2  C3  UNL     1     -21.595   8.492 -21.266  1.00  0.00     0.076 A 
HETATM    3  C4  UNL     1     -20.956   9.307 -22.236  1.00  0.00     0.130 A 
HETATM    4  N1  UNL     1     -20.718  10.464 -21.638  1.00  0.00    -0.281 N 
HETATM    5  N2  UNL     1     -21.180  10.395 -20.378  1.00  0.00    -0.291 N 
ATOM      6  H2  UNL     1     -21.123  11.162 -19.707  1.00  0.00     0.187 HD
ENDROOT
BRANCH   4   7
HETATM    7  C6  UNL     1     -19.956  11.586 -22.156  1.00  0.00     0.189 C 
BRANCH   7   8
HETATM    8  C7  UNL     1     -20.121  12.827 -21.395  1.00  0.00    -0.017 A 
HETATM    9  C8  UNL     1     -18.951  13.368 -20.812  1.00  0.00     0.012 A 
HETATM   10  C9  UNL     1     -18.996  14.538 -20.104  1.00  0.00     0.024 A 
HETATM   11  C10 UNL     1     -20.183  15.196 -19.953  1.00  0.00     0.035 A 
HETATM   12 CL1  UNL     1     -20.185  16.710 -19.029  1.00  0.00    -0.084 Cl
HETATM   13  C11 UNL     1     -21.334  14.709 -20.496  1.00  0.00     0.048 A 
HETATM   14  C12 UNL     1     -21.267  13.508 -21.220  1.00  0.00     0.043 A 
HETATM   15 CL2  UNL     1     -22.819  12.972 -21.866  1.00  0.00    -0.084 Cl
ENDBRANCH   7   8
ENDBRANCH   4   7
BRANCH   3  16
HETATM   16  C5  UNL     1     -20.730   8.856 -23.613  1.00  0.00     0.228 C 
HETATM   17  O3  UNL     1     -21.669   8.316 -24.229  1.00  0.00    -0.643 OA
HETATM   18  O4  UNL     1     -19.529   9.005 -24.268  1.00  0.00    -0.643 OA
ENDBRANCH   3  16
BRANCH   1  19
HETATM   19  C1  UNL     1     -22.321   8.729 -18.865  1.00  0.00     0.228 C 
HETATM   20  O1  UNL     1     -22.427   9.469 -17.855  1.00  0.00    -0.643 OA
HETATM   21  O2  UNL     1     -22.804   7.437 -18.733  1.00  0.00    -0.643 OA
ENDBRANCH   1  19
TORSDOF 4
ENDMDL
