MODEL 12
REMARK VINA RESULT: -5.807917358      5.923      8.379
REMARK  4 active torsions:
REMARK  status: ('A' for Active; 'I' for Inactive)
REMARK    1  A    between atoms: C1_2  and  C2_4 
REMARK    2  A    between atoms: C4_6  and  C5_7 
REMARK    3  A    between atoms: N1_10  and  C6_11 
REMARK    4  A    between atoms: C6_11  and  C7_12 
ROOT
HETATM    1  C2  UNL     1     -23.537  18.638 -19.870  1.00  0.00     0.127 A 
HETATM    2  C3  UNL     1     -23.411  18.508 -18.513  1.00  0.00     0.076 A 
HETATM    3  C4  UNL     1     -22.103  18.035 -18.232  1.00  0.00     0.130 A 
HETATM    4  N1  UNL     1     -21.504  17.908 -19.405  1.00  0.00    -0.281 N 
HETATM    5  N2  UNL     1     -22.370  18.266 -20.368  1.00  0.00    -0.291 N 
ATOM      6  H2  UNL     1     -22.153  18.253 -21.365  1.00  0.00     0.187 HD
ENDROOT
BRANCH   4   7
HETATM    7  C6  UNL     1     -20.108  17.592 -19.655  1.00  0.00     0.189 C 
BRANCH   7   8
HETATM    8  C7  UNL     1     -19.871  16.205 -20.065  1.00  0.00    -0.017 A 
HETATM    9  C8  UNL     1     -21.004  15.361 -20.117  1.00  0.00     0.012 A 
HETATM   10  C9  UNL     1     -20.890  14.056 -20.513  1.00  0.00     0.024 A 
HETATM   11  C10 UNL     1     -19.668  13.557 -20.863  1.00  0.00     0.035 A 
HETATM   12 CL1  UNL     1     -19.577  11.860 -21.373  1.00  0.00    -0.084 Cl
HETATM   13  C11 UNL     1     -18.550  14.335 -20.826  1.00  0.00     0.048 A 
HETATM   14  C12 UNL     1     -18.688  15.671 -20.417  1.00  0.00     0.043 A 
HETATM   15 CL2  UNL     1     -17.173  16.575 -20.399  1.00  0.00    -0.084 Cl
ENDBRANCH   7   8
ENDBRANCH   4   7
BRANCH   3  16
HETATM   16  C5  UNL     1     -21.658  17.722 -16.870  1.00  0.00     0.228 C 
HETATM   17  O3  UNL     1     -20.595  18.224 -16.456  1.00  0.00    -0.643 OA
HETATM   18  O4  UNL     1     -22.361  16.902 -16.017  1.00  0.00    -0.643 OA
ENDBRANCH   3  16
BRANCH   1  19
HETATM   19  C1  UNL     1     -24.740  19.109 -20.568  1.00  0.00     0.228 C 
HETATM   20  O1  UNL     1     -25.059  18.661 -21.698  1.00  0.00    -0.643 OA
HETATM   21  O2  UNL     1     -25.586  20.063 -20.024  1.00  0.00    -0.643 OA
ENDBRANCH   1  19
TORSDOF 4
ENDMDL
