MODEL 3
REMARK VINA RESULT: -6.158516339      7.214      8.632
REMARK  4 active torsions:
REMARK  status: ('A' for Active; 'I' for Inactive)
REMARK    1  A    between atoms: C1_2  and  C2_4 
REMARK    2  A    between atoms: C4_6  and  C5_7 
REMARK    3  A    between atoms: N1_10  and  C6_11 
REMARK    4  A    between atoms: C6_11  and  C7_12 
ROOT
HETATM    1  C2  UNL     1     -19.517  17.237 -20.077  1.00  0.00     0.127 A 
HETATM    2  C3  UNL     1     -20.531  17.838 -20.774  1.00  0.00     0.076 A 
HETATM    3  C4  UNL     1     -21.680  17.871 -19.943  1.00  0.00     0.130 A 
HETATM    4  N1  UNL     1     -21.320  17.307 -18.801  1.00  0.00    -0.281 N 
HETATM    5  N2  UNL     1     -20.033  16.932 -18.898  1.00  0.00    -0.291 N 
ATOM      6  H2  UNL     1     -19.516  16.467 -18.152  1.00  0.00     0.187 HD
ENDROOT
BRANCH   4   7
HETATM    7  C6  UNL     1     -22.092  17.224 -17.573  1.00  0.00     0.189 C 
BRANCH   7   8
HETATM    8  C7  UNL     1     -21.740  18.234 -16.573  1.00  0.00    -0.017 A 
HETATM    9  C8  UNL     1     -20.459  18.118 -15.985  1.00  0.00     0.012 A 
HETATM   10  C9  UNL     1     -20.028  19.028 -15.058  1.00  0.00     0.024 A 
HETATM   11  C10 UNL     1     -20.840  20.063 -14.693  1.00  0.00     0.035 A 
HETATM   12 CL1  UNL     1     -20.229  21.217 -13.491  1.00  0.00    -0.084 Cl
HETATM   13  C11 UNL     1     -22.081  20.211 -15.233  1.00  0.00     0.048 A 
HETATM   14  C12 UNL     1     -22.507  19.268 -16.182  1.00  0.00     0.043 A 
HETATM   15 CL2  UNL     1     -24.132  19.557 -16.803  1.00  0.00    -0.084 Cl
ENDBRANCH   7   8
ENDBRANCH   4   7
BRANCH   3  16
HETATM   16  C5  UNL     1     -22.970  18.392 -20.409  1.00  0.00     0.228 C 
HETATM   17  O3  UNL     1     -23.699  17.655 -21.101  1.00  0.00    -0.643 OA
HETATM   18  O4  UNL     1     -23.424  19.657 -20.115  1.00  0.00    -0.643 OA
ENDBRANCH   3  16
BRANCH   1  19
HETATM   19  C1  UNL     1     -18.157  17.015 -20.584  1.00  0.00     0.228 C 
HETATM   20  O1  UNL     1     -17.737  17.602 -21.612  1.00  0.00    -0.643 OA
HETATM   21  O2  UNL     1     -17.267  16.153 -19.963  1.00  0.00    -0.643 OA
ENDBRANCH   1  19
TORSDOF 4
ENDMDL
