MODEL 1
REMARK VINA RESULT: -6.040606192      0.000      0.000
REMARK  4 active torsions:
REMARK  status: ('A' for Active; 'I' for Inactive)
REMARK    1  A    between atoms: O1_1  and  C1_3 
REMARK    2  A    between atoms: C1_3  and  C2_4 
REMARK    3  A    between atoms: C5_10  and  O2_11 
REMARK    4  A    between atoms: C6_13  and  O3_14 
ROOT
HETATM    1  C2  UNL     1      78.372  88.395  18.468  1.00  0.00     0.066 C 
HETATM    2  C3  UNL     1      77.157  87.735  17.943  1.00  0.00     0.241 C 
HETATM    3  N1  UNL     1      76.010  87.782  18.784  1.00  0.00    -0.072 N 
ATOM      4  H11 UNL     1      76.003  86.996  19.434  1.00  0.00     0.277 HD
ATOM      5  H12 UNL     1      75.163  87.569  18.257  1.00  0.00     0.277 HD
HETATM    6  C4  UNL     1      75.876  89.026  19.485  1.00  0.00     0.266 C 
HETATM    7  C5  UNL     1      77.015  89.172  20.437  1.00  0.00     0.172 C 
HETATM    8  C6  UNL     1      78.339  88.765  19.909  1.00  0.00     0.156 C 
ENDROOT
BRANCH   1   9
HETATM    9  C1  UNL     1      79.546  87.426  18.290  1.00  0.00     0.173 C 
BRANCH   9  10
HETATM   10  O1  UNL     1      79.984  87.414  16.973  1.00  0.00    -0.400 OA
ATOM     11  H1  UNL     1      79.424  87.951  16.424  1.00  0.00     0.209 HD
ENDBRANCH   9  10
ENDBRANCH   1   9
BRANCH   8  12
HETATM   12  O3  UNL     1      78.901  87.748  20.710  1.00  0.00    -0.392 OA
ATOM     13  H3  UNL     1      78.902  86.914  20.255  1.00  0.00     0.210 HD
ENDBRANCH   8  12
BRANCH   7  14
HETATM   14  O2  UNL     1      76.705  88.415  21.589  1.00  0.00    -0.391 OA
ATOM     15  H2  UNL     1      77.414  87.798  21.724  1.00  0.00     0.210 HD
ENDBRANCH   7  14
TORSDOF 4
ENDMDL
