MODEL 16
REMARK VINA RESULT: -4.533960349      1.621      3.307
REMARK  4 active torsions:
REMARK  status: ('A' for Active; 'I' for Inactive)
REMARK    1  A    between atoms: O1_1  and  C1_3 
REMARK    2  A    between atoms: C1_3  and  C2_4 
REMARK    3  A    between atoms: C4_8  and  O2_9 
REMARK    4  A    between atoms: C5_11  and  O3_12 
ROOT
HETATM    1  C2  UNL     1      78.594  89.009  18.684  1.00  0.00     0.150 C 
HETATM    2  N1  UNL     1      77.360  88.304  18.913  1.00  0.00    -0.139 NA
HETATM    3  N2  UNL     1      76.365  89.085  19.463  1.00  0.00    -0.145 NA
HETATM    4  C3  UNL     1      76.803  90.453  19.731  1.00  0.00     0.164 C 
HETATM    5  C4  UNL     1      77.978  90.330  20.695  1.00  0.00     0.164 C 
HETATM    6  C5  UNL     1      79.118  89.723  19.887  1.00  0.00     0.170 C 
ENDROOT
BRANCH   1   7
HETATM    7  C1  UNL     1      79.624  87.986  18.234  1.00  0.00     0.189 C 
BRANCH   7   8
HETATM    8  O1  UNL     1      80.675  88.597  17.543  1.00  0.00    -0.399 OA
ATOM      9  H1  UNL     1      80.880  88.127  16.743  1.00  0.00     0.209 HD
ENDBRANCH   7   8
ENDBRANCH   1   7
BRANCH   6  10
HETATM   10  O3  UNL     1      79.876  88.876  20.682  1.00  0.00    -0.391 OA
ATOM     11  H3  UNL     1      79.524  87.994  20.676  1.00  0.00     0.210 HD
ENDBRANCH   6  10
BRANCH   5  12
HETATM   12  O2  UNL     1      77.582  89.470  21.728  1.00  0.00    -0.392 OA
ATOM     13  H2  UNL     1      78.298  89.429  22.353  1.00  0.00     0.210 HD
ENDBRANCH   5  12
TORSDOF 4
ENDMDL
