MODEL 20
REMARK VINA RESULT: -4.062676915      3.459      3.969
REMARK  4 active torsions:
REMARK  status: ('A' for Active; 'I' for Inactive)
REMARK    1  A    between atoms: O1_1  and  C1_3 
REMARK    2  A    between atoms: C1_3  and  C2_4 
REMARK    3  A    between atoms: C4_8  and  O2_9 
REMARK    4  A    between atoms: C5_11  and  O3_12 
ROOT
HETATM    1  C2  UNL     1      76.986  86.232  16.619  1.00  0.00     0.150 C 
HETATM    2  N1  UNL     1      78.093  85.408  16.208  1.00  0.00    -0.139 NA
HETATM    3  N2  UNL     1      78.978  85.116  17.224  1.00  0.00    -0.145 NA
HETATM    4  C3  UNL     1      78.613  85.747  18.492  1.00  0.00     0.164 C 
HETATM    5  C4  UNL     1      78.595  87.247  18.216  1.00  0.00     0.164 C 
HETATM    6  C5  UNL     1      77.391  87.490  17.316  1.00  0.00     0.170 C 
ENDROOT
BRANCH   1   7
HETATM    7  C1  UNL     1      76.201  86.595  15.369  1.00  0.00     0.189 C 
BRANCH   7   8
HETATM    8  O1  UNL     1      77.029  86.625  14.242  1.00  0.00    -0.399 OA
ATOM      9  H1  UNL     1      77.326  87.508  14.058  1.00  0.00     0.209 HD
ENDBRANCH   7   8
ENDBRANCH   1   7
BRANCH   6  10
HETATM   10  O3  UNL     1      77.663  88.501  16.406  1.00  0.00    -0.391 OA
ATOM     11  H3  UNL     1      78.485  88.343  15.955  1.00  0.00     0.210 HD
ENDBRANCH   6  10
BRANCH   5  12
HETATM   12  O2  UNL     1      79.788  87.565  17.553  1.00  0.00    -0.392 OA
ATOM     13  H2  UNL     1      79.642  88.376  17.080  1.00  0.00     0.210 HD
ENDBRANCH   5  12
TORSDOF 4
ENDMDL
