MODEL 3
REMARK VINA RESULT: -6.029731824      1.741      2.376
REMARK  4 active torsions:
REMARK  status: ('A' for Active; 'I' for Inactive)
REMARK    1  A    between atoms: C3_6  and  C4_7 
REMARK    2  A    between atoms: C4_7  and  O2_8 
REMARK    3  A    between atoms: C5_10  and  O3_11 
REMARK    4  A    between atoms: C6_13  and  O4_14 
ROOT
HETATM    1  O1  UNL     1      76.149  90.864  20.218  1.00  0.00    -0.271 OA
HETATM    2  C1  UNL     1      76.999  90.021  19.852  1.00  0.00     0.249 C 
HETATM    3  N1  UNL     1      76.596  88.938  19.054  1.00  0.00    -0.358 N 
ATOM      4  H1  UNL     1      75.607  88.712  18.955  1.00  0.00     0.162 HD
HETATM    5  C2  UNL     1      77.584  88.155  18.382  1.00  0.00     0.132 C 
HETATM    6  C3  UNL     1      78.862  88.855  18.118  1.00  0.00     0.059 C 
HETATM    7  C5  UNL     1      79.385  89.710  19.200  1.00  0.00     0.163 C 
HETATM    8  C6  UNL     1      78.420  90.140  20.239  1.00  0.00     0.239 C 
ENDROOT
BRANCH   6   9
HETATM    9  C4  UNL     1      79.905  87.785  17.768  1.00  0.00     0.173 C 
BRANCH   9  10
HETATM   10  O2  UNL     1      81.019  88.363  17.169  1.00  0.00    -0.400 OA
ATOM     11  H2  UNL     1      81.451  87.742  16.594  1.00  0.00     0.209 HD
ENDBRANCH   9  10
ENDBRANCH   6   9
BRANCH   7  12
HETATM   12  O3  UNL     1      80.466  89.066  19.828  1.00  0.00    -0.392 OA
ATOM     13  H3  UNL     1      80.263  88.928  20.746  1.00  0.00     0.210 HD
ENDBRANCH   7  12
BRANCH   8  14
HETATM   14  O4  UNL     1      78.665  89.440  21.445  1.00  0.00    -0.384 OA
ATOM     15  H4  UNL     1      78.272  89.896  22.179  1.00  0.00     0.210 HD
ENDBRANCH   8  14
TORSDOF 4
ENDMDL
