MODEL 8
REMARK VINA RESULT: -4.983490831      1.713      3.531
REMARK  4 active torsions:
REMARK  status: ('A' for Active; 'I' for Inactive)
REMARK    1  A    between atoms: O1_1  and  C1_3 
REMARK    2  A    between atoms: C1_3  and  C2_4 
REMARK    3  A    between atoms: C4_9  and  O2_10 
REMARK    4  A    between atoms: C5_12  and  O3_13 
ROOT
HETATM    1  C2  UNL     1      77.827  88.089  18.085  1.00  0.00     0.240 C 
HETATM    2  N1  UNL     1      76.539  88.395  18.680  1.00  0.00    -0.064 N 
ATOM      3  H11 UNL     1      75.969  87.568  18.860  1.00  0.00     0.277 HD
ATOM      4  H12 UNL     1      75.895  88.855  18.037  1.00  0.00     0.277 HD
HETATM    5  C3  UNL     1      76.816  89.174  19.874  1.00  0.00     0.267 C 
HETATM    6  C4  UNL     1      78.314  89.122  20.083  1.00  0.00     0.174 C 
HETATM    7  C5  UNL     1      78.642  87.822  19.331  1.00  0.00     0.181 C 
ENDROOT
BRANCH   1   8
HETATM    8  C1  UNL     1      77.763  86.912  17.163  1.00  0.00     0.199 C 
BRANCH   8   9
HETATM    9  O1  UNL     1      78.896  86.148  17.310  1.00  0.00    -0.399 OA
ATOM     10  H1  UNL     1      79.008  85.916  18.225  1.00  0.00     0.209 HD
ENDBRANCH   8   9
ENDBRANCH   1   8
BRANCH   7  11
HETATM   11  O3  UNL     1      78.094  86.796  20.087  1.00  0.00    -0.391 OA
ATOM     12  H3  UNL     1      78.669  86.040  20.117  1.00  0.00     0.210 HD
ENDBRANCH   7  11
BRANCH   6  13
HETATM   13  O2  UNL     1      78.684  89.065  21.398  1.00  0.00    -0.391 OA
ATOM     14  H2  UNL     1      79.368  89.683  21.630  1.00  0.00     0.210 HD
ENDBRANCH   6  13
TORSDOF 4
ENDMDL
