MODEL 3
REMARK VINA RESULT: -5.548353399      1.550      3.661
REMARK  4 active torsions:
REMARK  status: ('A' for Active; 'I' for Inactive)
REMARK    1  A    between atoms: O1_1  and  C1_3 
REMARK    2  A    between atoms: C1_3  and  C2_4 
REMARK    3  A    between atoms: C4_9  and  O2_10 
REMARK    4  A    between atoms: C5_12  and  O3_13 
ROOT
HETATM    1  C2  UNL     1      78.844  88.090  18.941  1.00  0.00     0.240 C 
HETATM    2  N1  UNL     1      79.215  89.441  19.320  1.00  0.00    -0.064 N 
ATOM      3  H11 UNL     1      79.434  90.040  18.524  1.00  0.00     0.277 HD
ATOM      4  H12 UNL     1      80.126  89.498  19.775  1.00  0.00     0.277 HD
HETATM    5  C3  UNL     1      78.128  89.947  20.140  1.00  0.00     0.267 C 
HETATM    6  C4  UNL     1      77.007  88.934  20.041  1.00  0.00     0.174 C 
HETATM    7  C5  UNL     1      77.363  88.275  18.699  1.00  0.00     0.181 C 
ENDROOT
BRANCH   1   8
HETATM    8  C1  UNL     1      79.583  87.617  17.728  1.00  0.00     0.199 C 
BRANCH   8   9
HETATM    9  O1  UNL     1      79.950  88.697  16.960  1.00  0.00    -0.399 OA
ATOM     10  H1  UNL     1      80.726  88.482  16.457  1.00  0.00     0.209 HD
ENDBRANCH   8   9
ENDBRANCH   1   8
BRANCH   7  11
HETATM   11  O3  UNL     1      77.123  89.237  17.728  1.00  0.00    -0.391 OA
ATOM     12  H3  UNL     1      76.862  90.065  18.114  1.00  0.00     0.210 HD
ENDBRANCH   7  11
BRANCH   6  13
HETATM   13  O2  UNL     1      75.760  89.493  20.028  1.00  0.00    -0.391 OA
ATOM     14  H2  UNL     1      75.251  89.275  19.255  1.00  0.00     0.210 HD
ENDBRANCH   6  13
TORSDOF 4
ENDMDL
