MODEL 10
REMARK VINA RESULT: -5.520468224      1.984      2.895
REMARK  4 active torsions:
REMARK  status: ('A' for Active; 'I' for Inactive)
REMARK    1  A    between atoms: O1_1  and  C1_3 
REMARK    2  A    between atoms: C1_3  and  C2_4 
REMARK    3  A    between atoms: C3_5  and  O2_6 
REMARK    4  A    between atoms: C4_8  and  O3_9 
ROOT
HETATM    1  C2  UNL     1      78.912  88.826  18.841  1.00  0.00     0.071 C 
HETATM    2  C3  UNL     1      77.991  88.966  20.025  1.00  0.00     0.157 C 
HETATM    3  C4  UNL     1      76.970  87.869  20.010  1.00  0.00     0.177 C 
HETATM    4  C5  UNL     1      76.283  87.748  18.689  1.00  0.00     0.217 C 
HETATM    5  C6  UNL     1      76.666  86.420  18.018  1.00  0.00     0.038 C 
HETATM    6  C7  UNL     1      78.140  86.713  17.709  1.00  0.00     0.036 C 
HETATM    7  C8  UNL     1      78.236  88.203  17.670  1.00  0.00     0.195 C 
HETATM    8  N1  UNL     1      76.841  88.661  17.680  1.00  0.00    -0.064 N 
ATOM      9  H11 UNL     1      76.700  89.656  17.853  1.00  0.00     0.278 HD
ATOM     10  H12 UNL     1      76.368  88.669  16.777  1.00  0.00     0.278 HD
ENDROOT
BRANCH   1  11
HETATM   11  C1  UNL     1      80.219  88.167  19.215  1.00  0.00     0.173 C 
BRANCH  11  12
HETATM   12  O1  UNL     1      81.015  88.073  18.067  1.00  0.00    -0.400 OA
ATOM     13  H1  UNL     1      81.443  87.225  18.064  1.00  0.00     0.209 HD
ENDBRANCH  11  12
ENDBRANCH   1  11
BRANCH   2  14
HETATM   14  O2  UNL     1      78.656  89.018  21.229  1.00  0.00    -0.392 OA
ATOM     15  H2  UNL     1      79.203  88.258  21.387  1.00  0.00     0.210 HD
ENDBRANCH   2  14
BRANCH   3  16
HETATM   16  O3  UNL     1      77.583  86.656  20.375  1.00  0.00    -0.391 OA
ATOM     17  H3  UNL     1      77.386  85.993  19.723  1.00  0.00     0.210 HD
ENDBRANCH   3  16
TORSDOF 4
ENDMDL
