MODEL 2
REMARK VINA RESULT: -5.862234764      1.390      3.694
REMARK  5 active torsions:
REMARK  status: ('A' for Active; 'I' for Inactive)
REMARK    1  A    between atoms: O1_1  and  C1_3 
REMARK    2  A    between atoms: C1_3  and  C2_4 
REMARK    3  A    between atoms: C4_8  and  O2_9 
REMARK    4  A    between atoms: C5_11  and  O3_12 
REMARK    5  A    between atoms: C6_14  and  O4_15 
ROOT
HETATM    1  C2  UNL     1      79.329  88.913  18.654  1.00  0.00     0.131 C 
HETATM    2  N1  UNL     1      78.404  88.708  17.601  1.00  0.00    -0.410 N 
ATOM      3  H1  UNL     1      78.694  88.323  16.701  1.00  0.00     0.153 HD
HETATM    4  C3  UNL     1      77.056  89.064  17.857  1.00  0.00     0.148 C 
HETATM    5  C4  UNL     1      76.556  88.666  19.220  1.00  0.00     0.166 C 
HETATM    6  C5  UNL     1      77.528  89.328  20.207  1.00  0.00     0.179 C 
HETATM    7  C6  UNL     1      78.812  88.567  20.025  1.00  0.00     0.173 C 
ENDROOT
BRANCH   1   8
HETATM    8  C1  UNL     1      80.541  88.027  18.400  1.00  0.00     0.191 C 
BRANCH   8   9
HETATM    9  O1  UNL     1      80.659  87.809  17.041  1.00  0.00    -0.399 OA
ATOM     10  H1  UNL     1      80.795  86.881  16.889  1.00  0.00     0.209 HD
ENDBRANCH   8   9
ENDBRANCH   1   8
BRANCH   7  11
HETATM   11  O4  UNL     1      78.511  87.197  20.013  1.00  0.00    -0.391 OA
ATOM     12  H4  UNL     1      78.559  86.911  19.108  1.00  0.00     0.210 HD
ENDBRANCH   7  11
BRANCH   6  13
HETATM   13  O3  UNL     1      77.050  89.315  21.491  1.00  0.00    -0.390 OA
ATOM     14  H3  UNL     1      76.537  90.089  21.690  1.00  0.00     0.210 HD
ENDBRANCH   6  13
BRANCH   5  15
HETATM   15  O2  UNL     1      75.268  89.076  19.408  1.00  0.00    -0.391 OA
ATOM     16  H2  UNL     1      74.740  88.382  19.783  1.00  0.00     0.210 HD
ENDBRANCH   5  15
TORSDOF 5
ENDMDL
