MODEL 8
REMARK VINA RESULT: -6.363972707      2.604      4.638
REMARK  5 active torsions:
REMARK  status: ('A' for Active; 'I' for Inactive)
REMARK    1  A    between atoms: C2_2  and  C3_3 
REMARK    2  A    between atoms: C9_10  and  C10_11 
REMARK    3  A    between atoms: C10_11  and  O1_12 
REMARK    4  A    between atoms: C10_11  and  C11_14 
REMARK    5  A    between atoms: C17_22  and  O2_23 
ROOT
HETATM    1  C11 UNL     1       7.415  -8.466 -55.339  1.00  0.00    -0.014 A 
HETATM    2  C12 UNL     1       7.795  -9.366 -54.387  1.00  0.00     0.027 A 
HETATM    3  C13 UNL     1       7.013  -9.523 -53.244  1.00  0.00     0.089 A 
HETATM    4  N2  UNL     1       5.894  -8.814 -53.050  1.00  0.00    -0.365 N 
ATOM      5  H2  UNL     1       5.342  -8.952 -52.203  1.00  0.00     0.165 HD
HETATM    6  C14 UNL     1       5.503  -7.926 -53.967  1.00  0.00     0.043 A 
HETATM    7  C15 UNL     1       4.350  -7.218 -53.716  1.00  0.00     0.033 A 
HETATM    8  C16 UNL     1       3.896  -6.273 -54.635  1.00  0.00     0.039 A 
HETATM    9  C17 UNL     1       4.633  -6.075 -55.785  1.00  0.00     0.069 A 
HETATM   10  C19 UNL     1       5.791  -6.799 -56.017  1.00  0.00     0.051 A 
HETATM   11  C20 UNL     1       6.263  -7.747 -55.118  1.00  0.00     0.002 A 
ENDROOT
BRANCH   1  12
HETATM   12  C10 UNL     1       8.158  -8.204 -56.595  1.00  0.00     0.185 C 
BRANCH  12  13
HETATM   13  C9  UNL     1       8.533  -9.404 -57.383  1.00  0.00     0.256 C 
HETATM   14  N1  UNL     1       7.641  -9.822 -58.411  1.00  0.00     0.096 N 
HETATM   15  C4  UNL     1       8.383 -10.855 -59.169  1.00  0.00     0.282 C 
HETATM   16  C5  UNL     1       7.302  -8.721 -59.327  1.00  0.00     0.273 C 
HETATM   17  C3  UNL     1       9.307 -10.215 -60.167  1.00  0.00     0.040 C 
HETATM   18  C7  UNL     1       9.701  -8.869 -59.534  1.00  0.00    -0.001 C 
HETATM   19  C6  UNL     1       8.489  -7.971 -59.820  1.00  0.00     0.035 C 
HETATM   20  C8  UNL     1       9.872  -9.109 -58.067  1.00  0.00     0.044 C 
BRANCH  17  21
HETATM   21  C2  UNL     1      10.482 -10.997 -60.538  1.00  0.00    -0.030 C 
HETATM   22  C1  UNL     1      10.760 -12.165 -60.022  1.00  0.00     0.007 C 
ENDBRANCH  17  21
ENDBRANCH  12  13
BRANCH  12  23
HETATM   23  O1  UNL     1       9.402  -7.683 -56.134  1.00  0.00    -0.389 OA
ATOM     24  H1  UNL     1       9.654  -7.054 -56.800  1.00  0.00     0.210 HD
ENDBRANCH  12  23
ENDBRANCH   1  12
BRANCH   9  25
HETATM   25  O2  UNL     1       4.232  -5.153 -56.728  1.00  0.00    -0.356 OA
HETATM   26  C18 UNL     1       4.652  -3.828 -56.788  1.00  0.00     0.210 C 
ENDBRANCH   9  25
TORSDOF 5
ENDMDL
