MODEL 2
REMARK VINA RESULT: -7.937556845      1.382      1.884
REMARK  5 active torsions:
REMARK  status: ('A' for Active; 'I' for Inactive)
REMARK    1  A    between atoms: C2_2  and  C3_3 
REMARK    2  A    between atoms: C9_10  and  C10_11 
REMARK    3  A    between atoms: C10_11  and  O1_12 
REMARK    4  A    between atoms: C10_11  and  C11_14 
REMARK    5  A    between atoms: C17_22  and  O2_23 
ROOT
HETATM    1  C11 UNL     1       4.475  -5.624 -55.252  1.00  0.00    -0.014 A 
HETATM    2  C12 UNL     1       4.633  -4.458 -55.945  1.00  0.00     0.027 A 
HETATM    3  C13 UNL     1       3.859  -3.351 -55.605  1.00  0.00     0.089 A 
HETATM    4  N2  UNL     1       2.960  -3.394 -54.615  1.00  0.00    -0.365 N 
ATOM      5  H2  UNL     1       2.409  -2.565 -54.389  1.00  0.00     0.165 HD
HETATM    6  C14 UNL     1       2.785  -4.522 -53.924  1.00  0.00     0.043 A 
HETATM    7  C15 UNL     1       1.843  -4.517 -52.921  1.00  0.00     0.033 A 
HETATM    8  C16 UNL     1       1.614  -5.668 -52.170  1.00  0.00     0.039 A 
HETATM    9  C17 UNL     1       2.352  -6.797 -52.465  1.00  0.00     0.069 A 
HETATM   10  C19 UNL     1       3.295  -6.781 -53.479  1.00  0.00     0.051 A 
HETATM   11  C20 UNL     1       3.543  -5.646 -54.241  1.00  0.00     0.002 A 
ENDROOT
BRANCH   1  12
HETATM   12  C10 UNL     1       5.233  -6.870 -55.516  1.00  0.00     0.185 C 
BRANCH  12  13
HETATM   13  C9  UNL     1       6.638  -6.881 -55.043  1.00  0.00     0.256 C 
HETATM   14  N1  UNL     1       6.911  -7.523 -53.803  1.00  0.00     0.096 N 
HETATM   15  C4  UNL     1       8.387  -7.597 -53.722  1.00  0.00     0.282 C 
HETATM   16  C5  UNL     1       6.370  -8.891 -53.760  1.00  0.00     0.273 C 
HETATM   17  C3  UNL     1       8.900  -8.778 -54.498  1.00  0.00     0.040 C 
HETATM   18  C7  UNL     1       7.883  -8.972 -55.637  1.00  0.00    -0.001 C 
HETATM   19  C6  UNL     1       6.718  -9.705 -54.955  1.00  0.00     0.035 C 
HETATM   20  C8  UNL     1       7.477  -7.609 -56.099  1.00  0.00     0.044 C 
BRANCH  17  21
HETATM   21  C2  UNL     1      10.261  -8.660 -55.010  1.00  0.00    -0.030 C 
HETATM   22  C1  UNL     1      11.308  -8.523 -54.241  1.00  0.00     0.007 C 
ENDBRANCH  17  21
ENDBRANCH  12  13
BRANCH  12  23
HETATM   23  O1  UNL     1       5.340  -6.891 -56.938  1.00  0.00    -0.389 OA
ATOM     24  H1  UNL     1       4.533  -6.490 -57.239  1.00  0.00     0.210 HD
ENDBRANCH  12  23
ENDBRANCH   1  12
BRANCH   9  25
HETATM   25  O2  UNL     1       2.167  -7.963 -51.756  1.00  0.00    -0.356 OA
HETATM   26  C18 UNL     1       1.163  -8.898 -51.990  1.00  0.00     0.210 C 
ENDBRANCH   9  25
TORSDOF 5
ENDMDL
