MODEL 10
REMARK VINA RESULT: -5.943677166      3.361      5.471
REMARK  5 active torsions:
REMARK  status: ('A' for Active; 'I' for Inactive)
REMARK    1  A    between atoms: C2_2  and  C3_3 
REMARK    2  A    between atoms: C9_10  and  C10_11 
REMARK    3  A    between atoms: C10_11  and  O1_12 
REMARK    4  A    between atoms: C10_11  and  C11_14 
REMARK    5  A    between atoms: C17_22  and  O2_23 
ROOT
HETATM    1  C11 UNL     1       6.915  -8.746 -56.223  1.00  0.00    -0.014 A 
HETATM    2  C12 UNL     1       5.645  -8.261 -56.354  1.00  0.00     0.027 A 
HETATM    3  C13 UNL     1       5.134  -7.414 -55.373  1.00  0.00     0.089 A 
HETATM    4  N2  UNL     1       5.851  -7.059 -54.300  1.00  0.00    -0.365 N 
ATOM      5  H2  UNL     1       5.449  -6.436 -53.599  1.00  0.00     0.165 HD
HETATM    6  C14 UNL     1       7.094  -7.522 -54.149  1.00  0.00     0.043 A 
HETATM    7  C15 UNL     1       7.787  -7.134 -53.026  1.00  0.00     0.033 A 
HETATM    8  C16 UNL     1       9.087  -7.591 -52.813  1.00  0.00     0.039 A 
HETATM    9  C17 UNL     1       9.644  -8.434 -53.752  1.00  0.00     0.069 A 
HETATM   10  C19 UNL     1       8.929  -8.813 -54.876  1.00  0.00     0.051 A 
HETATM   11  C20 UNL     1       7.633  -8.370 -55.112  1.00  0.00     0.002 A 
ENDROOT
BRANCH   1  12
HETATM   12  C10 UNL     1       7.573  -9.653 -57.194  1.00  0.00     0.185 C 
BRANCH  12  13
HETATM   13  C9  UNL     1       7.638  -9.163 -58.592  1.00  0.00     0.256 C 
HETATM   14  N1  UNL     1       8.570  -8.129 -58.884  1.00  0.00     0.096 N 
HETATM   15  C4  UNL     1       8.589  -8.032 -60.362  1.00  0.00     0.282 C 
HETATM   16  C5  UNL     1       9.927  -8.462 -58.419  1.00  0.00     0.273 C 
HETATM   17  C3  UNL     1       9.495  -9.078 -60.948  1.00  0.00     0.040 C 
HETATM   18  C7  UNL     1       9.433 -10.254 -59.957  1.00  0.00    -0.001 C 
HETATM   19  C6  UNL     1      10.377  -9.819 -58.827  1.00  0.00     0.035 C 
HETATM   20  C8  UNL     1       8.018 -10.351 -59.482  1.00  0.00     0.044 C 
BRANCH  17  21
HETATM   21  C2  UNL     1       9.179  -9.505 -62.306  1.00  0.00    -0.030 C 
HETATM   22  C1  UNL     1       8.098  -9.136 -62.942  1.00  0.00     0.007 C 
ENDBRANCH  17  21
ENDBRANCH  12  13
BRANCH  12  23
HETATM   23  O1  UNL     1       6.685 -10.766 -57.252  1.00  0.00    -0.389 OA
ATOM     24  H1  UNL     1       7.225 -11.511 -57.015  1.00  0.00     0.210 HD
ENDBRANCH  12  23
ENDBRANCH   1  12
BRANCH   9  25
HETATM   25  O2  UNL     1      10.925  -8.917 -53.593  1.00  0.00    -0.356 OA
HETATM   26  C18 UNL     1      12.000  -8.639 -54.432  1.00  0.00     0.210 C 
ENDBRANCH   9  25
TORSDOF 5
ENDMDL
