MODEL 11
REMARK VINA RESULT: -5.738882578      2.593      4.085
REMARK  5 active torsions:
REMARK  status: ('A' for Active; 'I' for Inactive)
REMARK    1  A    between atoms: C2_2  and  C3_3 
REMARK    2  A    between atoms: C9_10  and  C10_11 
REMARK    3  A    between atoms: C10_11  and  O1_12 
REMARK    4  A    between atoms: C10_11  and  C11_14 
REMARK    5  A    between atoms: C17_22  and  O2_23 
ROOT
HETATM    1  C11 UNL     1       4.543  -6.611 -54.668  1.00  0.00    -0.014 A 
HETATM    2  C12 UNL     1       4.416  -7.703 -53.859  1.00  0.00     0.027 A 
HETATM    3  C13 UNL     1       3.539  -7.652 -52.777  1.00  0.00     0.089 A 
HETATM    4  N2  UNL     1       2.814  -6.561 -52.505  1.00  0.00    -0.365 N 
ATOM      5  H2  UNL     1       2.180  -6.554 -51.705  1.00  0.00     0.165 HD
HETATM    6  C14 UNL     1       2.923  -5.480 -53.280  1.00  0.00     0.043 A 
HETATM    7  C15 UNL     1       2.162  -4.381 -52.954  1.00  0.00     0.033 A 
HETATM    8  C16 UNL     1       2.239  -3.223 -53.724  1.00  0.00     0.039 A 
HETATM    9  C17 UNL     1       3.093  -3.216 -54.809  1.00  0.00     0.069 A 
HETATM   10  C19 UNL     1       3.850  -4.333 -55.120  1.00  0.00     0.051 A 
HETATM   11  C20 UNL     1       3.791  -5.500 -54.369  1.00  0.00     0.002 A 
ENDROOT
BRANCH   1  12
HETATM   12  C10 UNL     1       5.440  -6.537 -55.847  1.00  0.00     0.185 C 
BRANCH  12  13
HETATM   13  C9  UNL     1       4.968  -7.247 -57.060  1.00  0.00     0.256 C 
HETATM   14  N1  UNL     1       4.224  -6.498 -58.014  1.00  0.00     0.096 N 
HETATM   15  C4  UNL     1       4.117  -7.379 -59.200  1.00  0.00     0.282 C 
HETATM   16  C5  UNL     1       4.922  -5.263 -58.410  1.00  0.00     0.273 C 
HETATM   17  C3  UNL     1       5.364  -7.294 -60.035  1.00  0.00     0.040 C 
HETATM   18  C7  UNL     1       6.491  -6.988 -59.033  1.00  0.00    -0.001 C 
HETATM   19  C6  UNL     1       6.346  -5.479 -58.783  1.00  0.00     0.035 C 
HETATM   20  C8  UNL     1       6.203  -7.778 -57.796  1.00  0.00     0.044 C 
BRANCH  17  21
HETATM   21  C2  UNL     1       5.670  -8.470 -60.842  1.00  0.00    -0.030 C 
HETATM   22  C1  UNL     1       6.863  -8.732 -61.307  1.00  0.00     0.007 C 
ENDBRANCH  17  21
ENDBRANCH  12  13
BRANCH  12  23
HETATM   23  O1  UNL     1       6.586  -7.276 -55.430  1.00  0.00    -0.389 OA
ATOM     24  H1  UNL     1       6.622  -7.142 -54.491  1.00  0.00     0.210 HD
ENDBRANCH  12  23
ENDBRANCH   1  12
BRANCH   9  25
HETATM   25  O2  UNL     1       3.210  -2.098 -55.606  1.00  0.00    -0.356 OA
HETATM   26  C18 UNL     1       4.323  -1.769 -56.373  1.00  0.00     0.210 C 
ENDBRANCH   9  25
TORSDOF 5
ENDMDL
