MODEL 5
REMARK VINA RESULT: -7.061396562      1.722      2.335
REMARK  5 active torsions:
REMARK  status: ('A' for Active; 'I' for Inactive)
REMARK    1  A    between atoms: C2_2  and  C3_3 
REMARK    2  A    between atoms: C9_10  and  C10_11 
REMARK    3  A    between atoms: C10_11  and  O1_12 
REMARK    4  A    between atoms: C10_11  and  C11_14 
REMARK    5  A    between atoms: C17_22  and  O2_23 
ROOT
HETATM    1  C11 UNL     1       5.292  -5.649 -55.731  1.00  0.00    -0.014 A 
HETATM    2  C12 UNL     1       5.605  -4.600 -56.545  1.00  0.00     0.027 A 
HETATM    3  C13 UNL     1       4.843  -3.435 -56.482  1.00  0.00     0.089 A 
HETATM    4  N2  UNL     1       3.807  -3.312 -55.642  1.00  0.00    -0.365 N 
ATOM      5  H2  UNL     1       3.269  -2.445 -55.618  1.00  0.00     0.165 HD
HETATM    6  C14 UNL     1       3.481  -4.325 -54.837  1.00  0.00     0.043 A 
HETATM    7  C15 UNL     1       2.404  -4.151 -53.998  1.00  0.00     0.033 A 
HETATM    8  C16 UNL     1       2.013  -5.177 -53.140  1.00  0.00     0.039 A 
HETATM    9  C17 UNL     1       2.732  -6.355 -53.161  1.00  0.00     0.069 A 
HETATM   10  C19 UNL     1       3.812  -6.509 -54.013  1.00  0.00     0.051 A 
HETATM   11  C20 UNL     1       4.223  -5.502 -54.878  1.00  0.00     0.002 A 
ENDROOT
BRANCH   1  12
HETATM   12  C10 UNL     1       6.021  -6.940 -55.703  1.00  0.00     0.185 C 
BRANCH  12  13
HETATM   13  C9  UNL     1       7.385  -6.896 -55.125  1.00  0.00     0.256 C 
HETATM   14  N1  UNL     1       7.520  -7.157 -53.732  1.00  0.00     0.096 N 
HETATM   15  C4  UNL     1       8.977  -7.295 -53.504  1.00  0.00     0.282 C 
HETATM   16  C5  UNL     1       6.864  -8.416 -53.342  1.00  0.00     0.273 C 
HETATM   17  C3  UNL     1       9.438  -8.681 -53.856  1.00  0.00     0.040 C 
HETATM   18  C7  UNL     1       8.486  -9.142 -54.974  1.00  0.00    -0.001 C 
HETATM   19  C6  UNL     1       7.221  -9.567 -54.213  1.00  0.00     0.035 C 
HETATM   20  C8  UNL     1       8.228  -7.954 -55.845  1.00  0.00     0.044 C 
BRANCH  17  21
HETATM   21  C2  UNL     1      10.835  -8.804 -54.257  1.00  0.00    -0.030 C 
HETATM   22  C1  UNL     1      11.623  -7.778 -54.440  1.00  0.00     0.007 C 
ENDBRANCH  17  21
ENDBRANCH  12  13
BRANCH  12  23
HETATM   23  O1  UNL     1       6.232  -7.224 -57.083  1.00  0.00    -0.389 OA
ATOM     24  H1  UNL     1       6.146  -8.168 -57.145  1.00  0.00     0.210 HD
ENDBRANCH  12  23
ENDBRANCH   1  12
BRANCH   9  25
HETATM   25  O2  UNL     1       2.390  -7.403 -52.334  1.00  0.00    -0.356 OA
HETATM   26  C18 UNL     1       3.170  -7.893 -51.290  1.00  0.00     0.210 C 
ENDBRANCH   9  25
TORSDOF 5
ENDMDL
