MODEL 8
REMARK VINA RESULT: -9.535988624      3.633      7.384
REMARK  3 active torsions:
REMARK  status: ('A' for Active; 'I' for Inactive)
REMARK    1  A    between atoms: C1_2  and  C2_3 
REMARK    2  A    between atoms: C1_2  and  C8_10 
REMARK    3  A    between atoms: C11_16  and  C12_17 
ROOT
HETATM    1  C8  UNL     1     -25.588   9.636   3.319  1.00  0.00     0.096 C 
HETATM    2  C9  UNL     1     -25.425  10.022   4.747  1.00  0.00     0.245 C 
HETATM    3  N1  UNL     1     -24.291   9.332   5.267  1.00  0.00    -0.074 N 
ATOM      4  H11 UNL     1     -24.488   8.875   6.157  1.00  0.00     0.277 HD
ATOM      5  H12 UNL     1     -23.563   9.968   5.593  1.00  0.00     0.277 HD
HETATM    6  C10 UNL     1     -23.819   8.427   4.288  1.00  0.00     0.242 C 
HETATM    7  C11 UNL     1     -24.366   8.860   2.980  1.00  0.00     0.057 C 
ENDROOT
BRANCH   7   8
HETATM    8  C12 UNL     1     -23.451   9.749   2.195  1.00  0.00    -0.049 A 
HETATM    9  C13 UNL     1     -22.132   9.503   2.027  1.00  0.00     0.009 A 
HETATM   10  C14 UNL     1     -21.365  10.397   1.275  1.00  0.00     0.020 A 
HETATM   11  C15 UNL     1     -21.892  11.527   0.689  1.00  0.00     0.059 A 
HETATM   12  C16 UNL     1     -21.145  12.411  -0.053  1.00  0.00     0.258 A 
HETATM   13  C18 UNL     1     -23.256  11.765   0.874  1.00  0.00     0.049 A 
HETATM   14  O2  UNL     1     -19.923  12.193  -0.215  1.00  0.00    -0.267 OA
HETATM   15  N2  UNL     1     -21.685  13.502  -0.610  1.00  0.00    -0.319 N 
HETATM   16  C17 UNL     1     -23.006  13.725  -0.428  1.00  0.00     0.183 A 
ATOM     17  H2  UNL     1     -21.115  14.147  -1.158  1.00  0.00     0.169 HD
HETATM   18  N3  UNL     1     -23.748  12.871   0.295  1.00  0.00    -0.351 N 
ATOM     19  H3  UNL     1     -24.742  13.073   0.410  1.00  0.00     0.166 HD
HETATM   20  C19 UNL     1     -24.001  10.875   1.619  1.00  0.00     0.038 A 
ENDBRANCH   7   8
BRANCH   1  21
HETATM   21  C1  UNL     1     -26.825   8.784   3.235  1.00  0.00     0.166 C 
HETATM   22  O1  UNL     1     -26.775   7.538   3.365  1.00  0.00    -0.292 OA
BRANCH  21  23
HETATM   23  C2  UNL     1     -28.158   9.372   2.999  1.00  0.00     0.012 A 
HETATM   24  C3  UNL     1     -28.501   9.828   1.748  1.00  0.00     0.015 A 
HETATM   25  C4  UNL     1     -29.732  10.388   1.525  1.00  0.00     0.003 A 
HETATM   26  C5  UNL     1     -30.670  10.518   2.526  1.00  0.00     0.024 A 
HETATM   27  C6  UNL     1     -30.303  10.050   3.783  1.00  0.00     0.035 A 
HETATM   28 CL1  UNL     1     -31.491  10.206   5.080  1.00  0.00    -0.084 Cl
HETATM   29  C7  UNL     1     -29.071   9.488   4.018  1.00  0.00     0.039 A 
ENDBRANCH  21  23
ENDBRANCH   1  21
TORSDOF 3
ENDMDL
