MODEL 6
REMARK VINA RESULT: -9.636485389      3.461      7.540
REMARK  3 active torsions:
REMARK  status: ('A' for Active; 'I' for Inactive)
REMARK    1  A    between atoms: C1_2  and  C2_3 
REMARK    2  A    between atoms: C1_2  and  C8_10 
REMARK    3  A    between atoms: C11_16  and  C12_17 
ROOT
HETATM    1  C8  UNL     1     -25.920   9.772   3.497  1.00  0.00     0.096 C 
HETATM    2  C9  UNL     1     -25.469  10.115   4.873  1.00  0.00     0.245 C 
HETATM    3  N1  UNL     1     -24.227   9.458   5.111  1.00  0.00    -0.074 N 
ATOM      4  H11 UNL     1     -24.213   8.961   6.003  1.00  0.00     0.277 HD
ATOM      5  H12 UNL     1     -23.469  10.113   5.303  1.00  0.00     0.277 HD
HETATM    6  C10 UNL     1     -23.943   8.609   4.016  1.00  0.00     0.242 C 
HETATM    7  C11 UNL     1     -24.771   9.063   2.874  1.00  0.00     0.057 C 
ENDROOT
BRANCH   7   8
HETATM    8  C12 UNL     1     -24.077  10.018   1.953  1.00  0.00    -0.049 A 
HETATM    9  C13 UNL     1     -24.702  11.045   1.332  1.00  0.00     0.009 A 
HETATM   10  C14 UNL     1     -23.964  11.881   0.490  1.00  0.00     0.020 A 
HETATM   11  C15 UNL     1     -22.616  11.711   0.260  1.00  0.00     0.059 A 
HETATM   12  C16 UNL     1     -21.881  12.529  -0.564  1.00  0.00     0.258 A 
HETATM   13  C18 UNL     1     -21.988  10.645   0.910  1.00  0.00     0.049 A 
HETATM   14  O2  UNL     1     -22.450  13.481  -1.144  1.00  0.00    -0.267 OA
HETATM   15  N2  UNL     1     -20.572  12.338  -0.769  1.00  0.00    -0.319 N 
HETATM   16  C17 UNL     1     -19.970  11.305  -0.136  1.00  0.00     0.183 A 
ATOM     17  H2  UNL     1     -20.043  12.955  -1.385  1.00  0.00     0.169 HD
HETATM   18  N3  UNL     1     -20.675  10.498   0.673  1.00  0.00    -0.351 N 
ATOM     19  H3  UNL     1     -20.186   9.730   1.133  1.00  0.00     0.166 HD
HETATM   20  C19 UNL     1     -22.729   9.828   1.737  1.00  0.00     0.038 A 
ENDBRANCH   7   8
BRANCH   1  21
HETATM   21  C1  UNL     1     -27.116   8.871   3.640  1.00  0.00     0.166 C 
HETATM   22  O1  UNL     1     -26.993   7.626   3.725  1.00  0.00    -0.292 OA
BRANCH  21  23
HETATM   23  C2  UNL     1     -28.490   9.406   3.691  1.00  0.00     0.012 A 
HETATM   24  C3  UNL     1     -29.015   9.848   4.883  1.00  0.00     0.015 A 
HETATM   25  C4  UNL     1     -30.295  10.334   4.941  1.00  0.00     0.003 A 
HETATM   26  C5  UNL     1     -31.104  10.402   3.827  1.00  0.00     0.024 A 
HETATM   27  C6  UNL     1     -30.553   9.950   2.633  1.00  0.00     0.035 A 
HETATM   28 CL1  UNL     1     -31.573  10.029   1.194  1.00  0.00    -0.084 Cl
HETATM   29  C7  UNL     1     -29.271   9.461   2.563  1.00  0.00     0.039 A 
ENDBRANCH  21  23
ENDBRANCH   1  21
TORSDOF 3
ENDMDL
