MODEL 2
REMARK VINA RESULT: -10.022342218      2.063      2.648
REMARK  3 active torsions:
REMARK  status: ('A' for Active; 'I' for Inactive)
REMARK    1  A    between atoms: C1_2  and  C2_3 
REMARK    2  A    between atoms: C1_2  and  C8_10 
REMARK    3  A    between atoms: C11_16  and  C12_17 
ROOT
HETATM    1  C8  UNL     1     -26.037  10.185   2.802  1.00  0.00     0.096 C 
HETATM    2  C9  UNL     1     -25.506   8.813   3.025  1.00  0.00     0.245 C 
HETATM    3  N1  UNL     1     -25.594   8.522   4.418  1.00  0.00    -0.074 N 
ATOM      4  H11 UNL     1     -24.724   8.145   4.793  1.00  0.00     0.277 HD
ATOM      5  H12 UNL     1     -26.191   7.718   4.611  1.00  0.00     0.277 HD
HETATM    6  C10 UNL     1     -26.018   9.686   5.101  1.00  0.00     0.242 C 
HETATM    7  C11 UNL     1     -26.637  10.588   4.102  1.00  0.00     0.057 C 
ENDROOT
BRANCH   7   8
HETATM    8  C12 UNL     1     -28.125  10.453   3.990  1.00  0.00    -0.049 A 
HETATM    9  C13 UNL     1     -28.964  10.523   5.048  1.00  0.00     0.009 A 
HETATM   10  C14 UNL     1     -30.338  10.384   4.837  1.00  0.00     0.020 A 
HETATM   11  C15 UNL     1     -30.887  10.179   3.590  1.00  0.00     0.059 A 
HETATM   12  C16 UNL     1     -32.237  10.042   3.372  1.00  0.00     0.258 A 
HETATM   13  C18 UNL     1     -30.005  10.109   2.508  1.00  0.00     0.049 A 
HETATM   14  O2  UNL     1     -33.022  10.105   4.345  1.00  0.00    -0.267 OA
HETATM   15  N2  UNL     1     -32.741   9.843   2.148  1.00  0.00    -0.319 N 
HETATM   16  C17 UNL     1     -31.882   9.777   1.106  1.00  0.00     0.183 A 
ATOM     17  H2  UNL     1     -33.746   9.744   2.006  1.00  0.00     0.169 HD
HETATM   18  N3  UNL     1     -30.560   9.909   1.303  1.00  0.00    -0.351 N 
ATOM     19  H3  UNL     1     -29.943   9.854   0.492  1.00  0.00     0.166 HD
HETATM   20  C19 UNL     1     -28.651  10.247   2.732  1.00  0.00     0.038 A 
ENDBRANCH   7   8
BRANCH   1  21
HETATM   21  C1  UNL     1     -24.863  11.055   2.441  1.00  0.00     0.166 C 
HETATM   22  O1  UNL     1     -24.630  12.127   3.048  1.00  0.00    -0.292 OA
BRANCH  21  23
HETATM   23  C2  UNL     1     -23.929  10.688   1.360  1.00  0.00     0.012 A 
HETATM   24  C3  UNL     1     -24.156  11.120   0.075  1.00  0.00     0.015 A 
HETATM   25  C4  UNL     1     -23.299  10.772  -0.938  1.00  0.00     0.003 A 
HETATM   26  C5  UNL     1     -22.188   9.987  -0.719  1.00  0.00     0.024 A 
HETATM   27  C6  UNL     1     -21.977   9.561   0.587  1.00  0.00     0.035 A 
HETATM   28 CL1  UNL     1     -20.559   8.553   0.889  1.00  0.00    -0.084 Cl
HETATM   29  C7  UNL     1     -22.830   9.903   1.610  1.00  0.00     0.039 A 
ENDBRANCH  21  23
ENDBRANCH   1  21
TORSDOF 3
ENDMDL
