MODEL 7
REMARK VINA RESULT: -9.594796782      3.742      7.591
REMARK  3 active torsions:
REMARK  status: ('A' for Active; 'I' for Inactive)
REMARK    1  A    between atoms: C1_2  and  C2_3 
REMARK    2  A    between atoms: C1_2  and  C8_10 
REMARK    3  A    between atoms: C11_16  and  C12_17 
ROOT
HETATM    1  C8  UNL     1     -25.920   9.834   3.519  1.00  0.00     0.096 C 
HETATM    2  C9  UNL     1     -25.430  10.131   4.892  1.00  0.00     0.245 C 
HETATM    3  N1  UNL     1     -24.206   9.428   5.090  1.00  0.00    -0.074 N 
ATOM      4  H11 UNL     1     -24.191   8.912   5.970  1.00  0.00     0.277 HD
ATOM      5  H12 UNL     1     -23.424  10.054   5.280  1.00  0.00     0.277 HD
HETATM    6  C10 UNL     1     -23.973   8.595   3.971  1.00  0.00     0.242 C 
HETATM    7  C11 UNL     1     -24.808   9.101   2.857  1.00  0.00     0.057 C 
ENDROOT
BRANCH   7   8
HETATM    8  C12 UNL     1     -24.102  10.053   1.942  1.00  0.00    -0.049 A 
HETATM    9  C13 UNL     1     -24.715  11.086   1.321  1.00  0.00     0.009 A 
HETATM   10  C14 UNL     1     -23.965  11.918   0.485  1.00  0.00     0.020 A 
HETATM   11  C15 UNL     1     -22.617  11.737   0.262  1.00  0.00     0.059 A 
HETATM   12  C16 UNL     1     -21.872  12.550  -0.557  1.00  0.00     0.258 A 
HETATM   13  C18 UNL     1     -22.002  10.664   0.912  1.00  0.00     0.049 A 
HETATM   14  O2  UNL     1     -22.429  13.509  -1.137  1.00  0.00    -0.267 OA
HETATM   15  N2  UNL     1     -20.563  12.349  -0.756  1.00  0.00    -0.319 N 
HETATM   16  C17 UNL     1     -19.973  11.309  -0.123  1.00  0.00     0.183 A 
ATOM     17  H2  UNL     1     -20.026  12.963  -1.367  1.00  0.00     0.169 HD
HETATM   18  N3  UNL     1     -20.689  10.506   0.680  1.00  0.00    -0.351 N 
ATOM     19  H3  UNL     1     -20.209   9.732   1.140  1.00  0.00     0.166 HD
HETATM   20  C19 UNL     1     -22.754   9.851   1.732  1.00  0.00     0.038 A 
ENDBRANCH   7   8
BRANCH   1  21
HETATM   21  C1  UNL     1     -27.142   8.969   3.668  1.00  0.00     0.166 C 
HETATM   22  O1  UNL     1     -27.068   7.799   4.111  1.00  0.00    -0.292 OA
BRANCH  21  23
HETATM   23  C2  UNL     1     -28.486   9.456   3.303  1.00  0.00     0.012 A 
HETATM   24  C3  UNL     1     -28.774   9.777   1.997  1.00  0.00     0.015 A 
HETATM   25  C4  UNL     1     -30.017  10.242   1.652  1.00  0.00     0.003 A 
HETATM   26  C5  UNL     1     -31.020  10.408   2.582  1.00  0.00     0.024 A 
HETATM   27  C6  UNL     1     -30.708  10.078   3.896  1.00  0.00     0.035 A 
HETATM   28 CL1  UNL     1     -31.980  10.283   5.104  1.00  0.00    -0.084 Cl
HETATM   29  C7  UNL     1     -29.466   9.611   4.253  1.00  0.00     0.039 A 
ENDBRANCH  21  23
ENDBRANCH   1  21
TORSDOF 3
ENDMDL
