MODEL 11
REMARK VINA RESULT: -10.016800268      3.819      7.671
REMARK  3 active torsions:
REMARK  status: ('A' for Active; 'I' for Inactive)
REMARK    1  A    between atoms: C1_2  and  C2_3 
REMARK    2  A    between atoms: C1_2  and  C8_10 
REMARK    3  A    between atoms: C11_16  and  C12_17 
ROOT
HETATM    1  C8  UNL     1      25.470   9.576  -3.272  1.00  0.00     0.096 C 
HETATM    2  C9  UNL     1      24.967  10.031  -4.600  1.00  0.00     0.245 C 
HETATM    3  N1  UNL     1      23.760   9.320  -4.902  1.00  0.00    -0.074 N 
ATOM      4  H11 UNL     1      23.770   8.903  -5.832  1.00  0.00     0.277 HD
ATOM      5  H12 UNL     1      22.961   9.939  -5.038  1.00  0.00     0.277 HD
HETATM    6  C10 UNL     1      23.545   8.363  -3.873  1.00  0.00     0.242 C 
HETATM    7  C11 UNL     1      24.372   8.738  -2.709  1.00  0.00     0.057 C 
ENDROOT
BRANCH   7   8
HETATM    8  C12 UNL     1      23.642   9.567  -1.692  1.00  0.00    -0.049 A 
HETATM    9  C13 UNL     1      22.744   9.087  -0.798  1.00  0.00     0.009 A 
HETATM   10  C14 UNL     1      22.114   9.921   0.109  1.00  0.00     0.020 A 
HETATM   11  C15 UNL     1      22.374  11.285   0.142  1.00  0.00     0.059 A 
HETATM   12  C16 UNL     1      21.755  12.115   1.037  1.00  0.00     0.258 A 
HETATM   13  C18 UNL     1      23.302  11.782  -0.781  1.00  0.00     0.049 A 
HETATM   14  O2  UNL     1      20.933  11.651   1.847  1.00  0.00    -0.267 OA
HETATM   15  N2  UNL     1      22.029  13.421   1.040  1.00  0.00    -0.319 N 
HETATM   16  C17 UNL     1      22.923  13.932   0.157  1.00  0.00     0.183 A 
ATOM     17  H2  UNL     1      21.565  14.036   1.709  1.00  0.00     0.169 HD
HETATM   18  N3  UNL     1      23.534  13.105  -0.726  1.00  0.00    -0.351 N 
ATOM     19  H3  UNL     1      24.204  13.507  -1.382  1.00  0.00     0.166 HD
HETATM   20  C19 UNL     1      23.920  10.936  -1.677  1.00  0.00     0.038 A 
ENDBRANCH   7   8
BRANCH   1  21
HETATM   21  C1  UNL     1      26.706   8.774  -3.532  1.00  0.00     0.166 C 
HETATM   22  O1  UNL     1      26.657   7.535  -3.577  1.00  0.00    -0.292 OA
BRANCH  21  23
HETATM   23  C2  UNL     1      28.026   9.409  -3.750  1.00  0.00     0.011 A 
HETATM   24  C3  UNL     1      28.326   9.989  -4.953  1.00  0.00     0.015 A 
HETATM   25  C4  UNL     1      29.549  10.562  -5.154  1.00  0.00     0.002 A 
HETATM   26  C5  UNL     1      30.537  10.592  -4.177  1.00  0.00     0.018 A 
HETATM   27  C6  UNL     1      30.204  10.001  -2.979  1.00  0.00     0.007 A 
HETATM   28  I1  UNL     1      31.671  10.012  -1.446  1.00  0.00    -0.045 I 
HETATM   29  C7  UNL     1      28.976   9.419  -2.761  1.00  0.00     0.033 A 
ENDBRANCH  21  23
ENDBRANCH   1  21
TORSDOF 3
ENDMDL
