MODEL 5
REMARK VINA RESULT: -10.233296865      3.803      7.738
REMARK  3 active torsions:
REMARK  status: ('A' for Active; 'I' for Inactive)
REMARK    1  A    between atoms: C1_2  and  C2_3 
REMARK    2  A    between atoms: C1_2  and  C8_10 
REMARK    3  A    between atoms: C11_16  and  C12_17 
ROOT
HETATM    1  C8  UNL     1      25.573   9.826  -3.285  1.00  0.00     0.096 C 
HETATM    2  C9  UNL     1      24.961   9.998  -4.634  1.00  0.00     0.245 C 
HETATM    3  N1  UNL     1      23.722   9.278  -4.671  1.00  0.00    -0.074 N 
ATOM      4  H11 UNL     1      23.643   8.669  -5.484  1.00  0.00     0.277 HD
ATOM      5  H12 UNL     1      22.923   9.879  -4.873  1.00  0.00     0.277 HD
HETATM    6  C10 UNL     1      23.585   8.576  -3.442  1.00  0.00     0.242 C 
HETATM    7  C11 UNL     1      24.517   9.169  -2.462  1.00  0.00     0.057 C 
ENDROOT
BRANCH   7   8
HETATM    8  C12 UNL     1      23.892  10.222  -1.595  1.00  0.00    -0.049 A 
HETATM    9  C13 UNL     1      24.038  11.558  -1.767  1.00  0.00     0.009 A 
HETATM   10  C14 UNL     1      23.426  12.466  -0.920  1.00  0.00     0.020 A 
HETATM   11  C15 UNL     1      22.634  12.047   0.142  1.00  0.00     0.059 A 
HETATM   12  C16 UNL     1      22.025  12.938   0.983  1.00  0.00     0.258 A 
HETATM   13  C18 UNL     1      22.482  10.666   0.320  1.00  0.00     0.049 A 
HETATM   14  O2  UNL     1      22.175  14.160   0.804  1.00  0.00    -0.267 OA
HETATM   15  N2  UNL     1      21.272  12.499   1.992  1.00  0.00    -0.319 N 
HETATM   16  C17 UNL     1      21.106  11.168   2.192  1.00  0.00     0.183 A 
ATOM     17  H2  UNL     1      20.819  13.168   2.617  1.00  0.00     0.169 HD
HETATM   18  N3  UNL     1      21.711  10.289   1.356  1.00  0.00    -0.351 N 
ATOM     19  H3  UNL     1      21.575   9.292   1.520  1.00  0.00     0.166 HD
HETATM   20  C19 UNL     1      23.100   9.777  -0.533  1.00  0.00     0.038 A 
ENDBRANCH   7   8
BRANCH   1  21
HETATM   21  C1  UNL     1      26.770   8.947  -3.464  1.00  0.00     0.166 C 
HETATM   22  O1  UNL     1      26.656   7.711  -3.430  1.00  0.00    -0.292 OA
BRANCH  21  23
HETATM   23  C2  UNL     1      28.125   9.498  -3.692  1.00  0.00     0.011 A 
HETATM   24  C3  UNL     1      28.466  10.019  -4.912  1.00  0.00     0.015 A 
HETATM   25  C4  UNL     1      29.721  10.513  -5.122  1.00  0.00     0.002 A 
HETATM   26  C5  UNL     1      30.703  10.519  -4.139  1.00  0.00     0.018 A 
HETATM   27  C6  UNL     1      30.329   9.988  -2.925  1.00  0.00     0.007 A 
HETATM   28  I1  UNL     1      31.785   9.967  -1.381  1.00  0.00    -0.045 I 
HETATM   29  C7  UNL     1      29.069   9.485  -2.697  1.00  0.00     0.033 A 
ENDBRANCH  21  23
ENDBRANCH   1  21
TORSDOF 3
ENDMDL
