MODEL 8
REMARK VINA RESULT: -10.101530814      3.980      7.698
REMARK  3 active torsions:
REMARK  status: ('A' for Active; 'I' for Inactive)
REMARK    1  A    between atoms: C1_2  and  C2_3 
REMARK    2  A    between atoms: C1_2  and  C8_10 
REMARK    3  A    between atoms: C11_16  and  C12_17 
ROOT
HETATM    1  C8  UNL     1      25.390   9.845  -3.339  1.00  0.00     0.096 C 
HETATM    2  C9  UNL     1      24.653   9.861  -4.635  1.00  0.00     0.245 C 
HETATM    3  N1  UNL     1      23.490   9.031  -4.511  1.00  0.00    -0.074 N 
ATOM      4  H11 UNL     1      23.403   8.359  -5.273  1.00  0.00     0.277 HD
ATOM      5  H12 UNL     1      22.622   9.541  -4.679  1.00  0.00     0.277 HD
HETATM    6  C10 UNL     1      23.526   8.412  -3.232  1.00  0.00     0.242 C 
HETATM    7  C11 UNL     1      24.476   9.157  -2.382  1.00  0.00     0.057 C 
ENDROOT
BRANCH   7   8
HETATM    8  C12 UNL     1      23.827  10.211  -1.533  1.00  0.00    -0.049 A 
HETATM    9  C13 UNL     1      24.090  11.538  -1.604  1.00  0.00     0.009 A 
HETATM   10  C14 UNL     1      23.445  12.446  -0.782  1.00  0.00     0.020 A 
HETATM   11  C15 UNL     1      22.502  12.037   0.151  1.00  0.00     0.059 A 
HETATM   12  C16 UNL     1      21.860  12.929   0.967  1.00  0.00     0.258 A 
HETATM   13  C18 UNL     1      22.229  10.665   0.226  1.00  0.00     0.049 A 
HETATM   14  O2  UNL     1      22.119  14.142   0.882  1.00  0.00    -0.267 OA
HETATM   15  N2  UNL     1      20.959  12.500   1.852  1.00  0.00    -0.319 N 
HETATM   16  C17 UNL     1      20.674  11.177   1.949  1.00  0.00     0.183 A 
ATOM     17  H2  UNL     1      20.483  13.169   2.458  1.00  0.00     0.169 HD
HETATM   18  N3  UNL     1      21.312  10.298   1.138  1.00  0.00    -0.351 N 
ATOM     19  H3  UNL     1      21.085   9.307   1.224  1.00  0.00     0.166 HD
HETATM   20  C19 UNL     1      22.881   9.776  -0.601  1.00  0.00     0.038 A 
ENDBRANCH   7   8
BRANCH   1  21
HETATM   21  C1  UNL     1      26.647   9.067  -3.568  1.00  0.00     0.166 C 
HETATM   22  O1  UNL     1      26.613   7.968  -4.144  1.00  0.00    -0.292 OA
BRANCH  21  23
HETATM   23  C2  UNL     1      27.971   9.564  -3.132  1.00  0.00     0.011 A 
HETATM   24  C3  UNL     1      28.166   9.975  -1.840  1.00  0.00     0.015 A 
HETATM   25  C4  UNL     1      29.386  10.446  -1.445  1.00  0.00     0.002 A 
HETATM   26  C5  UNL     1      30.474  10.533  -2.304  1.00  0.00     0.018 A 
HETATM   27  C6  UNL     1      30.246  10.112  -3.595  1.00  0.00     0.007 A 
HETATM   28  I1  UNL     1      31.869  10.221  -4.957  1.00  0.00    -0.045 I 
HETATM   29  C7  UNL     1      29.023   9.636  -4.009  1.00  0.00     0.033 A 
ENDBRANCH  21  23
ENDBRANCH   1  21
TORSDOF 3
ENDMDL
