MODEL 2
REMARK VINA RESULT: -10.616136680      1.722      2.307
REMARK  3 active torsions:
REMARK  status: ('A' for Active; 'I' for Inactive)
REMARK    1  A    between atoms: C1_2  and  C2_3 
REMARK    2  A    between atoms: C1_2  and  C8_10 
REMARK    3  A    between atoms: C11_16  and  C12_17 
ROOT
HETATM    1  C8  UNL     1      25.430   9.928  -2.745  1.00  0.00     0.096 C 
HETATM    2  C9  UNL     1      25.057   8.501  -2.960  1.00  0.00     0.245 C 
HETATM    3  N1  UNL     1      25.518   8.097  -4.256  1.00  0.00    -0.074 N 
ATOM      4  H11 UNL     1      24.792   7.640  -4.808  1.00  0.00     0.277 HD
ATOM      5  H12 UNL     1      26.171   7.314  -4.216  1.00  0.00     0.277 HD
HETATM    6  C10 UNL     1      26.065   9.238  -4.903  1.00  0.00     0.242 C 
HETATM    7  C11 UNL     1      26.336  10.267  -3.880  1.00  0.00     0.057 C 
ENDROOT
BRANCH   7   8
HETATM    8  C12 UNL     1      27.745  10.246  -3.362  1.00  0.00    -0.049 A 
HETATM    9  C13 UNL     1      28.091  10.221  -2.053  1.00  0.00     0.009 A 
HETATM   10  C14 UNL     1      29.418  10.202  -1.657  1.00  0.00     0.020 A 
HETATM   11  C15 UNL     1      30.451  10.208  -2.586  1.00  0.00     0.059 A 
HETATM   12  C16 UNL     1      31.765  10.189  -2.203  1.00  0.00     0.258 A 
HETATM   13  C18 UNL     1      30.094  10.233  -3.940  1.00  0.00     0.049 A 
HETATM   14  O2  UNL     1      32.057  10.167  -0.994  1.00  0.00    -0.267 OA
HETATM   15  N2  UNL     1      32.731  10.195  -3.122  1.00  0.00    -0.319 N 
HETATM   16  C17 UNL     1      32.417  10.220  -4.442  1.00  0.00     0.183 A 
ATOM     17  H2  UNL     1      33.709  10.181  -2.832  1.00  0.00     0.169 HD
HETATM   18  N3  UNL     1      31.114  10.238  -4.816  1.00  0.00    -0.351 N 
ATOM     19  H3  UNL     1      30.897  10.257  -5.812  1.00  0.00     0.166 HD
HETATM   20  C19 UNL     1      28.767  10.252  -4.314  1.00  0.00     0.038 A 
ENDBRANCH   7   8
BRANCH   1  21
HETATM   21  C1  UNL     1      24.159  10.716  -2.791  1.00  0.00     0.166 C 
HETATM   22  O1  UNL     1      23.445  10.703  -3.806  1.00  0.00    -0.292 OA
BRANCH  21  23
HETATM   23  C2  UNL     1      23.697  11.533  -1.646  1.00  0.00     0.011 A 
HETATM   24  C3  UNL     1      23.823  12.896  -1.671  1.00  0.00     0.015 A 
HETATM   25  C4  UNL     1      23.408  13.645  -0.607  1.00  0.00     0.002 A 
HETATM   26  C5  UNL     1      22.848  13.086   0.535  1.00  0.00     0.018 A 
HETATM   27  C6  UNL     1      22.736  11.713   0.529  1.00  0.00     0.007 A 
HETATM   28  I1  UNL     1      21.889  10.797   2.246  1.00  0.00    -0.045 I 
HETATM   29  C7  UNL     1      23.150  10.944  -0.534  1.00  0.00     0.033 A 
ENDBRANCH  21  23
ENDBRANCH   1  21
TORSDOF 3
ENDMDL
