MODEL 4
REMARK VINA RESULT: -10.380053906      1.176      1.488
REMARK  3 active torsions:
REMARK  status: ('A' for Active; 'I' for Inactive)
REMARK    1  A    between atoms: C1_2  and  C2_3 
REMARK    2  A    between atoms: C1_2  and  C8_10 
REMARK    3  A    between atoms: C11_16  and  C12_17 
ROOT
HETATM    1  C8  UNL     1      25.899  10.165  -2.754  1.00  0.00     0.096 C 
HETATM    2  C9  UNL     1      25.389   8.789  -3.015  1.00  0.00     0.245 C 
HETATM    3  N1  UNL     1      25.432   8.544  -4.427  1.00  0.00    -0.074 N 
ATOM      4  H11 UNL     1      24.550   8.184  -4.792  1.00  0.00     0.277 HD
ATOM      5  H12 UNL     1      26.017   7.745  -4.671  1.00  0.00     0.277 HD
HETATM    6  C10 UNL     1      25.844   9.744  -5.068  1.00  0.00     0.242 C 
HETATM    7  C11 UNL     1      26.463  10.623  -4.056  1.00  0.00     0.057 C 
ENDROOT
BRANCH   7   8
HETATM    8  C12 UNL     1      27.956  10.495  -3.978  1.00  0.00    -0.049 A 
HETATM    9  C13 UNL     1      28.798  10.558  -5.037  1.00  0.00     0.009 A 
HETATM   10  C14 UNL     1      30.168  10.430  -4.879  1.00  0.00     0.020 A 
HETATM   11  C15 UNL     1      30.737  10.231  -3.627  1.00  0.00     0.059 A 
HETATM   12  C16 UNL     1      32.090  10.104  -3.462  1.00  0.00     0.258 A 
HETATM   13  C18 UNL     1      29.867  10.166  -2.531  1.00  0.00     0.049 A 
HETATM   14  O2  UNL     1      32.842  10.165  -4.451  1.00  0.00    -0.267 OA
HETATM   15  N2  UNL     1      32.602   9.914  -2.246  1.00  0.00    -0.319 N 
HETATM   16  C17 UNL     1      31.785   9.846  -1.165  1.00  0.00     0.183 A 
ATOM     17  H2  UNL     1      33.611   9.820  -2.128  1.00  0.00     0.169 HD
HETATM   18  N3  UNL     1      30.446   9.973  -1.333  1.00  0.00    -0.351 N 
ATOM     19  H3  UNL     1      29.847   9.919  -0.509  1.00  0.00     0.166 HD
HETATM   20  C19 UNL     1      28.506  10.296  -2.709  1.00  0.00     0.038 A 
ENDBRANCH   7   8
BRANCH   1  21
HETATM   21  C1  UNL     1      24.722  10.988  -2.334  1.00  0.00     0.166 C 
HETATM   22  O1  UNL     1      24.477  12.070  -2.892  1.00  0.00    -0.292 OA
BRANCH  21  23
HETATM   23  C2  UNL     1      23.805  10.558  -1.255  1.00  0.00     0.011 A 
HETATM   24  C3  UNL     1      23.275   9.295  -1.257  1.00  0.00     0.015 A 
HETATM   25  C4  UNL     1      22.418   8.907  -0.268  1.00  0.00     0.002 A 
HETATM   26  C5  UNL     1      22.042   9.745   0.775  1.00  0.00     0.018 A 
HETATM   27  C6  UNL     1      22.591  11.007   0.748  1.00  0.00     0.007 A 
HETATM   28  I1  UNL     1      22.054  12.337   2.312  1.00  0.00    -0.045 I 
HETATM   29  C7  UNL     1      23.455  11.415  -0.242  1.00  0.00     0.033 A 
ENDBRANCH  21  23
ENDBRANCH   1  21
TORSDOF 3
ENDMDL
