MODEL 1
REMARK VINA RESULT: -10.733929472      0.000      0.000
REMARK  3 active torsions:
REMARK  status: ('A' for Active; 'I' for Inactive)
REMARK    1  A    between atoms: C1_2  and  C2_3 
REMARK    2  A    between atoms: C1_2  and  C8_10 
REMARK    3  A    between atoms: C11_16  and  C12_17 
ROOT
HETATM    1  C8  UNL     1      25.903  10.094  -2.715  1.00  0.00     0.096 C 
HETATM    2  C9  UNL     1      25.391   8.737  -3.063  1.00  0.00     0.245 C 
HETATM    3  N1  UNL     1      25.416   8.590  -4.489  1.00  0.00    -0.074 N 
ATOM      4  H11 UNL     1      24.531   8.253  -4.866  1.00  0.00     0.277 HD
ATOM      5  H12 UNL     1      26.000   7.811  -4.794  1.00  0.00     0.277 HD
HETATM    6  C10 UNL     1      25.818   9.832  -5.052  1.00  0.00     0.242 C 
HETATM    7  C11 UNL     1      26.448  10.641  -3.990  1.00  0.00     0.057 C 
ENDROOT
BRANCH   7   8
HETATM    8  C12 UNL     1      27.943  10.512  -3.940  1.00  0.00    -0.049 A 
HETATM    9  C13 UNL     1      28.766  10.584  -5.013  1.00  0.00     0.009 A 
HETATM   10  C14 UNL     1      30.138  10.454  -4.880  1.00  0.00     0.020 A 
HETATM   11  C15 UNL     1      30.730  10.243  -3.641  1.00  0.00     0.059 A 
HETATM   12  C16 UNL     1      32.085  10.114  -3.502  1.00  0.00     0.258 A 
HETATM   13  C18 UNL     1      29.880  10.168  -2.531  1.00  0.00     0.049 A 
HETATM   14  O2  UNL     1      32.820  10.184  -4.503  1.00  0.00    -0.267 OA
HETATM   15  N2  UNL     1      32.619   9.912  -2.296  1.00  0.00    -0.319 N 
HETATM   16  C17 UNL     1      31.822   9.834  -1.202  1.00  0.00     0.183 A 
ATOM     17  H2  UNL     1      33.630   9.817  -2.198  1.00  0.00     0.169 HD
HETATM   18  N3  UNL     1      30.480   9.963  -1.345  1.00  0.00    -0.351 N 
ATOM     19  H3  UNL     1      29.896   9.902  -0.511  1.00  0.00     0.166 HD
HETATM   20  C19 UNL     1      28.516  10.300  -2.683  1.00  0.00     0.038 A 
ENDBRANCH   7   8
BRANCH   1  21
HETATM   21  C1  UNL     1      24.730  10.883  -2.225  1.00  0.00     0.166 C 
HETATM   22  O1  UNL     1      24.393  11.933  -2.795  1.00  0.00    -0.292 OA
BRANCH  21  23
HETATM   23  C2  UNL     1      23.924  10.455  -1.059  1.00  0.00     0.011 A 
HETATM   24  C3  UNL     1      23.990  11.146   0.121  1.00  0.00     0.015 A 
HETATM   25  C4  UNL     1      23.255  10.740   1.198  1.00  0.00     0.002 A 
HETATM   26  C5  UNL     1      22.418   9.631   1.164  1.00  0.00     0.018 A 
HETATM   27  C6  UNL     1      22.375   8.958  -0.036  1.00  0.00     0.007 A 
HETATM   28  I1  UNL     1      21.115   7.254  -0.152  1.00  0.00    -0.045 I 
HETATM   29  C7  UNL     1      23.109   9.354  -1.131  1.00  0.00     0.033 A 
ENDBRANCH  21  23
ENDBRANCH   1  21
TORSDOF 3
ENDMDL
