MODEL 3
REMARK VINA RESULT: -9.457609879      4.569      7.538
REMARK  3 active torsions:
REMARK  status: ('A' for Active; 'I' for Inactive)
REMARK    1  A    between atoms: C1_2  and  C2_3 
REMARK    2  A    between atoms: C1_2  and  C6_9 
REMARK    3  A    between atoms: C9_15  and  C10_16 
ROOT
HETATM    1  C6  UNL     1     -20.015   9.598  -3.421  1.00  0.00     0.097 C 
HETATM    2  C7  UNL     1     -19.609   9.485  -4.867  1.00  0.00     0.245 C 
HETATM    3  N1  UNL     1     -20.735   9.813  -5.698  1.00  0.00    -0.074 N 
ATOM      4  H11 UNL     1     -21.124   9.012  -6.196  1.00  0.00     0.277 HD
ATOM      5  H12 UNL     1     -20.489  10.360  -6.523  1.00  0.00     0.277 HD
HETATM    6  C8  UNL     1     -21.691  10.478  -4.819  1.00  0.00     0.242 C 
HETATM    7  C9  UNL     1     -21.515   9.795  -3.501  1.00  0.00     0.057 C 
ENDROOT
BRANCH   7   8
HETATM    8  C10 UNL     1     -22.054  10.535  -2.364  1.00  0.00    -0.049 A 
HETATM    9  C11 UNL     1     -21.920  11.905  -2.313  1.00  0.00     0.009 A 
HETATM   10  C12 UNL     1     -22.435  12.612  -1.226  1.00  0.00     0.020 A 
HETATM   11  C13 UNL     1     -23.074  11.971  -0.200  1.00  0.00     0.059 A 
HETATM   12  C14 UNL     1     -23.596  12.653   0.897  1.00  0.00     0.258 A 
HETATM   13  C16 UNL     1     -23.206  10.595  -0.254  1.00  0.00     0.049 A 
HETATM   14  O2  UNL     1     -23.479  13.910   0.951  1.00  0.00    -0.267 OA
HETATM   15  N2  UNL     1     -24.206  11.966   1.861  1.00  0.00    -0.319 N 
HETATM   16  C15 UNL     1     -24.336  10.622   1.809  1.00  0.00     0.183 A 
ATOM     17  H2  UNL     1     -24.588  12.469   2.663  1.00  0.00     0.169 HD
HETATM   18  N3  UNL     1     -23.826   9.966   0.741  1.00  0.00    -0.351 N 
ATOM     19  H3  UNL     1     -23.921   8.952   0.697  1.00  0.00     0.166 HD
HETATM   20  C17 UNL     1     -22.694   9.892  -1.335  1.00  0.00     0.038 A 
ENDBRANCH   7   8
BRANCH   1  21
HETATM   21  C1  UNL     1     -19.674   8.401  -2.649  1.00  0.00     0.172 C 
HETATM   22  O1  UNL     1     -19.802   7.263  -3.162  1.00  0.00    -0.291 OA
BRANCH  21  23
HETATM   23  C2  UNL     1     -19.179   8.488  -1.281  1.00  0.00     0.052 A 
HETATM   24  C3  UNL     1     -18.115   9.171  -0.770  1.00  0.00     0.024 A 
HETATM   25  C4  UNL     1     -17.882   9.067   0.558  1.00  0.00     0.028 A 
HETATM   26  C5  UNL     1     -18.735   8.284   1.280  1.00  0.00     0.052 A 
HETATM   27 BR1  UNL     1     -18.695   7.919   3.172  1.00  0.00    -0.043 Br
HETATM   28  S1  UNL     1     -19.829   7.717   0.108  1.00  0.00    -0.079 SA
ENDBRANCH  21  23
ENDBRANCH   1  21
TORSDOF 3
ENDMDL
