MODEL 1
REMARK VINA RESULT: -9.721783090      0.000      0.000
REMARK  3 active torsions:
REMARK  status: ('A' for Active; 'I' for Inactive)
REMARK    1  A    between atoms: C1_2  and  C2_3 
REMARK    2  A    between atoms: C1_2  and  C6_9 
REMARK    3  A    between atoms: C9_15  and  C10_16 
ROOT
HETATM    1  C6  UNL     1     -24.464   9.715   2.370  1.00  0.00     0.097 C 
HETATM    2  C7  UNL     1     -23.221   8.873   2.477  1.00  0.00     0.245 C 
HETATM    3  N1  UNL     1     -23.218   8.199   3.747  1.00  0.00    -0.074 N 
ATOM      4  H11 UNL     1     -22.512   8.550   4.395  1.00  0.00     0.277 HD
ATOM      5  H12 UNL     1     -22.873   7.240   3.701  1.00  0.00     0.277 HD
HETATM    6  C8  UNL     1     -24.583   8.307   4.252  1.00  0.00     0.242 C 
HETATM    7  C9  UNL     1     -25.050   9.641   3.765  1.00  0.00     0.057 C 
ENDROOT
BRANCH   7   8
HETATM    8  C10 UNL     1     -26.499   9.814   3.785  1.00  0.00    -0.049 A 
HETATM    9  C11 UNL     1     -27.138  10.107   4.969  1.00  0.00     0.009 A 
HETATM   10  C12 UNL     1     -28.524  10.272   4.987  1.00  0.00     0.020 A 
HETATM   11  C13 UNL     1     -29.270  10.147   3.847  1.00  0.00     0.059 A 
HETATM   12  C14 UNL     1     -30.653  10.305   3.838  1.00  0.00     0.258 A 
HETATM   13  C16 UNL     1     -28.625   9.850   2.659  1.00  0.00     0.049 A 
HETATM   14  O2  UNL     1     -31.247  10.576   4.920  1.00  0.00    -0.267 OA
HETATM   15  N2  UNL     1     -31.317  10.169   2.692  1.00  0.00    -0.319 N 
HETATM   16  C15 UNL     1     -30.688   9.880   1.531  1.00  0.00     0.183 A 
ATOM     17  H2  UNL     1     -32.331  10.286   2.689  1.00  0.00     0.169 HD
HETATM   18  N3  UNL     1     -29.344   9.727   1.547  1.00  0.00    -0.351 N 
ATOM     19  H3  UNL     1     -28.864   9.509   0.674  1.00  0.00     0.166 HD
HETATM   20  C17 UNL     1     -27.246   9.687   2.641  1.00  0.00     0.038 A 
ENDBRANCH   7   8
BRANCH   1  21
HETATM   21  C1  UNL     1     -24.172  11.098   1.986  1.00  0.00     0.172 C 
HETATM   22  O1  UNL     1     -24.458  12.041   2.763  1.00  0.00    -0.291 OA
BRANCH  21  23
HETATM   23  C2  UNL     1     -23.547  11.422   0.709  1.00  0.00     0.052 A 
HETATM   24  C3  UNL     1     -23.059  12.606   0.243  1.00  0.00     0.024 A 
HETATM   25  C4  UNL     1     -22.528  12.619  -1.001  1.00  0.00     0.028 A 
HETATM   26  C5  UNL     1     -22.525  11.440  -1.689  1.00  0.00     0.052 A 
HETATM   27 BR1  UNL     1     -21.855  11.106  -3.465  1.00  0.00    -0.043 Br
HETATM   28  S1  UNL     1     -23.253  10.354  -0.602  1.00  0.00    -0.079 SA
ENDBRANCH  21  23
ENDBRANCH   1  21
TORSDOF 3
ENDMDL
