MODEL 5
REMARK VINA RESULT: -9.375600180      4.728      7.119
REMARK  3 active torsions:
REMARK  status: ('A' for Active; 'I' for Inactive)
REMARK    1  A    between atoms: C1_2  and  C2_3 
REMARK    2  A    between atoms: C1_2  and  C6_9 
REMARK    3  A    between atoms: C9_15  and  C10_16 
ROOT
HETATM    1  C6  UNL     1     -21.275   8.266   3.705  1.00  0.00     0.097 C 
HETATM    2  C7  UNL     1     -20.207   7.995   4.731  1.00  0.00     0.245 C 
HETATM    3  N1  UNL     1     -19.149   7.238   4.120  1.00  0.00    -0.074 N 
ATOM      4  H11 UNL     1     -19.096   6.273   4.445  1.00  0.00     0.277 HD
ATOM      5  H12 UNL     1     -18.216   7.519   4.424  1.00  0.00     0.277 HD
HETATM    6  C8  UNL     1     -19.359   7.363   2.681  1.00  0.00     0.242 C 
HETATM    7  C9  UNL     1     -20.844   7.414   2.529  1.00  0.00     0.057 C 
ENDROOT
BRANCH   7   8
HETATM    8  C10 UNL     1     -21.299   7.941   1.246  1.00  0.00    -0.049 A 
HETATM    9  C11 UNL     1     -21.503   9.294   1.095  1.00  0.00     0.009 A 
HETATM   10  C12 UNL     1     -21.938   9.797  -0.132  1.00  0.00     0.020 A 
HETATM   11  C13 UNL     1     -22.170   8.971  -1.197  1.00  0.00     0.059 A 
HETATM   12  C14 UNL     1     -22.605   9.447  -2.431  1.00  0.00     0.258 A 
HETATM   13  C16 UNL     1     -21.965   7.612  -1.042  1.00  0.00     0.049 A 
HETATM   14  O2  UNL     1     -22.794  10.688  -2.579  1.00  0.00    -0.267 OA
HETATM   15  N2  UNL     1     -22.811   8.586  -3.427  1.00  0.00    -0.319 N 
HETATM   16  C15 UNL     1     -22.611   7.258  -3.276  1.00  0.00     0.183 A 
ATOM     17  H2  UNL     1     -23.130   8.939  -4.329  1.00  0.00     0.169 HD
HETATM   18  N3  UNL     1     -22.188   6.803  -2.074  1.00  0.00    -0.351 N 
ATOM     19  H3  UNL     1     -22.036   5.801  -1.955  1.00  0.00     0.166 HD
HETATM   20  C17 UNL     1     -21.532   7.111   0.178  1.00  0.00     0.038 A 
ENDBRANCH   7   8
BRANCH   1  21
HETATM   21  C1  UNL     1     -22.611   7.894   4.175  1.00  0.00     0.172 C 
HETATM   22  O1  UNL     1     -22.761   6.891   4.914  1.00  0.00    -0.291 OA
BRANCH  21  23
HETATM   23  C2  UNL     1     -23.794   8.663   3.808  1.00  0.00     0.052 A 
HETATM   24  C3  UNL     1     -23.954  10.006   3.639  1.00  0.00     0.024 A 
HETATM   25  C4  UNL     1     -25.183  10.453   3.297  1.00  0.00     0.028 A 
HETATM   26  C5  UNL     1     -26.166   9.518   3.149  1.00  0.00     0.052 A 
HETATM   27 BR1  UNL     1     -28.012   9.804   2.673  1.00  0.00    -0.043 Br
HETATM   28  S1  UNL     1     -25.366   8.056   3.485  1.00  0.00    -0.079 SA
ENDBRANCH  21  23
ENDBRANCH   1  21
TORSDOF 3
ENDMDL
