MODEL 6
REMARK VINA RESULT: -9.324167039      1.563      2.096
REMARK  3 active torsions:
REMARK  status: ('A' for Active; 'I' for Inactive)
REMARK    1  A    between atoms: C1_2  and  C2_3 
REMARK    2  A    between atoms: C1_2  and  C6_9 
REMARK    3  A    between atoms: C9_15  and  C10_16 
ROOT
HETATM    1  C6  UNL     1     -25.329   9.618   2.604  1.00  0.00     0.097 C 
HETATM    2  C7  UNL     1     -24.138   8.722   2.818  1.00  0.00     0.245 C 
HETATM    3  N1  UNL     1     -24.464   7.739   3.815  1.00  0.00    -0.074 N 
ATOM      4  H11 UNL     1     -23.974   7.875   4.700  1.00  0.00     0.277 HD
ATOM      5  H12 UNL     1     -24.092   6.811   3.612  1.00  0.00     0.277 HD
HETATM    6  C8  UNL     1     -25.918   7.773   3.940  1.00  0.00     0.242 C 
HETATM    7  C9  UNL     1     -26.273   9.207   3.715  1.00  0.00     0.057 C 
ENDROOT
BRANCH   7   8
HETATM    8  C10 UNL     1     -27.676   9.435   3.385  1.00  0.00    -0.049 A 
HETATM    9  C11 UNL     1     -28.077   9.437   2.068  1.00  0.00     0.009 A 
HETATM   10  C12 UNL     1     -29.420   9.655   1.753  1.00  0.00     0.020 A 
HETATM   11  C13 UNL     1     -30.354   9.868   2.729  1.00  0.00     0.059 A 
HETATM   12  C14 UNL     1     -31.698  10.089   2.441  1.00  0.00     0.258 A 
HETATM   13  C16 UNL     1     -29.946   9.867   4.051  1.00  0.00     0.049 A 
HETATM   14  O2  UNL     1     -32.076  10.092   1.236  1.00  0.00    -0.267 OA
HETATM   15  N2  UNL     1     -32.554  10.291   3.442  1.00  0.00    -0.319 N 
HETATM   16  C15 UNL     1     -32.157  10.288   4.733  1.00  0.00     0.183 A 
ATOM     17  H2  UNL     1     -33.539  10.452   3.227  1.00  0.00     0.169 HD
HETATM   18  N3  UNL     1     -30.849  10.074   5.005  1.00  0.00    -0.351 N 
ATOM     19  H3  UNL     1     -30.545  10.071   5.979  1.00  0.00     0.166 HD
HETATM   20  C17 UNL     1     -28.612   9.650   4.365  1.00  0.00     0.038 A 
ENDBRANCH   7   8
BRANCH   1  21
HETATM   21  C1  UNL     1     -24.984  11.039   2.693  1.00  0.00     0.172 C 
HETATM   22  O1  UNL     1     -25.342  11.712   3.690  1.00  0.00    -0.291 OA
BRANCH  21  23
HETATM   23  C2  UNL     1     -24.222  11.709   1.647  1.00  0.00     0.052 A 
HETATM   24  C3  UNL     1     -23.873  13.020   1.512  1.00  0.00     0.024 A 
HETATM   25  C4  UNL     1     -23.155  13.370   0.421  1.00  0.00     0.028 A 
HETATM   26  C5  UNL     1     -22.838  12.376  -0.459  1.00  0.00     0.052 A 
HETATM   27 BR1  UNL     1     -21.838  12.522  -2.101  1.00  0.00    -0.043 Br
HETATM   28  S1  UNL     1     -23.538  10.995   0.244  1.00  0.00    -0.079 SA
ENDBRANCH  21  23
ENDBRANCH   1  21
TORSDOF 3
ENDMDL
