MODEL 4
REMARK VINA RESULT: -9.415037734      4.024      7.600
REMARK  3 active torsions:
REMARK  status: ('A' for Active; 'I' for Inactive)
REMARK    1  A    between atoms: C1_2  and  C2_3 
REMARK    2  A    between atoms: C1_2  and  C6_9 
REMARK    3  A    between atoms: C9_15  and  C10_16 
ROOT
HETATM    1  C6  UNL     1     -23.709   9.597   3.451  1.00  0.00     0.097 C 
HETATM    2  C7  UNL     1     -24.181   8.672   4.540  1.00  0.00     0.245 C 
HETATM    3  N1  UNL     1     -24.023   7.312   4.103  1.00  0.00    -0.074 N 
ATOM      4  H11 UNL     1     -24.906   6.837   3.914  1.00  0.00     0.277 HD
ATOM      5  H12 UNL     1     -23.700   6.680   4.836  1.00  0.00     0.277 HD
HETATM    6  C8  UNL     1     -23.132   7.372   2.948  1.00  0.00     0.242 C 
HETATM    7  C9  UNL     1     -23.483   8.663   2.280  1.00  0.00     0.057 C 
ENDROOT
BRANCH   7   8
HETATM    8  C10 UNL     1     -22.472   9.151   1.348  1.00  0.00    -0.049 A 
HETATM    9  C11 UNL     1     -21.139   9.074   1.682  1.00  0.00     0.009 A 
HETATM   10  C12 UNL     1     -20.173   9.541   0.790  1.00  0.00     0.020 A 
HETATM   11  C13 UNL     1     -20.521  10.080  -0.419  1.00  0.00     0.059 A 
HETATM   12  C14 UNL     1     -19.577  10.554  -1.325  1.00  0.00     0.258 A 
HETATM   13  C16 UNL     1     -21.862  10.157  -0.750  1.00  0.00     0.049 A 
HETATM   14  O2  UNL     1     -18.351  10.486  -1.028  1.00  0.00    -0.267 OA
HETATM   15  N2  UNL     1     -19.987  11.067  -2.485  1.00  0.00    -0.319 N 
HETATM   16  C15 UNL     1     -21.297  11.142  -2.810  1.00  0.00     0.183 A 
ATOM     17  H2  UNL     1     -19.292  11.413  -3.147  1.00  0.00     0.169 HD
HETATM   18  N3  UNL     1     -22.208  10.680  -1.923  1.00  0.00    -0.351 N 
ATOM     19  H3  UNL     1     -23.198  10.734  -2.164  1.00  0.00     0.166 HD
HETATM   20  C17 UNL     1     -22.823   9.692   0.137  1.00  0.00     0.038 A 
ENDBRANCH   7   8
BRANCH   1  21
HETATM   21  C1  UNL     1     -24.696  10.630   3.127  1.00  0.00     0.172 C 
HETATM   22  O1  UNL     1     -24.318  11.767   2.756  1.00  0.00    -0.291 OA
BRANCH  21  23
HETATM   23  C2  UNL     1     -26.129  10.377   3.221  1.00  0.00     0.052 A 
HETATM   24  C3  UNL     1     -26.977   9.777   2.340  1.00  0.00     0.024 A 
HETATM   25  C4  UNL     1     -28.280   9.679   2.690  1.00  0.00     0.028 A 
HETATM   26  C5  UNL     1     -28.638  10.191   3.903  1.00  0.00     0.052 A 
HETATM   27 BR1  UNL     1     -30.389  10.220   4.707  1.00  0.00    -0.043 Br
HETATM   28  S1  UNL     1     -27.171  10.790   4.521  1.00  0.00    -0.079 SA
ENDBRANCH  21  23
ENDBRANCH   1  21
TORSDOF 3
ENDMDL
