MODEL 4
REMARK VINA RESULT: -10.117852016      3.663      6.039
REMARK  3 active torsions:
REMARK  status: ('A' for Active; 'I' for Inactive)
REMARK    1  A    between atoms: C5_10  and  C6_11 
REMARK    2  A    between atoms: C9_17  and  C10_18 
REMARK    3  A    between atoms: C10_18  and  C11_20 
ROOT
HETATM    1  C6  UNL     1     -23.262  12.144  -0.394  1.00  0.00     0.057 C 
HETATM    2  C7  UNL     1     -23.150  13.434   0.388  1.00  0.00     0.242 C 
HETATM    3  N3  UNL     1     -22.672  14.372  -0.595  1.00  0.00    -0.074 N 
ATOM      4  H31 UNL     1     -22.332  15.248  -0.199  1.00  0.00     0.277 HD
ATOM      5  H32 UNL     1     -23.409  14.781  -1.169  1.00  0.00     0.277 HD
HETATM    6  C8  UNL     1     -21.686  13.649  -1.342  1.00  0.00     0.245 C 
HETATM    7  C9  UNL     1     -21.945  12.192  -1.175  1.00  0.00     0.096 C 
ENDROOT
BRANCH   1   8
HETATM    8  C5  UNL     1     -23.275  10.965   0.518  1.00  0.00    -0.049 A 
HETATM    9  C4  UNL     1     -24.362  10.774   1.320  1.00  0.00     0.037 A 
HETATM   10  C3  UNL     1     -24.393   9.674   2.184  1.00  0.00     0.045 A 
HETATM   11  N2  UNL     1     -25.507   9.444   3.032  1.00  0.00    -0.373 N 
HETATM   12  C19 UNL     1     -23.324   8.810   2.206  1.00  0.00     0.058 A 
HETATM   13  C2  UNL     1     -25.763   8.115   3.518  1.00  0.00     0.246 C 
ATOM     14  H2  UNL     1     -26.121  10.214   3.294  1.00  0.00     0.161 HD
HETATM   15  N1  UNL     1     -24.513   7.511   3.921  1.00  0.00    -0.341 N 
HETATM   16  C1  UNL     1     -23.343   7.654   3.108  1.00  0.00     0.255 C 
ATOM     17  H1  UNL     1     -24.464   6.979   4.789  1.00  0.00     0.164 HD
HETATM   18  O1  UNL     1     -22.379   6.857   3.141  1.00  0.00    -0.268 OA
HETATM   19  C18 UNL     1     -22.225   9.022   1.382  1.00  0.00     0.020 A 
HETATM   20  C17 UNL     1     -22.192  10.120   0.517  1.00  0.00     0.009 A 
ENDBRANCH   1   8
BRANCH   7  21
HETATM   21  C10 UNL     1     -21.918  11.373  -2.370  1.00  0.00     0.166 C 
HETATM   22  O2  UNL     1     -22.871  11.565  -3.213  1.00  0.00    -0.292 OA
BRANCH  21  23
HETATM   23  C11 UNL     1     -20.937  10.360  -2.728  1.00  0.00     0.013 A 
HETATM   24  C12 UNL     1     -19.691  10.247  -2.153  1.00  0.00     0.015 A 
HETATM   25  C13 UNL     1     -18.751   9.285  -2.509  1.00  0.00     0.004 A 
HETATM   26  C14 UNL     1     -19.111   8.400  -3.502  1.00  0.00     0.042 A 
HETATM   27  C15 UNL     1     -20.346   8.464  -4.115  1.00  0.00     0.117 A 
HETATM   28  F1  UNL     1     -20.667   7.566  -5.099  1.00  0.00    -0.206 F 
HETATM   29  C16 UNL     1     -21.242   9.428  -3.733  1.00  0.00     0.057 A 
ENDBRANCH  21  23
ENDBRANCH   7  21
TORSDOF 3
ENDMDL
