MODEL 1
REMARK VINA RESULT: -10.519955607      0.000      0.000
REMARK  3 active torsions:
REMARK  status: ('A' for Active; 'I' for Inactive)
REMARK    1  A    between atoms: C5_10  and  C6_11 
REMARK    2  A    between atoms: C9_17  and  C10_18 
REMARK    3  A    between atoms: C10_18  and  C11_20 
ROOT
HETATM    1  C6  UNL     1     -25.081   9.466   3.598  1.00  0.00     0.057 C 
HETATM    2  C7  UNL     1     -24.758   7.989   3.561  1.00  0.00     0.242 C 
HETATM    3  N3  UNL     1     -23.446   7.954   2.968  1.00  0.00    -0.074 N 
ATOM      4  H31 UNL     1     -23.154   7.025   2.665  1.00  0.00     0.277 HD
ATOM      5  H32 UNL     1     -22.688   8.105   3.632  1.00  0.00     0.277 HD
HETATM    6  C8  UNL     1     -23.496   8.921   1.912  1.00  0.00     0.245 C 
HETATM    7  C9  UNL     1     -24.601   9.877   2.202  1.00  0.00     0.096 C 
ENDROOT
BRANCH   1   8
HETATM    8  C5  UNL     1     -26.548   9.691   3.723  1.00  0.00    -0.049 A 
HETATM    9  C4  UNL     1     -27.311   9.661   2.593  1.00  0.00     0.037 A 
HETATM   10  C3  UNL     1     -28.691   9.872   2.689  1.00  0.00     0.045 A 
HETATM   11  N2  UNL     1     -29.515   9.848   1.535  1.00  0.00    -0.373 N 
HETATM   12  C19 UNL     1     -29.247  10.105   3.925  1.00  0.00     0.058 A 
HETATM   13  C2  UNL     1     -30.918   9.564   1.673  1.00  0.00     0.246 C 
ATOM     14  H2  UNL     1     -29.115  10.030   0.615  1.00  0.00     0.161 HD
HETATM   15  N1  UNL     1     -31.434  10.283   2.817  1.00  0.00    -0.341 N 
HETATM   16  C1  UNL     1     -30.692  10.329   4.040  1.00  0.00     0.255 C 
ATOM     17  H1  UNL     1     -32.332  10.761   2.752  1.00  0.00     0.164 HD
HETATM   18  O1  UNL     1     -31.215  10.542   5.156  1.00  0.00    -0.268 OA
HETATM   19  C18 UNL     1     -28.454  10.132   5.065  1.00  0.00     0.020 A 
HETATM   20  C17 UNL     1     -27.073   9.922   4.972  1.00  0.00     0.009 A 
ENDBRANCH   1   8
BRANCH   7  21
HETATM   21  C10 UNL     1     -24.313  11.289   2.050  1.00  0.00     0.166 C 
HETATM   22  O2  UNL     1     -24.629  12.044   3.043  1.00  0.00    -0.292 OA
BRANCH  21  23
HETATM   23  C11 UNL     1     -23.706  11.952   0.907  1.00  0.00     0.013 A 
HETATM   24  C12 UNL     1     -23.489  13.310   0.821  1.00  0.00     0.015 A 
HETATM   25  C13 UNL     1     -22.921  13.942  -0.280  1.00  0.00     0.004 A 
HETATM   26  C14 UNL     1     -22.560  13.139  -1.341  1.00  0.00     0.042 A 
HETATM   27  C15 UNL     1     -22.752  11.773  -1.313  1.00  0.00     0.117 A 
HETATM   28  F1  UNL     1     -22.381  11.008  -2.388  1.00  0.00    -0.206 F 
HETATM   29  C16 UNL     1     -23.316  11.191  -0.207  1.00  0.00     0.057 A 
ENDBRANCH  21  23
ENDBRANCH   7  21
TORSDOF 3
ENDMDL
