MODEL 3
REMARK VINA RESULT: -10.132935974      4.970      8.226
REMARK  3 active torsions:
REMARK  status: ('A' for Active; 'I' for Inactive)
REMARK    1  A    between atoms: C5_10  and  C6_11 
REMARK    2  A    between atoms: C9_17  and  C10_18 
REMARK    3  A    between atoms: C10_18  and  C11_20 
ROOT
HETATM    1  C6  UNL     1     -22.107   7.778   0.017  1.00  0.00     0.057 C 
HETATM    2  C7  UNL     1     -21.283   6.704   0.693  1.00  0.00     0.242 C 
HETATM    3  N3  UNL     1     -21.737   6.754   2.059  1.00  0.00    -0.074 N 
ATOM      4  H31 UNL     1     -21.141   6.247   2.712  1.00  0.00     0.277 HD
ATOM      5  H32 UNL     1     -22.586   6.215   2.233  1.00  0.00     0.277 HD
HETATM    6  C8  UNL     1     -21.865   8.151   2.352  1.00  0.00     0.245 C 
HETATM    7  C9  UNL     1     -22.006   8.889   1.066  1.00  0.00     0.096 C 
ENDROOT
BRANCH   1   8
HETATM    8  C5  UNL     1     -21.472   8.216  -1.258  1.00  0.00    -0.049 A 
HETATM    9  C4  UNL     1     -20.163   8.600  -1.236  1.00  0.00     0.037 A 
HETATM   10  C3  UNL     1     -19.549   9.016  -2.422  1.00  0.00     0.045 A 
HETATM   11  N2  UNL     1     -18.190   9.423  -2.436  1.00  0.00    -0.373 N 
HETATM   12  C19 UNL     1     -20.282   9.030  -3.586  1.00  0.00     0.058 A 
HETATM   13  C2  UNL     1     -17.446   9.362  -3.666  1.00  0.00     0.246 C 
ATOM     14  H2  UNL     1     -17.745   9.755  -1.582  1.00  0.00     0.161 HD
HETATM   15  N1  UNL     1     -18.275   9.854  -4.744  1.00  0.00    -0.341 N 
HETATM   16  C1  UNL     1     -19.650   9.465  -4.836  1.00  0.00     0.255 C 
ATOM     17  H1  UNL     1     -17.879  10.481  -5.443  1.00  0.00     0.164 HD
HETATM   18  O1  UNL     1     -20.301   9.483  -5.904  1.00  0.00    -0.268 OA
HETATM   19  C18 UNL     1     -21.614   8.635  -3.588  1.00  0.00     0.020 A 
HETATM   20  C17 UNL     1     -22.230   8.218  -2.404  1.00  0.00     0.009 A 
ENDBRANCH   1   8
BRANCH   7  21
HETATM   21  C10 UNL     1     -23.049   9.893   0.989  1.00  0.00     0.166 C 
HETATM   22  O2  UNL     1     -24.207   9.544   1.428  1.00  0.00    -0.292 OA
BRANCH  21  23
HETATM   23  C11 UNL     1     -22.938  11.249   0.475  1.00  0.00     0.013 A 
HETATM   24  C12 UNL     1     -23.547  12.347   1.042  1.00  0.00     0.015 A 
HETATM   25  C13 UNL     1     -23.450  13.640   0.539  1.00  0.00     0.004 A 
HETATM   26  C14 UNL     1     -22.690  13.810  -0.598  1.00  0.00     0.042 A 
HETATM   27  C15 UNL     1     -22.056  12.749  -1.210  1.00  0.00     0.117 A 
HETATM   28  F1  UNL     1     -21.309  12.958  -2.341  1.00  0.00    -0.206 F 
HETATM   29  C16 UNL     1     -22.179  11.490  -0.681  1.00  0.00     0.057 A 
ENDBRANCH  21  23
ENDBRANCH   7  21
TORSDOF 3
ENDMDL
