MODEL 2
REMARK VINA RESULT: -10.308608853      6.049      7.657
REMARK  3 active torsions:
REMARK  status: ('A' for Active; 'I' for Inactive)
REMARK    1  A    between atoms: C5_10  and  C6_11 
REMARK    2  A    between atoms: C9_17  and  C10_18 
REMARK    3  A    between atoms: C10_18  and  C11_20 
ROOT
HETATM    1  C6  UNL     1     -20.081   8.234  -2.389  1.00  0.00     0.057 C 
HETATM    2  C7  UNL     1     -20.549   7.184  -3.372  1.00  0.00     0.242 C 
HETATM    3  N3  UNL     1     -20.568   7.895  -4.625  1.00  0.00    -0.074 N 
ATOM      4  H31 UNL     1     -21.065   7.406  -5.370  1.00  0.00     0.277 HD
ATOM      5  H32 UNL     1     -19.663   7.932  -5.093  1.00  0.00     0.277 HD
HETATM    6  C8  UNL     1     -21.114   9.182  -4.309  1.00  0.00     0.245 C 
HETATM    7  C9  UNL     1     -20.925   9.426  -2.852  1.00  0.00     0.096 C 
ENDROOT
BRANCH   1   8
HETATM    8  C5  UNL     1     -20.444   7.859  -0.993  1.00  0.00    -0.049 A 
HETATM    9  C4  UNL     1     -19.444   7.717  -0.076  1.00  0.00     0.037 A 
HETATM   10  C3  UNL     1     -19.764   7.364   1.240  1.00  0.00     0.045 A 
HETATM   11  N2  UNL     1     -18.751   7.206   2.220  1.00  0.00    -0.373 N 
HETATM   12  C19 UNL     1     -21.083   7.167   1.578  1.00  0.00     0.058 A 
HETATM   13  C2  UNL     1     -19.086   7.343   3.612  1.00  0.00     0.246 C 
ATOM     14  H2  UNL     1     -17.793   6.998   1.939  1.00  0.00     0.161 HD
HETATM   15  N1  UNL     1     -20.336   6.664   3.866  1.00  0.00    -0.341 N 
HETATM   16  C1  UNL     1     -21.431   6.796   2.953  1.00  0.00     0.255 C 
ATOM     17  H1  UNL     1     -20.439   6.086   4.700  1.00  0.00     0.164 HD
HETATM   18  O1  UNL     1     -22.626   6.613   3.279  1.00  0.00    -0.268 OA
HETATM   19  C18 UNL     1     -22.087   7.317   0.630  1.00  0.00     0.020 A 
HETATM   20  C17 UNL     1     -21.770   7.670  -0.687  1.00  0.00     0.009 A 
ENDBRANCH   1   8
BRANCH   7  21
HETATM   21  C10 UNL     1     -20.410  10.722  -2.459  1.00  0.00     0.166 C 
HETATM   22  O2  UNL     1     -19.167  10.941  -2.710  1.00  0.00    -0.292 OA
BRANCH  21  23
HETATM   23  C11 UNL     1     -21.136  11.807  -1.816  1.00  0.00     0.013 A 
HETATM   24  C12 UNL     1     -20.779  13.135  -1.894  1.00  0.00     0.015 A 
HETATM   25  C13 UNL     1     -21.468  14.167  -1.266  1.00  0.00     0.004 A 
HETATM   26  C14 UNL     1     -22.575  13.815  -0.525  1.00  0.00     0.042 A 
HETATM   27  C15 UNL     1     -22.982  12.502  -0.410  1.00  0.00     0.117 A 
HETATM   28  F1  UNL     1     -24.089  12.192   0.337  1.00  0.00    -0.206 F 
HETATM   29  C16 UNL     1     -22.273  11.516  -1.046  1.00  0.00     0.057 A 
ENDBRANCH  21  23
ENDBRANCH   7  21
TORSDOF 3
ENDMDL
