MODEL 7
REMARK VINA RESULT: -5.808725742      1.297      2.168
REMARK  3 active torsions:
REMARK  status: ('A' for Active; 'I' for Inactive)
REMARK    1  A    between atoms: C2_2  and  C3_3 
REMARK    2  A    between atoms: C2_2  and  C4_8 
REMARK    3  A    between atoms: C3_3  and  P1_4 
ROOT
HETATM    1  C1  UNL     1      -6.735 -83.231   0.828  1.00  0.00     0.022 C 
HETATM    2  C2  UNL     1      -6.985 -84.631   0.302  1.00  0.00     0.095 C 
ENDROOT
BRANCH   2   3
HETATM    3  C3  UNL     1      -7.433 -85.552   1.437  1.00  0.00     0.161 C 
BRANCH   3   4
HETATM    4  P1  UNL     1      -8.637 -86.638   0.852  1.00  0.00     0.260 P 
HETATM    5  O1  UNL     1      -8.523 -88.281   1.231  1.00  0.00    -0.640 OA
HETATM    6  O2  UNL     1      -9.776 -86.137  -0.239  1.00  0.00    -0.640 OA
HETATM    7  O3  UNL     1      -9.684 -86.528   1.978  1.00  0.00    -0.640 OA
ENDBRANCH   3   4
ENDBRANCH   2   3
BRANCH   2   8
HETATM    8  C4  UNL     1      -5.710 -85.105  -0.299  1.00  0.00     0.177 C 
HETATM    9  O4  UNL     1      -5.646 -85.914  -1.251  1.00  0.00    -0.648 OA
HETATM   10  O5  UNL     1      -4.522 -84.620   0.230  1.00  0.00    -0.648 OA
ENDBRANCH   2   8
TORSDOF 3
ENDMDL
