MODEL 1
REMARK VINA RESULT: -6.315676338      0.000      0.000
REMARK  3 active torsions:
REMARK  status: ('A' for Active; 'I' for Inactive)
REMARK    1  A    between atoms: C2_2  and  C3_3 
REMARK    2  A    between atoms: C2_2  and  C4_8 
REMARK    3  A    between atoms: C3_3  and  P1_4 
ROOT
HETATM    1  C1  UNL     1      -6.718 -85.771  -1.869  1.00  0.00     0.022 C 
HETATM    2  C2  UNL     1      -6.728 -85.733  -0.354  1.00  0.00     0.095 C 
ENDROOT
BRANCH   2   3
HETATM    3  C3  UNL     1      -8.161 -85.615   0.165  1.00  0.00     0.161 C 
BRANCH   3   4
HETATM    4  P1  UNL     1      -8.356 -86.629   1.546  1.00  0.00     0.260 P 
HETATM    5  O1  UNL     1      -8.571 -85.924   3.066  1.00  0.00    -0.640 OA
HETATM    6  O2  UNL     1      -8.126 -88.265   1.438  1.00  0.00    -0.640 OA
HETATM    7  O3  UNL     1      -9.880 -86.853   1.516  1.00  0.00    -0.640 OA
ENDBRANCH   3   4
ENDBRANCH   2   3
BRANCH   2   8
HETATM    8  C4  UNL     1      -5.912 -84.559   0.057  1.00  0.00     0.177 C 
HETATM    9  O4  UNL     1      -6.385 -83.418   0.255  1.00  0.00    -0.648 OA
HETATM   10  O5  UNL     1      -4.548 -84.743   0.230  1.00  0.00    -0.648 OA
ENDBRANCH   2   8
TORSDOF 3
ENDMDL
