MODEL 4
REMARK VINA RESULT: -5.888850151      1.208      1.412
REMARK  3 active torsions:
REMARK  status: ('A' for Active; 'I' for Inactive)
REMARK    1  A    between atoms: C2_2  and  C3_3 
REMARK    2  A    between atoms: C2_2  and  C4_8 
REMARK    3  A    between atoms: C3_3  and  P1_4 
ROOT
HETATM    1  C1  UNL     1      -8.011 -85.630  -1.868  1.00  0.00     0.022 C 
HETATM    2  C2  UNL     1      -7.204 -86.141  -0.692  1.00  0.00     0.095 C 
ENDROOT
BRANCH   2   3
HETATM    3  C3  UNL     1      -7.596 -85.396   0.585  1.00  0.00     0.161 C 
BRANCH   3   4
HETATM    4  P1  UNL     1      -8.183 -86.523   1.749  1.00  0.00     0.260 P 
HETATM    5  O1  UNL     1      -8.548 -85.985   3.309  1.00  0.00    -0.640 OA
HETATM    6  O2  UNL     1      -8.194 -88.147   1.431  1.00  0.00    -0.640 OA
HETATM    7  O3  UNL     1      -9.695 -86.466   1.456  1.00  0.00    -0.640 OA
ENDBRANCH   3   4
ENDBRANCH   2   3
BRANCH   2   8
HETATM    8  C4  UNL     1      -5.770 -85.922  -1.019  1.00  0.00     0.177 C 
HETATM    9  O4  UNL     1      -5.097 -84.957  -0.592  1.00  0.00    -0.648 OA
HETATM   10  O5  UNL     1      -5.144 -86.842  -1.848  1.00  0.00    -0.648 OA
ENDBRANCH   2   8
TORSDOF 3
ENDMDL
