MODEL 4
REMARK VINA RESULT: -6.078119955      0.638      1.529
REMARK  3 active torsions:
REMARK  status: ('A' for Active; 'I' for Inactive)
REMARK    1  A    between atoms: C2_2  and  O1_3 
REMARK    2  A    between atoms: C2_2  and  C3_8 
REMARK    3  A    between atoms: O1_3  and  P1_4 
ROOT
HETATM    1  C1  UNL     1      45.813 -21.163  -5.968  1.00  0.00     0.052 C 
HETATM    2  C2  UNL     1      45.671 -22.401  -5.070  1.00  0.00     0.232 C 
ENDROOT
BRANCH   2   3
HETATM    3  O1  UNL     1      46.549 -23.325  -5.492  1.00  0.00    -0.267 OA
BRANCH   3   4
HETATM    4  P1  UNL     1      46.223 -24.397  -6.615  1.00  0.00     0.423 P 
HETATM    5  O2  UNL     1      47.647 -24.676  -7.058  1.00  0.00    -0.617 OA
HETATM    6  O3  UNL     1      46.080 -26.060  -6.201  1.00  0.00    -0.617 OA
HETATM    7  O4  UNL     1      45.734 -23.976  -8.142  1.00  0.00    -0.617 OA
ENDBRANCH   3   4
ENDBRANCH   2   3
BRANCH   2   8
HETATM    8  C3  UNL     1      45.746 -21.946  -3.697  1.00  0.00     0.203 C 
HETATM    9  O5  UNL     1      46.537 -21.030  -3.399  1.00  0.00    -0.646 OA
HETATM   10  O6  UNL     1      44.967 -22.498  -2.707  1.00  0.00    -0.646 OA
ENDBRANCH   2   8
TORSDOF 3
ENDMDL
