MODEL 6
REMARK VINA RESULT: -6.017189722      1.308      1.858
REMARK  3 active torsions:
REMARK  status: ('A' for Active; 'I' for Inactive)
REMARK    1  A    between atoms: C2_2  and  O1_3 
REMARK    2  A    between atoms: C2_2  and  C3_8 
REMARK    3  A    between atoms: O1_3  and  P1_4 
ROOT
HETATM    1  C1  UNL     1      45.928 -21.344  -4.314  1.00  0.00     0.052 C 
HETATM    2  C2  UNL     1      45.435 -22.763  -4.635  1.00  0.00     0.232 C 
ENDROOT
BRANCH   2   3
HETATM    3  O1  UNL     1      46.507 -23.535  -4.872  1.00  0.00    -0.267 OA
BRANCH   3   4
HETATM    4  P1  UNL     1      46.549 -24.658  -5.991  1.00  0.00     0.423 P 
HETATM    5  O2  UNL     1      45.422 -24.132  -6.859  1.00  0.00    -0.617 OA
HETATM    6  O3  UNL     1      47.600 -24.488  -7.342  1.00  0.00    -0.617 OA
HETATM    7  O4  UNL     1      45.833 -26.141  -5.801  1.00  0.00    -0.617 OA
ENDBRANCH   3   4
ENDBRANCH   2   3
BRANCH   2   8
HETATM    8  C3  UNL     1      44.519 -23.148  -3.581  1.00  0.00     0.203 C 
HETATM    9  O5  UNL     1      44.751 -22.790  -2.409  1.00  0.00    -0.646 OA
HETATM   10  O6  UNL     1      43.398 -23.904  -3.834  1.00  0.00    -0.646 OA
ENDBRANCH   2   8
TORSDOF 3
ENDMDL
