MODEL 1
REMARK VINA RESULT: -6.252394754      0.000      0.000
REMARK  3 active torsions:
REMARK  status: ('A' for Active; 'I' for Inactive)
REMARK    1  A    between atoms: C2_2  and  O1_3 
REMARK    2  A    between atoms: C2_2  and  C3_8 
REMARK    3  A    between atoms: O1_3  and  P1_4 
ROOT
HETATM    1  C1  UNL     1      45.983 -21.710  -6.022  1.00  0.00     0.052 C 
HETATM    2  C2  UNL     1      45.196 -22.513  -4.977  1.00  0.00     0.232 C 
ENDROOT
BRANCH   2   3
HETATM    3  O1  UNL     1      45.321 -23.817  -5.270  1.00  0.00    -0.267 OA
BRANCH   3   4
HETATM    4  P1  UNL     1      46.335 -24.379  -6.353  1.00  0.00     0.423 P 
HETATM    5  O2  UNL     1      45.943 -25.843  -6.267  1.00  0.00    -0.617 OA
HETATM    6  O3  UNL     1      45.888 -24.410  -8.013  1.00  0.00    -0.617 OA
HETATM    7  O4  UNL     1      47.927 -24.692  -6.015  1.00  0.00    -0.617 OA
ENDBRANCH   3   4
ENDBRANCH   2   3
BRANCH   2   8
HETATM    8  C3  UNL     1      45.620 -22.050  -3.671  1.00  0.00     0.203 C 
HETATM    9  O5  UNL     1      46.573 -21.250  -3.586  1.00  0.00    -0.646 OA
HETATM   10  O6  UNL     1      45.002 -22.469  -2.517  1.00  0.00    -0.646 OA
ENDBRANCH   2   8
TORSDOF 3
ENDMDL
