MODEL 3
REMARK VINA RESULT: -6.083307666      1.027      1.766
REMARK  3 active torsions:
REMARK  status: ('A' for Active; 'I' for Inactive)
REMARK    1  A    between atoms: C2_2  and  O1_3 
REMARK    2  A    between atoms: C2_2  and  C3_8 
REMARK    3  A    between atoms: O1_3  and  P1_4 
ROOT
HETATM    1  C1  UNL     1      46.103 -20.128  -5.993  1.00  0.00     0.052 C 
HETATM    2  C2  UNL     1      45.734 -21.542  -5.522  1.00  0.00     0.232 C 
ENDROOT
BRANCH   2   3
HETATM    3  O1  UNL     1      46.301 -22.423  -6.362  1.00  0.00    -0.267 OA
BRANCH   3   4
HETATM    4  P1  UNL     1      46.195 -23.996  -6.187  1.00  0.00     0.423 P 
HETATM    5  O2  UNL     1      46.156 -24.369  -7.657  1.00  0.00    -0.617 OA
HETATM    6  O3  UNL     1      47.623 -24.943  -6.037  1.00  0.00    -0.617 OA
HETATM    7  O4  UNL     1      44.765 -24.768  -5.860  1.00  0.00    -0.617 OA
ENDBRANCH   3   4
ENDBRANCH   2   3
BRANCH   2   8
HETATM    8  C3  UNL     1      46.054 -21.622  -4.112  1.00  0.00     0.203 C 
HETATM    9  O5  UNL     1      47.125 -21.137  -3.699  1.00  0.00    -0.646 OA
HETATM   10  O6  UNL     1      45.207 -22.223  -3.209  1.00  0.00    -0.646 OA
ENDBRANCH   2   8
TORSDOF 3
ENDMDL
