MODEL 2
REMARK VINA RESULT: -6.244492995      1.144      2.010
REMARK  3 active torsions:
REMARK  status: ('A' for Active; 'I' for Inactive)
REMARK    1  A    between atoms: C2_2  and  O1_3 
REMARK    2  A    between atoms: C2_2  and  C3_8 
REMARK    3  A    between atoms: O1_3  and  P1_4 
ROOT
HETATM    1  C1  UNL     1      46.286 -21.272  -4.116  1.00  0.00     0.052 C 
HETATM    2  C2  UNL     1      45.577 -22.486  -4.734  1.00  0.00     0.232 C 
ENDROOT
BRANCH   2   3
HETATM    3  O1  UNL     1      46.516 -23.351  -5.151  1.00  0.00    -0.267 OA
BRANCH   3   4
HETATM    4  P1  UNL     1      46.287 -24.395  -6.323  1.00  0.00     0.423 P 
HETATM    5  O2  UNL     1      47.745 -24.668  -6.646  1.00  0.00    -0.617 OA
HETATM    6  O3  UNL     1      46.107 -26.067  -5.961  1.00  0.00    -0.617 OA
HETATM    7  O4  UNL     1      45.934 -23.938  -7.877  1.00  0.00    -0.617 OA
ENDBRANCH   3   4
ENDBRANCH   2   3
BRANCH   2   8
HETATM    8  C3  UNL     1      44.589 -22.939  -3.777  1.00  0.00     0.203 C 
HETATM    9  O5  UNL     1      44.810 -22.799  -2.558  1.00  0.00    -0.646 OA
HETATM   10  O6  UNL     1      43.410 -23.525  -4.174  1.00  0.00    -0.646 OA
ENDBRANCH   2   8
TORSDOF 3
ENDMDL
