MODEL 3
REMARK VINA RESULT: -6.097810859      1.033      1.883
REMARK  3 active torsions:
REMARK  status: ('A' for Active; 'I' for Inactive)
REMARK    1  A    between atoms: C2_2  and  O1_3 
REMARK    2  A    between atoms: C2_2  and  C3_8 
REMARK    3  A    between atoms: O1_3  and  P1_4 
ROOT
HETATM    1  C1  UNL     1     -24.411 -15.209 -38.161  1.00  0.00     0.052 C 
HETATM    2  C2  UNL     1     -25.496 -16.241 -37.817  1.00  0.00     0.232 C 
ENDROOT
BRANCH   2   3
HETATM    3  O1  UNL     1     -25.068 -17.441 -38.134  1.00  0.00    -0.267 OA
BRANCH   3   4
HETATM    4  P1  UNL     1     -23.911 -17.800 -39.167  1.00  0.00     0.423 P 
HETATM    5  O2  UNL     1     -24.266 -19.269 -39.347  1.00  0.00    -0.617 OA
HETATM    6  O3  UNL     1     -23.887 -17.401 -40.745  1.00  0.00    -0.617 OA
HETATM    7  O4  UNL     1     -22.417 -18.359 -38.500  1.00  0.00    -0.617 OA
ENDBRANCH   3   4
ENDBRANCH   2   3
BRANCH   2   8
HETATM    8  C3  UNL     1     -26.761 -15.724 -38.289  1.00  0.00     0.203 C 
HETATM    9  O5  UNL     1     -27.004 -15.059 -39.325  1.00  0.00    -0.646 OA
HETATM   10  O6  UNL     1     -27.892 -15.975 -37.516  1.00  0.00    -0.646 OA
ENDBRANCH   2   8
TORSDOF 3
ENDMDL
