MODEL 4
REMARK VINA RESULT: -6.084224444      1.275      2.165
REMARK  3 active torsions:
REMARK  status: ('A' for Active; 'I' for Inactive)
REMARK    1  A    between atoms: C2_2  and  O1_3 
REMARK    2  A    between atoms: C2_2  and  C3_8 
REMARK    3  A    between atoms: O1_3  and  P1_4 
ROOT
HETATM    1  C1  UNL     1     -25.442 -16.486 -36.075  1.00  0.00     0.052 C 
HETATM    2  C2  UNL     1     -25.973 -16.721 -37.498  1.00  0.00     0.232 C 
ENDROOT
BRANCH   2   3
HETATM    3  O1  UNL     1     -25.256 -17.654 -38.078  1.00  0.00    -0.267 OA
BRANCH   3   4
HETATM    4  P1  UNL     1     -23.933 -17.446 -38.940  1.00  0.00     0.423 P 
HETATM    5  O2  UNL     1     -23.436 -18.882 -38.875  1.00  0.00    -0.617 OA
HETATM    6  O3  UNL     1     -23.869 -17.280 -40.558  1.00  0.00    -0.617 OA
HETATM    7  O4  UNL     1     -22.497 -17.028 -38.074  1.00  0.00    -0.617 OA
ENDBRANCH   3   4
ENDBRANCH   2   3
BRANCH   2   8
HETATM    8  C3  UNL     1     -26.191 -15.426 -38.105  1.00  0.00     0.203 C 
HETATM    9  O5  UNL     1     -25.677 -14.320 -37.811  1.00  0.00    -0.646 OA
HETATM   10  O6  UNL     1     -27.091 -15.353 -39.167  1.00  0.00    -0.646 OA
ENDBRANCH   2   8
TORSDOF 3
ENDMDL
