MODEL 2
REMARK VINA RESULT: -6.198540120      0.570      1.822
REMARK  3 active torsions:
REMARK  status: ('A' for Active; 'I' for Inactive)
REMARK    1  A    between atoms: C2_2  and  O1_3 
REMARK    2  A    between atoms: C2_2  and  C3_8 
REMARK    3  A    between atoms: O1_3  and  P1_4 
ROOT
HETATM    1  C1  UNL     1     -25.321 -15.218 -38.198  1.00  0.00     0.052 C 
HETATM    2  C2  UNL     1     -25.551 -16.478 -37.350  1.00  0.00     0.232 C 
ENDROOT
BRANCH   2   3
HETATM    3  O1  UNL     1     -24.859 -17.472 -37.855  1.00  0.00    -0.267 OA
BRANCH   3   4
HETATM    4  P1  UNL     1     -23.631 -17.366 -38.863  1.00  0.00     0.423 P 
HETATM    5  O2  UNL     1     -23.114 -18.785 -38.685  1.00  0.00    -0.617 OA
HETATM    6  O3  UNL     1     -23.730 -17.387 -40.488  1.00  0.00    -0.617 OA
HETATM    7  O4  UNL     1     -22.120 -16.852 -38.199  1.00  0.00    -0.617 OA
ENDBRANCH   3   4
ENDBRANCH   2   3
BRANCH   2   8
HETATM    8  C3  UNL     1     -26.970 -16.580 -37.090  1.00  0.00     0.203 C 
HETATM    9  O5  UNL     1     -27.916 -15.951 -37.620  1.00  0.00    -0.646 OA
HETATM   10  O6  UNL     1     -27.387 -17.492 -36.121  1.00  0.00    -0.646 OA
ENDBRANCH   2   8
TORSDOF 3
ENDMDL
