MODEL 6
REMARK VINA RESULT: -5.976084434      1.822      2.196
REMARK  3 active torsions:
REMARK  status: ('A' for Active; 'I' for Inactive)
REMARK    1  A    between atoms: C2_2  and  O1_3 
REMARK    2  A    between atoms: C2_2  and  C3_8 
REMARK    3  A    between atoms: O1_3  and  P1_4 
ROOT
HETATM    1  C1  UNL     1     -25.447 -14.839 -41.228  1.00  0.00     0.052 C 
HETATM    2  C2  UNL     1     -24.999 -15.369 -39.858  1.00  0.00     0.232 C 
ENDROOT
BRANCH   2   3
HETATM    3  O1  UNL     1     -24.450 -16.551 -40.010  1.00  0.00    -0.267 OA
BRANCH   3   4
HETATM    4  P1  UNL     1     -24.050 -17.575 -38.857  1.00  0.00     0.423 P 
HETATM    5  O2  UNL     1     -22.585 -17.726 -39.236  1.00  0.00    -0.617 OA
HETATM    6  O3  UNL     1     -23.818 -17.198 -37.290  1.00  0.00    -0.617 OA
HETATM    7  O4  UNL     1     -24.203 -19.257 -39.221  1.00  0.00    -0.617 OA
ENDBRANCH   3   4
ENDBRANCH   2   3
BRANCH   2   8
HETATM    8  C3  UNL     1     -26.075 -15.133 -38.921  1.00  0.00     0.203 C 
HETATM    9  O5  UNL     1     -27.264 -15.532 -38.969  1.00  0.00    -0.646 OA
HETATM   10  O6  UNL     1     -25.797 -14.359 -37.796  1.00  0.00    -0.646 OA
ENDBRANCH   2   8
TORSDOF 3
ENDMDL
