MODEL 1
REMARK VINA RESULT: -6.336013288      0.000      0.000
REMARK  3 active torsions:
REMARK  status: ('A' for Active; 'I' for Inactive)
REMARK    1  A    between atoms: C2_2  and  O1_3 
REMARK    2  A    between atoms: C2_2  and  C3_8 
REMARK    3  A    between atoms: O1_3  and  P1_4 
ROOT
HETATM    1  C1  UNL     1     -25.506 -14.727 -37.873  1.00  0.00     0.052 C 
HETATM    2  C2  UNL     1     -25.674 -16.238 -37.652  1.00  0.00     0.232 C 
ENDROOT
BRANCH   2   3
HETATM    3  O1  UNL     1     -25.178 -16.884 -38.681  1.00  0.00    -0.267 OA
BRANCH   3   4
HETATM    4  P1  UNL     1     -23.787 -17.656 -38.744  1.00  0.00     0.423 P 
HETATM    5  O2  UNL     1     -23.535 -17.472 -40.233  1.00  0.00    -0.617 OA
HETATM    6  O3  UNL     1     -22.356 -17.080 -38.222  1.00  0.00    -0.617 OA
HETATM    7  O4  UNL     1     -23.850 -19.350 -39.078  1.00  0.00    -0.617 OA
ENDBRANCH   3   4
ENDBRANCH   2   3
BRANCH   2   8
HETATM    8  C3  UNL     1     -27.021 -16.466 -37.175  1.00  0.00     0.203 C 
HETATM    9  O5  UNL     1     -27.408 -17.183 -36.221  1.00  0.00    -0.646 OA
HETATM   10  O6  UNL     1     -28.061 -15.819 -37.839  1.00  0.00    -0.646 OA
ENDBRANCH   2   8
TORSDOF 3
ENDMDL
