MODEL 1
REMARK VINA RESULT: -11.976048444      0.000      0.000
REMARK  2 active torsions:
REMARK  status: ('A' for Active; 'I' for Inactive)
REMARK    1  A    between atoms: C3_8  and  C4_9 
REMARK    2  A    between atoms: C13_26  and  C14_27 
ROOT
HETATM    1  C4  UNL     1       1.763  63.684 188.618  1.00  0.00     0.134 C 
HETATM    2  C5  UNL     1       0.491  63.220 189.163  1.00  0.00     0.053 A 
HETATM    3  N4  UNL     1       0.043  63.643 190.387  1.00  0.00    -0.300 N 
ATOM      4  H4  UNL     1       0.612  64.307 190.911  1.00  0.00     0.186 HD
HETATM    5  N5  UNL     1      -1.087  63.233 190.916  1.00  0.00    -0.266 N 
ATOM      6  H5  UNL     1      -1.366  63.586 191.831  1.00  0.00     0.190 HD
HETATM    7  C6  UNL     1      -1.883  62.359 190.280  1.00  0.00     0.271 A 
HETATM    8  O1  UNL     1      -2.964  61.960 190.780  1.00  0.00    -0.266 OA
HETATM    9  C7  UNL     1      -1.507  61.885 189.046  1.00  0.00     0.051 A 
HETATM   10  C8  UNL     1      -2.289  60.978 188.340  1.00  0.00     0.060 A 
HETATM   11  C9  UNL     1      -1.867  60.531 187.104  1.00  0.00     0.119 A 
HETATM   12  F1  UNL     1      -2.644  59.652 186.441  1.00  0.00    -0.206 F 
HETATM   13  C10 UNL     1      -0.669  60.978 186.559  1.00  0.00     0.072 A 
HETATM   14  C11 UNL     1       0.108  61.877 187.256  1.00  0.00     0.044 A 
HETATM   15  C12 UNL     1      -0.301  62.332 188.494  1.00  0.00     0.031 A 
HETATM   16  N6  UNL     1       1.342  62.371 186.703  1.00  0.00    -0.379 N 
ATOM     17  H6  UNL     1       1.892  61.821 186.042  1.00  0.00     0.160 HD
HETATM   18  C13 UNL     1       1.771  63.713 187.140  1.00  0.00     0.132 C 
ENDROOT
BRANCH   1  19
HETATM   19  C3  UNL     1       2.261  64.917 189.268  1.00  0.00     0.111 A 
HETATM   20  N1  UNL     1       3.309  64.976 190.101  1.00  0.00    -0.283 N 
HETATM   21  C1  UNL     1       4.158  63.902 190.522  1.00  0.00     0.179 C 
HETATM   22  N2  UNL     1       3.484  66.244 190.515  1.00  0.00    -0.293 N 
HETATM   23  C2  UNL     1       2.537  66.998 189.937  1.00  0.00     0.199 A 
ATOM     24  H2  UNL     1       4.207  66.574 191.154  1.00  0.00     0.188 HD
HETATM   25  N3  UNL     1       1.794  66.181 189.177  1.00  0.00    -0.339 N 
ATOM     26  H3  UNL     1       0.996  66.470 188.613  1.00  0.00     0.168 HD
ENDBRANCH   1  19
BRANCH  18  27
HETATM   27  C14 UNL     1       3.147  63.908 186.575  1.00  0.00    -0.034 A 
HETATM   28  C15 UNL     1       4.170  63.046 186.891  1.00  0.00     0.012 A 
HETATM   29  C16 UNL     1       5.457  63.213 186.371  1.00  0.00     0.043 A 
HETATM   30  C17 UNL     1       5.735  64.259 185.519  1.00  0.00     0.116 A 
HETATM   31  F2  UNL     1       6.990  64.406 185.024  1.00  0.00    -0.206 F 
HETATM   32  C18 UNL     1       4.710  65.123 185.202  1.00  0.00     0.043 A 
HETATM   33  C19 UNL     1       3.433  64.954 185.721  1.00  0.00     0.012 A 
ENDBRANCH  18  27
TORSDOF 2
ENDMDL
