MODEL 5
REMARK VINA RESULT: -10.340129256      2.799      4.782
REMARK  2 active torsions:
REMARK  status: ('A' for Active; 'I' for Inactive)
REMARK    1  A    between atoms: C3_8  and  C4_9 
REMARK    2  A    between atoms: C13_26  and  C14_27 
ROOT
HETATM    1  C4  UNL     1       2.195  64.276 189.094  1.00  0.00     0.134 C 
HETATM    2  C5  UNL     1       1.404  63.314 188.331  1.00  0.00     0.053 A 
HETATM    3  N4  UNL     1       1.839  62.833 187.124  1.00  0.00    -0.300 N 
ATOM      4  H4  UNL     1       2.741  63.149 186.770  1.00  0.00     0.186 HD
HETATM    5  N5  UNL     1       1.146  61.982 186.402  1.00  0.00    -0.266 N 
ATOM      6  H5  UNL     1       1.525  61.660 185.512  1.00  0.00     0.190 HD
HETATM    7  C6  UNL     1      -0.049  61.527 186.810  1.00  0.00     0.271 A 
HETATM    8  O1  UNL     1      -0.718  60.713 186.126  1.00  0.00    -0.266 OA
HETATM    9  C7  UNL     1      -0.557  61.959 188.011  1.00  0.00     0.051 A 
HETATM   10  C8  UNL     1      -1.790  61.524 188.485  1.00  0.00     0.060 A 
HETATM   11  C9  UNL     1      -2.257  61.989 189.698  1.00  0.00     0.119 A 
HETATM   12  F1  UNL     1      -3.454  61.551 190.134  1.00  0.00    -0.206 F 
HETATM   13  C10 UNL     1      -1.509  62.889 190.449  1.00  0.00     0.072 A 
HETATM   14  C11 UNL     1      -0.287  63.322 189.982  1.00  0.00     0.044 A 
HETATM   15  C12 UNL     1       0.193  62.866 188.770  1.00  0.00     0.031 A 
HETATM   16  N6  UNL     1       0.515  64.237 190.751  1.00  0.00    -0.379 N 
ATOM     17  H6  UNL     1       0.096  64.901 191.402  1.00  0.00     0.160 HD
HETATM   18  C13 UNL     1       1.975  64.163 190.551  1.00  0.00     0.132 C 
ENDROOT
BRANCH   1  19
HETATM   19  C3  UNL     1       3.615  64.322 188.680  1.00  0.00     0.111 A 
HETATM   20  N1  UNL     1       4.156  65.265 187.894  1.00  0.00    -0.283 N 
HETATM   21  C1  UNL     1       3.507  66.402 187.314  1.00  0.00     0.179 C 
HETATM   22  N2  UNL     1       5.462  65.002 187.712  1.00  0.00    -0.293 N 
HETATM   23  C2  UNL     1       5.754  63.883 188.389  1.00  0.00     0.199 A 
ATOM     24  H2  UNL     1       6.115  65.556 187.157  1.00  0.00     0.188 HD
HETATM   25  N3  UNL     1       4.622  63.473 188.978  1.00  0.00    -0.339 N 
ATOM     26  H3  UNL     1       4.533  62.644 189.565  1.00  0.00     0.168 HD
ENDBRANCH   1  19
BRANCH  18  27
HETATM   27  C14 UNL     1       2.552  65.320 191.313  1.00  0.00    -0.034 A 
HETATM   28  C15 UNL     1       2.027  66.583 191.185  1.00  0.00     0.012 A 
HETATM   29  C16 UNL     1       2.552  67.670 191.889  1.00  0.00     0.043 A 
HETATM   30  C17 UNL     1       3.622  67.501 192.739  1.00  0.00     0.116 A 
HETATM   31  F2  UNL     1       4.120  68.567 193.414  1.00  0.00    -0.206 F 
HETATM   32  C18 UNL     1       4.150  66.234 192.867  1.00  0.00     0.043 A 
HETATM   33  C19 UNL     1       3.625  65.156 192.166  1.00  0.00     0.012 A 
ENDBRANCH  18  27
TORSDOF 2
ENDMDL
