MODEL 2
REMARK VINA RESULT: -11.850168769      0.581      1.143
REMARK  2 active torsions:
REMARK  status: ('A' for Active; 'I' for Inactive)
REMARK    1  A    between atoms: C3_8  and  C4_9 
REMARK    2  A    between atoms: C13_26  and  C14_27 
ROOT
HETATM    1  C4  UNL     1       1.770  63.635 188.617  1.00  0.00     0.134 C 
HETATM    2  C5  UNL     1       0.491  63.184 189.157  1.00  0.00     0.053 A 
HETATM    3  N4  UNL     1       0.050  63.601 190.386  1.00  0.00    -0.300 N 
ATOM      4  H4  UNL     1       0.629  64.251 190.917  1.00  0.00     0.186 HD
HETATM    5  N5  UNL     1      -1.086  63.202 190.910  1.00  0.00    -0.266 N 
ATOM      6  H5  UNL     1      -1.360  63.550 191.829  1.00  0.00     0.190 HD
HETATM    7  C6  UNL     1      -1.895  62.348 190.264  1.00  0.00     0.271 A 
HETATM    8  O1  UNL     1      -2.983  61.960 190.760  1.00  0.00    -0.266 OA
HETATM    9  C7  UNL     1      -1.527  61.882 189.026  1.00  0.00     0.051 A 
HETATM   10  C8  UNL     1      -2.323  60.995 188.309  1.00  0.00     0.060 A 
HETATM   11  C9  UNL     1      -1.908  60.555 187.068  1.00  0.00     0.119 A 
HETATM   12  F1  UNL     1      -2.698  59.696 186.395  1.00  0.00    -0.206 F 
HETATM   13  C10 UNL     1      -0.702  60.990 186.528  1.00  0.00     0.072 A 
HETATM   14  C11 UNL     1       0.088  61.869 187.235  1.00  0.00     0.044 A 
HETATM   15  C12 UNL     1      -0.314  62.316 188.478  1.00  0.00     0.031 A 
HETATM   16  N6  UNL     1       1.330  62.350 186.687  1.00  0.00    -0.379 N 
ATOM     17  H6  UNL     1       1.871  61.799 186.020  1.00  0.00     0.160 HD
HETATM   18  C13 UNL     1       1.779  63.680 187.140  1.00  0.00     0.132 C 
ENDROOT
BRANCH   1  19
HETATM   19  C3  UNL     1       2.287  64.853 189.280  1.00  0.00     0.111 A 
HETATM   20  N1  UNL     1       1.805  66.091 189.095  1.00  0.00    -0.283 N 
HETATM   21  C1  UNL     1       0.714  66.492 188.258  1.00  0.00     0.179 C 
HETATM   22  N2  UNL     1       2.507  66.963 189.841  1.00  0.00    -0.293 N 
HETATM   23  C2  UNL     1       3.443  66.272 190.507  1.00  0.00     0.199 A 
ATOM     24  H2  UNL     1       2.353  67.970 189.891  1.00  0.00     0.188 HD
HETATM   25  N3  UNL     1       3.303  64.985 190.160  1.00  0.00    -0.339 N 
ATOM     26  H3  UNL     1       3.877  64.218 190.508  1.00  0.00     0.168 HD
ENDBRANCH   1  19
BRANCH  18  27
HETATM   27  C14 UNL     1       3.158  63.860 186.576  1.00  0.00    -0.034 A 
HETATM   28  C15 UNL     1       4.155  62.954 186.845  1.00  0.00     0.012 A 
HETATM   29  C16 UNL     1       5.445  63.107 186.326  1.00  0.00     0.043 A 
HETATM   30  C17 UNL     1       5.751  64.183 185.523  1.00  0.00     0.116 A 
HETATM   31  F2  UNL     1       7.007  64.316 185.029  1.00  0.00    -0.206 F 
HETATM   32  C18 UNL     1       4.751  65.092 185.253  1.00  0.00     0.043 A 
HETATM   33  C19 UNL     1       3.472  64.936 185.771  1.00  0.00     0.012 A 
ENDBRANCH  18  27
TORSDOF 2
ENDMDL
