MODEL 8
REMARK VINA RESULT: -9.828044876      3.167      5.220
REMARK  2 active torsions:
REMARK  status: ('A' for Active; 'I' for Inactive)
REMARK    1  A    between atoms: C3_8  and  C4_9 
REMARK    2  A    between atoms: C13_26  and  C14_27 
ROOT
HETATM    1  C4  UNL     1       2.435  65.506 189.061  1.00  0.00     0.134 C 
HETATM    2  C5  UNL     1       1.966  64.375 188.267  1.00  0.00     0.053 A 
HETATM    3  N4  UNL     1       2.573  64.032 187.087  1.00  0.00    -0.300 N 
ATOM      4  H4  UNL     1       3.378  64.577 186.777  1.00  0.00     0.186 HD
HETATM    5  N5  UNL     1       2.167  63.033 186.338  1.00  0.00    -0.266 N 
ATOM      6  H5  UNL     1       2.663  62.827 185.470  1.00  0.00     0.190 HD
HETATM    7  C6  UNL     1       1.115  62.276 186.688  1.00  0.00     0.271 A 
HETATM    8  O1  UNL     1       0.719  61.319 185.976  1.00  0.00    -0.266 OA
HETATM    9  C7  UNL     1       0.450  62.553 187.857  1.00  0.00     0.051 A 
HETATM   10  C8  UNL     1      -0.647  61.806 188.271  1.00  0.00     0.060 A 
HETATM   11  C9  UNL     1      -1.283  62.125 189.455  1.00  0.00     0.119 A 
HETATM   12  F1  UNL     1      -2.343  61.384 189.833  1.00  0.00    -0.206 F 
HETATM   13  C10 UNL     1      -0.837  63.185 190.236  1.00  0.00     0.072 A 
HETATM   14  C11 UNL     1       0.250  63.927 189.828  1.00  0.00     0.044 A 
HETATM   15  C12 UNL     1       0.894  63.620 188.647  1.00  0.00     0.031 A 
HETATM   16  N6  UNL     1       0.743  65.016 190.631  1.00  0.00    -0.379 N 
ATOM     17  H6  UNL     1       0.130  65.543 191.254  1.00  0.00     0.160 HD
HETATM   18  C13 UNL     1       2.179  65.331 190.506  1.00  0.00     0.132 C 
ENDROOT
BRANCH   1  19
HETATM   19  C3  UNL     1       3.813  65.927 188.720  1.00  0.00     0.111 A 
HETATM   20  N1  UNL     1       4.134  67.071 188.098  1.00  0.00    -0.283 N 
HETATM   21  C1  UNL     1       3.251  68.107 187.653  1.00  0.00     0.179 C 
HETATM   22  N2  UNL     1       5.468  67.135 187.937  1.00  0.00    -0.293 N 
HETATM   23  C2  UNL     1       5.999  66.023 188.463  1.00  0.00     0.199 A 
ATOM     24  H2  UNL     1       5.984  67.895 187.494  1.00  0.00     0.188 HD
HETATM   25  N3  UNL     1       4.982  65.290 188.940  1.00  0.00    -0.339 N 
ATOM     26  H3  UNL     1       5.078  64.385 189.401  1.00  0.00     0.168 HD
ENDBRANCH   1  19
BRANCH  18  27
HETATM   27  C14 UNL     1       2.391  66.594 191.287  1.00  0.00    -0.034 A 
HETATM   28  C15 UNL     1       1.540  67.664 191.145  1.00  0.00     0.012 A 
HETATM   29  C16 UNL     1       1.723  68.847 191.867  1.00  0.00     0.043 A 
HETATM   30  C17 UNL     1       2.774  68.972 192.749  1.00  0.00     0.116 A 
HETATM   31  F2  UNL     1       2.937  70.127 193.441  1.00  0.00    -0.206 F 
HETATM   32  C18 UNL     1       3.628  67.899 192.891  1.00  0.00     0.043 A 
HETATM   33  C19 UNL     1       3.442  66.725 192.172  1.00  0.00     0.012 A 
ENDBRANCH  18  27
TORSDOF 2
ENDMDL
