MODEL 7
REMARK VINA RESULT: -9.889677413      4.216      6.777
REMARK  2 active torsions:
REMARK  status: ('A' for Active; 'I' for Inactive)
REMARK    1  A    between atoms: C3_8  and  C4_9 
REMARK    2  A    between atoms: C13_26  and  C14_27 
ROOT
HETATM    1  C4  UNL     1       3.572  67.051 189.021  1.00  0.00     0.134 C 
HETATM    2  C5  UNL     1       3.913  67.558 190.347  1.00  0.00     0.053 A 
HETATM    3  N4  UNL     1       3.268  68.642 190.882  1.00  0.00    -0.300 N 
ATOM      4  H4  UNL     1       2.527  69.085 190.339  1.00  0.00     0.186 HD
HETATM    5  N5  UNL     1       3.560  69.137 192.063  1.00  0.00    -0.266 N 
ATOM      6  H5  UNL     1       3.043  69.946 192.406  1.00  0.00     0.190 HD
HETATM    7  C6  UNL     1       4.525  68.601 192.828  1.00  0.00     0.271 A 
HETATM    8  O1  UNL     1       4.812  69.069 193.958  1.00  0.00    -0.266 OA
HETATM    9  C7  UNL     1       5.220  67.511 192.365  1.00  0.00     0.051 A 
HETATM   10  C8  UNL     1       6.230  66.914 193.112  1.00  0.00     0.060 A 
HETATM   11  C9  UNL     1       6.900  65.820 192.602  1.00  0.00     0.119 A 
HETATM   12  F1  UNL     1       7.874  65.261 193.346  1.00  0.00    -0.206 F 
HETATM   13  C10 UNL     1       6.575  65.309 191.350  1.00  0.00     0.072 A 
HETATM   14  C11 UNL     1       5.574  65.898 190.608  1.00  0.00     0.044 A 
HETATM   15  C12 UNL     1       4.897  66.993 191.105  1.00  0.00     0.031 A 
HETATM   16  N6  UNL     1       5.206  65.374 189.319  1.00  0.00    -0.379 N 
ATOM     17  H6  UNL     1       5.874  64.873 188.732  1.00  0.00     0.160 HD
HETATM   18  C13 UNL     1       3.812  65.598 188.889  1.00  0.00     0.132 C 
ENDROOT
BRANCH   1  19
HETATM   19  C3  UNL     1       2.248  67.508 188.543  1.00  0.00     0.111 A 
HETATM   20  N1  UNL     1       2.040  68.581 187.766  1.00  0.00    -0.283 N 
HETATM   21  C1  UNL     1       3.018  69.481 187.233  1.00  0.00     0.179 C 
HETATM   22  N2  UNL     1       0.723  68.714 187.527  1.00  0.00    -0.293 N 
HETATM   23  C2  UNL     1       0.088  67.716 188.157  1.00  0.00     0.199 A 
ATOM     24  H2  UNL     1       0.286  69.445 186.965  1.00  0.00     0.188 HD
HETATM   25  N3  UNL     1       1.026  66.983 188.776  1.00  0.00    -0.339 N 
ATOM     26  H3  UNL     1       0.843  66.152 189.338  1.00  0.00     0.168 HD
ENDBRANCH   1  19
BRANCH  18  27
HETATM   27  C14 UNL     1       3.741  65.128 187.466  1.00  0.00    -0.034 A 
HETATM   28  C15 UNL     1       4.722  65.461 186.562  1.00  0.00     0.012 A 
HETATM   29  C16 UNL     1       4.671  65.029 185.234  1.00  0.00     0.043 A 
HETATM   30  C17 UNL     1       3.624  64.251 184.791  1.00  0.00     0.116 A 
HETATM   31  F2  UNL     1       3.591  63.841 183.498  1.00  0.00    -0.206 F 
HETATM   32  C18 UNL     1       2.641  63.918 185.698  1.00  0.00     0.043 A 
HETATM   33  C19 UNL     1       2.695  64.348 187.017  1.00  0.00     0.012 A 
ENDBRANCH  18  27
TORSDOF 2
ENDMDL
