MODEL 11
REMARK VINA RESULT: -7.238408133      1.573      1.906
REMARK  2 active torsions:
REMARK  status: ('A' for Active; 'I' for Inactive)
REMARK    1  A    between atoms: C2_2  and  C3_3 
REMARK    2  A    between atoms: C3_3  and  C4_4 
ROOT
HETATM    1  C4  UNL     1      41.858  33.612  55.911  1.00  0.00     0.011 A 
HETATM    2  C5  UNL     1      41.960  32.272  56.228  1.00  0.00     0.055 A 
HETATM    3  C6  UNL     1      42.537  31.814  57.398  1.00  0.00     0.049 A 
HETATM    4  N1  UNL     1      42.639  30.514  57.712  1.00  0.00    -0.323 N 
ATOM      5  H1  UNL     1      42.275  29.820  57.059  1.00  0.00     0.169 HD
HETATM    6  C7  UNL     1      43.207  30.091  58.864  1.00  0.00     0.245 A 
HETATM    7  O1  UNL     1      43.294  28.864  59.142  1.00  0.00    -0.268 OA
HETATM    8  C8  UNL     1      43.699  31.040  59.748  1.00  0.00     0.075 A 
HETATM    9  C9  UNL     1      43.595  32.391  59.425  1.00  0.00     0.021 A 
HETATM   10  C10 UNL     1      43.017  32.798  58.257  1.00  0.00     0.013 A 
HETATM   11  C11 UNL     1      42.921  34.138  57.952  1.00  0.00     0.018 A 
HETATM   12  C12 UNL     1      43.445  35.122  58.896  1.00  0.00     0.069 C 
HETATM   13  N2  UNL     1      42.348  34.504  56.793  1.00  0.00    -0.362 N 
ATOM     14  H2  UNL     1      42.280  35.497  56.573  1.00  0.00     0.165 HD
ENDROOT
BRANCH   1  15
HETATM   15  C3  UNL     1      41.226  34.052  54.633  1.00  0.00     0.057 C 
BRANCH  15  16
HETATM   16  C2  UNL     1      40.678  35.452  54.822  1.00  0.00     0.002 C 
HETATM   17  C1  UNL     1      41.347  36.450  53.936  1.00  0.00     0.005 C 
ENDBRANCH  15  16
ENDBRANCH   1  15
TORSDOF 2
ENDMDL
