MODEL 7
REMARK VINA RESULT: -7.469690473      2.503      5.093
REMARK  2 active torsions:
REMARK  status: ('A' for Active; 'I' for Inactive)
REMARK    1  A    between atoms: C2_2  and  C3_3 
REMARK    2  A    between atoms: C3_3  and  C4_4 
ROOT
HETATM    1  C4  UNL     1      42.886  30.620  57.478  1.00  0.00     0.011 A 
HETATM    2  C5  UNL     1      41.971  31.198  56.622  1.00  0.00     0.055 A 
HETATM    3  C6  UNL     1      41.819  32.567  56.490  1.00  0.00     0.049 A 
HETATM    4  N1  UNL     1      40.932  33.135  55.659  1.00  0.00    -0.323 N 
ATOM      5  H1  UNL     1      40.334  32.535  55.092  1.00  0.00     0.169 HD
HETATM    6  C7  UNL     1      40.803  34.477  55.548  1.00  0.00     0.245 A 
HETATM    7  O1  UNL     1      39.963  34.994  54.762  1.00  0.00    -0.268 OA
HETATM    8  C8  UNL     1      41.620  35.287  56.321  1.00  0.00     0.075 A 
HETATM    9  C9  UNL     1      42.543  34.700  57.185  1.00  0.00     0.021 A 
HETATM   10  C10 UNL     1      42.657  33.344  57.283  1.00  0.00     0.013 A 
HETATM   11  C11 UNL     1      43.575  32.778  58.141  1.00  0.00     0.018 A 
HETATM   12  C12 UNL     1      44.427  33.649  58.948  1.00  0.00     0.069 C 
HETATM   13  N2  UNL     1      43.661  31.439  58.213  1.00  0.00    -0.362 N 
ATOM     14  H2  UNL     1      44.342  31.026  58.851  1.00  0.00     0.165 HD
ENDROOT
BRANCH   1  15
HETATM   15  C3  UNL     1      43.008  29.137  57.582  1.00  0.00     0.057 C 
BRANCH  15  16
HETATM   16  C2  UNL     1      43.782  28.802  58.841  1.00  0.00     0.002 C 
HETATM   17  C1  UNL     1      44.137  27.354  58.924  1.00  0.00     0.005 C 
ENDBRANCH  15  16
ENDBRANCH   1  15
TORSDOF 2
ENDMDL
