MODEL 2
REMARK VINA RESULT: -8.344507601      0.751      1.090
REMARK  2 active torsions:
REMARK  status: ('A' for Active; 'I' for Inactive)
REMARK    1  A    between atoms: C2_2  and  C3_3 
REMARK    2  A    between atoms: C3_3  and  C4_4 
ROOT
HETATM    1  C4  UNL     1      42.367  33.818  57.121  1.00  0.00     0.011 A 
HETATM    2  C5  UNL     1      42.180  32.555  56.600  1.00  0.00     0.055 A 
HETATM    3  C6  UNL     1      42.577  31.402  57.252  1.00  0.00     0.049 A 
HETATM    4  N1  UNL     1      42.398  30.170  56.750  1.00  0.00    -0.323 N 
ATOM      5  H1  UNL     1      41.947  30.069  55.841  1.00  0.00     0.169 HD
HETATM    6  C7  UNL     1      42.795  29.057  57.408  1.00  0.00     0.245 A 
HETATM    7  O1  UNL     1      42.620  27.907  56.920  1.00  0.00    -0.268 OA
HETATM    8  C8  UNL     1      43.408  29.201  58.643  1.00  0.00     0.075 A 
HETATM    9  C9  UNL     1      43.595  30.479  59.167  1.00  0.00     0.021 A 
HETATM   10  C10 UNL     1      43.187  31.589  58.488  1.00  0.00     0.013 A 
HETATM   11  C11 UNL     1      43.379  32.847  59.019  1.00  0.00     0.018 A 
HETATM   12  C12 UNL     1      44.026  32.977  60.323  1.00  0.00     0.069 C 
HETATM   13  N2  UNL     1      42.966  33.918  58.324  1.00  0.00    -0.362 N 
ATOM     14  H2  UNL     1      43.111  34.846  58.722  1.00  0.00     0.165 HD
ENDROOT
BRANCH   1  15
HETATM   15  C3  UNL     1      41.919  35.030  56.375  1.00  0.00     0.057 C 
BRANCH  15  16
HETATM   16  C2  UNL     1      40.763  34.644  55.475  1.00  0.00     0.002 C 
HETATM   17  C1  UNL     1      41.049  34.913  54.034  1.00  0.00     0.005 C 
ENDBRANCH  15  16
ENDBRANCH   1  15
TORSDOF 2
ENDMDL
