MODEL 6
REMARK VINA RESULT: -7.495655870      2.718      5.152
REMARK  2 active torsions:
REMARK  status: ('A' for Active; 'I' for Inactive)
REMARK    1  A    between atoms: C2_2  and  C3_3 
REMARK    2  A    between atoms: C3_3  and  C4_4 
ROOT
HETATM    1  C4  UNL     1      42.449  31.690  57.431  1.00  0.00     0.011 A 
HETATM    2  C5  UNL     1      41.889  32.278  56.315  1.00  0.00     0.055 A 
HETATM    3  C6  UNL     1      42.103  33.600  55.969  1.00  0.00     0.049 A 
HETATM    4  N1  UNL     1      41.561  34.177  54.885  1.00  0.00    -0.323 N 
ATOM      5  H1  UNL     1      40.960  33.619  54.279  1.00  0.00     0.169 HD
HETATM    6  C7  UNL     1      41.785  35.472  54.568  1.00  0.00     0.245 A 
HETATM    7  O1  UNL     1      41.267  35.998  53.546  1.00  0.00    -0.268 OA
HETATM    8  C8  UNL     1      42.604  36.225  55.397  1.00  0.00     0.075 A 
HETATM    9  C9  UNL     1      43.168  35.628  56.523  1.00  0.00     0.021 A 
HETATM   10  C10 UNL     1      42.930  34.319  56.825  1.00  0.00     0.013 A 
HETATM   11  C11 UNL     1      43.495  33.743  57.943  1.00  0.00     0.018 A 
HETATM   12  C12 UNL     1      44.355  34.553  58.803  1.00  0.00     0.069 C 
HETATM   13  N2  UNL     1      43.239  32.453  58.211  1.00  0.00    -0.362 N 
ATOM     14  H2  UNL     1      43.659  32.032  59.040  1.00  0.00     0.165 HD
ENDROOT
BRANCH   1  15
HETATM   15  C3  UNL     1      42.186  30.258  57.757  1.00  0.00     0.057 C 
BRANCH  15  16
HETATM   16  C2  UNL     1      42.926  29.391  56.758  1.00  0.00     0.002 C 
HETATM   17  C1  UNL     1      44.018  28.595  57.393  1.00  0.00     0.005 C 
ENDBRANCH  15  16
ENDBRANCH   1  15
TORSDOF 2
ENDMDL
