MODEL 1
REMARK VINA RESULT: -8.348116854      0.000      0.000
REMARK  2 active torsions:
REMARK  status: ('A' for Active; 'I' for Inactive)
REMARK    1  A    between atoms: C2_2  and  C3_3 
REMARK    2  A    between atoms: C3_3  and  C4_4 
ROOT
HETATM    1  C4  UNL     1      42.318  33.779  57.011  1.00  0.00     0.011 A 
HETATM    2  C5  UNL     1      42.142  32.501  56.523  1.00  0.00     0.055 A 
HETATM    3  C6  UNL     1      42.547  31.369  57.207  1.00  0.00     0.049 A 
HETATM    4  N1  UNL     1      42.378  30.122  56.738  1.00  0.00    -0.323 N 
ATOM      5  H1  UNL     1      41.928  29.994  55.832  1.00  0.00     0.169 HD
HETATM    6  C7  UNL     1      42.783  29.031  57.426  1.00  0.00     0.245 A 
HETATM    7  O1  UNL     1      42.616  27.867  56.970  1.00  0.00    -0.268 OA
HETATM    8  C8  UNL     1      43.393  29.213  58.658  1.00  0.00     0.075 A 
HETATM    9  C9  UNL     1      43.570  30.506  59.148  1.00  0.00     0.021 A 
HETATM   10  C10 UNL     1      43.154  31.594  58.438  1.00  0.00     0.013 A 
HETATM   11  C11 UNL     1      43.336  32.867  58.935  1.00  0.00     0.018 A 
HETATM   12  C12 UNL     1      43.981  33.038  60.235  1.00  0.00     0.069 C 
HETATM   13  N2  UNL     1      42.915  33.916  58.210  1.00  0.00    -0.362 N 
ATOM     14  H2  UNL     1      43.053  34.856  58.583  1.00  0.00     0.165 HD
ENDROOT
BRANCH   1  15
HETATM   15  C3  UNL     1      41.862  34.967  56.232  1.00  0.00     0.057 C 
BRANCH  15  16
HETATM   16  C2  UNL     1      42.988  35.981  56.191  1.00  0.00     0.002 C 
HETATM   17  C1  UNL     1      43.993  35.674  55.131  1.00  0.00     0.005 C 
ENDBRANCH  15  16
ENDBRANCH   1  15
TORSDOF 2
ENDMDL
