MODEL 4
REMARK VINA RESULT: -7.807785285      2.223      4.872
REMARK  2 active torsions:
REMARK  status: ('A' for Active; 'I' for Inactive)
REMARK    1  A    between atoms: C2_2  and  C3_3 
REMARK    2  A    between atoms: C3_3  and  C4_4 
ROOT
HETATM    1  C4  UNL     1      42.997  31.098  58.549  1.00  0.00     0.011 A 
HETATM    2  C5  UNL     1      42.413  31.156  57.300  1.00  0.00     0.055 A 
HETATM    3  C6  UNL     1      42.220  32.339  56.611  1.00  0.00     0.049 A 
HETATM    4  N1  UNL     1      41.654  32.402  55.396  1.00  0.00    -0.323 N 
ATOM      5  H1  UNL     1      41.346  31.538  54.950  1.00  0.00     0.169 HD
HETATM    6  C7  UNL     1      41.476  33.572  54.741  1.00  0.00     0.245 A 
HETATM    7  O1  UNL     1      40.941  33.613  53.600  1.00  0.00    -0.268 OA
HETATM    8  C8  UNL     1      41.896  34.744  55.353  1.00  0.00     0.075 A 
HETATM    9  C9  UNL     1      42.485  34.682  56.614  1.00  0.00     0.021 A 
HETATM   10  C10 UNL     1      42.656  33.491  57.258  1.00  0.00     0.013 A 
HETATM   11  C11 UNL     1      43.240  33.445  58.506  1.00  0.00     0.018 A 
HETATM   12  C12 UNL     1      43.676  34.691  59.133  1.00  0.00     0.069 C 
HETATM   13  N2  UNL     1      43.392  32.256  59.111  1.00  0.00    -0.362 N 
ATOM     14  H2  UNL     1      43.824  32.229  60.035  1.00  0.00     0.165 HD
ENDROOT
BRANCH   1  15
HETATM   15  C3  UNL     1      43.182  29.794  59.250  1.00  0.00     0.057 C 
BRANCH  15  16
HETATM   16  C2  UNL     1      43.706  28.779  58.253  1.00  0.00     0.002 C 
HETATM   17  C1  UNL     1      44.077  27.485  58.899  1.00  0.00     0.005 C 
ENDBRANCH  15  16
ENDBRANCH   1  15
TORSDOF 2
ENDMDL
