MODEL 3
REMARK VINA RESULT: -8.118965998      1.469      1.726
REMARK  2 active torsions:
REMARK  status: ('A' for Active; 'I' for Inactive)
REMARK    1  A    between atoms: C2_2  and  C3_3 
REMARK    2  A    between atoms: C3_3  and  C4_4 
ROOT
HETATM    1  C4  UNL     1      41.266  34.209  55.952  1.00  0.00     0.011 A 
HETATM    2  C5  UNL     1      41.213  32.835  55.840  1.00  0.00     0.055 A 
HETATM    3  C6  UNL     1      41.972  31.983  56.622  1.00  0.00     0.049 A 
HETATM    4  N1  UNL     1      41.925  30.646  56.519  1.00  0.00    -0.323 N 
ATOM      5  H1  UNL     1      41.300  30.227  55.831  1.00  0.00     0.169 HD
HETATM    6  C7  UNL     1      42.678  29.835  57.296  1.00  0.00     0.245 A 
HETATM    7  O1  UNL     1      42.621  28.580  57.184  1.00  0.00    -0.268 OA
HETATM    8  C8  UNL     1      43.527  30.411  58.229  1.00  0.00     0.075 A 
HETATM    9  C9  UNL     1      43.578  31.800  58.338  1.00  0.00     0.021 A 
HETATM   10  C10 UNL     1      42.810  32.601  57.546  1.00  0.00     0.013 A 
HETATM   11  C11 UNL     1      42.871  33.973  57.666  1.00  0.00     0.018 A 
HETATM   12  C12 UNL     1      43.771  34.561  58.655  1.00  0.00     0.069 C 
HETATM   13  N2  UNL     1      42.101  34.732  56.869  1.00  0.00    -0.362 N 
ATOM     14  H2  UNL     1      42.152  35.747  56.962  1.00  0.00     0.165 HD
ENDROOT
BRANCH   1  15
HETATM   15  C3  UNL     1      40.423  35.082  55.083  1.00  0.00     0.057 C 
BRANCH  15  16
HETATM   16  C2  UNL     1      41.255  35.530  53.897  1.00  0.00     0.002 C 
HETATM   17  C1  UNL     1      41.541  36.996  53.924  1.00  0.00     0.005 C 
ENDBRANCH  15  16
ENDBRANCH   1  15
TORSDOF 2
ENDMDL
