MODEL 18
REMARK VINA RESULT: -8.123612433      6.652      8.818
REMARK  7 active torsions:
REMARK  status: ('A' for Active; 'I' for Inactive)
REMARK    1  A    between atoms: N5_13  and  C6_14 
REMARK    2  A    between atoms: C8_16  and  O1_17 
REMARK    3  A    between atoms: C9_19  and  C10_20 
REMARK    4  A    between atoms: C10_20  and  O2_21 
REMARK    5  A    between atoms: O2_21  and  P1_22 
REMARK    6  A    between atoms: P1_22  and  O5_25 
REMARK    7  A    between atoms: O5_25  and  P2_26 
ROOT
HETATM    1  C6  UNL     1       5.893 -57.904   3.083  1.00  0.00     0.233 C 
HETATM    2  C7  UNL     1       5.739 -56.848   2.007  1.00  0.00     0.088 C 
HETATM    3  C8  UNL     1       6.871 -55.916   2.452  1.00  0.00     0.153 C 
HETATM    4  C9  UNL     1       6.978 -56.305   3.893  1.00  0.00     0.177 C 
HETATM    5  O9  UNL     1       5.879 -57.091   4.212  1.00  0.00    -0.356 OA
ENDROOT
BRANCH   1   6
HETATM    6  N5  UNL     1       4.923 -58.916   3.062  1.00  0.00    -0.300 N 
HETATM    7  C3  UNL     1       4.527 -59.678   4.116  1.00  0.00     0.142 A 
HETATM    8  N3  UNL     1       4.909 -59.700   5.404  1.00  0.00    -0.336 N 
HETATM    9  C4  UNL     1       3.541 -60.575   3.693  1.00  0.00     0.119 A 
HETATM   10  C2  UNL     1       4.370 -60.555   6.286  1.00  0.00     0.183 A 
ATOM     11  H3  UNL     1       5.627 -59.048   5.720  1.00  0.00     0.168 HD
HETATM   12  N2  UNL     1       3.425 -61.405   5.849  1.00  0.00    -0.339 N 
HETATM   13  C1  UNL     1       2.971 -61.465   4.585  1.00  0.00     0.148 A 
ATOM     14  H2  UNL     1       3.022 -62.053   6.526  1.00  0.00     0.167 HD
HETATM   15  N1  UNL     1       1.972 -62.372   4.152  1.00  0.00    -0.080 NA
HETATM   16  N4  UNL     1       3.361 -60.339   2.402  1.00  0.00    -0.346 N 
HETATM   17  C5  UNL     1       4.189 -59.347   2.029  1.00  0.00     0.188 A 
ATOM     18  H4  UNL     1       2.706 -60.828   1.793  1.00  0.00     0.167 HD
ENDBRANCH   1   6
BRANCH   3  19
HETATM   19  O1  UNL     1       8.037 -56.241   1.758  1.00  0.00    -0.393 OA
ATOM     20  H1  UNL     1       8.731 -56.431   2.378  1.00  0.00     0.210 HD
ENDBRANCH   3  19
BRANCH   4  21
HETATM   21  C10 UNL     1       7.041 -55.038   4.687  1.00  0.00     0.216 C 
BRANCH  21  22
HETATM   22  O2  UNL     1       6.565 -55.416   5.854  1.00  0.00    -0.287 OA
BRANCH  22  23
HETATM   23  P1  UNL     1       7.485 -55.323   7.248  1.00  0.00     0.418 P 
HETATM   24  O3  UNL     1       6.963 -56.255   8.528  1.00  0.00    -0.624 OA
HETATM   25  O4  UNL     1       8.343 -53.992   7.656  1.00  0.00    -0.624 OA
BRANCH  23  26
HETATM   26  O5  UNL     1       6.264 -54.520   7.344  1.00  0.00    -0.173 OA
BRANCH  26  27
HETATM   27  P2  UNL     1       4.841 -54.367   7.679  1.00  0.00     0.431 P 
HETATM   28  O6  UNL     1       5.677 -54.653   9.027  1.00  0.00    -0.616 OA
HETATM   29  O7  UNL     1       3.615 -53.740   8.348  1.00  0.00    -0.616 OA
HETATM   30  O8  UNL     1       5.234 -52.970   6.785  1.00  0.00    -0.616 OA
ENDBRANCH  26  27
ENDBRANCH  23  26
ENDBRANCH  22  23
ENDBRANCH  21  22
ENDBRANCH   4  21
TORSDOF 7
ENDMDL
