MODEL 17
REMARK VINA RESULT: -8.138090958      6.790      9.044
REMARK  7 active torsions:
REMARK  status: ('A' for Active; 'I' for Inactive)
REMARK    1  A    between atoms: N5_13  and  C6_14 
REMARK    2  A    between atoms: C8_16  and  O1_17 
REMARK    3  A    between atoms: C9_19  and  C10_20 
REMARK    4  A    between atoms: C10_20  and  O2_21 
REMARK    5  A    between atoms: O2_21  and  P1_22 
REMARK    6  A    between atoms: P1_22  and  O5_25 
REMARK    7  A    between atoms: O5_25  and  P2_26 
ROOT
HETATM    1  C6  UNL     1       5.794 -57.931   2.865  1.00  0.00     0.233 C 
HETATM    2  C7  UNL     1       5.669 -56.996   1.679  1.00  0.00     0.088 C 
HETATM    3  C8  UNL     1       6.769 -56.003   2.069  1.00  0.00     0.153 C 
HETATM    4  C9  UNL     1       6.821 -56.238   3.546  1.00  0.00     0.177 C 
HETATM    5  O9  UNL     1       5.722 -57.006   3.901  1.00  0.00    -0.356 OA
ENDROOT
BRANCH   1   6
HETATM    6  N5  UNL     1       4.840 -58.958   2.911  1.00  0.00    -0.300 N 
HETATM    7  C3  UNL     1       4.489 -59.687   4.003  1.00  0.00     0.142 A 
HETATM    8  N3  UNL     1       4.911 -59.657   5.278  1.00  0.00    -0.336 N 
HETATM    9  C4  UNL     1       3.504 -60.613   3.644  1.00  0.00     0.119 A 
HETATM   10  C2  UNL     1       4.415 -60.488   6.207  1.00  0.00     0.183 A 
ATOM     11  H3  UNL     1       5.629 -58.984   5.547  1.00  0.00     0.168 HD
HETATM   12  N2  UNL     1       3.469 -61.367   5.831  1.00  0.00    -0.339 N 
HETATM   13  C1  UNL     1       2.977 -61.478   4.586  1.00  0.00     0.148 A 
ATOM     14  H2  UNL     1       3.098 -61.996   6.544  1.00  0.00     0.167 HD
HETATM   15  N1  UNL     1       1.979 -62.415   4.217  1.00  0.00    -0.080 NA
HETATM   16  N4  UNL     1       3.280 -60.426   2.353  1.00  0.00    -0.346 N 
HETATM   17  C5  UNL     1       4.080 -59.436   1.918  1.00  0.00     0.188 A 
ATOM     18  H4  UNL     1       2.613 -60.947   1.782  1.00  0.00     0.167 HD
ENDBRANCH   1   6
BRANCH   3  19
HETATM   19  O1  UNL     1       7.967 -56.377   1.460  1.00  0.00    -0.393 OA
ATOM     20  H1  UNL     1       8.672 -55.830   1.788  1.00  0.00     0.210 HD
ENDBRANCH   3  19
BRANCH   4  21
HETATM   21  C10 UNL     1       6.834 -54.895   4.206  1.00  0.00     0.216 C 
BRANCH  21  22
HETATM   22  O2  UNL     1       6.581 -55.198   5.461  1.00  0.00    -0.287 OA
BRANCH  22  23
HETATM   23  P1  UNL     1       5.491 -54.317   6.373  1.00  0.00     0.418 P 
HETATM   24  O3  UNL     1       5.880 -52.714   6.624  1.00  0.00    -0.624 OA
HETATM   25  O4  UNL     1       4.544 -54.994   7.521  1.00  0.00    -0.624 OA
BRANCH  23  26
HETATM   26  O5  UNL     1       6.662 -54.716   7.156  1.00  0.00    -0.173 OA
BRANCH  26  27
HETATM   27  P2  UNL     1       7.849 -55.556   7.367  1.00  0.00     0.431 P 
HETATM   28  O6  UNL     1       8.295 -54.009   7.320  1.00  0.00    -0.616 OA
HETATM   29  O7  UNL     1       9.083 -56.085   8.104  1.00  0.00    -0.616 OA
HETATM   30  O8  UNL     1       6.755 -56.028   8.586  1.00  0.00    -0.616 OA
ENDBRANCH  26  27
ENDBRANCH  23  26
ENDBRANCH  22  23
ENDBRANCH  21  22
ENDBRANCH   4  21
TORSDOF 7
ENDMDL
