MODEL 5
REMARK VINA RESULT: -8.576223978      1.311      2.386
REMARK  8 active torsions:
REMARK  status: ('A' for Active; 'I' for Inactive)
REMARK    1  A    between atoms: N5_13  and  C6_14 
REMARK    2  A    between atoms: C7_16  and  C8_17 
REMARK    3  A    between atoms: C8_17  and  O2_18 
REMARK    4  A    between atoms: O2_18  and  P1_19 
REMARK    5  A    between atoms: P1_19  and  O5_22 
REMARK    6  A    between atoms: O5_22  and  P2_23 
REMARK    7  A    between atoms: C9_27  and  O9_28 
REMARK    8  A    between atoms: C10_30  and  O10_31 
ROOT
HETATM    1  C6  UNL     1       9.081 -13.894   5.536  1.00  0.00     0.262 C 
HETATM    2  O1  UNL     1       9.698 -14.579   4.489  1.00  0.00    -0.353 OA
HETATM    3  C7  UNL     1      10.728 -15.224   5.171  1.00  0.00     0.180 C 
HETATM    4  C9  UNL     1      10.107 -15.814   6.409  1.00  0.00     0.182 C 
HETATM    5  C10 UNL     1       8.798 -15.019   6.505  1.00  0.00     0.198 C 
ENDROOT
BRANCH   1   6
HETATM    6  N5  UNL     1       7.898 -13.192   5.126  1.00  0.00    -0.297 N 
HETATM    7  C3  UNL     1       7.364 -12.168   5.824  1.00  0.00     0.142 A 
HETATM    8  N3  UNL     1       7.745 -11.574   6.981  1.00  0.00    -0.336 N 
HETATM    9  C4  UNL     1       6.239 -11.708   5.173  1.00  0.00     0.119 A 
HETATM   10  C2  UNL     1       7.065 -10.547   7.525  1.00  0.00     0.183 A 
ATOM     11  H3  UNL     1       8.578 -11.919   7.458  1.00  0.00     0.168 HD
HETATM   12  N2  UNL     1       5.981 -10.106   6.896  1.00  0.00    -0.339 N 
HETATM   13  C1  UNL     1       5.555 -10.661   5.737  1.00  0.00     0.148 A 
ATOM     14  H2  UNL     1       5.455  -9.329   7.297  1.00  0.00     0.167 HD
HETATM   15  N1  UNL     1       4.409 -10.162   5.110  1.00  0.00    -0.080 NA
HETATM   16  N4  UNL     1       6.120 -12.479   4.078  1.00  0.00    -0.346 N 
HETATM   17  C5  UNL     1       7.127 -13.371   4.061  1.00  0.00     0.188 A 
ATOM     18  H4  UNL     1       5.385 -12.400   3.375  1.00  0.00     0.167 HD
ENDBRANCH   1   6
BRANCH   5  19
HETATM   19  O10 UNL     1       8.565 -14.590   7.790  1.00  0.00    -0.388 OA
ATOM     20  H10 UNL     1       9.280 -14.085   8.157  1.00  0.00     0.210 HD
ENDBRANCH   5  19
BRANCH   3  21
HETATM   21  C8  UNL     1      11.411 -16.264   4.314  1.00  0.00     0.216 C 
BRANCH  21  22
HETATM   22  O2  UNL     1      10.464 -17.132   3.867  1.00  0.00    -0.287 OA
BRANCH  22  23
HETATM   23  P1  UNL     1      10.917 -18.667   3.526  1.00  0.00     0.418 P 
HETATM   24  O3  UNL     1      10.142 -18.720   2.211  1.00  0.00    -0.624 OA
HETATM   25  O4  UNL     1      12.359 -18.872   2.615  1.00  0.00    -0.624 OA
BRANCH  23  26
HETATM   26  O5  UNL     1      10.189 -19.948   4.173  1.00  0.00    -0.173 OA
BRANCH  26  27
HETATM   27  P2  UNL     1       9.901 -19.979   5.793  1.00  0.00     0.431 P 
HETATM   28  O6  UNL     1       8.807 -18.990   6.455  1.00  0.00    -0.616 OA
HETATM   29  O7  UNL     1      10.932 -20.889   6.776  1.00  0.00    -0.616 OA
HETATM   30  O8  UNL     1       9.012 -21.215   5.644  1.00  0.00    -0.616 OA
ENDBRANCH  26  27
ENDBRANCH  23  26
ENDBRANCH  22  23
ENDBRANCH  21  22
ENDBRANCH   3  21
BRANCH   4  31
HETATM   31  O9  UNL     1      10.845 -15.465   7.549  1.00  0.00    -0.390 OA
ATOM     32  H9  UNL     1      10.910 -14.521   7.630  1.00  0.00     0.210 HD
ENDBRANCH   4  31
TORSDOF 8
ENDMDL
