MODEL 1
REMARK VINA RESULT: -4.456711839      0.000      0.000
REMARK  1 active torsions:
REMARK  status: ('A' for Active; 'I' for Inactive)
REMARK    1  A    between atoms: O1_2  and  C2_3 
ROOT
HETATM    1  C2  UNL     1     -23.250  11.974  -4.524  1.00  0.00     0.069 A 
HETATM    2  C3  UNL     1     -22.244  12.909  -4.634  1.00  0.00     0.039 A 
HETATM    3  C4  UNL     1     -20.929  12.554  -4.713  1.00  0.00     0.034 A 
HETATM    4  C5  UNL     1     -20.522  11.217  -4.686  1.00  0.00     0.051 A 
HETATM    5  N1  UNL     1     -19.300  10.779  -4.754  1.00  0.00    -0.338 N 
ATOM      6  H1  UNL     1     -18.532  11.445  -4.836  1.00  0.00     0.167 HD
HETATM    7  C6  UNL     1     -19.042   9.497  -4.721  1.00  0.00     0.159 A 
HETATM    8  N2  UNL     1     -17.770   8.812  -4.782  1.00  0.00    -0.074 NA
HETATM    9  S1  UNL     1     -20.620   8.825  -4.581  1.00  0.00    -0.055 SA
HETATM   10  C7  UNL     1     -21.520  10.282  -4.577  1.00  0.00     0.037 A 
HETATM   11  C8  UNL     1     -22.871  10.646  -4.497  1.00  0.00     0.058 A 
ENDROOT
BRANCH   1  12
HETATM   12  O1  UNL     1     -24.578  12.353  -4.446  1.00  0.00    -0.356 OA
HETATM   13  C1  UNL     1     -24.948  13.719  -4.457  1.00  0.00     0.210 C 
ENDBRANCH   1  12
TORSDOF 1
ENDMDL
