MODEL 6
REMARK VINA RESULT: -4.282765375      0.972      1.062
REMARK  1 active torsions:
REMARK  status: ('A' for Active; 'I' for Inactive)
REMARK    1  A    between atoms: O1_2  and  C2_3 
ROOT
HETATM    1  C2  UNL     1     -23.539  11.360  -4.716  1.00  0.00     0.069 A 
HETATM    2  C3  UNL     1     -22.661  12.421  -4.679  1.00  0.00     0.039 A 
HETATM    3  C4  UNL     1     -21.307  12.243  -4.676  1.00  0.00     0.034 A 
HETATM    4  C5  UNL     1     -20.730  10.970  -4.709  1.00  0.00     0.051 A 
HETATM    5  N1  UNL     1     -19.459  10.698  -4.708  1.00  0.00    -0.338 N 
ATOM      6  H1  UNL     1     -18.782  11.460  -4.680  1.00  0.00     0.167 HD
HETATM    7  C6  UNL     1     -19.036   9.461  -4.741  1.00  0.00     0.159 A 
HETATM    8  N2  UNL     1     -17.683   8.950  -4.746  1.00  0.00    -0.074 NA
HETATM    9  S1  UNL     1     -20.517   8.585  -4.777  1.00  0.00    -0.055 SA
HETATM   10  C7  UNL     1     -21.600   9.911  -4.745  1.00  0.00     0.037 A 
HETATM   11  C8  UNL     1     -22.990  10.093  -4.750  1.00  0.00     0.058 A 
ENDROOT
BRANCH   1  12
HETATM   12  O1  UNL     1     -24.907  11.560  -4.720  1.00  0.00    -0.356 OA
HETATM   13  C1  UNL     1     -25.791  10.558  -4.255  1.00  0.00     0.210 C 
ENDBRANCH   1  12
TORSDOF 1
ENDMDL
