MODEL 2
REMARK VINA RESULT: -4.403504229      3.540      5.032
REMARK  1 active torsions:
REMARK  status: ('A' for Active; 'I' for Inactive)
REMARK    1  A    between atoms: O1_2  and  C2_3 
ROOT
HETATM    1  C2  UNL     1     -20.794  11.411  -4.798  1.00  0.00     0.069 A 
HETATM    2  C3  UNL     1     -20.994  12.761  -4.615  1.00  0.00     0.039 A 
HETATM    3  C4  UNL     1     -22.234  13.290  -4.403  1.00  0.00     0.034 A 
HETATM    4  C5  UNL     1     -23.380  12.489  -4.359  1.00  0.00     0.051 A 
HETATM    5  N1  UNL     1     -24.599  12.895  -4.164  1.00  0.00    -0.338 N 
ATOM      6  H1  UNL     1     -24.782  13.889  -4.026  1.00  0.00     0.167 HD
HETATM    7  C6  UNL     1     -25.595  12.047  -4.143  1.00  0.00     0.159 A 
HETATM    8  N2  UNL     1     -27.007  12.289  -3.944  1.00  0.00    -0.074 NA
HETATM    9  S1  UNL     1     -24.788  10.551  -4.416  1.00  0.00    -0.055 SA
HETATM   10  C7  UNL     1     -23.186  11.143  -4.540  1.00  0.00     0.037 A 
HETATM   11  C8  UNL     1     -21.913  10.601  -4.757  1.00  0.00     0.058 A 
ENDROOT
BRANCH   1  12
HETATM   12  O1  UNL     1     -19.530  10.894  -5.010  1.00  0.00    -0.356 OA
HETATM   13  C1  UNL     1     -18.906  10.071  -4.043  1.00  0.00     0.210 C 
ENDBRANCH   1  12
TORSDOF 1
ENDMDL
