MODEL 9
REMARK VINA RESULT: -3.982175623      1.323      1.507
REMARK  1 active torsions:
REMARK  status: ('A' for Active; 'I' for Inactive)
REMARK    1  A    between atoms: O1_2  and  C2_3 
ROOT
HETATM    1  C2  UNL     1     -24.560  11.520  -4.669  1.00  0.00     0.069 A 
HETATM    2  C3  UNL     1     -23.884  12.720  -4.682  1.00  0.00     0.039 A 
HETATM    3  C4  UNL     1     -22.521  12.786  -4.682  1.00  0.00     0.034 A 
HETATM    4  C5  UNL     1     -21.726  11.635  -4.668  1.00  0.00     0.051 A 
HETATM    5  N1  UNL     1     -20.428  11.593  -4.667  1.00  0.00    -0.338 N 
ATOM      6  H1  UNL     1     -19.897  12.464  -4.675  1.00  0.00     0.167 HD
HETATM    7  C6  UNL     1     -19.791  10.451  -4.654  1.00  0.00     0.159 A 
HETATM    8  N2  UNL     1     -18.369  10.188  -4.650  1.00  0.00    -0.074 NA
HETATM    9  S1  UNL     1     -21.094   9.325  -4.643  1.00  0.00    -0.055 SA
HETATM   10  C7  UNL     1     -22.395  10.438  -4.656  1.00  0.00     0.037 A 
HETATM   11  C8  UNL     1     -23.795  10.370  -4.656  1.00  0.00     0.058 A 
ENDROOT
BRANCH   1  12
HETATM   12  O1  UNL     1     -25.942  11.474  -4.670  1.00  0.00    -0.356 OA
HETATM   13  C1  UNL     1     -26.687  11.972  -5.765  1.00  0.00     0.210 C 
ENDBRANCH   1  12
TORSDOF 1
ENDMDL
