MODEL 3
REMARK VINA RESULT: -4.391319643      3.466      5.231
REMARK  1 active torsions:
REMARK  status: ('A' for Active; 'I' for Inactive)
REMARK    1  A    between atoms: O1_2  and  C2_3 
ROOT
HETATM    1  C2  UNL     1     -20.056  10.525  -4.697  1.00  0.00     0.069 A 
HETATM    2  C3  UNL     1     -20.802   9.368  -4.653  1.00  0.00     0.039 A 
HETATM    3  C4  UNL     1     -22.166   9.385  -4.595  1.00  0.00     0.034 A 
HETATM    4  C5  UNL     1     -22.889  10.581  -4.577  1.00  0.00     0.051 A 
HETATM    5  N1  UNL     1     -24.182  10.702  -4.522  1.00  0.00    -0.338 N 
ATOM      6  H1  UNL     1     -24.763   9.864  -4.487  1.00  0.00     0.167 HD
HETATM    7  C6  UNL     1     -24.748  11.881  -4.511  1.00  0.00     0.159 A 
HETATM    8  N2  UNL     1     -26.150  12.229  -4.454  1.00  0.00    -0.074 NA
HETATM    9  S1  UNL     1     -23.382  12.926  -4.581  1.00  0.00    -0.055 SA
HETATM   10  C7  UNL     1     -22.151  11.736  -4.621  1.00  0.00     0.037 A 
HETATM   11  C8  UNL     1     -20.751  11.719  -4.681  1.00  0.00     0.058 A 
ENDROOT
BRANCH   1  12
HETATM   12  O1  UNL     1     -18.676  10.488  -4.757  1.00  0.00    -0.356 OA
HETATM   13  C1  UNL     1     -17.982   9.257  -4.830  1.00  0.00     0.210 C 
ENDBRANCH   1  12
TORSDOF 1
ENDMDL
