MODEL 5
REMARK VINA RESULT: -4.354419415      3.344      4.804
REMARK  1 active torsions:
REMARK  status: ('A' for Active; 'I' for Inactive)
REMARK    1  A    between atoms: O1_2  and  C2_3 
ROOT
HETATM    1  C2  UNL     1     -20.162  10.759  -4.725  1.00  0.00     0.069 A 
HETATM    2  C3  UNL     1     -20.710  12.023  -4.740  1.00  0.00     0.039 A 
HETATM    3  C4  UNL     1     -22.059  12.229  -4.719  1.00  0.00     0.034 A 
HETATM    4  C5  UNL     1     -22.968  11.167  -4.681  1.00  0.00     0.051 A 
HETATM    5  N1  UNL     1     -24.264  11.260  -4.660  1.00  0.00    -0.338 N 
ATOM      6  H1  UNL     1     -24.702  12.181  -4.670  1.00  0.00     0.167 HD
HETATM    7  C6  UNL     1     -25.015  10.190  -4.624  1.00  0.00     0.159 A 
HETATM    8  N2  UNL     1     -26.456  10.076  -4.596  1.00  0.00    -0.074 NA
HETATM    9  S1  UNL     1     -23.836   8.935  -4.621  1.00  0.00    -0.055 SA
HETATM   10  C7  UNL     1     -22.427   9.907  -4.666  1.00  0.00     0.037 A 
HETATM   11  C8  UNL     1     -21.042   9.695  -4.687  1.00  0.00     0.058 A 
ENDROOT
BRANCH   1  12
HETATM   12  O1  UNL     1     -18.792  10.569  -4.746  1.00  0.00    -0.356 OA
HETATM   13  C1  UNL     1     -18.236   9.269  -4.713  1.00  0.00     0.210 C 
ENDBRANCH   1  12
TORSDOF 1
ENDMDL
