MODEL 5
REMARK VINA RESULT: -6.398966827      3.285      5.653
REMARK  2 active torsions:
REMARK  status: ('A' for Active; 'I' for Inactive)
REMARK    1  A    between atoms: C4_5  and  C5_6 
REMARK    2  A    between atoms: C5_6  and  N1_7 
ROOT
HETATM    1 BR1  UNL     1      45.139  37.614  76.246  1.00  0.00    -0.051 Br
HETATM    2  C1  UNL     1      45.115  39.278  77.185  1.00  0.00     0.011 A 
HETATM    3  C2  UNL     1      45.833  39.413  78.355  1.00  0.00     0.019 A 
HETATM    4  C3  UNL     1      45.832  40.618  79.060  1.00  0.00     0.010 A 
HETATM    5  C4  UNL     1      45.124  41.704  78.623  1.00  0.00    -0.030 A 
HETATM    6  C10 UNL     1      44.403  41.558  77.442  1.00  0.00     0.010 A 
HETATM    7  C11 UNL     1      44.399  40.369  76.740  1.00  0.00     0.019 A 
ENDROOT
BRANCH   5   8
HETATM    8  C5  UNL     1      45.062  43.022  79.292  1.00  0.00     0.311 C 
BRANCH   8   9
HETATM    9  N1  UNL     1      44.106  43.094  80.353  1.00  0.00     0.092 N 
HETATM   10  C6  UNL     1      44.672  43.738  81.495  1.00  0.00     0.273 C 
HETATM   11  C7  UNL     1      43.688  44.763  82.004  1.00  0.00     0.032 C 
HETATM   12  C8  UNL     1      42.865  45.063  80.755  1.00  0.00     0.032 C 
HETATM   13  C9  UNL     1      42.902  43.768  79.967  1.00  0.00     0.273 C 
ENDBRANCH   8   9
ENDBRANCH   5   8
TORSDOF 2
ENDMDL
