MODEL 18
REMARK VINA RESULT: -5.416963117      2.803      3.910
REMARK  2 active torsions:
REMARK  status: ('A' for Active; 'I' for Inactive)
REMARK    1  A    between atoms: C4_5  and  C5_6 
REMARK    2  A    between atoms: C5_6  and  N1_7 
ROOT
HETATM    1 BR1  UNL     1      42.863  44.684  80.752  1.00  0.00    -0.051 Br
HETATM    2  C1  UNL     1      44.097  43.405  80.054  1.00  0.00     0.011 A 
HETATM    3  C2  UNL     1      43.922  42.911  78.778  1.00  0.00     0.019 A 
HETATM    4  C3  UNL     1      44.810  41.975  78.244  1.00  0.00     0.010 A 
HETATM    5  C4  UNL     1      45.881  41.514  78.958  1.00  0.00    -0.030 A 
HETATM    6  C10 UNL     1      46.050  42.018  80.245  1.00  0.00     0.010 A 
HETATM    7  C11 UNL     1      45.176  42.943  80.779  1.00  0.00     0.019 A 
ENDROOT
BRANCH   5   8
HETATM    8  C5  UNL     1      46.879  40.531  78.484  1.00  0.00     0.311 C 
BRANCH   8   9
HETATM    9  N1  UNL     1      47.306  39.602  79.484  1.00  0.00     0.092 N 
HETATM   10  C6  UNL     1      46.609  38.363  79.348  1.00  0.00     0.273 C 
HETATM   11  C7  UNL     1      47.611  37.238  79.430  1.00  0.00     0.032 C 
HETATM   12  C8  UNL     1      48.903  37.929  79.005  1.00  0.00     0.032 C 
HETATM   13  C9  UNL     1      48.719  39.367  79.453  1.00  0.00     0.273 C 
ENDBRANCH   8   9
ENDBRANCH   5   8
TORSDOF 2
ENDMDL
