MODEL 3
REMARK VINA RESULT: -6.511082464      3.128      5.653
REMARK  2 active torsions:
REMARK  status: ('A' for Active; 'I' for Inactive)
REMARK    1  A    between atoms: C4_5  and  C5_6 
REMARK    2  A    between atoms: C5_6  and  N1_7 
ROOT
HETATM    1 BR1  UNL     1      44.603  38.875  74.519  1.00  0.00    -0.051 Br
HETATM    2  C1  UNL     1      44.794  40.173  75.907  1.00  0.00     0.011 A 
HETATM    3  C2  UNL     1      45.005  39.759  77.206  1.00  0.00     0.019 A 
HETATM    4  C3  UNL     1      45.148  40.687  78.239  1.00  0.00     0.010 A 
HETATM    5  C4  UNL     1      45.085  42.034  78.008  1.00  0.00    -0.030 A 
HETATM    6  C10 UNL     1      44.872  42.442  76.694  1.00  0.00     0.010 A 
HETATM    7  C11 UNL     1      44.729  41.529  75.668  1.00  0.00     0.019 A 
ENDROOT
BRANCH   5   8
HETATM    8  C5  UNL     1      45.228  43.094  79.027  1.00  0.00     0.311 C 
BRANCH   8   9
HETATM    9  N1  UNL     1      44.287  43.004  80.101  1.00  0.00     0.092 N 
HETATM   10  C6  UNL     1      44.807  43.625  81.277  1.00  0.00     0.273 C 
HETATM   11  C7  UNL     1      43.736  44.513  81.863  1.00  0.00     0.032 C 
HETATM   12  C8  UNL     1      42.867  44.811  80.645  1.00  0.00     0.032 C 
HETATM   13  C9  UNL     1      43.017  43.580  79.772  1.00  0.00     0.273 C 
ENDBRANCH   8   9
ENDBRANCH   5   8
TORSDOF 2
ENDMDL
