MODEL 2
REMARK VINA RESULT: -6.572403088      3.113      5.733
REMARK  2 active torsions:
REMARK  status: ('A' for Active; 'I' for Inactive)
REMARK    1  A    between atoms: C4_5  and  C5_6 
REMARK    2  A    between atoms: C5_6  and  N1_7 
ROOT
HETATM    1 BR1  UNL     1      44.473  38.890  74.522  1.00  0.00    -0.051 Br
HETATM    2  C1  UNL     1      44.730  40.173  75.914  1.00  0.00     0.011 A 
HETATM    3  C2  UNL     1      44.718  41.519  75.613  1.00  0.00     0.019 A 
HETATM    4  C3  UNL     1      44.904  42.477  76.612  1.00  0.00     0.010 A 
HETATM    5  C4  UNL     1      45.103  42.122  77.918  1.00  0.00    -0.030 A 
HETATM    6  C10 UNL     1      45.113  40.762  78.211  1.00  0.00     0.010 A 
HETATM    7  C11 UNL     1      44.931  39.809  77.229  1.00  0.00     0.019 A 
ENDROOT
BRANCH   5   8
HETATM    8  C5  UNL     1      45.304  43.056  79.047  1.00  0.00     0.311 C 
BRANCH   8   9
HETATM    9  N1  UNL     1      44.311  42.956  80.072  1.00  0.00     0.092 N 
HETATM   10  C6  UNL     1      44.790  43.524  81.291  1.00  0.00     0.273 C 
HETATM   11  C7  UNL     1      43.716  44.421  81.857  1.00  0.00     0.032 C 
HETATM   12  C8  UNL     1      42.914  44.783  80.611  1.00  0.00     0.032 C 
HETATM   13  C9  UNL     1      43.073  43.577  79.704  1.00  0.00     0.273 C 
ENDBRANCH   8   9
ENDBRANCH   5   8
TORSDOF 2
ENDMDL
