MODEL 2
REMARK VINA RESULT: -7.062255011      2.775      5.820
REMARK  3 active torsions:
REMARK  status: ('A' for Active; 'I' for Inactive)
REMARK    1  A    between atoms: C4_5  and  S1_6 
REMARK    2  A    between atoms: S1_6  and  N2_9 
REMARK       I    between atoms: N2_9  and  C5_11 
REMARK    3  A    between atoms: C5_11  and  C6_13 
ROOT
HETATM    1  S1  UNL     1      53.096  39.518  63.851  1.00  0.00     0.265 S 
HETATM    2  O1  UNL     1      52.646  40.132  62.540  1.00  0.00    -0.200 OA
HETATM    3  O2  UNL     1      52.805  38.032  63.787  1.00  0.00    -0.200 OA
ENDROOT
BRANCH   1   4
HETATM    4  C4  UNL     1      52.191  40.299  65.136  1.00  0.00     0.080 A 
HETATM    5  C3  UNL     1      51.541  39.526  66.096  1.00  0.00     0.027 A 
HETATM    6  C2  UNL     1      50.818  40.093  67.117  1.00  0.00     0.028 A 
HETATM    7  C1  UNL     1      50.702  41.487  67.239  1.00  0.00     0.046 A 
HETATM    8  N1  UNL     1      49.946  42.035  68.309  1.00  0.00    -0.102 NA
HETATM    9  C10 UNL     1      51.346  42.247  66.288  1.00  0.00     0.028 A 
HETATM   10  C9  UNL     1      52.076  41.659  65.256  1.00  0.00     0.027 A 
ENDBRANCH   1   4
BRANCH   1  11
HETATM   11  N2  UNL     1      54.786  39.733  64.080  1.00  0.00    -0.249 N 
HETATM   12  C5  UNL     1      55.812  39.088  63.359  1.00  0.00     0.242 C 
HETATM   13  O3  UNL     1      55.462  38.286  62.464  1.00  0.00    -0.271 OA
ATOM     14  H2  UNL     1      55.074  40.389  64.806  1.00  0.00     0.182 HD
BRANCH  12  15
HETATM   15  C6  UNL     1      57.261  39.329  63.626  1.00  0.00     0.123 A 
HETATM   16  C7  UNL     1      57.618  39.251  65.089  1.00  0.00    -0.012 A 
HETATM   17  C8  UNL     1      57.685  40.481  64.423  1.00  0.00    -0.012 A 
ENDBRANCH  12  15
ENDBRANCH   1  11
TORSDOF 3
ENDMDL
