MODEL 1
REMARK VINA RESULT: -7.143438850      0.000      0.000
REMARK  3 active torsions:
REMARK  status: ('A' for Active; 'I' for Inactive)
REMARK    1  A    between atoms: C4_5  and  S1_6 
REMARK    2  A    between atoms: S1_6  and  N2_9 
REMARK       I    between atoms: N2_9  and  C5_11 
REMARK    3  A    between atoms: C5_11  and  C6_13 
ROOT
HETATM    1  S1  UNL     1      52.976  40.637  65.672  1.00  0.00     0.265 S 
HETATM    2  O1  UNL     1      53.310  41.183  67.047  1.00  0.00    -0.200 OA
HETATM    3  O2  UNL     1      52.061  39.445  65.859  1.00  0.00    -0.200 OA
ENDROOT
BRANCH   1   4
HETATM    4  C4  UNL     1      54.489  40.177  64.909  1.00  0.00     0.080 A 
HETATM    5  C3  UNL     1      54.474  39.529  63.675  1.00  0.00     0.027 A 
HETATM    6  C2  UNL     1      55.632  39.147  63.043  1.00  0.00     0.028 A 
HETATM    7  C1  UNL     1      56.890  39.395  63.616  1.00  0.00     0.046 A 
HETATM    8  N1  UNL     1      58.063  38.985  62.930  1.00  0.00    -0.102 NA
HETATM    9  C10 UNL     1      56.899  40.035  64.835  1.00  0.00     0.028 A 
HETATM   10  C9  UNL     1      55.717  40.417  65.467  1.00  0.00     0.027 A 
ENDBRANCH   1   4
BRANCH   1  11
HETATM   11  N2  UNL     1      52.153  41.814  64.729  1.00  0.00    -0.249 N 
HETATM   12  C5  UNL     1      51.400  41.567  63.563  1.00  0.00     0.242 C 
HETATM   13  O3  UNL     1      51.319  40.379  63.178  1.00  0.00    -0.271 OA
ATOM     14  H2  UNL     1      52.214  42.784  65.043  1.00  0.00     0.182 HD
BRANCH  12  15
HETATM   15  C6  UNL     1      50.718  42.653  62.797  1.00  0.00     0.123 A 
HETATM   16  C7  UNL     1      51.151  42.727  61.354  1.00  0.00    -0.012 A 
HETATM   17  C8  UNL     1      51.492  43.761  62.236  1.00  0.00    -0.012 A 
ENDBRANCH  12  15
ENDBRANCH   1  11
TORSDOF 3
ENDMDL
