MODEL 6
REMARK VINA RESULT: -6.825843152      3.088      5.536
REMARK  3 active torsions:
REMARK  status: ('A' for Active; 'I' for Inactive)
REMARK    1  A    between atoms: C4_5  and  S1_6 
REMARK    2  A    between atoms: S1_6  and  N2_9 
REMARK       I    between atoms: N2_9  and  C5_11 
REMARK    3  A    between atoms: C5_11  and  C6_13 
ROOT
HETATM    1  S1  UNL     1      52.500  40.541  64.099  1.00  0.00     0.265 S 
HETATM    2  O1  UNL     1      52.782  42.024  64.249  1.00  0.00    -0.200 OA
HETATM    3  O2  UNL     1      51.437  40.380  63.032  1.00  0.00    -0.200 OA
ENDROOT
BRANCH   1   4
HETATM    4  C4  UNL     1      51.946  39.952  65.657  1.00  0.00     0.080 A 
HETATM    5  C3  UNL     1      52.009  38.590  65.946  1.00  0.00     0.027 A 
HETATM    6  C2  UNL     1      51.583  38.084  67.149  1.00  0.00     0.028 A 
HETATM    7  C1  UNL     1      51.064  38.922  68.149  1.00  0.00     0.046 A 
HETATM    8  N1  UNL     1      50.635  38.359  69.380  1.00  0.00    -0.102 NA
HETATM    9  C10 UNL     1      51.004  40.267  67.859  1.00  0.00     0.028 A 
HETATM   10  C9  UNL     1      51.438  40.769  66.633  1.00  0.00     0.027 A 
ENDBRANCH   1   4
BRANCH   1  11
HETATM   11  N2  UNL     1      53.911  39.698  63.597  1.00  0.00    -0.249 N 
HETATM   12  C5  UNL     1      55.116  39.587  64.320  1.00  0.00     0.242 C 
HETATM   13  O3  UNL     1      55.164  40.152  65.436  1.00  0.00    -0.271 OA
ATOM     14  H2  UNL     1      53.873  39.233  62.689  1.00  0.00     0.182 HD
BRANCH  12  15
HETATM   15  C6  UNL     1      56.300  38.837  63.806  1.00  0.00     0.123 A 
HETATM   16  C7  UNL     1      57.559  39.666  63.766  1.00  0.00    -0.012 A 
HETATM   17  C8  UNL     1      56.960  39.253  62.569  1.00  0.00    -0.012 A 
ENDBRANCH  12  15
ENDBRANCH   1  11
TORSDOF 3
ENDMDL
