MODEL 3
REMARK VINA RESULT: -7.009302631      2.775      5.841
REMARK  3 active torsions:
REMARK  status: ('A' for Active; 'I' for Inactive)
REMARK    1  A    between atoms: C4_5  and  S1_6 
REMARK    2  A    between atoms: S1_6  and  N2_9 
REMARK       I    between atoms: N2_9  and  C5_11 
REMARK    3  A    between atoms: C5_11  and  C6_13 
ROOT
HETATM    1  S1  UNL     1      53.095  39.515  63.834  1.00  0.00     0.265 S 
HETATM    2  O1  UNL     1      52.650  40.190  62.551  1.00  0.00    -0.200 OA
HETATM    3  O2  UNL     1      52.829  38.031  63.689  1.00  0.00    -0.200 OA
ENDROOT
BRANCH   1   4
HETATM    4  C4  UNL     1      52.163  40.214  65.146  1.00  0.00     0.080 A 
HETATM    5  C3  UNL     1      51.968  41.593  65.201  1.00  0.00     0.027 A 
HETATM    6  C2  UNL     1      51.249  42.185  66.211  1.00  0.00     0.028 A 
HETATM    7  C1  UNL     1      50.675  41.420  67.240  1.00  0.00     0.046 A 
HETATM    8  N1  UNL     1      49.939  42.070  68.265  1.00  0.00    -0.102 NA
HETATM    9  C10 UNL     1      50.870  40.059  67.181  1.00  0.00     0.028 A 
HETATM   10  C9  UNL     1      51.602  39.470  66.151  1.00  0.00     0.027 A 
ENDBRANCH   1   4
BRANCH   1  11
HETATM   11  N2  UNL     1      54.778  39.744  64.094  1.00  0.00    -0.249 N 
HETATM   12  C5  UNL     1      55.823  39.119  63.383  1.00  0.00     0.242 C 
HETATM   13  O3  UNL     1      55.496  38.325  62.472  1.00  0.00    -0.271 OA
ATOM     14  H2  UNL     1      55.047  40.394  64.834  1.00  0.00     0.182 HD
BRANCH  12  15
HETATM   15  C6  UNL     1      57.265  39.371  63.678  1.00  0.00     0.123 A 
HETATM   16  C7  UNL     1      57.599  39.268  65.145  1.00  0.00    -0.012 A 
HETATM   17  C8  UNL     1      57.663  40.512  64.504  1.00  0.00    -0.012 A 
ENDBRANCH  12  15
ENDBRANCH   1  11
TORSDOF 3
ENDMDL
