MODEL 4
REMARK VINA RESULT: -6.966394047      1.172      1.679
REMARK  3 active torsions:
REMARK  status: ('A' for Active; 'I' for Inactive)
REMARK    1  A    between atoms: C4_5  and  S1_6 
REMARK    2  A    between atoms: S1_6  and  N2_9 
REMARK       I    between atoms: N2_9  and  C5_11 
REMARK    3  A    between atoms: C5_11  and  C6_13 
ROOT
HETATM    1  S1  UNL     1      52.470  39.290  65.228  1.00  0.00     0.265 S 
HETATM    2  O1  UNL     1      52.605  39.771  66.660  1.00  0.00    -0.200 OA
HETATM    3  O2  UNL     1      51.801  37.931  65.259  1.00  0.00    -0.200 OA
ENDROOT
BRANCH   1   4
HETATM    4  C4  UNL     1      54.087  39.198  64.551  1.00  0.00     0.080 A 
HETATM    5  C3  UNL     1      55.096  40.021  65.049  1.00  0.00     0.027 A 
HETATM    6  C2  UNL     1      56.374  39.987  64.547  1.00  0.00     0.028 A 
HETATM    7  C1  UNL     1      56.723  39.115  63.504  1.00  0.00     0.046 A 
HETATM    8  N1  UNL     1      58.055  39.110  63.014  1.00  0.00    -0.102 NA
HETATM    9  C10 UNL     1      55.723  38.305  63.014  1.00  0.00     0.028 A 
HETATM   10  C9  UNL     1      54.429  38.349  63.531  1.00  0.00     0.027 A 
ENDBRANCH   1   4
BRANCH   1  11
HETATM   11  N2  UNL     1      51.487  40.361  64.311  1.00  0.00    -0.249 N 
HETATM   12  C5  UNL     1      51.616  41.764  64.254  1.00  0.00     0.242 C 
HETATM   13  O3  UNL     1      52.535  42.280  64.929  1.00  0.00    -0.271 OA
ATOM     14  H2  UNL     1      50.740  39.943  63.757  1.00  0.00     0.182 HD
BRANCH  12  15
HETATM   15  C6  UNL     1      50.712  42.624  63.433  1.00  0.00     0.123 A 
HETATM   16  C7  UNL     1      50.787  42.328  61.956  1.00  0.00    -0.012 A 
HETATM   17  C8  UNL     1      51.268  43.550  62.445  1.00  0.00    -0.012 A 
ENDBRANCH  12  15
ENDBRANCH   1  11
TORSDOF 3
ENDMDL
