MODEL 2
REMARK VINA RESULT: -8.401857482      0.053      1.167
REMARK  2 active torsions:
REMARK  status: ('A' for Active; 'I' for Inactive)
REMARK    1  A    between atoms: C4_5  and  S1_6 
REMARK    2  A    between atoms: S1_6  and  N2_9 
ROOT
HETATM    1  S1  UNL     1      52.686  40.626  64.949  1.00  0.00     0.267 S 
HETATM    2  O1  UNL     1      52.099  39.737  65.997  1.00  0.00    -0.200 OA
HETATM    3  O2  UNL     1      52.213  40.115  63.606  1.00  0.00    -0.200 OA
ENDROOT
BRANCH   1   4
HETATM    4  C4  UNL     1      52.097  42.252  65.124  1.00  0.00     0.080 A 
HETATM    5  C3  UNL     1      51.299  42.598  66.218  1.00  0.00     0.027 A 
HETATM    6  C2  UNL     1      50.821  43.881  66.368  1.00  0.00     0.028 A 
HETATM    7  C1  UNL     1      51.138  44.845  65.416  1.00  0.00     0.046 A 
HETATM    8  N1  UNL     1      50.643  46.161  65.575  1.00  0.00    -0.102 NA
HETATM    9  C11 UNL     1      51.929  44.539  64.316  1.00  0.00     0.028 A 
HETATM   10  C10 UNL     1      52.390  43.240  64.198  1.00  0.00     0.027 A 
ENDBRANCH   1   4
BRANCH   1  11
HETATM   11  N2  UNL     1      54.402  40.620  65.050  1.00  0.00    -0.241 N 
HETATM   12  C5  UNL     1      55.256  40.305  63.926  1.00  0.00     0.145 C 
HETATM   13  C6  UNL     1      56.345  39.350  64.321  1.00  0.00     0.022 C 
HETATM   14  C7  UNL     1      56.930  39.597  65.678  1.00  0.00     0.011 C 
HETATM   15  C8  UNL     1      56.521  40.928  66.282  1.00  0.00     0.104 C 
HETATM   16  C9  UNL     1      55.034  40.940  66.284  1.00  0.00     0.233 C 
HETATM   17  O3  UNL     1      54.412  41.221  67.340  1.00  0.00    -0.272 OA
ENDBRANCH   1  11
TORSDOF 2
ENDMDL
