MODEL 1
REMARK VINA RESULT: -8.405179901      0.000      0.000
REMARK  2 active torsions:
REMARK  status: ('A' for Active; 'I' for Inactive)
REMARK    1  A    between atoms: C4_5  and  S1_6 
REMARK    2  A    between atoms: S1_6  and  N2_9 
ROOT
HETATM    1  S1  UNL     1      52.655  40.650  64.960  1.00  0.00     0.267 S 
HETATM    2  O1  UNL     1      52.066  39.768  66.014  1.00  0.00    -0.200 OA
HETATM    3  O2  UNL     1      52.174  40.137  63.621  1.00  0.00    -0.200 OA
ENDROOT
BRANCH   1   4
HETATM    4  C4  UNL     1      52.076  42.280  65.131  1.00  0.00     0.080 A 
HETATM    5  C3  UNL     1      52.387  43.242  64.166  1.00  0.00     0.027 A 
HETATM    6  C2  UNL     1      51.939  44.538  64.290  1.00  0.00     0.028 A 
HETATM    7  C1  UNL     1      51.168  44.895  65.392  1.00  0.00     0.046 A 
HETATM    8  N1  UNL     1      50.713  46.229  65.514  1.00  0.00    -0.102 NA
HETATM    9  C11 UNL     1      50.839  43.966  66.371  1.00  0.00     0.028 A 
HETATM   10  C10 UNL     1      51.306  42.674  66.213  1.00  0.00     0.027 A 
ENDBRANCH   1   4
BRANCH   1  11
HETATM   11  N2  UNL     1      54.371  40.633  65.055  1.00  0.00    -0.241 N 
HETATM   12  C5  UNL     1      55.220  40.325  63.924  1.00  0.00     0.145 C 
HETATM   13  C6  UNL     1      56.304  39.361  64.306  1.00  0.00     0.022 C 
HETATM   14  C7  UNL     1      56.896  39.591  65.663  1.00  0.00     0.011 C 
HETATM   15  C8  UNL     1      56.496  40.918  66.282  1.00  0.00     0.104 C 
HETATM   16  C9  UNL     1      55.009  40.937  66.290  1.00  0.00     0.233 C 
HETATM   17  O3  UNL     1      54.393  41.211  67.351  1.00  0.00    -0.272 OA
ENDBRANCH   1  11
TORSDOF 2
ENDMDL
