MODEL 5
REMARK VINA RESULT: -8.068881756      1.307      2.556
REMARK  2 active torsions:
REMARK  status: ('A' for Active; 'I' for Inactive)
REMARK    1  A    between atoms: C4_5  and  S1_6 
REMARK    2  A    between atoms: S1_6  and  N2_9 
ROOT
HETATM    1  S1  UNL     1      52.309  41.679  66.539  1.00  0.00     0.267 S 
HETATM    2  O1  UNL     1      52.737  41.885  67.956  1.00  0.00    -0.200 OA
HETATM    3  O2  UNL     1      50.960  40.994  66.570  1.00  0.00    -0.200 OA
ENDROOT
BRANCH   1   4
HETATM    4  C4  UNL     1      52.100  43.204  65.733  1.00  0.00     0.080 A 
HETATM    5  C3  UNL     1      51.565  44.297  66.422  1.00  0.00     0.027 A 
HETATM    6  C2  UNL     1      51.390  45.511  65.796  1.00  0.00     0.028 A 
HETATM    7  C1  UNL     1      51.750  45.650  64.459  1.00  0.00     0.046 A 
HETATM    8  N1  UNL     1      51.565  46.899  63.821  1.00  0.00    -0.102 NA
HETATM    9  C11 UNL     1      52.284  44.587  63.742  1.00  0.00     0.028 A 
HETATM   10  C10 UNL     1      52.445  43.383  64.404  1.00  0.00     0.027 A 
ENDBRANCH   1   4
BRANCH   1  11
HETATM   11  N2  UNL     1      53.470  40.733  65.694  1.00  0.00    -0.241 N 
HETATM   12  C5  UNL     1      54.830  40.560  66.155  1.00  0.00     0.145 C 
HETATM   13  C6  UNL     1      55.811  40.742  65.033  1.00  0.00     0.022 C 
HETATM   14  C7  UNL     1      55.371  40.170  63.720  1.00  0.00     0.011 C 
HETATM   15  C8  UNL     1      54.156  39.268  63.827  1.00  0.00     0.104 C 
HETATM   16  C9  UNL     1      53.098  40.079  64.487  1.00  0.00     0.233 C 
HETATM   17  O3  UNL     1      51.955  40.155  63.970  1.00  0.00    -0.272 OA
ENDBRANCH   1  11
TORSDOF 2
ENDMDL
