MODEL 10
REMARK VINA RESULT: -7.771808697      1.506      5.636
REMARK  2 active torsions:
REMARK  status: ('A' for Active; 'I' for Inactive)
REMARK    1  A    between atoms: C4_5  and  S1_6 
REMARK    2  A    between atoms: S1_6  and  N2_9 
ROOT
HETATM    1  S1  UNL     1      52.692  40.727  64.983  1.00  0.00     0.267 S 
HETATM    2  O1  UNL     1      52.070  40.209  63.726  1.00  0.00    -0.200 OA
HETATM    3  O2  UNL     1      52.137  39.912  66.130  1.00  0.00    -0.200 OA
ENDROOT
BRANCH   1   4
HETATM    4  C4  UNL     1      54.413  40.489  64.959  1.00  0.00     0.080 A 
HETATM    5  C3  UNL     1      55.025  39.883  63.859  1.00  0.00     0.027 A 
HETATM    6  C2  UNL     1      56.387  39.684  63.827  1.00  0.00     0.028 A 
HETATM    7  C1  UNL     1      57.164  40.093  64.907  1.00  0.00     0.046 A 
HETATM    8  N1  UNL     1      58.563  39.884  64.869  1.00  0.00    -0.102 NA
HETATM    9  C11 UNL     1      56.591  40.700  66.018  1.00  0.00     0.028 A 
HETATM   10  C10 UNL     1      55.221  40.883  66.014  1.00  0.00     0.027 A 
ENDBRANCH   1   4
BRANCH   1  11
HETATM   11  N2  UNL     1      52.342  42.399  65.178  1.00  0.00    -0.241 N 
HETATM   12  C5  UNL     1      52.315  43.052  66.469  1.00  0.00     0.145 C 
HETATM   13  C6  UNL     1      51.103  43.928  66.609  1.00  0.00     0.022 C 
HETATM   14  C7  UNL     1      50.727  44.677  65.367  1.00  0.00     0.011 C 
HETATM   15  C8  UNL     1      51.793  44.637  64.288  1.00  0.00     0.104 C 
HETATM   16  C9  UNL     1      52.069  43.198  64.033  1.00  0.00     0.233 C 
HETATM   17  O3  UNL     1      52.049  42.756  62.857  1.00  0.00    -0.272 OA
ENDBRANCH   1  11
TORSDOF 2
ENDMDL
