MODEL 11
REMARK VINA RESULT: -7.769256506      1.506      5.710
REMARK  2 active torsions:
REMARK  status: ('A' for Active; 'I' for Inactive)
REMARK    1  A    between atoms: C4_5  and  S1_6 
REMARK    2  A    between atoms: S1_6  and  N2_9 
ROOT
HETATM    1  S1  UNL     1      52.683  40.736  64.969  1.00  0.00     0.267 S 
HETATM    2  O1  UNL     1      52.045  40.211  63.723  1.00  0.00    -0.200 OA
HETATM    3  O2  UNL     1      52.129  39.939  66.130  1.00  0.00    -0.200 OA
ENDROOT
BRANCH   1   4
HETATM    4  C4  UNL     1      54.401  40.479  64.934  1.00  0.00     0.080 A 
HETATM    5  C3  UNL     1      55.197  40.892  66.006  1.00  0.00     0.027 A 
HETATM    6  C2  UNL     1      56.560  40.699  65.991  1.00  0.00     0.028 A 
HETATM    7  C1  UNL     1      57.153  40.084  64.893  1.00  0.00     0.046 A 
HETATM    8  N1  UNL     1      58.554  39.891  64.882  1.00  0.00    -0.102 NA
HETATM    9  C11 UNL     1      56.394  39.660  63.809  1.00  0.00     0.028 A 
HETATM   10  C10 UNL     1      55.029  39.871  63.859  1.00  0.00     0.027 A 
ENDBRANCH   1   4
BRANCH   1  11
HETATM   11  N2  UNL     1      52.353  42.414  65.150  1.00  0.00    -0.241 N 
HETATM   12  C5  UNL     1      52.332  43.078  66.435  1.00  0.00     0.145 C 
HETATM   13  C6  UNL     1      51.132  43.969  66.566  1.00  0.00     0.022 C 
HETATM   14  C7  UNL     1      50.765  44.712  65.317  1.00  0.00     0.011 C 
HETATM   15  C8  UNL     1      51.832  44.650  64.240  1.00  0.00     0.104 C 
HETATM   16  C9  UNL     1      52.090  43.206  63.998  1.00  0.00     0.233 C 
HETATM   17  O3  UNL     1      52.066  42.754  62.825  1.00  0.00    -0.272 OA
ENDBRANCH   1  11
TORSDOF 2
ENDMDL
