MODEL 4
REMARK VINA RESULT: -8.644691261      2.883      4.628
REMARK  1 active torsions:
REMARK  status: ('A' for Active; 'I' for Inactive)
REMARK    1  A    between atoms: C15_24  and  O2_25 
ROOT
HETATM    1  C1  UNL     1      38.335 -17.688  -2.826  1.00  0.00     0.045 C 
HETATM    2  C2  UNL     1      39.230 -18.878  -2.814  1.00  0.00     0.159 C 
HETATM    3  O1  UNL     1      38.522 -20.033  -2.251  1.00  0.00    -0.338 OA
HETATM    4  C3  UNL     1      39.290 -21.193  -1.924  1.00  0.00     0.111 A 
HETATM    5  C4  UNL     1      40.370 -21.186  -1.076  1.00  0.00     0.054 A 
HETATM    6  C5  UNL     1      41.036 -22.367  -0.944  1.00  0.00    -0.003 A 
HETATM    7  C6  UNL     1      40.591 -23.517  -1.619  1.00  0.00     0.102 A 
HETATM    8  N1  UNL     1      39.523 -23.533  -2.429  1.00  0.00    -0.351 N 
ATOM      9  H1  UNL     1      39.211 -24.380  -2.906  1.00  0.00     0.166 HD
HETATM   10  C7  UNL     1      38.883 -22.340  -2.570  1.00  0.00     0.149 A 
HETATM   11  N2  UNL     1      37.733 -22.425  -3.440  1.00  0.00    -0.080 NA
HETATM   12  C8  UNL     1      42.438 -22.524  -0.433  1.00  0.00     0.040 A 
HETATM   13  C9  UNL     1      43.408 -21.556  -0.725  1.00  0.00     0.058 A 
HETATM   14  N3  UNL     1      44.544 -21.963  -0.194  1.00  0.00    -0.299 N 
ATOM     15  H3  UNL     1      45.427 -21.455  -0.247  1.00  0.00     0.187 HD
HETATM   16  N4  UNL     1      44.378 -23.130   0.421  1.00  0.00    -0.286 N 
HETATM   17  C10 UNL     1      45.364 -23.923   1.129  1.00  0.00     0.179 C 
HETATM   18  C11 UNL     1      43.078 -23.494   0.284  1.00  0.00     0.143 A 
HETATM   19  C12 UNL     1      42.420 -24.699   0.775  1.00  0.00     0.120 C 
HETATM   20  N5  UNL     1      41.912 -25.660   1.173  1.00  0.00    -0.190 NA
HETATM   21  C13 UNL     1      43.088 -20.308  -1.519  1.00  0.00     0.183 C 
HETATM   22  N6  UNL     1      42.836 -20.613  -2.920  1.00  0.00    -0.360 N 
HETATM   23  C14 UNL     1      43.552 -21.929  -3.231  1.00  0.00     0.152 C 
HETATM   24  C15 UNL     1      42.202 -19.987  -3.973  1.00  0.00     0.149 C 
HETATM   25  C16 UNL     1      40.918 -19.694  -4.623  1.00  0.00     0.024 A 
HETATM   26  C17 UNL     1      40.942 -19.938  -6.060  1.00  0.00     0.019 A 
HETATM   27  C18 UNL     1      39.924 -19.777  -6.919  1.00  0.00     0.043 A 
HETATM   28  C19 UNL     1      38.722 -19.336  -6.419  1.00  0.00     0.117 A 
HETATM   29  F1  UNL     1      37.698 -19.178  -7.278  1.00  0.00    -0.206 F 
HETATM   30  C20 UNL     1      38.643 -19.091  -5.080  1.00  0.00     0.053 A 
HETATM   31  C21 UNL     1      39.729 -19.265  -4.182  1.00  0.00    -0.012 A 
ENDROOT
BRANCH  24  32
HETATM   32  O2  UNL     1      43.162 -19.384  -4.759  1.00  0.00    -0.346 OA
ATOM     33  H2  UNL     1      42.735 -19.017  -5.524  1.00  0.00     0.219 HD
ENDBRANCH  24  32
TORSDOF 1
ENDMDL
