MODEL 10
REMARK VINA RESULT: -7.851187525      1.629      4.024
REMARK  1 active torsions:
REMARK  status: ('A' for Active; 'I' for Inactive)
REMARK    1  A    between atoms: C15_24  and  O2_25 
ROOT
HETATM    1  C1  UNL     1      39.313 -22.045  -5.475  1.00  0.00     0.045 C 
HETATM    2  C2  UNL     1      40.479 -21.285  -4.943  1.00  0.00     0.159 C 
HETATM    3  O1  UNL     1      41.276 -20.748  -6.051  1.00  0.00    -0.338 OA
HETATM    4  C3  UNL     1      42.564 -20.209  -5.748  1.00  0.00     0.111 A 
HETATM    5  C4  UNL     1      43.557 -20.907  -5.106  1.00  0.00     0.054 A 
HETATM    6  C5  UNL     1      44.693 -20.210  -4.824  1.00  0.00    -0.003 A 
HETATM    7  C6  UNL     1      44.823 -18.868  -5.219  1.00  0.00     0.102 A 
HETATM    8  N1  UNL     1      43.865 -18.190  -5.868  1.00  0.00    -0.351 N 
ATOM      9  H1  UNL     1      43.981 -17.217  -6.152  1.00  0.00     0.166 HD
HETATM   10  C7  UNL     1      42.727 -18.893  -6.120  1.00  0.00     0.149 A 
HETATM   11  N2  UNL     1      41.740 -18.115  -6.834  1.00  0.00    -0.080 NA
HETATM   12  C8  UNL     1      45.720 -20.596  -3.801  1.00  0.00     0.040 A 
HETATM   13  C9  UNL     1      45.327 -21.210  -2.604  1.00  0.00     0.058 A 
HETATM   14  N3  UNL     1      46.415 -21.398  -1.882  1.00  0.00    -0.299 N 
ATOM     15  H3  UNL     1      46.433 -21.828  -0.957  1.00  0.00     0.187 HD
HETATM   16  N4  UNL     1      47.485 -20.946  -2.528  1.00  0.00    -0.286 N 
HETATM   17  C10 UNL     1      48.869 -20.957  -2.095  1.00  0.00     0.179 C 
HETATM   18  C11 UNL     1      47.075 -20.446  -3.720  1.00  0.00     0.143 A 
HETATM   19  C12 UNL     1      47.880 -19.829  -4.768  1.00  0.00     0.120 C 
HETATM   20  N5  UNL     1      48.535 -19.344  -5.590  1.00  0.00    -0.190 NA
HETATM   21  C13 UNL     1      43.882 -21.545  -2.306  1.00  0.00     0.183 C 
HETATM   22  N6  UNL     1      43.092 -20.347  -2.060  1.00  0.00    -0.360 N 
HETATM   23  C14 UNL     1      44.060 -19.257  -1.593  1.00  0.00     0.152 C 
HETATM   24  C15 UNL     1      41.752 -20.020  -2.082  1.00  0.00     0.149 C 
HETATM   25  C16 UNL     1      40.601 -19.652  -2.917  1.00  0.00     0.024 A 
HETATM   26  C17 UNL     1      39.868 -18.504  -2.396  1.00  0.00     0.019 A 
HETATM   27  C18 UNL     1      38.786 -17.928  -2.940  1.00  0.00     0.043 A 
HETATM   28  C19 UNL     1      38.296 -18.456  -4.112  1.00  0.00     0.117 A 
HETATM   29  F1  UNL     1      37.213 -17.876  -4.663  1.00  0.00    -0.206 F 
HETATM   30  C20 UNL     1      38.942 -19.531  -4.643  1.00  0.00     0.053 A 
HETATM   31  C21 UNL     1      40.087 -20.132  -4.055  1.00  0.00    -0.012 A 
ENDROOT
BRANCH  24  32
HETATM   32  O2  UNL     1      41.283 -20.032  -0.785  1.00  0.00    -0.346 OA
ATOM     33  H2  UNL     1      40.356 -20.237  -0.806  1.00  0.00     0.219 HD
ENDBRANCH  24  32
TORSDOF 1
ENDMDL
