MODEL 2
REMARK VINA RESULT: -9.088009981      1.996      2.700
REMARK  1 active torsions:
REMARK  status: ('A' for Active; 'I' for Inactive)
REMARK    1  A    between atoms: C15_24  and  O2_25 
ROOT
HETATM    1  C1  UNL     1      37.659 -17.461  -3.516  1.00  0.00     0.045 C 
HETATM    2  C2  UNL     1      38.718 -18.505  -3.444  1.00  0.00     0.159 C 
HETATM    3  O1  UNL     1      38.656 -19.195  -2.151  1.00  0.00    -0.338 OA
HETATM    4  C3  UNL     1      39.744 -20.050  -1.797  1.00  0.00     0.111 A 
HETATM    5  C4  UNL     1      41.055 -19.643  -1.745  1.00  0.00     0.054 A 
HETATM    6  C5  UNL     1      41.973 -20.612  -1.469  1.00  0.00    -0.003 A 
HETATM    7  C6  UNL     1      41.562 -21.933  -1.218  1.00  0.00     0.102 A 
HETATM    8  N1  UNL     1      40.281 -22.328  -1.245  1.00  0.00    -0.351 N 
ATOM      9  H1  UNL     1      40.002 -23.291  -1.054  1.00  0.00     0.166 HD
HETATM   10  C7  UNL     1      39.380 -21.354  -1.546  1.00  0.00     0.149 A 
HETATM   11  N2  UNL     1      38.017 -21.837  -1.543  1.00  0.00    -0.080 NA
HETATM   12  C8  UNL     1      43.442 -20.527  -1.757  1.00  0.00     0.040 A 
HETATM   13  C9  UNL     1      43.899 -19.866  -2.905  1.00  0.00     0.058 A 
HETATM   14  N3  UNL     1      45.213 -19.979  -2.929  1.00  0.00    -0.299 N 
ATOM     15  H3  UNL     1      45.818 -19.592  -3.653  1.00  0.00     0.187 HD
HETATM   16  N4  UNL     1      45.639 -20.669  -1.875  1.00  0.00    -0.286 N 
HETATM   17  C10 UNL     1      47.000 -21.019  -1.519  1.00  0.00     0.179 C 
HETATM   18  C11 UNL     1      44.556 -21.016  -1.137  1.00  0.00     0.143 A 
HETATM   19  C12 UNL     1      44.514 -21.788   0.100  1.00  0.00     0.120 C 
HETATM   20  N5  UNL     1      44.499 -22.401   1.082  1.00  0.00    -0.190 NA
HETATM   21  C13 UNL     1      42.956 -19.185  -3.873  1.00  0.00     0.183 C 
HETATM   22  N6  UNL     1      42.170 -20.151  -4.627  1.00  0.00    -0.360 N 
HETATM   23  C14 UNL     1      42.959 -21.462  -4.641  1.00  0.00     0.152 C 
HETATM   24  C15 UNL     1      40.991 -20.127  -5.343  1.00  0.00     0.149 C 
HETATM   25  C16 UNL     1      39.525 -20.170  -5.278  1.00  0.00     0.024 A 
HETATM   26  C17 UNL     1      38.943 -21.108  -6.230  1.00  0.00     0.019 A 
HETATM   27  C18 UNL     1      37.639 -21.377  -6.398  1.00  0.00     0.043 A 
HETATM   28  C19 UNL     1      36.736 -20.711  -5.603  1.00  0.00     0.117 A 
HETATM   29  F1  UNL     1      35.428 -20.983  -5.766  1.00  0.00    -0.206 F 
HETATM   30  C20 UNL     1      37.225 -19.820  -4.696  1.00  0.00     0.053 A 
HETATM   31  C21 UNL     1      38.609 -19.545  -4.529  1.00  0.00    -0.012 A 
ENDROOT
BRANCH  24  32
HETATM   32  O2  UNL     1      41.301 -20.032  -6.684  1.00  0.00    -0.346 OA
ATOM     33  H2  UNL     1      41.527 -20.898  -7.000  1.00  0.00     0.219 HD
ENDBRANCH  24  32
TORSDOF 1
ENDMDL
