MODEL 3
REMARK VINA RESULT: -9.087385012      3.492      7.446
REMARK  1 active torsions:
REMARK  status: ('A' for Active; 'I' for Inactive)
REMARK    1  A    between atoms: C15_24  and  O2_25 
ROOT
HETATM    1  C1  UNL     1      43.204 -22.854  -4.147  1.00  0.00     0.045 C 
HETATM    2  C2  UNL     1      41.884 -22.228  -3.855  1.00  0.00     0.159 C 
HETATM    3  O1  UNL     1      41.923 -21.563  -2.548  1.00  0.00    -0.338 OA
HETATM    4  C3  UNL     1      40.685 -21.126  -1.984  1.00  0.00     0.111 A 
HETATM    5  C4  UNL     1      39.610 -21.951  -1.758  1.00  0.00     0.054 A 
HETATM    6  C5  UNL     1      38.481 -21.348  -1.291  1.00  0.00    -0.003 A 
HETATM    7  C6  UNL     1      38.466 -19.968  -1.027  1.00  0.00     0.102 A 
HETATM    8  N1  UNL     1      39.521 -19.164  -1.223  1.00  0.00    -0.351 N 
ATOM      9  H1  UNL     1      39.492 -18.164  -1.020  1.00  0.00     0.166 HD
HETATM   10  C7  UNL     1      40.633 -19.777  -1.713  1.00  0.00     0.149 A 
HETATM   11  N2  UNL     1      41.740 -18.863  -1.888  1.00  0.00    -0.080 NA
HETATM   12  C8  UNL     1      37.097 -21.921  -1.358  1.00  0.00     0.040 A 
HETATM   13  C9  UNL     1      36.704 -22.692  -2.461  1.00  0.00     0.058 A 
HETATM   14  N3  UNL     1      35.442 -23.027  -2.280  1.00  0.00    -0.299 N 
ATOM     15  H3  UNL     1      34.891 -23.592  -2.926  1.00  0.00     0.187 HD
HETATM   16  N4  UNL     1      34.989 -22.526  -1.135  1.00  0.00    -0.286 N 
HETATM   17  C10 UNL     1      33.664 -22.656  -0.558  1.00  0.00     0.179 C 
HETATM   18  C11 UNL     1      36.000 -21.838  -0.549  1.00  0.00     0.143 A 
HETATM   19  C12 UNL     1      35.983 -21.103   0.711  1.00  0.00     0.120 C 
HETATM   20  N5  UNL     1      35.953 -20.526   1.714  1.00  0.00    -0.190 NA
HETATM   21  C13 UNL     1      37.650 -23.011  -3.599  1.00  0.00     0.183 C 
HETATM   22  N6  UNL     1      37.939 -21.833  -4.404  1.00  0.00    -0.360 N 
HETATM   23  C14 UNL     1      36.769 -20.864  -4.222  1.00  0.00     0.152 C 
HETATM   24  C15 UNL     1      38.927 -21.455  -5.290  1.00  0.00     0.149 C 
HETATM   25  C16 UNL     1      40.286 -20.922  -5.445  1.00  0.00     0.024 A 
HETATM   26  C17 UNL     1      40.363 -19.838  -6.416  1.00  0.00     0.019 A 
HETATM   27  C18 UNL     1      41.458 -19.145  -6.762  1.00  0.00     0.043 A 
HETATM   28  C19 UNL     1      42.647 -19.472  -6.154  1.00  0.00     0.117 A 
HETATM   29  F1  UNL     1      43.746 -18.776  -6.496  1.00  0.00    -0.206 F 
HETATM   30  C20 UNL     1      42.634 -20.481  -5.237  1.00  0.00     0.053 A 
HETATM   31  C21 UNL     1      41.466 -21.206  -4.881  1.00  0.00    -0.012 A 
ENDROOT
BRANCH  24  32
HETATM   32  O2  UNL     1      38.453 -21.643  -6.572  1.00  0.00    -0.346 OA
ATOM     33  H2  UNL     1      37.953 -20.875  -6.821  1.00  0.00     0.219 HD
ENDBRANCH  24  32
TORSDOF 1
ENDMDL
