MODEL 1
REMARK VINA RESULT: -7.530927070      0.000      0.000
REMARK  4 active torsions:
REMARK  status: ('A' for Active; 'I' for Inactive)
REMARK    1  A    between atoms: O1_2  and  C2_3 
REMARK    2  A    between atoms: C7_8  and  C8_9 
REMARK       I    between atoms: C8_9  and  N1_11 
REMARK    3  A    between atoms: N1_11  and  C9_13 
REMARK    4  A    between atoms: C14_18  and  N2_19 
ROOT
HETATM    1  C9  UNL     1       5.754  44.638  19.296  1.00  0.00     0.064 A 
HETATM    2  C10 UNL     1       5.070  44.222  18.147  1.00  0.00     0.064 A 
HETATM    3  C11 UNL     1       4.155  45.058  17.533  1.00  0.00     0.067 A 
HETATM    4  C12 UNL     1       3.924  46.294  18.055  1.00  0.00     0.067 A 
HETATM    5  C13 UNL     1       4.581  46.742  19.195  1.00  0.00     0.064 A 
HETATM    6  C14 UNL     1       5.521  45.872  19.820  1.00  0.00     0.063 A 
HETATM    7  N3  UNL     1       2.990  46.904  17.271  1.00  0.00    -0.302 N 
HETATM    8  C20 UNL     1       2.463  48.247  17.503  1.00  0.00     0.161 C 
HETATM    9  C21 UNL     1       2.688  46.038  16.308  1.00  0.00     0.329 A 
HETATM   10  O3  UNL     1       1.848  46.217  15.350  1.00  0.00    -0.246 OA
HETATM   11  N4  UNL     1       3.387  44.897  16.444  1.00  0.00    -0.302 N 
HETATM   12  C22 UNL     1       3.384  43.689  15.629  1.00  0.00     0.161 C 
ENDROOT
BRANCH   1  13
HETATM   13  N1  UNL     1       6.807  43.819  19.825  1.00  0.00    -0.321 N 
HETATM   14  C8  UNL     1       6.674  42.773  20.753  1.00  0.00     0.259 C 
HETATM   15  O2  UNL     1       5.462  42.608  21.173  1.00  0.00    -0.267 OA
ATOM     16  H1  UNL     1       7.751  44.017  19.493  1.00  0.00     0.169 HD
BRANCH  14  17
HETATM   17  C7  UNL     1       7.664  41.869  21.282  1.00  0.00     0.065 A 
HETATM   18  C2  UNL     1       8.840  42.338  21.886  1.00  0.00     0.084 A 
HETATM   19  C3  UNL     1       9.698  41.329  22.454  1.00  0.00     0.038 A 
HETATM   20  C4  UNL     1       9.438  40.049  22.425  1.00  0.00     0.003 A 
HETATM   21  C5  UNL     1       8.264  39.564  21.818  1.00  0.00     0.001 A 
HETATM   22  C6  UNL     1       7.426  40.529  21.268  1.00  0.00     0.020 A 
BRANCH  18  23
HETATM   23  O1  UNL     1       9.195  43.531  21.968  1.00  0.00    -0.355 OA
HETATM   24  C1  UNL     1       9.801  44.646  22.353  1.00  0.00     0.210 C 
ENDBRANCH  18  23
ENDBRANCH  14  17
ENDBRANCH   1  13
BRANCH   6  25
HETATM   25  N2  UNL     1       6.053  46.378  21.016  1.00  0.00    -0.359 N 
HETATM   26  C15 UNL     1       7.192  47.156  21.250  1.00  0.00     0.064 C 
HETATM   27  C16 UNL     1       7.315  47.743  22.656  1.00  0.00     0.045 C 
HETATM   28  C17 UNL     1       6.868  46.858  23.754  1.00  0.00     0.007 C 
HETATM   29  C18 UNL     1       6.217  45.588  23.251  1.00  0.00     0.021 C 
HETATM   30  C19 UNL     1       5.225  46.015  22.220  1.00  0.00     0.128 C 
ENDBRANCH   6  25
TORSDOF 4
ENDMDL
