MODEL 2
REMARK VINA RESULT: -7.300052402      0.922      1.784
REMARK  4 active torsions:
REMARK  status: ('A' for Active; 'I' for Inactive)
REMARK    1  A    between atoms: O1_2  and  C2_3 
REMARK    2  A    between atoms: C7_8  and  C8_9 
REMARK       I    between atoms: C8_9  and  N1_11 
REMARK    3  A    between atoms: N1_11  and  C9_13 
REMARK    4  A    between atoms: C14_18  and  N2_19 
ROOT
HETATM    1  C9  UNL     1       5.697  44.600  19.319  1.00  0.00     0.064 A 
HETATM    2  C10 UNL     1       5.004  44.173  18.180  1.00  0.00     0.064 A 
HETATM    3  C11 UNL     1       4.123  45.022  17.534  1.00  0.00     0.067 A 
HETATM    4  C12 UNL     1       3.933  46.280  18.017  1.00  0.00     0.067 A 
HETATM    5  C13 UNL     1       4.601  46.740  19.147  1.00  0.00     0.064 A 
HETATM    6  C14 UNL     1       5.505  45.856  19.804  1.00  0.00     0.063 A 
HETATM    7  N3  UNL     1       3.026  46.899  17.209  1.00  0.00    -0.302 N 
HETATM    8  C20 UNL     1       2.547  48.266  17.397  1.00  0.00     0.161 C 
HETATM    9  C21 UNL     1       2.698  46.015  16.270  1.00  0.00     0.329 A 
HETATM   10  O3  UNL     1       1.871  46.194  15.302  1.00  0.00    -0.246 OA
HETATM   11  N4  UNL     1       3.356  44.854  16.446  1.00  0.00    -0.302 N 
HETATM   12  C22 UNL     1       3.313  43.623  15.668  1.00  0.00     0.161 C 
ENDROOT
BRANCH   1  13
HETATM   13  N1  UNL     1       6.717  43.760  19.880  1.00  0.00    -0.321 N 
HETATM   14  C8  UNL     1       6.553  42.796  20.888  1.00  0.00     0.259 C 
HETATM   15  O2  UNL     1       5.348  42.735  21.352  1.00  0.00    -0.267 OA
ATOM     16  H1  UNL     1       7.660  43.876  19.507  1.00  0.00     0.169 HD
BRANCH  14  17
HETATM   17  C7  UNL     1       7.506  41.876  21.456  1.00  0.00     0.065 A 
HETATM   18  C2  UNL     1       7.594  40.546  21.021  1.00  0.00     0.084 A 
HETATM   19  C3  UNL     1       8.652  39.762  21.607  1.00  0.00     0.038 A 
HETATM   20  C4  UNL     1       9.493  40.221  22.495  1.00  0.00     0.003 A 
HETATM   21  C5  UNL     1       9.414  41.553  22.945  1.00  0.00     0.001 A 
HETATM   22  C6  UNL     1       8.398  42.320  22.384  1.00  0.00     0.020 A 
BRANCH  18  23
HETATM   23  O1  UNL     1       6.846  39.997  20.186  1.00  0.00    -0.355 OA
HETATM   24  C1  UNL     1       6.351  39.524  19.050  1.00  0.00     0.210 C 
ENDBRANCH  18  23
ENDBRANCH  14  17
ENDBRANCH   1  13
BRANCH   6  25
HETATM   25  N2  UNL     1       6.049  46.379  20.987  1.00  0.00    -0.359 N 
HETATM   26  C15 UNL     1       7.243  47.072  21.213  1.00  0.00     0.064 C 
HETATM   27  C16 UNL     1       7.381  47.721  22.590  1.00  0.00     0.045 C 
HETATM   28  C17 UNL     1       6.835  46.936  23.720  1.00  0.00     0.007 C 
HETATM   29  C18 UNL     1       6.093  45.698  23.263  1.00  0.00     0.021 C 
HETATM   30  C19 UNL     1       5.165  46.150  22.184  1.00  0.00     0.128 C 
ENDBRANCH   6  25
TORSDOF 4
ENDMDL
