MODEL 4
REMARK VINA RESULT: -6.515709803      1.546      4.519
REMARK  4 active torsions:
REMARK  status: ('A' for Active; 'I' for Inactive)
REMARK    1  A    between atoms: O1_2  and  C2_3 
REMARK    2  A    between atoms: C7_8  and  C8_9 
REMARK       I    between atoms: C8_9  and  N1_11 
REMARK    3  A    between atoms: N1_11  and  C9_13 
REMARK    4  A    between atoms: C14_18  and  N2_19 
ROOT
HETATM    1  C9  UNL     1       5.317  45.751  20.124  1.00  0.00     0.064 A 
HETATM    2  C10 UNL     1       4.506  46.620  19.384  1.00  0.00     0.064 A 
HETATM    3  C11 UNL     1       3.958  46.216  18.181  1.00  0.00     0.067 A 
HETATM    4  C12 UNL     1       4.212  44.961  17.719  1.00  0.00     0.067 A 
HETATM    5  C13 UNL     1       5.013  44.070  18.423  1.00  0.00     0.064 A 
HETATM    6  C14 UNL     1       5.574  44.498  19.661  1.00  0.00     0.063 A 
HETATM    7  N3  UNL     1       3.562  44.821  16.528  1.00  0.00    -0.302 N 
HETATM    8  C20 UNL     1       3.591  43.614  15.706  1.00  0.00     0.161 C 
HETATM    9  C21 UNL     1       2.937  45.974  16.306  1.00  0.00     0.329 A 
HETATM   10  O3  UNL     1       2.202  46.266  15.291  1.00  0.00    -0.246 OA
HETATM   11  N4  UNL     1       3.163  46.848  17.303  1.00  0.00    -0.302 N 
HETATM   12  C22 UNL     1       2.685  48.213  17.484  1.00  0.00     0.161 C 
ENDROOT
BRANCH   1  13
HETATM   13  N1  UNL     1       5.748  46.135  21.438  1.00  0.00    -0.321 N 
HETATM   14  C8  UNL     1       5.102  45.848  22.653  1.00  0.00     0.259 C 
HETATM   15  O2  UNL     1       3.987  45.212  22.506  1.00  0.00    -0.267 OA
ATOM     16  H1  UNL     1       6.613  46.672  21.496  1.00  0.00     0.169 HD
BRANCH  14  17
HETATM   17  C7  UNL     1       5.500  46.141  24.006  1.00  0.00     0.065 A 
HETATM   18  C2  UNL     1       6.812  46.520  24.322  1.00  0.00     0.084 A 
HETATM   19  C3  UNL     1       7.049  46.874  25.699  1.00  0.00     0.038 A 
HETATM   20  C4  UNL     1       6.130  46.850  26.627  1.00  0.00     0.003 A 
HETATM   21  C5  UNL     1       4.809  46.466  26.326  1.00  0.00     0.001 A 
HETATM   22  C6  UNL     1       4.567  46.126  24.999  1.00  0.00     0.020 A 
BRANCH  18  23
HETATM   23  O1  UNL     1       7.771  46.574  23.525  1.00  0.00    -0.355 OA
HETATM   24  C1  UNL     1       8.979  46.458  22.990  1.00  0.00     0.210 C 
ENDBRANCH  18  23
ENDBRANCH  14  17
ENDBRANCH   1  13
BRANCH   6  25
HETATM   25  N2  UNL     1       6.445  43.563  20.241  1.00  0.00    -0.359 N 
HETATM   26  C15 UNL     1       7.725  43.722  20.782  1.00  0.00     0.064 C 
HETATM   27  C16 UNL     1       8.266  42.527  21.566  1.00  0.00     0.045 C 
HETATM   28  C17 UNL     1       7.934  41.198  21.005  1.00  0.00     0.007 C 
HETATM   29  C18 UNL     1       6.974  41.281  19.838  1.00  0.00     0.021 C 
HETATM   30  C19 UNL     1       5.864  42.175  20.283  1.00  0.00     0.128 C 
ENDBRANCH   6  25
TORSDOF 4
ENDMDL
