MODEL 5
REMARK VINA RESULT: -6.445753108      1.548      4.742
REMARK  4 active torsions:
REMARK  status: ('A' for Active; 'I' for Inactive)
REMARK    1  A    between atoms: O1_2  and  C2_3 
REMARK    2  A    between atoms: C7_8  and  C8_9 
REMARK       I    between atoms: C8_9  and  N1_11 
REMARK    3  A    between atoms: N1_11  and  C9_13 
REMARK    4  A    between atoms: C14_18  and  N2_19 
ROOT
HETATM    1  C9  UNL     1       5.147  45.696  20.093  1.00  0.00     0.064 A 
HETATM    2  C10 UNL     1       4.352  46.602  19.382  1.00  0.00     0.064 A 
HETATM    3  C11 UNL     1       3.865  46.277  18.128  1.00  0.00     0.067 A 
HETATM    4  C12 UNL     1       4.167  45.064  17.589  1.00  0.00     0.067 A 
HETATM    5  C13 UNL     1       4.955  44.138  18.262  1.00  0.00     0.064 A 
HETATM    6  C14 UNL     1       5.452  44.485  19.553  1.00  0.00     0.063 A 
HETATM    7  N3  UNL     1       3.573  45.000  16.363  1.00  0.00    -0.302 N 
HETATM    8  C20 UNL     1       3.664  43.857  15.458  1.00  0.00     0.161 C 
HETATM    9  C21 UNL     1       2.933  46.154  16.197  1.00  0.00     0.329 A 
HETATM   10  O3  UNL     1       2.238  46.507  15.173  1.00  0.00    -0.246 OA
HETATM   11  N4  UNL     1       3.096  46.957  17.264  1.00  0.00    -0.302 N 
HETATM   12  C22 UNL     1       2.582  48.297  17.520  1.00  0.00     0.161 C 
ENDROOT
BRANCH   1  13
HETATM   13  N1  UNL     1       5.512  45.990  21.449  1.00  0.00    -0.321 N 
HETATM   14  C8  UNL     1       6.605  46.762  21.879  1.00  0.00     0.259 C 
HETATM   15  O2  UNL     1       7.349  47.184  20.910  1.00  0.00    -0.267 OA
ATOM     16  H1  UNL     1       4.915  45.598  22.178  1.00  0.00     0.169 HD
BRANCH  14  17
HETATM   17  C7  UNL     1       6.999  47.153  23.208  1.00  0.00     0.065 A 
HETATM   18  C2  UNL     1       6.844  46.293  24.305  1.00  0.00     0.084 A 
HETATM   19  C3  UNL     1       7.366  46.775  25.559  1.00  0.00     0.038 A 
HETATM   20  C4  UNL     1       7.947  47.936  25.710  1.00  0.00     0.003 A 
HETATM   21  C5  UNL     1       8.104  48.812  24.619  1.00  0.00     0.001 A 
HETATM   22  C6  UNL     1       7.608  48.356  23.402  1.00  0.00     0.020 A 
BRANCH  18  23
HETATM   23  O1  UNL     1       6.303  45.169  24.283  1.00  0.00    -0.355 OA
HETATM   24  C1  UNL     1       6.114  43.856  24.283  1.00  0.00     0.210 C 
ENDBRANCH  18  23
ENDBRANCH  14  17
ENDBRANCH   1  13
BRANCH   6  25
HETATM   25  N2  UNL     1       6.316  43.526  20.103  1.00  0.00    -0.359 N 
HETATM   26  C15 UNL     1       7.607  43.655  20.625  1.00  0.00     0.064 C 
HETATM   27  C16 UNL     1       8.141  42.438  21.379  1.00  0.00     0.045 C 
HETATM   28  C17 UNL     1       7.777  41.124  20.803  1.00  0.00     0.007 C 
HETATM   29  C18 UNL     1       6.800  41.243  19.654  1.00  0.00     0.021 C 
HETATM   30  C19 UNL     1       5.712  42.148  20.131  1.00  0.00     0.128 C 
ENDBRANCH   6  25
TORSDOF 4
ENDMDL
