MODEL 3
REMARK VINA RESULT: -6.689719903      1.931      7.105
REMARK  4 active torsions:
REMARK  status: ('A' for Active; 'I' for Inactive)
REMARK    1  A    between atoms: O1_2  and  C2_3 
REMARK    2  A    between atoms: C7_8  and  C8_9 
REMARK       I    between atoms: C8_9  and  N1_11 
REMARK    3  A    between atoms: N1_11  and  C9_13 
REMARK    4  A    between atoms: C14_18  and  N2_19 
ROOT
HETATM    1  C9  UNL     1       6.324  43.853  20.625  1.00  0.00     0.064 A 
HETATM    2  C10 UNL     1       6.513  42.486  20.386  1.00  0.00     0.064 A 
HETATM    3  C11 UNL     1       7.458  41.772  21.100  1.00  0.00     0.067 A 
HETATM    4  C12 UNL     1       8.206  42.411  22.041  1.00  0.00     0.067 A 
HETATM    5  C13 UNL     1       8.050  43.767  22.306  1.00  0.00     0.064 A 
HETATM    6  C14 UNL     1       7.073  44.492  21.563  1.00  0.00     0.063 A 
HETATM    7  N3  UNL     1       9.051  41.492  22.588  1.00  0.00    -0.302 N 
HETATM    8  C20 UNL     1      10.028  41.784  23.635  1.00  0.00     0.161 C 
HETATM    9  C21 UNL     1       8.794  40.338  21.978  1.00  0.00     0.329 A 
HETATM   10  O3  UNL     1       9.368  39.208  22.198  1.00  0.00    -0.246 OA
HETATM   11  N4  UNL     1       7.821  40.481  21.059  1.00  0.00    -0.302 N 
HETATM   12  C22 UNL     1       7.220  39.499  20.166  1.00  0.00     0.161 C 
ENDROOT
BRANCH   1  13
HETATM   13  N1  UNL     1       5.236  44.537  19.985  1.00  0.00    -0.321 N 
HETATM   14  C8  UNL     1       5.226  45.071  18.685  1.00  0.00     0.259 C 
HETATM   15  O2  UNL     1       6.354  44.944  18.067  1.00  0.00    -0.267 OA
ATOM     16  H1  UNL     1       4.381  44.647  20.530  1.00  0.00     0.169 HD
BRANCH  14  17
HETATM   17  C7  UNL     1       4.163  45.710  17.953  1.00  0.00     0.065 A 
HETATM   18  C2  UNL     1       3.421  45.022  16.981  1.00  0.00     0.084 A 
HETATM   19  C3  UNL     1       2.327  45.753  16.393  1.00  0.00     0.038 A 
HETATM   20  C4  UNL     1       2.015  46.981  16.711  1.00  0.00     0.003 A 
HETATM   21  C5  UNL     1       2.754  47.686  17.681  1.00  0.00     0.001 A 
HETATM   22  C6  UNL     1       3.810  46.990  18.259  1.00  0.00     0.020 A 
BRANCH  18  23
HETATM   23  O1  UNL     1       3.628  43.855  16.593  1.00  0.00    -0.355 OA
HETATM   24  C1  UNL     1       3.464  42.572  16.300  1.00  0.00     0.210 C 
ENDBRANCH  18  23
ENDBRANCH  14  17
ENDBRANCH   1  13
BRANCH   6  25
HETATM   25  N2  UNL     1       7.064  45.869  21.833  1.00  0.00    -0.359 N 
HETATM   26  C15 UNL     1       6.401  46.598  22.826  1.00  0.00     0.064 C 
HETATM   27  C16 UNL     1       6.836  48.056  22.978  1.00  0.00     0.045 C 
HETATM   28  C17 UNL     1       7.139  48.763  21.714  1.00  0.00     0.007 C 
HETATM   29  C18 UNL     1       7.114  47.843  20.512  1.00  0.00     0.021 C 
HETATM   30  C19 UNL     1       7.934  46.653  20.888  1.00  0.00     0.128 C 
ENDBRANCH   6  25
TORSDOF 4
ENDMDL
