MODEL 4
REMARK VINA RESULT: -9.728339549      1.877      2.687
REMARK  4 active torsions:
REMARK  status: ('A' for Active; 'I' for Inactive)
REMARK       I    between atoms: C2_2  and  N1_4 
REMARK    1  A    between atoms: C6_8  and  C7_9 
REMARK    2  A    between atoms: C10_12  and  C11_13 
REMARK    3  A    between atoms: C16_20  and  N2_21 
REMARK    4  A    between atoms: N2_21  and  C17_23 
ROOT
HETATM    1  C1  UNL     1      19.616  15.076 -12.280  1.00  0.00     0.117 C 
HETATM    2  C2  UNL     1      18.373  14.524 -12.844  1.00  0.00     0.220 C 
HETATM    3  O1  UNL     1      17.752  15.274 -13.663  1.00  0.00    -0.273 OA
HETATM    4  N1  UNL     1      17.794  13.267 -12.576  1.00  0.00    -0.313 N 
HETATM    5  C3  UNL     1      18.434  12.282 -11.777  1.00  0.00     0.046 A 
HETATM    6  C4  UNL     1      19.798  12.154 -11.819  1.00  0.00     0.031 A 
HETATM    7  C5  UNL     1      20.370  11.215 -10.991  1.00  0.00     0.014 A 
HETATM    8  C6  UNL     1      19.622  10.413 -10.134  1.00  0.00    -0.025 A 
HETATM    9  C14 UNL     1      18.266  10.553 -10.105  1.00  0.00     0.024 A 
HETATM   10  C15 UNL     1      17.664  11.472 -10.913  1.00  0.00    -0.008 A 
HETATM   11  C16 UNL     1      16.213  11.730 -11.029  1.00  0.00     0.119 C 
HETATM   12  C23 UNL     1      15.864  11.742 -12.501  1.00  0.00     0.055 C 
HETATM   13  C24 UNL     1      16.464  12.994 -13.107  1.00  0.00     0.091 C 
HETATM   14  C25 UNL     1      16.465  12.935 -14.620  1.00  0.00     0.033 C 
ENDROOT
BRANCH   8  15
HETATM   15  C7  UNL     1      20.332   9.452  -9.300  1.00  0.00    -0.026 A 
HETATM   16  C8  UNL     1      20.119   9.366  -7.941  1.00  0.00     0.013 A 
HETATM   17  C9  UNL     1      20.789   8.459  -7.147  1.00  0.00     0.019 A 
HETATM   18  C10 UNL     1      21.707   7.596  -7.694  1.00  0.00     0.040 A 
HETATM   19  C12 UNL     1      21.933   7.665  -9.046  1.00  0.00     0.019 A 
HETATM   20  C13 UNL     1      21.254   8.584  -9.842  1.00  0.00     0.013 A 
BRANCH  18  21
HETATM   21  C11 UNL     1      22.428   6.629  -6.876  1.00  0.00     0.209 C 
HETATM   22  O2  UNL     1      23.549   6.211  -7.248  1.00  0.00    -0.644 OA
HETATM   23  O3  UNL     1      21.912   6.154  -5.690  1.00  0.00    -0.644 OA
ENDBRANCH  18  21
ENDBRANCH   8  15
BRANCH  11  24
HETATM   24  N2  UNL     1      15.362  10.922 -10.230  1.00  0.00    -0.381 N 
ATOM     25  H2  UNL     1      15.300  11.209  -9.253  1.00  0.00     0.160 HD
BRANCH  24  26
HETATM   26  C17 UNL     1      14.600   9.808 -10.554  1.00  0.00     0.028 A 
HETATM   27  C18 UNL     1      13.279   9.705 -10.146  1.00  0.00     0.031 A 
HETATM   28  C19 UNL     1      12.482   8.620 -10.452  1.00  0.00     0.026 A 
HETATM   29  C20 UNL     1      12.991   7.581 -11.191  1.00  0.00     0.034 A 
HETATM   30 CL1  UNL     1      11.993   6.208 -11.583  1.00  0.00    -0.084 Cl
HETATM   31  C21 UNL     1      14.295   7.655 -11.609  1.00  0.00     0.026 A 
HETATM   32  C22 UNL     1      15.086   8.765 -11.287  1.00  0.00     0.031 A 
ENDBRANCH  24  26
ENDBRANCH  11  24
TORSDOF 4
ENDMDL
