MODEL 2
REMARK VINA RESULT: -9.886137150      4.056      8.067
REMARK  4 active torsions:
REMARK  status: ('A' for Active; 'I' for Inactive)
REMARK       I    between atoms: C2_2  and  N1_4 
REMARK    1  A    between atoms: C6_8  and  C7_9 
REMARK    2  A    between atoms: C10_12  and  C11_13 
REMARK    3  A    between atoms: C16_20  and  N2_21 
REMARK    4  A    between atoms: N2_21  and  C17_23 
ROOT
HETATM    1  C1  UNL     1      19.442   8.334  -6.667  1.00  0.00     0.117 C 
HETATM    2  C2  UNL     1      20.577   8.421  -7.601  1.00  0.00     0.220 C 
HETATM    3  O1  UNL     1      21.667   7.902  -7.202  1.00  0.00    -0.273 OA
HETATM    4  N1  UNL     1      20.592   9.018  -8.878  1.00  0.00    -0.313 N 
HETATM    5  C3  UNL     1      19.421   9.531  -9.499  1.00  0.00     0.046 A 
HETATM    6  C4  UNL     1      18.218   8.903  -9.305  1.00  0.00     0.031 A 
HETATM    7  C5  UNL     1      17.109   9.468  -9.893  1.00  0.00     0.014 A 
HETATM    8  C6  UNL     1      17.174  10.630 -10.659  1.00  0.00    -0.025 A 
HETATM    9  C14 UNL     1      18.379  11.241 -10.842  1.00  0.00     0.024 A 
HETATM   10  C15 UNL     1      19.500  10.708 -10.276  1.00  0.00    -0.008 A 
HETATM   11  C16 UNL     1      20.880  11.223 -10.399  1.00  0.00     0.119 C 
HETATM   12  C23 UNL     1      21.773  10.059 -10.769  1.00  0.00     0.055 C 
HETATM   13  C24 UNL     1      21.873   9.151  -9.561  1.00  0.00     0.091 C 
HETATM   14  C25 UNL     1      22.458   7.803  -9.924  1.00  0.00     0.033 C 
ENDROOT
BRANCH   8  15
HETATM   15  C7  UNL     1      15.937  11.141 -11.233  1.00  0.00    -0.026 A 
HETATM   16  C8  UNL     1      14.720  10.989 -10.604  1.00  0.00     0.013 A 
HETATM   17  C9  UNL     1      13.546  11.472 -11.143  1.00  0.00     0.019 A 
HETATM   18  C10 UNL     1      13.551  12.131 -12.348  1.00  0.00     0.040 A 
HETATM   19  C12 UNL     1      14.752  12.294 -12.991  1.00  0.00     0.019 A 
HETATM   20  C13 UNL     1      15.934  11.804 -12.441  1.00  0.00     0.013 A 
BRANCH  18  21
HETATM   21  C11 UNL     1      12.324  12.649 -12.939  1.00  0.00     0.209 C 
HETATM   22  O2  UNL     1      12.385  13.503 -13.854  1.00  0.00    -0.644 OA
HETATM   23  O3  UNL     1      11.081  12.225 -12.521  1.00  0.00    -0.644 OA
ENDBRANCH  18  21
ENDBRANCH   8  15
BRANCH  11  24
HETATM   24  N2  UNL     1      21.055  12.377 -11.206  1.00  0.00    -0.381 N 
ATOM     25  H2  UNL     1      21.290  12.182 -12.179  1.00  0.00     0.160 HD
BRANCH  24  26
HETATM   26  C17 UNL     1      20.959  13.727 -10.894  1.00  0.00     0.028 A 
HETATM   27  C18 UNL     1      19.807  14.246 -10.323  1.00  0.00     0.031 A 
HETATM   28  C19 UNL     1      19.671  15.578  -9.989  1.00  0.00     0.026 A 
HETATM   29  C20 UNL     1      20.704  16.454 -10.221  1.00  0.00     0.034 A 
HETATM   30 CL1  UNL     1      20.542  18.137  -9.802  1.00  0.00    -0.084 Cl
HETATM   31  C21 UNL     1      21.856  15.969 -10.785  1.00  0.00     0.026 A 
HETATM   32  C22 UNL     1      21.972  14.612 -11.116  1.00  0.00     0.031 A 
ENDBRANCH  24  26
ENDBRANCH  11  24
TORSDOF 4
ENDMDL
