MODEL 3
REMARK VINA RESULT: -9.880013574      4.042      8.061
REMARK  4 active torsions:
REMARK  status: ('A' for Active; 'I' for Inactive)
REMARK       I    between atoms: C2_2  and  N1_4 
REMARK    1  A    between atoms: C6_8  and  C7_9 
REMARK    2  A    between atoms: C10_12  and  C11_13 
REMARK    3  A    between atoms: C16_20  and  N2_21 
REMARK    4  A    between atoms: N2_21  and  C17_23 
ROOT
HETATM    1  C1  UNL     1      19.390   8.331  -6.592  1.00  0.00     0.117 C 
HETATM    2  C2  UNL     1      20.529   8.396  -7.524  1.00  0.00     0.220 C 
HETATM    3  O1  UNL     1      21.613   7.871  -7.115  1.00  0.00    -0.273 OA
HETATM    4  N1  UNL     1      20.555   8.978  -8.807  1.00  0.00    -0.313 N 
HETATM    5  C3  UNL     1      19.392   9.496  -9.439  1.00  0.00     0.046 A 
HETATM    6  C4  UNL     1      18.182   8.882  -9.242  1.00  0.00     0.031 A 
HETATM    7  C5  UNL     1      17.081   9.451  -9.841  1.00  0.00     0.014 A 
HETATM    8  C6  UNL     1      17.160  10.603 -10.619  1.00  0.00    -0.025 A 
HETATM    9  C14 UNL     1      18.372  11.200 -10.805  1.00  0.00     0.024 A 
HETATM   10  C15 UNL     1      19.485  10.663 -10.229  1.00  0.00    -0.008 A 
HETATM   11  C16 UNL     1      20.871  11.162 -10.353  1.00  0.00     0.119 C 
HETATM   12  C23 UNL     1      21.753   9.985 -10.706  1.00  0.00     0.055 C 
HETATM   13  C24 UNL     1      21.840   9.090  -9.487  1.00  0.00     0.091 C 
HETATM   14  C25 UNL     1      22.412   7.732  -9.832  1.00  0.00     0.033 C 
ENDROOT
BRANCH   8  15
HETATM   15  C7  UNL     1      15.930  11.120 -11.204  1.00  0.00    -0.026 A 
HETATM   16  C8  UNL     1      15.919  11.800 -12.402  1.00  0.00     0.013 A 
HETATM   17  C9  UNL     1      14.757  12.292 -12.960  1.00  0.00     0.019 A 
HETATM   18  C10 UNL     1      13.551  12.118 -12.327  1.00  0.00     0.040 A 
HETATM   19  C12 UNL     1      13.539  11.442 -11.132  1.00  0.00     0.019 A 
HETATM   20  C13 UNL     1      14.716  10.948 -10.574  1.00  0.00     0.013 A 
BRANCH  18  21
HETATM   21  C11 UNL     1      12.310  12.629 -12.895  1.00  0.00     0.209 C 
HETATM   22  O2  UNL     1      11.209  12.210 -12.467  1.00  0.00    -0.644 OA
HETATM   23  O3  UNL     1      12.305  13.570 -13.901  1.00  0.00    -0.644 OA
ENDBRANCH  18  21
ENDBRANCH   8  15
BRANCH  11  24
HETATM   24  N2  UNL     1      21.060  12.305 -11.172  1.00  0.00    -0.381 N 
ATOM     25  H2  UNL     1      21.296  12.097 -12.142  1.00  0.00     0.160 HD
BRANCH  24  26
HETATM   26  C17 UNL     1      20.977  13.659 -10.876  1.00  0.00     0.028 A 
HETATM   27  C18 UNL     1      19.821  14.202 -10.338  1.00  0.00     0.031 A 
HETATM   28  C19 UNL     1      19.696  15.539 -10.021  1.00  0.00     0.026 A 
HETATM   29  C20 UNL     1      20.747  16.396 -10.237  1.00  0.00     0.034 A 
HETATM   30 CL1  UNL     1      20.601  18.086  -9.840  1.00  0.00    -0.084 Cl
HETATM   31  C21 UNL     1      21.905  15.888 -10.768  1.00  0.00     0.026 A 
HETATM   32  C22 UNL     1      22.009  14.527 -11.083  1.00  0.00     0.031 A 
ENDBRANCH  24  26
ENDBRANCH  11  24
TORSDOF 4
ENDMDL
