MODEL 1
REMARK VINA RESULT: -10.216839870      0.000      0.000
REMARK  4 active torsions:
REMARK  status: ('A' for Active; 'I' for Inactive)
REMARK       I    between atoms: C2_2  and  N1_4 
REMARK    1  A    between atoms: C6_8  and  C7_9 
REMARK    2  A    between atoms: C10_12  and  C11_13 
REMARK    3  A    between atoms: C16_20  and  N2_21 
REMARK    4  A    between atoms: N2_21  and  C17_23 
ROOT
HETATM    1  C1  UNL     1      23.218  14.014 -11.909  1.00  0.00     0.117 C 
HETATM    2  C2  UNL     1      22.029  13.866 -12.766  1.00  0.00     0.220 C 
HETATM    3  O1  UNL     1      21.982  14.623 -13.786  1.00  0.00    -0.273 OA
HETATM    4  N1  UNL     1      20.942  12.990 -12.579  1.00  0.00    -0.313 N 
HETATM    5  C3  UNL     1      20.915  12.008 -11.552  1.00  0.00     0.046 A 
HETATM    6  C4  UNL     1      22.075  11.377 -11.184  1.00  0.00     0.031 A 
HETATM    7  C5  UNL     1      22.000  10.469 -10.153  1.00  0.00     0.014 A 
HETATM    8  C6  UNL     1      20.809  10.180  -9.491  1.00  0.00    -0.025 A 
HETATM    9  C14 UNL     1      19.664  10.815  -9.871  1.00  0.00     0.024 A 
HETATM   10  C15 UNL     1      19.700  11.721 -10.890  1.00  0.00    -0.008 A 
HETATM   11  C16 UNL     1      18.554  12.472 -11.444  1.00  0.00     0.119 C 
HETATM   12  C23 UNL     1      18.599  12.334 -12.950  1.00  0.00     0.055 C 
HETATM   13  C24 UNL     1      19.783  13.134 -13.452  1.00  0.00     0.091 C 
HETATM   14  C25 UNL     1      20.117  12.794 -14.889  1.00  0.00     0.033 C 
ENDROOT
BRANCH   8  15
HETATM   15  C7  UNL     1      20.845   9.201  -8.412  1.00  0.00    -0.026 A 
HETATM   16  C8  UNL     1      21.838   8.251  -8.319  1.00  0.00     0.013 A 
HETATM   17  C9  UNL     1      21.876   7.322  -7.300  1.00  0.00     0.019 A 
HETATM   18  C10 UNL     1      20.908   7.314  -6.326  1.00  0.00     0.040 A 
HETATM   19  C12 UNL     1      19.910   8.254  -6.399  1.00  0.00     0.019 A 
HETATM   20  C13 UNL     1      19.877   9.188  -7.431  1.00  0.00     0.013 A 
BRANCH  18  21
HETATM   21  C11 UNL     1      20.926   6.343  -5.240  1.00  0.00     0.209 C 
HETATM   22  O2  UNL     1      21.841   5.488  -5.183  1.00  0.00    -0.644 OA
HETATM   23  O3  UNL     1      19.960   6.334  -4.257  1.00  0.00    -0.644 OA
ENDBRANCH  18  21
ENDBRANCH   8  15
BRANCH  11  24
HETATM   24  N2  UNL     1      17.286  12.205 -10.867  1.00  0.00    -0.381 N 
ATOM     25  H2  UNL     1      16.974  12.899 -10.188  1.00  0.00     0.160 HD
BRANCH  24  26
HETATM   26  C17 UNL     1      16.396  11.158 -11.071  1.00  0.00     0.028 A 
HETATM   27  C18 UNL     1      16.594   9.927 -10.465  1.00  0.00     0.031 A 
HETATM   28  C19 UNL     1      15.733   8.862 -10.632  1.00  0.00     0.026 A 
HETATM   29  C20 UNL     1      14.623   8.995 -11.430  1.00  0.00     0.034 A 
HETATM   30 CL1  UNL     1      13.529   7.656 -11.647  1.00  0.00    -0.084 Cl
HETATM   31  C21 UNL     1      14.401  10.201 -12.043  1.00  0.00     0.026 A 
HETATM   32  C22 UNL     1      15.288  11.270 -11.859  1.00  0.00     0.031 A 
ENDBRANCH  24  26
ENDBRANCH  11  24
TORSDOF 4
ENDMDL
