MODEL 6
REMARK VINA RESULT: -9.579202932      4.158      8.296
REMARK  4 active torsions:
REMARK  status: ('A' for Active; 'I' for Inactive)
REMARK       I    between atoms: C2_2  and  N1_4 
REMARK    1  A    between atoms: C6_8  and  C7_9 
REMARK    2  A    between atoms: C10_12  and  C11_13 
REMARK    3  A    between atoms: C16_20  and  N2_21 
REMARK    4  A    between atoms: N2_21  and  C17_23 
ROOT
HETATM    1  C1  UNL     1      19.913   8.453  -6.826  1.00  0.00     0.117 C 
HETATM    2  C2  UNL     1      20.945   8.459  -7.877  1.00  0.00     0.220 C 
HETATM    3  O1  UNL     1      22.062   7.939  -7.562  1.00  0.00    -0.273 OA
HETATM    4  N1  UNL     1      20.837   8.979  -9.182  1.00  0.00    -0.313 N 
HETATM    5  C3  UNL     1      19.616   9.482  -9.709  1.00  0.00     0.046 A 
HETATM    6  C4  UNL     1      18.430   8.894  -9.354  1.00  0.00     0.031 A 
HETATM    7  C5  UNL     1      17.275   9.449  -9.858  1.00  0.00     0.014 A 
HETATM    8  C6  UNL     1      17.278  10.561 -10.695  1.00  0.00    -0.025 A 
HETATM    9  C14 UNL     1      18.468  11.133 -11.039  1.00  0.00     0.024 A 
HETATM   10  C15 UNL     1      19.633  10.609 -10.560  1.00  0.00    -0.008 A 
HETATM   11  C16 UNL     1      21.001  11.084 -10.856  1.00  0.00     0.119 C 
HETATM   12  C23 UNL     1      21.830   9.880 -11.245  1.00  0.00     0.055 C 
HETATM   13  C24 UNL     1      22.041   9.042 -10.001  1.00  0.00     0.091 C 
HETATM   14  C25 UNL     1      22.562   7.662 -10.340  1.00  0.00     0.033 C 
ENDROOT
BRANCH   8  15
HETATM   15  C7  UNL     1      15.996  11.066 -11.168  1.00  0.00    -0.026 A 
HETATM   16  C8  UNL     1      14.831  10.884 -10.457  1.00  0.00     0.013 A 
HETATM   17  C9  UNL     1      13.615  11.360 -10.901  1.00  0.00     0.019 A 
HETATM   18  C10 UNL     1      13.524  12.043 -12.089  1.00  0.00     0.040 A 
HETATM   19  C12 UNL     1      14.674  12.237 -12.812  1.00  0.00     0.019 A 
HETATM   20  C13 UNL     1      15.899  11.754 -12.359  1.00  0.00     0.013 A 
BRANCH  18  21
HETATM   21  C11 UNL     1      12.251  12.556 -12.579  1.00  0.00     0.209 C 
HETATM   22  O2  UNL     1      12.234  13.506 -13.396  1.00  0.00    -0.644 OA
HETATM   23  O3  UNL     1      11.048  12.023 -12.170  1.00  0.00    -0.644 OA
ENDBRANCH  18  21
ENDBRANCH   8  15
BRANCH  11  24
HETATM   24  N2  UNL     1      21.109  12.184 -11.746  1.00  0.00    -0.381 N 
ATOM     25  H2  UNL     1      20.347  12.261 -12.419  1.00  0.00     0.160 HD
BRANCH  24  26
HETATM   26  C17 UNL     1      22.077  13.174 -11.853  1.00  0.00     0.028 A 
HETATM   27  C18 UNL     1      23.210  12.982 -12.629  1.00  0.00     0.031 A 
HETATM   28  C19 UNL     1      24.193  13.940 -12.772  1.00  0.00     0.026 A 
HETATM   29  C20 UNL     1      24.073  15.147 -12.128  1.00  0.00     0.034 A 
HETATM   30 CL1  UNL     1      25.308  16.364 -12.302  1.00  0.00    -0.084 Cl
HETATM   31  C21 UNL     1      22.963  15.366 -11.353  1.00  0.00     0.026 A 
HETATM   32  C22 UNL     1      21.977  14.379 -11.223  1.00  0.00     0.031 A 
ENDBRANCH  24  26
ENDBRANCH  11  24
TORSDOF 4
ENDMDL
