MODEL 5
REMARK VINA RESULT: -9.636023693      4.125      7.700
REMARK  4 active torsions:
REMARK  status: ('A' for Active; 'I' for Inactive)
REMARK       I    between atoms: C2_2  and  N1_4 
REMARK    1  A    between atoms: C6_8  and  C7_9 
REMARK    2  A    between atoms: C10_12  and  C11_13 
REMARK    3  A    between atoms: C16_20  and  N2_21 
REMARK    4  A    between atoms: N2_21  and  C17_23 
ROOT
HETATM    1  C1  UNL     1      20.013   8.479  -6.987  1.00  0.00     0.117 C 
HETATM    2  C2  UNL     1      20.986   8.568  -8.089  1.00  0.00     0.220 C 
HETATM    3  O1  UNL     1      22.142   8.094  -7.849  1.00  0.00    -0.273 OA
HETATM    4  N1  UNL     1      20.784   9.122  -9.369  1.00  0.00    -0.313 N 
HETATM    5  C3  UNL     1      19.515   9.579  -9.816  1.00  0.00     0.046 A 
HETATM    6  C4  UNL     1      18.378   8.924  -9.420  1.00  0.00     0.031 A 
HETATM    7  C5  UNL     1      17.173   9.436  -9.844  1.00  0.00     0.014 A 
HETATM    8  C6  UNL     1      17.080  10.573 -10.643  1.00  0.00    -0.025 A 
HETATM    9  C14 UNL     1      18.221  11.212 -11.029  1.00  0.00     0.024 A 
HETATM   10  C15 UNL     1      19.433  10.731 -10.628  1.00  0.00    -0.008 A 
HETATM   11  C16 UNL     1      20.759  11.282 -10.979  1.00  0.00     0.119 C 
HETATM   12  C23 UNL     1      21.623  10.132 -11.449  1.00  0.00     0.055 C 
HETATM   13  C24 UNL     1      21.939   9.269 -10.246  1.00  0.00     0.091 C 
HETATM   14  C25 UNL     1      22.506   7.927 -10.657  1.00  0.00     0.033 C 
ENDROOT
BRANCH   8  15
HETATM   15  C7  UNL     1      15.752  11.029 -11.033  1.00  0.00    -0.026 A 
HETATM   16  C8  UNL     1      15.515  11.640 -12.244  1.00  0.00     0.013 A 
HETATM   17  C9  UNL     1      14.260  12.074 -12.617  1.00  0.00     0.019 A 
HETATM   18  C10 UNL     1      13.186  11.908 -11.778  1.00  0.00     0.040 A 
HETATM   19  C12 UNL     1      13.400  11.300 -10.566  1.00  0.00     0.019 A 
HETATM   20  C13 UNL     1      14.670  10.865 -10.195  1.00  0.00     0.013 A 
BRANCH  18  21
HETATM   21  C11 UNL     1      11.850  12.358 -12.149  1.00  0.00     0.209 C 
HETATM   22  O2  UNL     1      11.587  12.606 -13.350  1.00  0.00    -0.644 OA
HETATM   23  O3  UNL     1      10.852  12.522 -11.213  1.00  0.00    -0.644 OA
ENDBRANCH  18  21
ENDBRANCH   8  15
BRANCH  11  24
HETATM   24  N2  UNL     1      20.768  12.413 -11.836  1.00  0.00    -0.381 N 
ATOM     25  H2  UNL     1      21.087  12.223 -12.786  1.00  0.00     0.160 HD
BRANCH  24  26
HETATM   26  C17 UNL     1      20.416  13.735 -11.599  1.00  0.00     0.028 A 
HETATM   27  C18 UNL     1      20.299  14.221 -10.306  1.00  0.00     0.031 A 
HETATM   28  C19 UNL     1      19.959  15.528 -10.024  1.00  0.00     0.026 A 
HETATM   29  C20 UNL     1      19.720  16.412 -11.048  1.00  0.00     0.034 A 
HETATM   30 CL1  UNL     1      19.292  18.065 -10.702  1.00  0.00    -0.084 Cl
HETATM   31  C21 UNL     1      19.828  15.960 -12.338  1.00  0.00     0.026 A 
HETATM   32  C22 UNL     1      20.174  14.628 -12.601  1.00  0.00     0.031 A 
ENDBRANCH  24  26
ENDBRANCH  11  24
TORSDOF 4
ENDMDL
