MODEL 7
REMARK VINA RESULT: -9.537999886      2.601      3.607
REMARK  4 active torsions:
REMARK  status: ('A' for Active; 'I' for Inactive)
REMARK       I    between atoms: C2_2  and  N1_4 
REMARK    1  A    between atoms: C6_8  and  C7_9 
REMARK    2  A    between atoms: C10_12  and  C11_13 
REMARK    3  A    between atoms: C16_20  and  N2_21 
REMARK    4  A    between atoms: N2_21  and  C17_23 
ROOT
HETATM    1  C1  UNL     1      18.576  14.927 -12.783  1.00  0.00     0.117 C 
HETATM    2  C2  UNL     1      17.353  14.257 -13.258  1.00  0.00     0.220 C 
HETATM    3  O1  UNL     1      16.631  14.925 -14.064  1.00  0.00    -0.273 OA
HETATM    4  N1  UNL     1      16.893  12.969 -12.917  1.00  0.00    -0.313 N 
HETATM    5  C3  UNL     1      17.654  12.068 -12.123  1.00  0.00     0.046 A 
HETATM    6  C4  UNL     1      19.019  12.047 -12.238  1.00  0.00     0.031 A 
HETATM    7  C5  UNL     1      19.709  11.188 -11.414  1.00  0.00     0.014 A 
HETATM    8  C6  UNL     1      19.075  10.361 -10.490  1.00  0.00    -0.025 A 
HETATM    9  C14 UNL     1      17.715  10.394 -10.390  1.00  0.00     0.024 A 
HETATM   10  C15 UNL     1      16.998  11.232 -11.192  1.00  0.00    -0.008 A 
HETATM   11  C16 UNL     1      15.527  11.370 -11.234  1.00  0.00     0.119 C 
HETATM   12  C23 UNL     1      15.101  11.300 -12.684  1.00  0.00     0.055 C 
HETATM   13  C24 UNL     1      15.564  12.572 -13.363  1.00  0.00     0.091 C 
HETATM   14  C25 UNL     1      15.488  12.458 -14.871  1.00  0.00     0.033 C 
ENDROOT
BRANCH   8  15
HETATM   15  C7  UNL     1      19.904   9.491  -9.666  1.00  0.00    -0.026 A 
HETATM   16  C8  UNL     1      19.785   9.452  -8.294  1.00  0.00     0.013 A 
HETATM   17  C9  UNL     1      20.567   8.631  -7.510  1.00  0.00     0.019 A 
HETATM   18  C10 UNL     1      21.510   7.811  -8.081  1.00  0.00     0.040 A 
HETATM   19  C12 UNL     1      21.644   7.834  -9.447  1.00  0.00     0.019 A 
HETATM   20  C13 UNL     1      20.851   8.666 -10.233  1.00  0.00     0.013 A 
BRANCH  18  21
HETATM   21  C11 UNL     1      22.349   6.935  -7.274  1.00  0.00     0.209 C 
HETATM   22  O2  UNL     1      23.546   6.748  -7.595  1.00  0.00    -0.644 OA
HETATM   23  O3  UNL     1      21.865   6.297  -6.152  1.00  0.00    -0.644 OA
ENDBRANCH  18  21
ENDBRANCH   8  15
BRANCH  11  24
HETATM   24  N2  UNL     1      14.789  10.528 -10.363  1.00  0.00    -0.381 N 
ATOM     25  H2  UNL     1      15.323   9.754  -9.967  1.00  0.00     0.160 HD
BRANCH  24  26
HETATM   26  C17 UNL     1      13.461  10.579  -9.958  1.00  0.00     0.028 A 
HETATM   27  C18 UNL     1      12.910   9.561  -9.195  1.00  0.00     0.031 A 
HETATM   28  C19 UNL     1      11.599   9.574  -8.764  1.00  0.00     0.026 A 
HETATM   29  C20 UNL     1      10.779  10.627  -9.089  1.00  0.00     0.034 A 
HETATM   30 CL1  UNL     1       9.123  10.653  -8.548  1.00  0.00    -0.084 Cl
HETATM   31  C21 UNL     1      11.297  11.648  -9.842  1.00  0.00     0.026 A 
HETATM   32  C22 UNL     1      12.631  11.615 -10.270  1.00  0.00     0.031 A 
ENDBRANCH  24  26
ENDBRANCH  11  24
TORSDOF 4
ENDMDL
