MODEL 1
REMARK VINA RESULT: -9.820915490      0.000      0.000
REMARK  4 active torsions:
REMARK  status: ('A' for Active; 'I' for Inactive)
REMARK       I    between atoms: C2_2  and  N1_4 
REMARK    1  A    between atoms: C6_8  and  C7_9 
REMARK    2  A    between atoms: C10_12  and  C11_13 
REMARK    3  A    between atoms: C16_20  and  N2_21 
REMARK    4  A    between atoms: N2_21  and  C17_23 
ROOT
HETATM    1  C1  UNL     1     -12.810  -4.688  56.504  1.00  0.00     0.117 C 
HETATM    2  C2  UNL     1     -13.914  -3.826  56.958  1.00  0.00     0.220 C 
HETATM    3  O1  UNL     1     -13.619  -2.966  57.847  1.00  0.00    -0.273 OA
HETATM    4  N1  UNL     1     -15.255  -3.851  56.526  1.00  0.00    -0.313 N 
HETATM    5  C3  UNL     1     -15.702  -4.676  55.458  1.00  0.00     0.046 A 
HETATM    6  C4  UNL     1     -14.876  -4.912  54.390  1.00  0.00     0.031 A 
HETATM    7  C5  UNL     1     -15.341  -5.755  53.406  1.00  0.00     0.014 A 
HETATM    8  C6  UNL     1     -16.595  -6.358  53.464  1.00  0.00    -0.025 A 
HETATM    9  C14 UNL     1     -17.404  -6.111  54.533  1.00  0.00     0.024 A 
HETATM   10  C15 UNL     1     -16.977  -5.280  55.527  1.00  0.00    -0.008 A 
HETATM   11  C16 UNL     1     -17.735  -4.884  56.732  1.00  0.00     0.119 C 
HETATM   12  C23 UNL     1     -17.647  -3.378  56.856  1.00  0.00     0.055 C 
HETATM   13  C24 UNL     1     -16.225  -3.028  57.239  1.00  0.00     0.091 C 
HETATM   14  C25 UNL     1     -15.946  -1.551  57.059  1.00  0.00     0.033 C 
ENDROOT
BRANCH   8  15
HETATM   15  C7  UNL     1     -16.985  -7.233  52.367  1.00  0.00    -0.026 A 
HETATM   16  C8  UNL     1     -18.272  -7.705  52.229  1.00  0.00     0.013 A 
HETATM   17  C9  UNL     1     -18.646  -8.534  51.193  1.00  0.00     0.019 A 
HETATM   18  C10 UNL     1     -17.731  -8.926  50.247  1.00  0.00     0.040 A 
HETATM   19  C12 UNL     1     -16.443  -8.467  50.365  1.00  0.00     0.019 A 
HETATM   20  C13 UNL     1     -16.071  -7.629  51.414  1.00  0.00     0.013 A 
BRANCH  18  21
HETATM   21  C11 UNL     1     -18.102  -9.802  49.143  1.00  0.00     0.209 C 
HETATM   22  O2  UNL     1     -17.243 -10.559  48.633  1.00  0.00    -0.644 OA
HETATM   23  O3  UNL     1     -19.382  -9.827  48.635  1.00  0.00    -0.644 OA
ENDBRANCH  18  21
ENDBRANCH   8  15
BRANCH  11  24
HETATM   24  N2  UNL     1     -19.048  -5.408  56.854  1.00  0.00    -0.381 N 
ATOM     25  H2  UNL     1     -19.634  -5.280  56.029  1.00  0.00     0.160 HD
BRANCH  24  26
HETATM   26  C17 UNL     1     -19.670  -6.066  57.907  1.00  0.00     0.028 A 
HETATM   27  C18 UNL     1     -19.776  -5.473  59.155  1.00  0.00     0.031 A 
HETATM   28  C19 UNL     1     -20.392  -6.085  60.227  1.00  0.00     0.026 A 
HETATM   29  C20 UNL     1     -20.935  -7.339  60.082  1.00  0.00     0.034 A 
HETATM   30 CL1  UNL     1     -21.716  -8.121  61.429  1.00  0.00    -0.084 Cl
HETATM   31  C21 UNL     1     -20.847  -7.951  58.858  1.00  0.00     0.026 A 
HETATM   32  C22 UNL     1     -20.216  -7.310  57.784  1.00  0.00     0.031 A 
ENDBRANCH  24  26
ENDBRANCH  11  24
TORSDOF 4
ENDMDL
