MODEL 9
REMARK VINA RESULT: -9.098573062      5.032      6.627
REMARK  4 active torsions:
REMARK  status: ('A' for Active; 'I' for Inactive)
REMARK       I    between atoms: C2_2  and  N1_4 
REMARK    1  A    between atoms: C6_8  and  C7_9 
REMARK    2  A    between atoms: C10_12  and  C11_13 
REMARK    3  A    between atoms: C16_20  and  N2_21 
REMARK    4  A    between atoms: N2_21  and  C17_23 
ROOT
HETATM    1  C1  UNL     1     -18.583  -8.304  51.417  1.00  0.00     0.117 C 
HETATM    2  C2  UNL     1     -17.603  -7.753  52.369  1.00  0.00     0.220 C 
HETATM    3  O1  UNL     1     -16.472  -8.334  52.402  1.00  0.00    -0.273 OA
HETATM    4  N1  UNL     1     -17.780  -6.664  53.247  1.00  0.00    -0.313 N 
HETATM    5  C3  UNL     1     -18.945  -5.850  53.235  1.00  0.00     0.046 A 
HETATM    6  C4  UNL     1     -19.576  -5.583  52.048  1.00  0.00     0.031 A 
HETATM    7  C5  UNL     1     -20.725  -4.827  52.100  1.00  0.00     0.014 A 
HETATM    8  C6  UNL     1     -21.251  -4.340  53.293  1.00  0.00    -0.025 A 
HETATM    9  C14 UNL     1     -20.609  -4.614  54.465  1.00  0.00     0.024 A 
HETATM   10  C15 UNL     1     -19.467  -5.359  54.452  1.00  0.00    -0.008 A 
HETATM   11  C16 UNL     1     -18.636  -5.720  55.620  1.00  0.00     0.119 C 
HETATM   12  C23 UNL     1     -17.198  -5.402  55.277  1.00  0.00     0.055 C 
HETATM   13  C24 UNL     1     -16.740  -6.399  54.233  1.00  0.00     0.091 C 
HETATM   14  C25 UNL     1     -15.444  -5.968  53.580  1.00  0.00     0.033 C 
ENDROOT
BRANCH   8  15
HETATM   15  C7  UNL     1     -22.474  -3.551  53.231  1.00  0.00    -0.026 A 
HETATM   16  C8  UNL     1     -22.455  -2.183  53.073  1.00  0.00     0.013 A 
HETATM   17  C9  UNL     1     -23.611  -1.432  53.014  1.00  0.00     0.019 A 
HETATM   18  C10 UNL     1     -24.841  -2.035  53.114  1.00  0.00     0.040 A 
HETATM   19  C12 UNL     1     -24.882  -3.398  53.270  1.00  0.00     0.019 A 
HETATM   20  C13 UNL     1     -23.712  -4.150  53.329  1.00  0.00     0.013 A 
BRANCH  18  21
HETATM   21  C11 UNL     1     -26.076  -1.263  53.055  1.00  0.00     0.209 C 
HETATM   22  O2  UNL     1     -26.053  -0.080  52.642  1.00  0.00    -0.644 OA
HETATM   23  O3  UNL     1     -27.285  -1.798  53.442  1.00  0.00    -0.644 OA
ENDBRANCH  18  21
ENDBRANCH   8  15
BRANCH  11  24
HETATM   24  N2  UNL     1     -19.064  -5.222  56.878  1.00  0.00    -0.381 N 
ATOM     25  H2  UNL     1     -18.950  -4.216  56.997  1.00  0.00     0.160 HD
BRANCH  24  26
HETATM   26  C17 UNL     1     -19.612  -5.874  57.975  1.00  0.00     0.028 A 
HETATM   27  C18 UNL     1     -19.651  -5.265  59.220  1.00  0.00     0.031 A 
HETATM   28  C19 UNL     1     -20.194  -5.872  60.334  1.00  0.00     0.026 A 
HETATM   29  C20 UNL     1     -20.725  -7.134  60.239  1.00  0.00     0.034 A 
HETATM   30 CL1  UNL     1     -21.413  -7.908  61.640  1.00  0.00    -0.084 Cl
HETATM   31  C21 UNL     1     -20.701  -7.762  59.020  1.00  0.00     0.026 A 
HETATM   32  C22 UNL     1     -20.146  -7.127  57.901  1.00  0.00     0.031 A 
ENDBRANCH  24  26
ENDBRANCH  11  24
TORSDOF 4
ENDMDL
