MODEL 3
REMARK VINA RESULT: -9.780642884      2.580      2.922
REMARK  4 active torsions:
REMARK  status: ('A' for Active; 'I' for Inactive)
REMARK       I    between atoms: C2_2  and  N1_4 
REMARK    1  A    between atoms: C6_8  and  C7_9 
REMARK    2  A    between atoms: C10_12  and  C11_13 
REMARK    3  A    between atoms: C16_20  and  N2_21 
REMARK    4  A    between atoms: N2_21  and  C17_23 
ROOT
HETATM    1  C1  UNL     1     -12.914  -4.931  56.647  1.00  0.00     0.117 C 
HETATM    2  C2  UNL     1     -13.950  -3.927  56.946  1.00  0.00     0.220 C 
HETATM    3  O1  UNL     1     -13.642  -3.054  57.818  1.00  0.00    -0.273 OA
HETATM    4  N1  UNL     1     -15.238  -3.830  56.382  1.00  0.00    -0.313 N 
HETATM    5  C3  UNL     1     -15.673  -4.663  55.315  1.00  0.00     0.046 A 
HETATM    6  C4  UNL     1     -14.782  -5.050  54.349  1.00  0.00     0.031 A 
HETATM    7  C5  UNL     1     -15.245  -5.893  53.364  1.00  0.00     0.014 A 
HETATM    8  C6  UNL     1     -16.560  -6.351  53.324  1.00  0.00    -0.025 A 
HETATM    9  C14 UNL     1     -17.433  -5.954  54.293  1.00  0.00     0.024 A 
HETATM   10  C15 UNL     1     -17.010  -5.118  55.284  1.00  0.00    -0.008 A 
HETATM   11  C16 UNL     1     -17.828  -4.570  56.386  1.00  0.00     0.119 C 
HETATM   12  C23 UNL     1     -17.580  -3.079  56.446  1.00  0.00     0.055 C 
HETATM   13  C24 UNL     1     -16.169  -2.865  56.953  1.00  0.00     0.091 C 
HETATM   14  C25 UNL     1     -15.707  -1.441  56.733  1.00  0.00     0.033 C 
ENDROOT
BRANCH   8  15
HETATM   15  C7  UNL     1     -16.942  -7.241  52.236  1.00  0.00    -0.026 A 
HETATM   16  C8  UNL     1     -18.240  -7.670  52.064  1.00  0.00     0.013 A 
HETATM   17  C9  UNL     1     -18.607  -8.513  51.036  1.00  0.00     0.019 A 
HETATM   18  C10 UNL     1     -17.674  -8.962  50.134  1.00  0.00     0.040 A 
HETATM   19  C12 UNL     1     -16.375  -8.546  50.287  1.00  0.00     0.019 A 
HETATM   20  C13 UNL     1     -16.011  -7.695  51.328  1.00  0.00     0.013 A 
BRANCH  18  21
HETATM   21  C11 UNL     1     -18.037  -9.854  49.041  1.00  0.00     0.209 C 
HETATM   22  O2  UNL     1     -17.149 -10.523  48.460  1.00  0.00    -0.644 OA
HETATM   23  O3  UNL     1     -19.341  -9.990  48.617  1.00  0.00    -0.644 OA
ENDBRANCH  18  21
ENDBRANCH   8  15
BRANCH  11  24
HETATM   24  N2  UNL     1     -19.198  -4.939  56.400  1.00  0.00    -0.381 N 
ATOM     25  H2  UNL     1     -19.422  -5.716  57.022  1.00  0.00     0.160 HD
BRANCH  24  26
HETATM   26  C17 UNL     1     -20.286  -4.421  55.709  1.00  0.00     0.028 A 
HETATM   27  C18 UNL     1     -20.927  -3.273  56.148  1.00  0.00     0.031 A 
HETATM   28  C19 UNL     1     -22.006  -2.718  55.489  1.00  0.00     0.026 A 
HETATM   29  C20 UNL     1     -22.488  -3.306  54.345  1.00  0.00     0.034 A 
HETATM   30 CL1  UNL     1     -23.848  -2.613  53.506  1.00  0.00    -0.084 Cl
HETATM   31  C21 UNL     1     -21.873  -4.442  53.887  1.00  0.00     0.026 A 
HETATM   32  C22 UNL     1     -20.780  -4.989  54.571  1.00  0.00     0.031 A 
ENDBRANCH  24  26
ENDBRANCH  11  24
TORSDOF 4
ENDMDL
