MODEL 2
REMARK VINA RESULT: -9.795155410      5.323      6.255
REMARK  4 active torsions:
REMARK  status: ('A' for Active; 'I' for Inactive)
REMARK       I    between atoms: C2_2  and  N1_4 
REMARK    1  A    between atoms: C6_8  and  C7_9 
REMARK    2  A    between atoms: C10_12  and  C11_13 
REMARK    3  A    between atoms: C16_20  and  N2_21 
REMARK    4  A    between atoms: N2_21  and  C17_23 
ROOT
HETATM    1  C1  UNL     1     -20.401  -4.008  58.731  1.00  0.00     0.117 C 
HETATM    2  C2  UNL     1     -21.207  -3.037  57.971  1.00  0.00     0.220 C 
HETATM    3  O1  UNL     1     -21.876  -2.207  58.664  1.00  0.00    -0.273 OA
HETATM    4  N1  UNL     1     -21.323  -2.928  56.571  1.00  0.00    -0.313 N 
HETATM    5  C3  UNL     1     -20.545  -3.709  55.673  1.00  0.00     0.046 A 
HETATM    6  C4  UNL     1     -19.253  -4.031  55.998  1.00  0.00     0.031 A 
HETATM    7  C5  UNL     1     -18.560  -4.827  55.114  1.00  0.00     0.014 A 
HETATM    8  C6  UNL     1     -19.119  -5.300  53.931  1.00  0.00    -0.025 A 
HETATM    9  C14 UNL     1     -20.406  -4.968  53.623  1.00  0.00     0.024 A 
HETATM   10  C15 UNL     1     -21.123  -4.180  54.474  1.00  0.00    -0.008 A 
HETATM   11  C16 UNL     1     -22.509  -3.704  54.279  1.00  0.00     0.119 C 
HETATM   12  C23 UNL     1     -22.524  -2.215  54.545  1.00  0.00     0.055 C 
HETATM   13  C24 UNL     1     -22.317  -2.008  56.031  1.00  0.00     0.091 C 
HETATM   14  C25 UNL     1     -21.981  -0.568  56.352  1.00  0.00     0.033 C 
ENDROOT
BRANCH   8  15
HETATM   15  C7  UNL     1     -18.295  -6.137  53.069  1.00  0.00    -0.026 A 
HETATM   16  C8  UNL     1     -18.764  -7.312  52.525  1.00  0.00     0.013 A 
HETATM   17  C9  UNL     1     -17.987  -8.108  51.709  1.00  0.00     0.019 A 
HETATM   18  C10 UNL     1     -16.696  -7.749  51.408  1.00  0.00     0.040 A 
HETATM   19  C12 UNL     1     -16.209  -6.581  51.940  1.00  0.00     0.019 A 
HETATM   20  C13 UNL     1     -16.999  -5.782  52.763  1.00  0.00     0.013 A 
BRANCH  18  21
HETATM   21  C11 UNL     1     -15.855  -8.573  50.549  1.00  0.00     0.209 C 
HETATM   22  O2  UNL     1     -14.641  -8.722  50.823  1.00  0.00    -0.644 OA
HETATM   23  O3  UNL     1     -16.356  -9.204  49.431  1.00  0.00    -0.644 OA
ENDBRANCH  18  21
ENDBRANCH   8  15
BRANCH  11  24
HETATM   24  N2  UNL     1     -23.147  -4.093  53.073  1.00  0.00    -0.381 N 
ATOM     25  H2  UNL     1     -22.512  -4.411  52.341  1.00  0.00     0.160 HD
BRANCH  24  26
HETATM   26  C17 UNL     1     -24.490  -4.113  52.721  1.00  0.00     0.028 A 
HETATM   27  C18 UNL     1     -25.474  -3.806  53.648  1.00  0.00     0.031 A 
HETATM   28  C19 UNL     1     -26.820  -3.806  53.340  1.00  0.00     0.026 A 
HETATM   29  C20 UNL     1     -27.233  -4.118  52.068  1.00  0.00     0.034 A 
HETATM   30 CL1  UNL     1     -28.930  -4.119  51.670  1.00  0.00    -0.084 Cl
HETATM   31  C21 UNL     1     -26.282  -4.425  51.130  1.00  0.00     0.026 A 
HETATM   32  C22 UNL     1     -24.922  -4.420  51.464  1.00  0.00     0.031 A 
ENDBRANCH  24  26
ENDBRANCH  11  24
TORSDOF 4
ENDMDL
