MODEL 7
REMARK VINA RESULT: -9.218189406      4.936      6.723
REMARK  4 active torsions:
REMARK  status: ('A' for Active; 'I' for Inactive)
REMARK       I    between atoms: C2_2  and  N1_4 
REMARK    1  A    between atoms: C6_8  and  C7_9 
REMARK    2  A    between atoms: C10_12  and  C11_13 
REMARK    3  A    between atoms: C16_20  and  N2_21 
REMARK    4  A    between atoms: N2_21  and  C17_23 
ROOT
HETATM    1  C1  UNL     1     -18.645  -8.321  51.559  1.00  0.00     0.117 C 
HETATM    2  C2  UNL     1     -17.605  -7.718  52.410  1.00  0.00     0.220 C 
HETATM    3  O1  UNL     1     -16.446  -8.234  52.320  1.00  0.00    -0.273 OA
HETATM    4  N1  UNL     1     -17.750  -6.645  53.311  1.00  0.00    -0.313 N 
HETATM    5  C3  UNL     1     -18.954  -5.898  53.428  1.00  0.00     0.046 A 
HETATM    6  C4  UNL     1     -19.719  -5.664  52.315  1.00  0.00     0.031 A 
HETATM    7  C5  UNL     1     -20.898  -4.976  52.493  1.00  0.00     0.014 A 
HETATM    8  C6  UNL     1     -21.323  -4.523  53.739  1.00  0.00    -0.025 A 
HETATM    9  C14 UNL     1     -20.548  -4.763  54.836  1.00  0.00     0.024 A 
HETATM   10  C15 UNL     1     -19.373  -5.441  54.697  1.00  0.00    -0.008 A 
HETATM   11  C16 UNL     1     -18.406  -5.758  55.769  1.00  0.00     0.119 C 
HETATM   12  C23 UNL     1     -17.031  -5.357  55.280  1.00  0.00     0.055 C 
HETATM   13  C24 UNL     1     -16.629  -6.323  54.186  1.00  0.00     0.091 C 
HETATM   14  C25 UNL     1     -15.435  -5.817  53.406  1.00  0.00     0.033 C 
ENDROOT
BRANCH   8  15
HETATM   15  C7  UNL     1     -22.589  -3.806  53.812  1.00  0.00    -0.026 A 
HETATM   16  C8  UNL     1     -22.740  -2.662  54.565  1.00  0.00     0.013 A 
HETATM   17  C9  UNL     1     -23.936  -1.980  54.638  1.00  0.00     0.019 A 
HETATM   18  C10 UNL     1     -25.037  -2.426  53.950  1.00  0.00     0.040 A 
HETATM   19  C12 UNL     1     -24.908  -3.564  53.193  1.00  0.00     0.019 A 
HETATM   20  C13 UNL     1     -23.698  -4.248  53.124  1.00  0.00     0.013 A 
BRANCH  18  21
HETATM   21  C11 UNL     1     -26.312  -1.723  54.011  1.00  0.00     0.209 C 
HETATM   22  O2  UNL     1     -26.443  -0.733  54.769  1.00  0.00    -0.644 OA
HETATM   23  O3  UNL     1     -27.394  -2.114  53.253  1.00  0.00    -0.644 OA
ENDBRANCH  18  21
ENDBRANCH   8  15
BRANCH  11  24
HETATM   24  N2  UNL     1     -18.727  -5.290  57.069  1.00  0.00    -0.381 N 
ATOM     25  H2  UNL     1     -18.434  -4.332  57.259  1.00  0.00     0.160 HD
BRANCH  24  26
HETATM   26  C17 UNL     1     -19.374  -5.916  58.127  1.00  0.00     0.028 A 
HETATM   27  C18 UNL     1     -20.060  -7.106  57.939  1.00  0.00     0.031 A 
HETATM   28  C19 UNL     1     -20.710  -7.767  58.961  1.00  0.00     0.026 A 
HETATM   29  C20 UNL     1     -20.694  -7.248  60.233  1.00  0.00     0.034 A 
HETATM   30 CL1  UNL     1     -21.510  -8.076  61.531  1.00  0.00    -0.084 Cl
HETATM   31  C21 UNL     1     -20.023  -6.073  60.450  1.00  0.00     0.026 A 
HETATM   32  C22 UNL     1     -19.370  -5.418  59.397  1.00  0.00     0.031 A 
ENDBRANCH  24  26
ENDBRANCH  11  24
TORSDOF 4
ENDMDL
