MODEL 9
REMARK VINA RESULT: -10.182387051      1.626      2.025
REMARK  7 active torsions:
REMARK  status: ('A' for Active; 'I' for Inactive)
REMARK    1  A    between atoms: C5_5  and  C6_6 
REMARK       I    between atoms: C6_6  and  N1_8 
REMARK    2  A    between atoms: N1_8  and  C7_10 
REMARK    3  A    between atoms: C10_13  and  C11_14 
REMARK    4  A    between atoms: C11_14  and  N2_15 
REMARK    5  A    between atoms: C17_22  and  C18_23 
REMARK    6  A    between atoms: C21_29  and  C22_30 
REMARK    7  A    between atoms: C23_31  and  C24_32 
ROOT
HETATM    1  C6  UNL     1      88.299   1.484  17.652  1.00  0.00     0.256 C 
HETATM    2  O1  UNL     1      87.186   0.903  17.535  1.00  0.00    -0.267 OA
HETATM    3  N1  UNL     1      88.936   1.654  18.890  1.00  0.00    -0.323 N 
ATOM      4  H1  UNL     1      89.838   2.129  18.904  1.00  0.00     0.169 HD
ENDROOT
BRANCH   1   5
HETATM    5  C5  UNL     1      88.879   1.974  16.378  1.00  0.00     0.033 A 
HETATM    6  C4  UNL     1      89.970   2.828  16.375  1.00  0.00     0.017 A 
HETATM    7  C3  UNL     1      90.544   3.305  15.206  1.00  0.00     0.009 A 
HETATM    8  C2  UNL     1      89.974   2.887  14.012  1.00  0.00    -0.043 A 
HETATM    9  C1  UNL     1      90.528   3.350  12.701  1.00  0.00     0.049 C 
HETATM   10  C21 UNL     1      88.889   2.041  13.976  1.00  0.00     0.025 A 
HETATM   11  C20 UNL     1      88.346   1.586  15.188  1.00  0.00     0.038 A 
BRANCH  10  12
HETATM   12  C22 UNL     1      88.284   1.598  12.756  1.00  0.00    -0.059 C 
HETATM   13  C23 UNL     1      87.777   1.242  11.714  1.00  0.00    -0.040 C 
BRANCH  13  14
HETATM   14  C24 UNL     1      87.179   0.846  10.470  1.00  0.00     0.127 A 
HETATM   15  C25 UNL     1      87.534  -0.295   9.787  1.00  0.00     0.130 A 
HETATM   16  N4  UNL     1      86.782  -0.373   8.658  1.00  0.00    -0.348 N 
HETATM   17  C26 UNL     1      85.975   0.689   8.628  1.00  0.00     0.128 A 
ATOM     18  H4  UNL     1      86.827  -1.113   7.957  1.00  0.00     0.167 HD
HETATM   19  C27 UNL     1      85.027   1.074   7.701  1.00  0.00     0.052 A 
HETATM   20  N6  UNL     1      86.223   1.432   9.740  1.00  0.00    -0.231 N 
HETATM   21  C28 UNL     1      84.333   2.241   7.938  1.00  0.00     0.022 A 
HETATM   22  C29 UNL     1      84.614   2.976   9.088  1.00  0.00     0.108 A 
HETATM   23  N5  UNL     1      85.548   2.552   9.955  1.00  0.00    -0.303 N 
ATOM     24  H5  UNL     1      85.741   3.102  10.793  1.00  0.00     0.186 HD
ENDBRANCH  13  14
ENDBRANCH  10  12
ENDBRANCH   1   5
BRANCH   3  25
HETATM   25  C7  UNL     1      88.397   1.204  20.120  1.00  0.00     0.035 A 
HETATM   26  C8  UNL     1      87.254   0.390  20.101  1.00  0.00     0.030 A 
HETATM   27  C9  UNL     1      86.724  -0.077  21.272  1.00  0.00     0.016 A 
HETATM   28  C10 UNL     1      87.262   0.208  22.517  1.00  0.00    -0.006 A 
HETATM   29  C17 UNL     1      88.391   1.010  22.547  1.00  0.00     0.061 A 
HETATM   30  C19 UNL     1      88.924   1.482  21.331  1.00  0.00     0.046 A 
BRANCH  28  31
HETATM   31  C11 UNL     1      86.764  -0.268  23.779  1.00  0.00     0.098 C 
BRANCH  31  32
HETATM   32  N2  UNL     1      86.345   0.616  24.801  1.00  0.00    -0.386 N 
HETATM   33  C12 UNL     1      86.500   0.150  26.160  1.00  0.00     0.152 C 
HETATM   34  C13 UNL     1      85.341   0.588  27.035  1.00  0.00     0.291 C 
HETATM   35  N3  UNL     1      85.349   2.040  26.993  1.00  0.00     0.087 N 
HETATM   36  C14 UNL     1      84.493   2.640  27.974  1.00  0.00     0.310 C 
HETATM   37  C15 UNL     1      85.128   2.487  25.658  1.00  0.00     0.291 C 
HETATM   38  C16 UNL     1      85.141   1.345  24.626  1.00  0.00     0.152 C 
ENDBRANCH  31  32
ENDBRANCH  28  31
BRANCH  29  39
HETATM   39  C18 UNL     1      89.022   1.387  23.780  1.00  0.00     0.418 C 
HETATM   40  F1  UNL     1      88.243   2.352  24.434  1.00  0.00    -0.166 F 
HETATM   41  F2  UNL     1      89.357   0.366  24.632  1.00  0.00    -0.166 F 
HETATM   42  F3  UNL     1      90.214   2.044  23.524  1.00  0.00    -0.166 F 
ENDBRANCH  29  39
ENDBRANCH   3  25
TORSDOF 7
ENDMDL
