MODEL 4
REMARK VINA RESULT: -11.114367060      0.818      1.203
REMARK  7 active torsions:
REMARK  status: ('A' for Active; 'I' for Inactive)
REMARK    1  A    between atoms: C5_5  and  C6_6 
REMARK       I    between atoms: C6_6  and  N1_8 
REMARK    2  A    between atoms: N1_8  and  C7_10 
REMARK    3  A    between atoms: C10_13  and  C11_14 
REMARK    4  A    between atoms: C11_14  and  N2_15 
REMARK    5  A    between atoms: C17_22  and  C18_23 
REMARK    6  A    between atoms: C21_29  and  C22_30 
REMARK    7  A    between atoms: C23_31  and  C24_32 
ROOT
HETATM    1  C6  UNL     1      88.198   1.300  18.060  1.00  0.00     0.256 C 
HETATM    2  O1  UNL     1      87.205   0.553  17.842  1.00  0.00    -0.267 OA
HETATM    3  N1  UNL     1      88.663   1.580  19.353  1.00  0.00    -0.323 N 
ATOM      4  H1  UNL     1      89.476   2.188  19.450  1.00  0.00     0.169 HD
ENDROOT
BRANCH   1   5
HETATM    5  C5  UNL     1      88.832   1.859  16.841  1.00  0.00     0.033 A 
HETATM    6  C4  UNL     1      89.882   2.758  16.935  1.00  0.00     0.017 A 
HETATM    7  C3  UNL     1      90.504   3.299  15.819  1.00  0.00     0.009 A 
HETATM    8  C2  UNL     1      90.028   2.900  14.579  1.00  0.00    -0.043 A 
HETATM    9  C1  UNL     1      90.640   3.431  13.321  1.00  0.00     0.049 C 
HETATM   10  C21 UNL     1      88.987   2.009  14.448  1.00  0.00     0.025 A 
HETATM   11  C20 UNL     1      88.391   1.490  15.608  1.00  0.00     0.038 A 
BRANCH  10  12
HETATM   12  C22 UNL     1      88.478   1.583  13.179  1.00  0.00    -0.059 C 
HETATM   13  C23 UNL     1      88.027   1.224  12.112  1.00  0.00    -0.040 C 
BRANCH  13  14
HETATM   14  C24 UNL     1      87.469   0.799  10.860  1.00  0.00     0.127 A 
HETATM   15  C25 UNL     1      87.802  -0.386  10.244  1.00  0.00     0.130 A 
HETATM   16  N4  UNL     1      87.099  -0.482   9.085  1.00  0.00    -0.348 N 
HETATM   17  C26 UNL     1      86.344   0.613   8.971  1.00  0.00     0.128 A 
ATOM     18  H4  UNL     1      87.141  -1.253   8.419  1.00  0.00     0.167 HD
HETATM   19  C27 UNL     1      85.458   0.997   7.985  1.00  0.00     0.052 A 
HETATM   20  N6  UNL     1      86.575   1.394  10.060  1.00  0.00    -0.231 N 
HETATM   21  C28 UNL     1      84.809   2.203   8.138  1.00  0.00     0.022 A 
HETATM   22  C29 UNL     1      85.071   2.976   9.267  1.00  0.00     0.108 A 
HETATM   23  N5  UNL     1      85.944   2.551  10.195  1.00  0.00    -0.303 N 
ATOM     24  H5  UNL     1      86.124   3.129  11.016  1.00  0.00     0.186 HD
ENDBRANCH  13  14
ENDBRANCH  10  12
ENDBRANCH   1   5
BRANCH   3  25
HETATM   25  C7  UNL     1      88.068   1.066  20.531  1.00  0.00     0.035 A 
HETATM   26  C8  UNL     1      87.532   1.965  21.466  1.00  0.00     0.030 A 
HETATM   27  C9  UNL     1      86.934   1.499  22.603  1.00  0.00     0.016 A 
HETATM   28  C10 UNL     1      86.814   0.150  22.901  1.00  0.00    -0.006 A 
HETATM   29  C17 UNL     1      87.339  -0.746  21.984  1.00  0.00     0.061 A 
HETATM   30  C19 UNL     1      87.953  -0.247  20.818  1.00  0.00     0.046 A 
BRANCH  28  31
HETATM   31  C11 UNL     1      86.180  -0.402  24.066  1.00  0.00     0.098 C 
BRANCH  31  32
HETATM   32  N2  UNL     1      85.742   0.411  25.139  1.00  0.00    -0.386 N 
HETATM   33  C12 UNL     1      84.925   1.550  24.793  1.00  0.00     0.152 C 
HETATM   34  C13 UNL     1      85.247   2.752  25.661  1.00  0.00     0.291 C 
HETATM   35  N3  UNL     1      84.978   2.330  27.025  1.00  0.00     0.087 N 
HETATM   36  C14 UNL     1      84.966   3.415  27.962  1.00  0.00     0.310 C 
HETATM   37  C15 UNL     1      85.838   1.249  27.376  1.00  0.00     0.291 C 
HETATM   38  C16 UNL     1      86.652   0.710  26.186  1.00  0.00     0.152 C 
ENDBRANCH  31  32
ENDBRANCH  28  31
BRANCH  29  39
HETATM   39  C18 UNL     1      87.292  -2.165  22.197  1.00  0.00     0.418 C 
HETATM   40  F1  UNL     1      88.331  -2.785  21.489  1.00  0.00    -0.166 F 
HETATM   41  F2  UNL     1      87.267  -2.586  23.502  1.00  0.00    -0.166 F 
HETATM   42  F3  UNL     1      86.145  -2.694  21.629  1.00  0.00    -0.166 F 
ENDBRANCH  29  39
ENDBRANCH   3  25
TORSDOF 7
ENDMDL
