MODEL 5
REMARK VINA RESULT: -10.724217085      0.950      1.701
REMARK  7 active torsions:
REMARK  status: ('A' for Active; 'I' for Inactive)
REMARK    1  A    between atoms: C5_5  and  C6_6 
REMARK       I    between atoms: C6_6  and  N1_8 
REMARK    2  A    between atoms: N1_8  and  C7_10 
REMARK    3  A    between atoms: C10_13  and  C11_14 
REMARK    4  A    between atoms: C11_14  and  N2_15 
REMARK    5  A    between atoms: C17_22  and  C18_23 
REMARK    6  A    between atoms: C21_29  and  C22_30 
REMARK    7  A    between atoms: C23_31  and  C24_32 
ROOT
HETATM    1  C6  UNL     1      88.118   1.214  17.595  1.00  0.00     0.256 C 
HETATM    2  O1  UNL     1      86.857   1.220  17.548  1.00  0.00    -0.267 OA
HETATM    3  N1  UNL     1      88.829   0.693  18.685  1.00  0.00    -0.323 N 
ATOM      4  H1  UNL     1      89.849   0.716  18.648  1.00  0.00     0.169 HD
ENDROOT
BRANCH   1   5
HETATM    5  C5  UNL     1      88.784   1.802  16.409  1.00  0.00     0.033 A 
HETATM    6  C4  UNL     1      90.079   2.290  16.490  1.00  0.00     0.017 A 
HETATM    7  C3  UNL     1      90.738   2.843  15.402  1.00  0.00     0.009 A 
HETATM    8  C2  UNL     1      90.042   2.892  14.204  1.00  0.00    -0.043 A 
HETATM    9  C1  UNL     1      90.676   3.471  12.978  1.00  0.00     0.049 C 
HETATM   10  C21 UNL     1      88.755   2.417  14.086  1.00  0.00     0.025 A 
HETATM   11  C20 UNL     1      88.132   1.867  15.216  1.00  0.00     0.038 A 
BRANCH  10  12
HETATM   12  C22 UNL     1      88.017   2.458  12.860  1.00  0.00    -0.059 C 
HETATM   13  C23 UNL     1      87.373   2.495  11.833  1.00  0.00    -0.040 C 
BRANCH  13  14
HETATM   14  C24 UNL     1      86.588   2.538  10.632  1.00  0.00     0.127 A 
HETATM   15  C25 UNL     1      85.778   3.598  10.292  1.00  0.00     0.130 A 
HETATM   16  N4  UNL     1      85.182   3.321   9.102  1.00  0.00    -0.348 N 
HETATM   17  C26 UNL     1      85.603   2.120   8.702  1.00  0.00     0.128 A 
ATOM     18  H4  UNL     1      84.529   3.925   8.604  1.00  0.00     0.167 HD
HETATM   19  C27 UNL     1      85.298   1.389   7.572  1.00  0.00     0.052 A 
HETATM   20  N6  UNL     1      86.464   1.645   9.643  1.00  0.00    -0.231 N 
HETATM   21  C28 UNL     1      85.895   0.156   7.422  1.00  0.00     0.022 A 
HETATM   22  C29 UNL     1      86.771  -0.297   8.406  1.00  0.00     0.108 A 
HETATM   23  N5  UNL     1      87.031   0.458   9.486  1.00  0.00    -0.303 N 
ATOM     24  H5  UNL     1      87.676   0.111  10.197  1.00  0.00     0.186 HD
ENDBRANCH  13  14
ENDBRANCH  10  12
ENDBRANCH   1   5
BRANCH   3  25
HETATM   25  C7  UNL     1      88.215   0.135  19.833  1.00  0.00     0.035 A 
HETATM   26  C8  UNL     1      87.715   0.999  20.820  1.00  0.00     0.030 A 
HETATM   27  C9  UNL     1      87.098   0.490  21.929  1.00  0.00     0.016 A 
HETATM   28  C10 UNL     1      86.925  -0.868  22.148  1.00  0.00    -0.006 A 
HETATM   29  C17 UNL     1      87.415  -1.729  21.179  1.00  0.00     0.061 A 
HETATM   30  C19 UNL     1      88.048  -1.188  20.043  1.00  0.00     0.046 A 
BRANCH  28  31
HETATM   31  C11 UNL     1      86.269  -1.461  23.280  1.00  0.00     0.098 C 
BRANCH  31  32
HETATM   32  N2  UNL     1      85.883  -0.699  24.408  1.00  0.00    -0.386 N 
HETATM   33  C12 UNL     1      84.902   0.336  24.182  1.00  0.00     0.152 C 
HETATM   34  C13 UNL     1      85.192   1.571  25.013  1.00  0.00     0.291 C 
HETATM   35  N3  UNL     1      85.151   1.128  26.396  1.00  0.00     0.087 N 
HETATM   36  C14 UNL     1      85.136   2.209  27.337  1.00  0.00     0.310 C 
HETATM   37  C15 UNL     1      86.169   0.157  26.622  1.00  0.00     0.291 C 
HETATM   38  C16 UNL     1      86.880  -0.290  25.333  1.00  0.00     0.152 C 
ENDBRANCH  31  32
ENDBRANCH  28  31
BRANCH  29  39
HETATM   39  C18 UNL     1      87.312  -3.154  21.309  1.00  0.00     0.418 C 
HETATM   40  F1  UNL     1      88.119  -3.593  22.368  1.00  0.00    -0.166 F 
HETATM   41  F2  UNL     1      86.044  -3.668  21.413  1.00  0.00    -0.166 F 
HETATM   42  F3  UNL     1      87.858  -3.775  20.198  1.00  0.00    -0.166 F 
ENDBRANCH  29  39
ENDBRANCH   3  25
TORSDOF 7
ENDMDL
