MODEL 6
REMARK VINA RESULT: -10.474815420      4.443     13.294
REMARK  7 active torsions:
REMARK  status: ('A' for Active; 'I' for Inactive)
REMARK    1  A    between atoms: C5_5  and  C6_6 
REMARK       I    between atoms: C6_6  and  N1_8 
REMARK    2  A    between atoms: N1_8  and  C7_10 
REMARK    3  A    between atoms: C10_13  and  C11_14 
REMARK    4  A    between atoms: C11_14  and  N2_15 
REMARK    5  A    between atoms: C17_22  and  C18_23 
REMARK    6  A    between atoms: C21_29  and  C22_30 
REMARK    7  A    between atoms: C23_31  and  C24_32 
ROOT
HETATM    1  C6  UNL     1      87.919   1.931  12.378  1.00  0.00     0.256 C 
HETATM    2  O1  UNL     1      87.926   0.716  12.041  1.00  0.00    -0.267 OA
HETATM    3  N1  UNL     1      87.169   2.899  11.697  1.00  0.00    -0.323 N 
ATOM      4  H1  UNL     1      87.208   3.862  12.032  1.00  0.00     0.169 HD
ENDROOT
BRANCH   1   5
HETATM    5  C5  UNL     1      88.768   2.253  13.550  1.00  0.00     0.033 A 
HETATM    6  C4  UNL     1      89.943   2.972  13.401  1.00  0.00     0.017 A 
HETATM    7  C3  UNL     1      90.762   3.297  14.472  1.00  0.00     0.009 A 
HETATM    8  C2  UNL     1      90.355   2.869  15.727  1.00  0.00    -0.043 A 
HETATM    9  C1  UNL     1      91.176   3.175  16.939  1.00  0.00     0.049 C 
HETATM   10  C21 UNL     1      89.194   2.152  15.913  1.00  0.00     0.025 A 
HETATM   11  C20 UNL     1      88.401   1.849  14.796  1.00  0.00     0.038 A 
BRANCH  10  12
HETATM   12  C22 UNL     1      88.755   1.698  17.198  1.00  0.00    -0.059 C 
HETATM   13  C23 UNL     1      88.393   1.295  18.283  1.00  0.00    -0.040 C 
BRANCH  13  14
HETATM   14  C24 UNL     1      87.975   0.793  19.561  1.00  0.00     0.127 A 
HETATM   15  C25 UNL     1      87.829  -0.547  19.841  1.00  0.00     0.130 A 
HETATM   16  N4  UNL     1      87.425  -0.676  21.131  1.00  0.00    -0.348 N 
HETATM   17  C26 UNL     1      87.318   0.547  21.653  1.00  0.00     0.128 A 
ATOM     18  H4  UNL     1      87.237  -1.554  21.616  1.00  0.00     0.167 HD
HETATM   19  C27 UNL     1      86.944   0.957  22.917  1.00  0.00     0.052 A 
HETATM   20  N6  UNL     1      87.655   1.443  20.687  1.00  0.00    -0.231 N 
HETATM   21  C28 UNL     1      86.925   2.311  23.174  1.00  0.00     0.022 A 
HETATM   22  C29 UNL     1      87.277   3.199  22.160  1.00  0.00     0.108 A 
HETATM   23  N5  UNL     1      87.632   2.742  20.948  1.00  0.00    -0.303 N 
ATOM     24  H5  UNL     1      87.888   3.406  20.216  1.00  0.00     0.186 HD
ENDBRANCH  13  14
ENDBRANCH  10  12
ENDBRANCH   1   5
BRANCH   3  25
HETATM   25  C7  UNL     1      86.359   2.617  10.569  1.00  0.00     0.035 A 
HETATM   26  C8  UNL     1      85.376   3.546  10.192  1.00  0.00     0.030 A 
HETATM   27  C9  UNL     1      84.594   3.311   9.096  1.00  0.00     0.016 A 
HETATM   28  C10 UNL     1      84.713   2.179   8.305  1.00  0.00    -0.006 A 
HETATM   29  C17 UNL     1      85.680   1.256   8.668  1.00  0.00     0.061 A 
HETATM   30  C19 UNL     1      86.477   1.514   9.801  1.00  0.00     0.046 A 
BRANCH  28  31
HETATM   31  C11 UNL     1      83.935   1.885   7.132  1.00  0.00     0.098 C 
BRANCH  31  32
HETATM   32  N2  UNL     1      83.270   2.897   6.401  1.00  0.00    -0.386 N 
HETATM   33  C12 UNL     1      81.907   3.181   6.785  1.00  0.00     0.152 C 
HETATM   34  C13 UNL     1      81.039   3.484   5.578  1.00  0.00     0.291 C 
HETATM   35  N3  UNL     1      81.640   4.646   4.948  1.00  0.00     0.087 N 
HETATM   36  C14 UNL     1      80.806   5.243   3.947  1.00  0.00     0.310 C 
HETATM   37  C15 UNL     1      82.960   4.332   4.514  1.00  0.00     0.291 C 
HETATM   38  C16 UNL     1      83.446   2.953   4.993  1.00  0.00     0.152 C 
ENDBRANCH  31  32
ENDBRANCH  28  31
BRANCH  29  39
HETATM   39  C18 UNL     1      85.879   0.038   7.936  1.00  0.00     0.418 C 
HETATM   40  F1  UNL     1      84.885  -0.889   8.279  1.00  0.00    -0.166 F 
HETATM   41  F2  UNL     1      85.992   0.155   6.574  1.00  0.00    -0.166 F 
HETATM   42  F3  UNL     1      87.054  -0.574   8.340  1.00  0.00    -0.166 F 
ENDBRANCH  29  39
ENDBRANCH   3  25
TORSDOF 7
ENDMDL
