MODEL 1
REMARK VINA RESULT: -12.587009611      0.000      0.000
REMARK  7 active torsions:
REMARK  status: ('A' for Active; 'I' for Inactive)
REMARK    1  A    between atoms: C5_5  and  C6_6 
REMARK       I    between atoms: C6_6  and  N1_8 
REMARK    2  A    between atoms: N1_8  and  C7_10 
REMARK    3  A    between atoms: C10_13  and  C11_14 
REMARK    4  A    between atoms: C11_14  and  N2_15 
REMARK    5  A    between atoms: C17_22  and  C18_23 
REMARK    6  A    between atoms: C21_29  and  C22_30 
REMARK    7  A    between atoms: C23_31  and  C24_32 
ROOT
HETATM    1  C6  UNL     1      88.044   1.489  17.480  1.00  0.00     0.256 C 
HETATM    2  O1  UNL     1      86.808   1.274  17.352  1.00  0.00    -0.267 OA
HETATM    3  N1  UNL     1      88.723   1.290  18.691  1.00  0.00    -0.323 N 
ATOM      4  H1  UNL     1      89.725   1.478  18.717  1.00  0.00     0.169 HD
ENDROOT
BRANCH   1   5
HETATM    5  C5  UNL     1      88.721   1.969  16.252  1.00  0.00     0.033 A 
HETATM    6  C4  UNL     1      89.851   2.767  16.328  1.00  0.00     0.017 A 
HETATM    7  C3  UNL     1      90.515   3.233  15.202  1.00  0.00     0.009 A 
HETATM    8  C2  UNL     1      89.997   2.863  13.970  1.00  0.00    -0.043 A 
HETATM    9  C1  UNL     1      90.649   3.318  12.703  1.00  0.00     0.049 C 
HETATM   10  C21 UNL     1      88.876   2.072  13.856  1.00  0.00     0.025 A 
HETATM   11  C20 UNL     1      88.242   1.627  15.025  1.00  0.00     0.038 A 
BRANCH  10  12
HETATM   12  C22 UNL     1      88.324   1.678  12.595  1.00  0.00    -0.059 C 
HETATM   13  C23 UNL     1      87.836   1.343  11.537  1.00  0.00    -0.040 C 
BRANCH  13  14
HETATM   14  C24 UNL     1      87.236   0.940  10.296  1.00  0.00     0.127 A 
HETATM   15  C25 UNL     1      87.624  -0.178   9.593  1.00  0.00     0.130 A 
HETATM   16  N4  UNL     1      86.859  -0.271   8.474  1.00  0.00    -0.348 N 
HETATM   17  C26 UNL     1      86.012   0.760   8.469  1.00  0.00     0.128 A 
ATOM     18  H4  UNL     1      86.922  -0.999   7.763  1.00  0.00     0.167 HD
HETATM   19  C27 UNL     1      85.037   1.120   7.561  1.00  0.00     0.052 A 
HETATM   20  N6  UNL     1      86.248   1.498   9.587  1.00  0.00    -0.231 N 
HETATM   21  C28 UNL     1      84.303   2.257   7.823  1.00  0.00     0.022 A 
HETATM   22  C29 UNL     1      84.572   2.988   8.978  1.00  0.00     0.108 A 
HETATM   23  N5  UNL     1      85.534   2.589   9.827  1.00  0.00    -0.303 N 
ATOM     24  H5  UNL     1      85.718   3.135  10.669  1.00  0.00     0.186 HD
ENDBRANCH  13  14
ENDBRANCH  10  12
ENDBRANCH   1   5
BRANCH   3  25
HETATM   25  C7  UNL     1      88.096   0.841  19.880  1.00  0.00     0.035 A 
HETATM   26  C8  UNL     1      87.831   1.771  20.897  1.00  0.00     0.030 A 
HETATM   27  C9  UNL     1      87.208   1.372  22.047  1.00  0.00     0.016 A 
HETATM   28  C10 UNL     1      86.806   0.066  22.280  1.00  0.00    -0.006 A 
HETATM   29  C17 UNL     1      87.063  -0.860  21.282  1.00  0.00     0.061 A 
HETATM   30  C19 UNL     1      87.705  -0.431  20.104  1.00  0.00     0.046 A 
BRANCH  28  31
HETATM   31  C11 UNL     1      86.132  -0.410  23.457  1.00  0.00     0.098 C 
BRANCH  31  32
HETATM   32  N2  UNL     1      86.120   0.326  24.664  1.00  0.00    -0.386 N 
HETATM   33  C12 UNL     1      86.778  -0.281  25.797  1.00  0.00     0.152 C 
HETATM   34  C13 UNL     1      86.028  -0.010  27.089  1.00  0.00     0.291 C 
HETATM   35  N3  UNL     1      86.005   1.435  27.230  1.00  0.00     0.087 N 
HETATM   36  C14 UNL     1      85.575   1.870  28.526  1.00  0.00     0.310 C 
HETATM   37  C15 UNL     1      85.295   2.016  26.141  1.00  0.00     0.291 C 
HETATM   38  C16 UNL     1      84.930   1.002  25.043  1.00  0.00     0.152 C 
ENDBRANCH  31  32
ENDBRANCH  28  31
BRANCH  29  39
HETATM   39  C18 UNL     1      86.710  -2.244  21.422  1.00  0.00     0.418 C 
HETATM   40  F1  UNL     1      87.293  -2.766  22.585  1.00  0.00    -0.166 F 
HETATM   41  F2  UNL     1      85.372  -2.542  21.366  1.00  0.00    -0.166 F 
HETATM   42  F3  UNL     1      87.283  -2.987  20.403  1.00  0.00    -0.166 F 
ENDBRANCH  29  39
ENDBRANCH   3  25
TORSDOF 7
ENDMDL
