MODEL 3
REMARK VINA RESULT: -11.485008533      4.408     13.462
REMARK  7 active torsions:
REMARK  status: ('A' for Active; 'I' for Inactive)
REMARK    1  A    between atoms: C5_5  and  C6_6 
REMARK       I    between atoms: C6_6  and  N1_8 
REMARK    2  A    between atoms: N1_8  and  C7_10 
REMARK    3  A    between atoms: C10_13  and  C11_14 
REMARK    4  A    between atoms: C11_14  and  N2_15 
REMARK    5  A    between atoms: C17_22  and  C18_23 
REMARK    6  A    between atoms: C21_29  and  C22_30 
REMARK    7  A    between atoms: C23_31  and  C24_32 
ROOT
HETATM    1  C6  UNL     1      87.970   1.384  12.478  1.00  0.00     0.256 C 
HETATM    2  O1  UNL     1      87.912   0.128  12.373  1.00  0.00    -0.267 OA
HETATM    3  N1  UNL     1      87.306   2.246  11.595  1.00  0.00    -0.323 N 
ATOM      4  H1  UNL     1      87.394   3.251  11.747  1.00  0.00     0.169 HD
ENDROOT
BRANCH   1   5
HETATM    5  C5  UNL     1      88.795   1.873  13.609  1.00  0.00     0.033 A 
HETATM    6  C4  UNL     1      89.906   2.670  13.385  1.00  0.00     0.017 A 
HETATM    7  C3  UNL     1      90.701   3.152  14.415  1.00  0.00     0.009 A 
HETATM    8  C2  UNL     1      90.336   2.800  15.706  1.00  0.00    -0.043 A 
HETATM    9  C1  UNL     1      91.135   3.275  16.879  1.00  0.00     0.049 C 
HETATM   10  C21 UNL     1      89.240   2.009  15.966  1.00  0.00     0.025 A 
HETATM   11  C20 UNL     1      88.468   1.548  14.889  1.00  0.00     0.038 A 
BRANCH  10  12
HETATM   12  C22 UNL     1      88.846   1.632  17.291  1.00  0.00    -0.059 C 
HETATM   13  C23 UNL     1      88.491   1.310  18.404  1.00  0.00    -0.040 C 
BRANCH  13  14
HETATM   14  C24 UNL     1      88.047   0.927  19.714  1.00  0.00     0.127 A 
HETATM   15  C25 UNL     1      87.678   1.831  20.685  1.00  0.00     0.130 A 
HETATM   16  N4  UNL     1      87.312   1.143  21.798  1.00  0.00    -0.348 N 
HETATM   17  C26 UNL     1      87.446  -0.159  21.539  1.00  0.00     0.128 A 
ATOM     18  H4  UNL     1      86.991   1.550  22.676  1.00  0.00     0.167 HD
HETATM   19  C27 UNL     1      87.207  -1.264  22.330  1.00  0.00     0.052 A 
HETATM   20  N6  UNL     1      87.897  -0.285  20.261  1.00  0.00    -0.231 N 
HETATM   21  C28 UNL     1      87.439  -2.508  21.784  1.00  0.00     0.022 A 
HETATM   22  C29 UNL     1      87.901  -2.599  20.473  1.00  0.00     0.108 A 
HETATM   23  N5  UNL     1      88.116  -1.487  19.749  1.00  0.00    -0.303 N 
ATOM     24  H5  UNL     1      88.453  -1.571  18.790  1.00  0.00     0.186 HD
ENDBRANCH  13  14
ENDBRANCH  10  12
ENDBRANCH   1   5
BRANCH   3  25
HETATM   25  C7  UNL     1      86.521   1.802  10.502  1.00  0.00     0.035 A 
HETATM   26  C8  UNL     1      87.117   0.988   9.527  1.00  0.00     0.030 A 
HETATM   27  C9  UNL     1      86.379   0.527   8.473  1.00  0.00     0.016 A 
HETATM   28  C10 UNL     1      85.034   0.819   8.300  1.00  0.00    -0.006 A 
HETATM   29  C17 UNL     1      84.436   1.622   9.258  1.00  0.00     0.061 A 
HETATM   30  C19 UNL     1      85.212   2.088  10.337  1.00  0.00     0.046 A 
BRANCH  28  31
HETATM   31  C11 UNL     1      84.202   0.350   7.227  1.00  0.00     0.098 C 
BRANCH  31  32
HETATM   32  N2  UNL     1      84.285   0.890   5.922  1.00  0.00    -0.386 N 
HETATM   33  C12 UNL     1      83.794   2.237   5.748  1.00  0.00     0.152 C 
HETATM   34  C13 UNL     1      83.084   2.405   4.419  1.00  0.00     0.291 C 
HETATM   35  N3  UNL     1      84.076   2.093   3.405  1.00  0.00     0.087 N 
HETATM   36  C14 UNL     1      83.667   2.458   2.080  1.00  0.00     0.310 C 
HETATM   37  C15 UNL     1      84.502   0.741   3.545  1.00  0.00     0.291 C 
HETATM   38  C16 UNL     1      83.960   0.062   4.816  1.00  0.00     0.152 C 
ENDBRANCH  31  32
ENDBRANCH  28  31
BRANCH  29  39
HETATM   39  C18 UNL     1      83.056   2.006   9.172  1.00  0.00     0.418 C 
HETATM   40  F1  UNL     1      82.942   3.201   8.448  1.00  0.00    -0.166 F 
HETATM   41  F2  UNL     1      82.187   1.058   8.695  1.00  0.00    -0.166 F 
HETATM   42  F3  UNL     1      82.573   2.333  10.428  1.00  0.00    -0.166 F 
ENDBRANCH  29  39
ENDBRANCH   3  25
TORSDOF 7
ENDMDL
