MODEL 2
REMARK VINA RESULT: -11.705848927      4.400     13.521
REMARK  7 active torsions:
REMARK  status: ('A' for Active; 'I' for Inactive)
REMARK    1  A    between atoms: C5_5  and  C6_6 
REMARK       I    between atoms: C6_6  and  N1_8 
REMARK    2  A    between atoms: N1_8  and  C7_10 
REMARK    3  A    between atoms: C10_13  and  C11_14 
REMARK    4  A    between atoms: C11_14  and  N2_15 
REMARK    5  A    between atoms: C17_22  and  C18_23 
REMARK    6  A    between atoms: C21_29  and  C22_30 
REMARK    7  A    between atoms: C23_31  and  C24_32 
ROOT
HETATM    1  C6  UNL     1      87.952   1.373  12.398  1.00  0.00     0.256 C 
HETATM    2  O1  UNL     1      87.939   0.121  12.246  1.00  0.00    -0.267 OA
HETATM    3  N1  UNL     1      87.263   2.244  11.542  1.00  0.00    -0.323 N 
ATOM      4  H1  UNL     1      87.315   3.245  11.732  1.00  0.00     0.169 HD
ENDROOT
BRANCH   1   5
HETATM    5  C5  UNL     1      88.753   1.849  13.551  1.00  0.00     0.033 A 
HETATM    6  C4  UNL     1      89.866   2.653  13.361  1.00  0.00     0.017 A 
HETATM    7  C3  UNL     1      90.638   3.122  14.413  1.00  0.00     0.009 A 
HETATM    8  C2  UNL     1      90.250   2.751  15.691  1.00  0.00    -0.043 A 
HETATM    9  C1  UNL     1      91.023   3.212  16.886  1.00  0.00     0.049 C 
HETATM   10  C21 UNL     1      89.151   1.953  15.919  1.00  0.00     0.025 A 
HETATM   11  C20 UNL     1      88.402   1.505  14.820  1.00  0.00     0.038 A 
BRANCH  10  12
HETATM   12  C22 UNL     1      88.732   1.557  17.230  1.00  0.00    -0.059 C 
HETATM   13  C23 UNL     1      88.391   1.204  18.338  1.00  0.00    -0.040 C 
BRANCH  13  14
HETATM   14  C24 UNL     1      88.002   0.765  19.648  1.00  0.00     0.127 A 
HETATM   15  C25 UNL     1      87.915  -0.561  20.010  1.00  0.00     0.130 A 
HETATM   16  N4  UNL     1      87.524  -0.628  21.309  1.00  0.00    -0.348 N 
HETATM   17  C26 UNL     1      87.368   0.619  21.757  1.00  0.00     0.128 A 
ATOM     18  H4  UNL     1      87.376  -1.482  21.848  1.00  0.00     0.167 HD
HETATM   19  C27 UNL     1      86.985   1.090  22.997  1.00  0.00     0.052 A 
HETATM   20  N6  UNL     1      87.662   1.468  20.735  1.00  0.00    -0.231 N 
HETATM   21  C28 UNL     1      86.910   2.455  23.170  1.00  0.00     0.022 A 
HETATM   22  C29 UNL     1      87.218   3.294  22.102  1.00  0.00     0.108 A 
HETATM   23  N5  UNL     1      87.585   2.778  20.917  1.00  0.00    -0.303 N 
ATOM     24  H5  UNL     1      87.809   3.406  20.144  1.00  0.00     0.186 HD
ENDBRANCH  13  14
ENDBRANCH  10  12
ENDBRANCH   1   5
BRANCH   3  25
HETATM   25  C7  UNL     1      86.500   1.814  10.429  1.00  0.00     0.035 A 
HETATM   26  C8  UNL     1      87.129   1.055   9.430  1.00  0.00     0.030 A 
HETATM   27  C9  UNL     1      86.413   0.608   8.354  1.00  0.00     0.016 A 
HETATM   28  C10 UNL     1      85.061   0.861   8.182  1.00  0.00    -0.006 A 
HETATM   29  C17 UNL     1      84.431   1.609   9.163  1.00  0.00     0.061 A 
HETATM   30  C19 UNL     1      85.184   2.062  10.264  1.00  0.00     0.046 A 
BRANCH  28  31
HETATM   31  C11 UNL     1      84.252   0.403   7.086  1.00  0.00     0.098 C 
BRANCH  31  32
HETATM   32  N2  UNL     1      84.303   1.012   5.810  1.00  0.00    -0.386 N 
HETATM   33  C12 UNL     1      83.829   2.374   5.725  1.00  0.00     0.152 C 
HETATM   34  C13 UNL     1      83.080   2.624   4.430  1.00  0.00     0.291 C 
HETATM   35  N3  UNL     1      84.035   2.352   3.370  1.00  0.00     0.087 N 
HETATM   36  C14 UNL     1      83.591   2.794   2.080  1.00  0.00     0.310 C 
HETATM   37  C15 UNL     1      84.443   0.988   3.423  1.00  0.00     0.291 C 
HETATM   38  C16 UNL     1      83.930   0.250   4.672  1.00  0.00     0.152 C 
ENDBRANCH  31  32
ENDBRANCH  28  31
BRANCH  29  39
HETATM   39  C18 UNL     1      83.039   1.950   9.080  1.00  0.00     0.418 C 
HETATM   40  F1  UNL     1      82.896   3.216   8.494  1.00  0.00    -0.166 F 
HETATM   41  F2  UNL     1      82.221   1.033   8.472  1.00  0.00    -0.166 F 
HETATM   42  F3  UNL     1      82.512   2.113  10.350  1.00  0.00    -0.166 F 
ENDBRANCH  29  39
ENDBRANCH   3  25
TORSDOF 7
ENDMDL
