MODEL 4
REMARK VINA RESULT: -10.775446779      3.986     11.592
REMARK  10 active torsions:
REMARK  status: ('A' for Active; 'I' for Inactive)
REMARK    1  A    between atoms: C4_4  and  C5_5 
REMARK    2  A    between atoms: C5_5  and  S1_6 
REMARK    3  A    between atoms: S1_6  and  C6_9 
REMARK    4  A    between atoms: C13_16  and  O3_17 
REMARK    5  A    between atoms: O3_17  and  C14_18 
REMARK    6  A    between atoms: C14_18  and  C15_19 
REMARK    7  A    between atoms: C18_22  and  C19_23 
REMARK    8  A    between atoms: C19_23  and  N1_24 
REMARK    9  A    between atoms: C23_28  and  C24_29 
REMARK   10  A    between atoms: C24_29  and  O4_30 
ROOT
HETATM    1  C1  UNL     1     -27.298   6.227  -9.386  1.00  0.00     0.048 C 
HETATM    2  C2  UNL     1     -25.865   6.041  -9.722  1.00  0.00    -0.059 A 
HETATM    3  C3  UNL     1     -24.988   5.664  -8.716  1.00  0.00     0.015 A 
HETATM    4  C4  UNL     1     -23.655   5.477  -8.975  1.00  0.00    -0.041 A 
HETATM    5  C12 UNL     1     -23.213   5.679 -10.272  1.00  0.00     0.044 A 
HETATM    6  C13 UNL     1     -24.064   6.052 -11.282  1.00  0.00     0.070 A 
HETATM    7  C27 UNL     1     -25.414   6.238 -11.011  1.00  0.00     0.043 A 
ENDROOT
BRANCH   6   8
HETATM    8  O3  UNL     1     -23.651   6.256 -12.571  1.00  0.00    -0.347 OA
BRANCH   8   9
HETATM    9  C14 UNL     1     -24.592   6.099 -13.620  1.00  0.00     0.214 C 
BRANCH   9  10
HETATM   10  C15 UNL     1     -24.742   7.415 -14.312  1.00  0.00    -0.034 A 
HETATM   11  C16 UNL     1     -24.424   8.617 -13.714  1.00  0.00     0.010 A 
HETATM   12  C17 UNL     1     -24.573   9.815 -14.374  1.00  0.00     0.009 A 
HETATM   13  C18 UNL     1     -25.053   9.834 -15.668  1.00  0.00    -0.030 A 
HETATM   14  C25 UNL     1     -25.380   8.666 -16.294  1.00  0.00     0.009 A 
HETATM   15  C26 UNL     1     -25.219   7.476 -15.604  1.00  0.00     0.010 A 
BRANCH  13  16
HETATM   16  C19 UNL     1     -25.202  11.153 -16.351  1.00  0.00     0.311 C 
BRANCH  16  17
HETATM   17  N1  UNL     1     -26.572  11.542 -16.282  1.00  0.00     0.099 N 
HETATM   18  C20 UNL     1     -27.004  11.998 -14.978  1.00  0.00     0.273 C 
HETATM   19  C21 UNL     1     -28.399  12.560 -15.283  1.00  0.00     0.032 C 
HETATM   20  C22 UNL     1     -28.420  12.802 -16.778  1.00  0.00     0.040 C 
HETATM   21  C23 UNL     1     -26.929  12.667 -17.115  1.00  0.00     0.246 C 
BRANCH  21  22
HETATM   22  C24 UNL     1     -26.739  12.402 -18.589  1.00  0.00     0.199 C 
BRANCH  22  23
HETATM   23  O4  UNL     1     -26.148  13.521 -19.160  1.00  0.00    -0.399 OA
ATOM     24  H4  UNL     1     -26.829  14.158 -19.342  1.00  0.00     0.209 HD
ENDBRANCH  22  23
ENDBRANCH  21  22
ENDBRANCH  16  17
ENDBRANCH  13  16
ENDBRANCH   9  10
ENDBRANCH   8   9
ENDBRANCH   6   8
BRANCH   4  25
HETATM   25  C5  UNL     1     -22.719   5.080  -7.919  1.00  0.00     0.184 C 
BRANCH  25  26
HETATM   26  S1  UNL     1     -23.154   3.521  -7.163  1.00  0.00     0.179 S 
HETATM   27  O1  UNL     1     -23.650   2.575  -8.199  1.00  0.00    -0.222 OA
HETATM   28  O2  UNL     1     -24.131   3.729  -6.059  1.00  0.00    -0.222 OA
BRANCH  26  29
HETATM   29  C6  UNL     1     -21.666   2.897  -6.442  1.00  0.00     0.059 A 
HETATM   30  C7  UNL     1     -21.621   1.650  -5.884  1.00  0.00     0.023 A 
HETATM   31  C8  UNL     1     -20.432   1.217  -5.337  1.00  0.00     0.002 A 
HETATM   32  C9  UNL     1     -19.306   2.017  -5.350  1.00  0.00     0.000 A 
HETATM   33  C10 UNL     1     -19.389   3.261  -5.919  1.00  0.00     0.002 A 
HETATM   34  C11 UNL     1     -20.566   3.732  -6.478  1.00  0.00     0.023 A 
ENDBRANCH  26  29
ENDBRANCH  25  26
ENDBRANCH   4  25
TORSDOF 10
ENDMDL
