MODEL 6
REMARK VINA RESULT: -10.468090510      1.041      1.690
REMARK  10 active torsions:
REMARK  status: ('A' for Active; 'I' for Inactive)
REMARK    1  A    between atoms: C4_4  and  C5_5 
REMARK    2  A    between atoms: C5_5  and  S1_6 
REMARK    3  A    between atoms: S1_6  and  C6_9 
REMARK    4  A    between atoms: C13_16  and  O3_17 
REMARK    5  A    between atoms: O3_17  and  C14_18 
REMARK    6  A    between atoms: C14_18  and  C15_19 
REMARK    7  A    between atoms: C18_22  and  C19_23 
REMARK    8  A    between atoms: C19_23  and  N1_24 
REMARK    9  A    between atoms: C23_28  and  C24_29 
REMARK   10  A    between atoms: C24_29  and  O4_30 
ROOT
HETATM    1  C1  UNL     1     -25.613  11.000 -20.768  1.00  0.00     0.048 C 
HETATM    2  C2  UNL     1     -25.699  11.124 -19.292  1.00  0.00    -0.059 A 
HETATM    3  C3  UNL     1     -25.918  12.377 -18.740  1.00  0.00     0.015 A 
HETATM    4  C4  UNL     1     -26.008  12.545 -17.382  1.00  0.00    -0.041 A 
HETATM    5  C12 UNL     1     -25.871  11.422 -16.582  1.00  0.00     0.044 A 
HETATM    6  C13 UNL     1     -25.655  10.173 -17.108  1.00  0.00     0.070 A 
HETATM    7  C27 UNL     1     -25.566  10.013 -18.485  1.00  0.00     0.043 A 
ENDROOT
BRANCH   6   8
HETATM    8  O3  UNL     1     -25.518   9.050 -16.336  1.00  0.00    -0.347 OA
BRANCH   8   9
HETATM    9  C14 UNL     1     -24.309   8.860 -15.621  1.00  0.00     0.214 C 
BRANCH   9  10
HETATM   10  C15 UNL     1     -24.630   8.161 -14.340  1.00  0.00    -0.034 A 
HETATM   11  C16 UNL     1     -25.006   8.832 -13.195  1.00  0.00     0.010 A 
HETATM   12  C17 UNL     1     -25.295   8.163 -12.027  1.00  0.00     0.009 A 
HETATM   13  C18 UNL     1     -25.210   6.786 -11.982  1.00  0.00    -0.030 A 
HETATM   14  C25 UNL     1     -24.841   6.087 -13.094  1.00  0.00     0.009 A 
HETATM   15  C26 UNL     1     -24.557   6.787 -14.255  1.00  0.00     0.010 A 
BRANCH  13  16
HETATM   16  C19 UNL     1     -25.530   6.097 -10.698  1.00  0.00     0.311 C 
BRANCH  16  17
HETATM   17  N1  UNL     1     -24.306   5.690 -10.089  1.00  0.00     0.099 N 
HETATM   18  C20 UNL     1     -23.191   6.581 -10.325  1.00  0.00     0.273 C 
HETATM   19  C21 UNL     1     -22.129   6.022  -9.369  1.00  0.00     0.032 C 
HETATM   20  C22 UNL     1     -22.892   5.191  -8.358  1.00  0.00     0.040 C 
HETATM   21  C23 UNL     1     -24.333   5.634  -8.646  1.00  0.00     0.246 C 
BRANCH  21  22
HETATM   22  C24 UNL     1     -25.317   4.626  -8.106  1.00  0.00     0.199 C 
BRANCH  22  23
HETATM   23  O4  UNL     1     -26.371   5.316  -7.522  1.00  0.00    -0.399 OA
ATOM     24  H4  UNL     1     -26.917   5.669  -8.214  1.00  0.00     0.209 HD
ENDBRANCH  22  23
ENDBRANCH  21  22
ENDBRANCH  16  17
ENDBRANCH  13  16
ENDBRANCH   9  10
ENDBRANCH   8   9
ENDBRANCH   6   8
BRANCH   4  25
HETATM   25  C5  UNL     1     -26.238  13.865 -16.789  1.00  0.00     0.184 C 
BRANCH  25  26
HETATM   26  S1  UNL     1     -27.965  14.315 -16.756  1.00  0.00     0.179 S 
HETATM   27  O1  UNL     1     -28.759  13.341 -17.553  1.00  0.00    -0.222 OA
HETATM   28  O2  UNL     1     -28.149  15.719 -17.215  1.00  0.00    -0.222 OA
BRANCH  26  29
HETATM   29  C6  UNL     1     -28.456  14.244 -15.059  1.00  0.00     0.059 A 
HETATM   30  C7  UNL     1     -28.219  15.289 -14.211  1.00  0.00     0.023 A 
HETATM   31  C8  UNL     1     -28.626  15.176 -12.899  1.00  0.00     0.002 A 
HETATM   32  C9  UNL     1     -29.258  14.037 -12.442  1.00  0.00     0.000 A 
HETATM   33  C10 UNL     1     -29.478  13.009 -13.322  1.00  0.00     0.002 A 
HETATM   34  C11 UNL     1     -29.085  13.085 -14.648  1.00  0.00     0.023 A 
ENDBRANCH  26  29
ENDBRANCH  25  26
ENDBRANCH   4  25
TORSDOF 10
ENDMDL
