MODEL 7
REMARK VINA RESULT: -10.435342725      4.442     11.707
REMARK  10 active torsions:
REMARK  status: ('A' for Active; 'I' for Inactive)
REMARK    1  A    between atoms: C4_4  and  C5_5 
REMARK    2  A    between atoms: C5_5  and  S1_6 
REMARK    3  A    between atoms: S1_6  and  C6_9 
REMARK    4  A    between atoms: C13_16  and  O3_17 
REMARK    5  A    between atoms: O3_17  and  C14_18 
REMARK    6  A    between atoms: C14_18  and  C15_19 
REMARK    7  A    between atoms: C18_22  and  C19_23 
REMARK    8  A    between atoms: C19_23  and  N1_24 
REMARK    9  A    between atoms: C23_28  and  C24_29 
REMARK   10  A    between atoms: C24_29  and  O4_30 
ROOT
HETATM    1  C1  UNL     1     -27.312   6.147  -9.377  1.00  0.00     0.048 C 
HETATM    2  C2  UNL     1     -25.881   6.042  -9.752  1.00  0.00    -0.059 A 
HETATM    3  C3  UNL     1     -24.965   5.656  -8.785  1.00  0.00     0.015 A 
HETATM    4  C4  UNL     1     -23.631   5.542  -9.081  1.00  0.00    -0.041 A 
HETATM    5  C12 UNL     1     -23.229   5.826 -10.377  1.00  0.00     0.044 A 
HETATM    6  C13 UNL     1     -24.120   6.208 -11.349  1.00  0.00     0.070 A 
HETATM    7  C27 UNL     1     -25.470   6.320 -11.039  1.00  0.00     0.043 A 
ENDROOT
BRANCH   6   8
HETATM    8  O3  UNL     1     -23.746   6.493 -12.635  1.00  0.00    -0.347 OA
BRANCH   8   9
HETATM    9  C14 UNL     1     -24.635   6.164 -13.689  1.00  0.00     0.214 C 
BRANCH   9  10
HETATM   10  C15 UNL     1     -24.834   7.384 -14.529  1.00  0.00    -0.034 A 
HETATM   11  C16 UNL     1     -25.181   7.326 -15.863  1.00  0.00     0.010 A 
HETATM   12  C17 UNL     1     -25.357   8.465 -16.615  1.00  0.00     0.009 A 
HETATM   13  C18 UNL     1     -25.185   9.706 -16.036  1.00  0.00    -0.030 A 
HETATM   14  C25 UNL     1     -24.841   9.805 -14.719  1.00  0.00     0.009 A 
HETATM   15  C26 UNL     1     -24.671   8.641 -13.988  1.00  0.00     0.010 A 
BRANCH  13  16
HETATM   16  C19 UNL     1     -25.384  10.918 -16.882  1.00  0.00     0.311 C 
BRANCH  16  17
HETATM   17  N1  UNL     1     -26.351  10.613 -17.885  1.00  0.00     0.099 N 
HETATM   18  C20 UNL     1     -27.676  11.132 -17.622  1.00  0.00     0.273 C 
HETATM   19  C21 UNL     1     -28.394  10.861 -18.950  1.00  0.00     0.032 C 
HETATM   20  C22 UNL     1     -27.293  10.663 -19.972  1.00  0.00     0.040 C 
HETATM   21  C23 UNL     1     -26.074  11.170 -19.189  1.00  0.00     0.246 C 
BRANCH  21  22
HETATM   22  C24 UNL     1     -24.796  10.652 -19.800  1.00  0.00     0.199 C 
BRANCH  22  23
HETATM   23  O4  UNL     1     -24.659  11.211 -21.064  1.00  0.00    -0.399 OA
ATOM     24  H4  UNL     1     -24.935  10.568 -21.706  1.00  0.00     0.209 HD
ENDBRANCH  22  23
ENDBRANCH  21  22
ENDBRANCH  16  17
ENDBRANCH  13  16
ENDBRANCH   9  10
ENDBRANCH   8   9
ENDBRANCH   6   8
BRANCH   4  25
HETATM   25  C5  UNL     1     -22.654   5.137  -8.066  1.00  0.00     0.184 C 
BRANCH  25  26
HETATM   26  S1  UNL     1     -23.122   3.636  -7.219  1.00  0.00     0.179 S 
HETATM   27  O1  UNL     1     -23.669   2.653  -8.193  1.00  0.00    -0.222 OA
HETATM   28  O2  UNL     1     -24.070   3.935  -6.110  1.00  0.00    -0.222 OA
BRANCH  26  29
HETATM   29  C6  UNL     1     -21.641   3.003  -6.493  1.00  0.00     0.059 A 
HETATM   30  C7  UNL     1     -21.596   1.743  -5.966  1.00  0.00     0.023 A 
HETATM   31  C8  UNL     1     -20.411   1.304  -5.413  1.00  0.00     0.002 A 
HETATM   32  C9  UNL     1     -19.291   2.111  -5.389  1.00  0.00     0.000 A 
HETATM   33  C10 UNL     1     -19.374   3.369  -5.928  1.00  0.00     0.002 A 
HETATM   34  C11 UNL     1     -20.546   3.846  -6.492  1.00  0.00     0.023 A 
ENDBRANCH  26  29
ENDBRANCH  25  26
ENDBRANCH   4  25
TORSDOF 10
ENDMDL
