MODEL 5
REMARK VINA RESULT: -10.480005050      3.955     11.368
REMARK  10 active torsions:
REMARK  status: ('A' for Active; 'I' for Inactive)
REMARK    1  A    between atoms: C4_4  and  C5_5 
REMARK    2  A    between atoms: C5_5  and  S1_6 
REMARK    3  A    between atoms: S1_6  and  C6_9 
REMARK    4  A    between atoms: C13_16  and  O3_17 
REMARK    5  A    between atoms: O3_17  and  C14_18 
REMARK    6  A    between atoms: C14_18  and  C15_19 
REMARK    7  A    between atoms: C18_22  and  C19_23 
REMARK    8  A    between atoms: C19_23  and  N1_24 
REMARK    9  A    between atoms: C23_28  and  C24_29 
REMARK   10  A    between atoms: C24_29  and  O4_30 
ROOT
HETATM    1  C1  UNL     1     -27.317   6.413  -9.434  1.00  0.00     0.048 C 
HETATM    2  C2  UNL     1     -25.905   6.178  -9.824  1.00  0.00    -0.059 A 
HETATM    3  C3  UNL     1     -24.994   5.818  -8.843  1.00  0.00     0.015 A 
HETATM    4  C4  UNL     1     -23.677   5.589  -9.152  1.00  0.00    -0.041 A 
HETATM    5  C12 UNL     1     -23.290   5.729 -10.475  1.00  0.00     0.044 A 
HETATM    6  C13 UNL     1     -24.176   6.083 -11.461  1.00  0.00     0.070 A 
HETATM    7  C27 UNL     1     -25.508   6.313 -11.138  1.00  0.00     0.043 A 
ENDROOT
BRANCH   6   8
HETATM    8  O3  UNL     1     -23.816   6.226 -12.774  1.00  0.00    -0.347 OA
BRANCH   8   9
HETATM    9  C14 UNL     1     -23.117   7.395 -13.163  1.00  0.00     0.214 C 
BRANCH   9  10
HETATM   10  C15 UNL     1     -24.022   8.216 -14.024  1.00  0.00    -0.034 A 
HETATM   11  C16 UNL     1     -24.464   9.472 -13.662  1.00  0.00     0.010 A 
HETATM   12  C17 UNL     1     -25.298  10.206 -14.473  1.00  0.00     0.009 A 
HETATM   13  C18 UNL     1     -25.715   9.689 -15.682  1.00  0.00    -0.030 A 
HETATM   14  C25 UNL     1     -25.300   8.450 -16.076  1.00  0.00     0.009 A 
HETATM   15  C26 UNL     1     -24.460   7.734 -15.239  1.00  0.00     0.010 A 
BRANCH  13  16
HETATM   16  C19 UNL     1     -26.620  10.514 -16.534  1.00  0.00     0.311 C 
BRANCH  16  17
HETATM   17  N1  UNL     1     -26.404  11.888 -16.220  1.00  0.00     0.099 N 
HETATM   18  C20 UNL     1     -25.636  12.618 -17.207  1.00  0.00     0.273 C 
HETATM   19  C21 UNL     1     -25.787  14.065 -16.720  1.00  0.00     0.032 C 
HETATM   20  C22 UNL     1     -26.996  14.062 -15.808  1.00  0.00     0.040 C 
HETATM   21  C23 UNL     1     -27.602  12.690 -16.133  1.00  0.00     0.246 C 
BRANCH  21  22
HETATM   22  C24 UNL     1     -28.538  12.248 -15.036  1.00  0.00     0.199 C 
BRANCH  22  23
HETATM   23  O4  UNL     1     -27.942  12.532 -13.814  1.00  0.00    -0.399 OA
ATOM     24  H4  UNL     1     -28.579  12.975 -13.267  1.00  0.00     0.209 HD
ENDBRANCH  22  23
ENDBRANCH  21  22
ENDBRANCH  16  17
ENDBRANCH  13  16
ENDBRANCH   9  10
ENDBRANCH   8   9
ENDBRANCH   6   8
BRANCH   4  25
HETATM   25  C5  UNL     1     -22.705   5.210  -8.123  1.00  0.00     0.184 C 
BRANCH  25  26
HETATM   26  S1  UNL     1     -23.154   3.707  -7.270  1.00  0.00     0.179 S 
HETATM   27  O1  UNL     1     -23.681   2.710  -8.241  1.00  0.00    -0.222 OA
HETATM   28  O2  UNL     1     -24.112   3.997  -6.167  1.00  0.00    -0.222 OA
BRANCH  26  29
HETATM   29  C6  UNL     1     -21.667   3.100  -6.534  1.00  0.00     0.059 A 
HETATM   30  C7  UNL     1     -21.624   1.871  -5.938  1.00  0.00     0.023 A 
HETATM   31  C8  UNL     1     -20.435   1.451  -5.382  1.00  0.00     0.002 A 
HETATM   32  C9  UNL     1     -19.307   2.247  -5.421  1.00  0.00     0.000 A 
HETATM   33  C10 UNL     1     -19.387   3.474  -6.027  1.00  0.00     0.002 A 
HETATM   34  C11 UNL     1     -20.564   3.931  -6.597  1.00  0.00     0.023 A 
ENDBRANCH  26  29
ENDBRANCH  25  26
ENDBRANCH   4  25
TORSDOF 10
ENDMDL
