MODEL 3
REMARK VINA RESULT: -11.143808193      1.548      2.141
REMARK  10 active torsions:
REMARK  status: ('A' for Active; 'I' for Inactive)
REMARK    1  A    between atoms: C4_4  and  C5_5 
REMARK    2  A    between atoms: C5_5  and  S1_6 
REMARK    3  A    between atoms: S1_6  and  C6_9 
REMARK    4  A    between atoms: C13_16  and  O3_17 
REMARK    5  A    between atoms: O3_17  and  C14_18 
REMARK    6  A    between atoms: C14_18  and  C15_19 
REMARK    7  A    between atoms: C18_22  and  C19_23 
REMARK    8  A    between atoms: C19_23  and  N1_24 
REMARK    9  A    between atoms: C23_28  and  C24_29 
REMARK   10  A    between atoms: C24_29  and  O4_30 
ROOT
HETATM    1  C1  UNL     1     -25.291  10.908 -20.823  1.00  0.00     0.048 C 
HETATM    2  C2  UNL     1     -25.595  10.713 -19.384  1.00  0.00    -0.059 A 
HETATM    3  C3  UNL     1     -26.571  11.503 -18.795  1.00  0.00     0.015 A 
HETATM    4  C4  UNL     1     -26.890  11.362 -17.470  1.00  0.00    -0.041 A 
HETATM    5  C12 UNL     1     -26.206  10.405 -16.738  1.00  0.00     0.044 A 
HETATM    6  C13 UNL     1     -25.237   9.612 -17.301  1.00  0.00     0.070 A 
HETATM    7  C27 UNL     1     -24.921   9.762 -18.646  1.00  0.00     0.043 A 
ENDROOT
BRANCH   6   8
HETATM    8  O3  UNL     1     -24.549   8.660 -16.598  1.00  0.00    -0.347 OA
BRANCH   8   9
HETATM    9  C14 UNL     1     -25.273   7.591 -16.014  1.00  0.00     0.214 C 
BRANCH   9  10
HETATM   10  C15 UNL     1     -24.962   7.561 -14.552  1.00  0.00    -0.034 A 
HETATM   11  C16 UNL     1     -24.995   8.687 -13.756  1.00  0.00     0.010 A 
HETATM   12  C17 UNL     1     -24.704   8.633 -12.413  1.00  0.00     0.009 A 
HETATM   13  C18 UNL     1     -24.367   7.428 -11.829  1.00  0.00    -0.030 A 
HETATM   14  C25 UNL     1     -24.323   6.291 -12.583  1.00  0.00     0.009 A 
HETATM   15  C26 UNL     1     -24.621   6.377 -13.932  1.00  0.00     0.010 A 
BRANCH  13  16
HETATM   16  C19 UNL     1     -24.056   7.408 -10.370  1.00  0.00     0.311 C 
BRANCH  16  17
HETATM   17  N1  UNL     1     -24.264   6.083  -9.884  1.00  0.00     0.099 N 
HETATM   18  C20 UNL     1     -23.120   5.499  -9.217  1.00  0.00     0.273 C 
HETATM   19  C21 UNL     1     -23.721   4.222  -8.615  1.00  0.00     0.032 C 
HETATM   20  C22 UNL     1     -25.218   4.452  -8.590  1.00  0.00     0.040 C 
HETATM   21  C23 UNL     1     -25.286   5.959  -8.870  1.00  0.00     0.246 C 
BRANCH  21  22
HETATM   22  C24 UNL     1     -26.660   6.348  -9.357  1.00  0.00     0.199 C 
BRANCH  22  23
HETATM   23  O4  UNL     1     -27.433   5.198  -9.446  1.00  0.00    -0.399 OA
ATOM     24  H4  UNL     1     -27.071   4.647 -10.130  1.00  0.00     0.209 HD
ENDBRANCH  22  23
ENDBRANCH  21  22
ENDBRANCH  16  17
ENDBRANCH  13  16
ENDBRANCH   9  10
ENDBRANCH   8   9
ENDBRANCH   6   8
BRANCH   4  25
HETATM   25  C5  UNL     1     -27.919  12.193 -16.838  1.00  0.00     0.184 C 
BRANCH  25  26
HETATM   26  S1  UNL     1     -27.350  13.849 -16.489  1.00  0.00     0.179 S 
HETATM   27  O1  UNL     1     -27.913  14.800 -17.486  1.00  0.00    -0.222 OA
HETATM   28  O2  UNL     1     -25.863  13.891 -16.431  1.00  0.00    -0.222 OA
BRANCH  26  29
HETATM   29  C6  UNL     1     -27.954  14.243 -14.876  1.00  0.00     0.059 A 
HETATM   30  C7  UNL     1     -28.482  15.473 -14.601  1.00  0.00     0.023 A 
HETATM   31  C8  UNL     1     -28.938  15.723 -13.324  1.00  0.00     0.002 A 
HETATM   32  C9  UNL     1     -28.868  14.758 -12.339  1.00  0.00     0.000 A 
HETATM   33  C10 UNL     1     -28.331  13.535 -12.652  1.00  0.00     0.002 A 
HETATM   34  C11 UNL     1     -27.863  13.247 -13.923  1.00  0.00     0.023 A 
ENDBRANCH  26  29
ENDBRANCH  25  26
ENDBRANCH   4  25
TORSDOF 10
ENDMDL
