MODEL 1
REMARK VINA RESULT: -11.880090743      0.000      0.000
REMARK  10 active torsions:
REMARK  status: ('A' for Active; 'I' for Inactive)
REMARK    1  A    between atoms: C4_4  and  C5_5 
REMARK    2  A    between atoms: C5_5  and  S1_6 
REMARK    3  A    between atoms: S1_6  and  C6_9 
REMARK    4  A    between atoms: C13_16  and  O3_17 
REMARK    5  A    between atoms: O3_17  and  C14_18 
REMARK    6  A    between atoms: C14_18  and  C15_19 
REMARK    7  A    between atoms: C18_22  and  C19_23 
REMARK    8  A    between atoms: C19_23  and  N1_24 
REMARK    9  A    between atoms: C23_28  and  C24_29 
REMARK   10  A    between atoms: C24_29  and  O4_30 
ROOT
HETATM    1  C1  UNL     1     -25.975  10.856 -20.074  1.00  0.00     0.048 C 
HETATM    2  C2  UNL     1     -25.940  11.311 -18.662  1.00  0.00    -0.059 A 
HETATM    3  C3  UNL     1     -26.064  12.666 -18.395  1.00  0.00     0.015 A 
HETATM    4  C4  UNL     1     -26.040  13.138 -17.108  1.00  0.00    -0.041 A 
HETATM    5  C12 UNL     1     -25.888  12.216 -16.084  1.00  0.00     0.044 A 
HETATM    6  C13 UNL     1     -25.765  10.871 -16.327  1.00  0.00     0.070 A 
HETATM    7  C27 UNL     1     -25.791  10.403 -17.635  1.00  0.00     0.043 A 
ENDROOT
BRANCH   6   8
HETATM    8  O3  UNL     1     -25.615   9.943 -15.332  1.00  0.00    -0.347 OA
BRANCH   8   9
HETATM    9  C14 UNL     1     -25.347   8.598 -15.691  1.00  0.00     0.214 C 
BRANCH   9  10
HETATM   10  C15 UNL     1     -24.859   7.879 -14.475  1.00  0.00    -0.034 A 
HETATM   11  C16 UNL     1     -24.734   6.506 -14.418  1.00  0.00     0.010 A 
HETATM   12  C17 UNL     1     -24.283   5.868 -13.285  1.00  0.00     0.009 A 
HETATM   13  C18 UNL     1     -23.944   6.604 -12.167  1.00  0.00    -0.030 A 
HETATM   14  C25 UNL     1     -24.055   7.965 -12.185  1.00  0.00     0.009 A 
HETATM   15  C26 UNL     1     -24.511   8.579 -13.339  1.00  0.00     0.010 A 
BRANCH  13  16
HETATM   16  C19 UNL     1     -23.461   5.878 -10.957  1.00  0.00     0.311 C 
BRANCH  16  17
HETATM   17  N1  UNL     1     -24.332   6.183  -9.871  1.00  0.00     0.099 N 
HETATM   18  C20 UNL     1     -25.741   6.039 -10.170  1.00  0.00     0.273 C 
HETATM   19  C21 UNL     1     -26.378   6.189  -8.782  1.00  0.00     0.032 C 
HETATM   20  C22 UNL     1     -25.261   5.924  -7.793  1.00  0.00     0.040 C 
HETATM   21  C23 UNL     1     -24.191   5.326  -8.716  1.00  0.00     0.246 C 
BRANCH  21  22
HETATM   22  C24 UNL     1     -22.828   5.409  -8.075  1.00  0.00     0.199 C 
BRANCH  22  23
HETATM   23  O4  UNL     1     -22.968   6.007  -6.829  1.00  0.00    -0.399 OA
ATOM     24  H4  UNL     1     -22.819   6.939  -6.928  1.00  0.00     0.209 HD
ENDBRANCH  22  23
ENDBRANCH  21  22
ENDBRANCH  16  17
ENDBRANCH  13  16
ENDBRANCH   9  10
ENDBRANCH   8   9
ENDBRANCH   6   8
BRANCH   4  25
HETATM   25  C5  UNL     1     -26.168  14.568 -16.816  1.00  0.00     0.184 C 
BRANCH  25  26
HETATM   26  S1  UNL     1     -27.868  15.111 -16.760  1.00  0.00     0.179 S 
HETATM   27  O1  UNL     1     -28.647  14.455 -17.844  1.00  0.00    -0.222 OA
HETATM   28  O2  UNL     1     -27.945  16.598 -16.816  1.00  0.00    -0.222 OA
BRANCH  26  29
HETATM   29  C6  UNL     1     -28.490  14.608 -15.184  1.00  0.00     0.059 A 
HETATM   30  C7  UNL     1     -28.159  15.286 -14.045  1.00  0.00     0.023 A 
HETATM   31  C8  UNL     1     -28.676  14.846 -12.845  1.00  0.00     0.002 A 
HETATM   32  C9  UNL     1     -29.510  13.748 -12.785  1.00  0.00     0.000 A 
HETATM   33  C10 UNL     1     -29.820  13.093 -13.949  1.00  0.00     0.002 A 
HETATM   34  C11 UNL     1     -29.321  13.504 -15.174  1.00  0.00     0.023 A 
ENDBRANCH  26  29
ENDBRANCH  25  26
ENDBRANCH   4  25
TORSDOF 10
ENDMDL
