MODEL 2
REMARK VINA RESULT: -11.665744075      0.950      1.334
REMARK  10 active torsions:
REMARK  status: ('A' for Active; 'I' for Inactive)
REMARK    1  A    between atoms: C4_4  and  C5_5 
REMARK    2  A    between atoms: C5_5  and  S1_6 
REMARK    3  A    between atoms: S1_6  and  C6_9 
REMARK    4  A    between atoms: C13_16  and  O3_17 
REMARK    5  A    between atoms: O3_17  and  C14_18 
REMARK    6  A    between atoms: C14_18  and  C15_19 
REMARK    7  A    between atoms: C18_22  and  C19_23 
REMARK    8  A    between atoms: C19_23  and  N1_24 
REMARK    9  A    between atoms: C23_28  and  C24_29 
REMARK   10  A    between atoms: C24_29  and  O4_30 
ROOT
HETATM    1  C1  UNL     1     -25.156  10.884 -20.653  1.00  0.00     0.048 C 
HETATM    2  C2  UNL     1     -25.820  11.001 -19.332  1.00  0.00    -0.059 A 
HETATM    3  C3  UNL     1     -26.792  11.974 -19.159  1.00  0.00     0.015 A 
HETATM    4  C4  UNL     1     -27.437  12.123 -17.958  1.00  0.00    -0.041 A 
HETATM    5  C12 UNL     1     -27.085  11.269 -16.925  1.00  0.00     0.044 A 
HETATM    6  C13 UNL     1     -26.126  10.298 -17.076  1.00  0.00     0.070 A 
HETATM    7  C27 UNL     1     -25.479  10.155 -18.297  1.00  0.00     0.043 A 
ENDROOT
BRANCH   6   8
HETATM    8  O3  UNL     1     -25.763   9.443 -16.070  1.00  0.00    -0.347 OA
BRANCH   8   9
HETATM    9  C14 UNL     1     -24.689   9.810 -15.221  1.00  0.00     0.214 C 
BRANCH   9  10
HETATM   10  C15 UNL     1     -24.513   8.733 -14.200  1.00  0.00    -0.034 A 
HETATM   11  C16 UNL     1     -24.591   7.390 -14.506  1.00  0.00     0.010 A 
HETATM   12  C17 UNL     1     -24.427   6.418 -13.546  1.00  0.00     0.009 A 
HETATM   13  C18 UNL     1     -24.176   6.778 -12.237  1.00  0.00    -0.030 A 
HETATM   14  C25 UNL     1     -24.092   8.096 -11.894  1.00  0.00     0.009 A 
HETATM   15  C26 UNL     1     -24.262   9.052 -12.882  1.00  0.00     0.010 A 
BRANCH  13  16
HETATM   16  C19 UNL     1     -24.004   5.697 -11.224  1.00  0.00     0.311 C 
BRANCH  16  17
HETATM   17  N1  UNL     1     -24.619   6.118 -10.008  1.00  0.00     0.099 N 
HETATM   18  C20 UNL     1     -26.060   5.980  -9.983  1.00  0.00     0.273 C 
HETATM   19  C21 UNL     1     -26.382   6.267  -8.511  1.00  0.00     0.032 C 
HETATM   20  C22 UNL     1     -25.078   6.066  -7.765  1.00  0.00     0.040 C 
HETATM   21  C23 UNL     1     -24.235   5.364  -8.837  1.00  0.00     0.246 C 
BRANCH  21  22
HETATM   22  C24 UNL     1     -22.765   5.472  -8.514  1.00  0.00     0.199 C 
BRANCH  22  23
HETATM   23  O4  UNL     1     -22.638   5.814  -7.174  1.00  0.00    -0.399 OA
ATOM     24  H4  UNL     1     -22.667   6.760  -7.103  1.00  0.00     0.209 HD
ENDBRANCH  22  23
ENDBRANCH  21  22
ENDBRANCH  16  17
ENDBRANCH  13  16
ENDBRANCH   9  10
ENDBRANCH   8   9
ENDBRANCH   6   8
BRANCH   4  25
HETATM   25  C5  UNL     1     -28.464  13.150 -17.763  1.00  0.00     0.184 C 
BRANCH  25  26
HETATM   26  S1  UNL     1     -27.872  14.550 -16.828  1.00  0.00     0.179 S 
HETATM   27  O1  UNL     1     -28.433  15.809 -17.389  1.00  0.00    -0.222 OA
HETATM   28  O2  UNL     1     -26.384  14.556 -16.778  1.00  0.00    -0.222 OA
BRANCH  26  29
HETATM   29  C6  UNL     1     -28.457  14.317 -15.177  1.00  0.00     0.059 A 
HETATM   30  C7  UNL     1     -29.373  13.347 -14.882  1.00  0.00     0.023 A 
HETATM   31  C8  UNL     1     -29.791  13.212 -13.576  1.00  0.00     0.002 A 
HETATM   32  C9  UNL     1     -29.301  14.032 -12.580  1.00  0.00     0.000 A 
HETATM   33  C10 UNL     1     -28.382  14.995 -12.912  1.00  0.00     0.002 A 
HETATM   34  C11 UNL     1     -27.938  15.161 -14.214  1.00  0.00     0.023 A 
ENDBRANCH  26  29
ENDBRANCH  25  26
ENDBRANCH   4  25
TORSDOF 10
ENDMDL
