MODEL 14
REMARK VINA RESULT: -5.845711205      4.278      6.343
REMARK  10 active torsions:
REMARK  status: ('A' for Active; 'I' for Inactive)
REMARK    1  A    between atoms: O1_1  and  C1_3 
REMARK    2  A    between atoms: C1_3  and  C2_4 
REMARK    3  A    between atoms: C3_6  and  O3_7 
REMARK    4  A    between atoms: O3_7  and  C4_8 
REMARK    5  A    between atoms: C7_14  and  C8_15 
REMARK    6  A    between atoms: C8_15  and  O4_16 
REMARK    7  A    between atoms: C9_18  and  O5_19 
REMARK    8  A    between atoms: C10_21  and  O6_22 
REMARK    9  A    between atoms: C11_24  and  O7_25 
REMARK   10  A    between atoms: C12_27  and  O8_28 
ROOT
HETATM    1  C2  UNL     1      21.533   4.904  -8.783  1.00  0.00     0.179 C 
HETATM    2  O2  UNL     1      22.192   4.622  -7.598  1.00  0.00    -0.348 OA
HETATM    3  C3  UNL     1      21.821   3.418  -7.028  1.00  0.00     0.292 C 
HETATM    4  C10 UNL     1      21.169   2.510  -8.081  1.00  0.00     0.204 C 
HETATM    5  C11 UNL     1      19.822   3.141  -8.369  1.00  0.00     0.183 C 
HETATM    6  C12 UNL     1      20.053   4.573  -8.712  1.00  0.00     0.180 C 
ENDROOT
BRANCH   3   7
HETATM    7  O3  UNL     1      22.805   2.785  -6.324  1.00  0.00    -0.349 OA
BRANCH   7   8
HETATM    8  C4  UNL     1      22.787   3.025  -4.961  1.00  0.00     0.179 C 
HETATM    9  C5  UNL     1      22.515   4.504  -4.768  1.00  0.00     0.266 C 
HETATM   10  N1  UNL     1      23.748   5.276  -4.760  1.00  0.00    -0.072 N 
HETATM   11  C6  UNL     1      24.558   5.015  -3.602  1.00  0.00     0.241 C 
ATOM     12  H12 UNL     1      24.277   5.128  -5.619  1.00  0.00     0.277 HD
ATOM     13  H11 UNL     1      23.555   6.274  -4.854  1.00  0.00     0.277 HD
HETATM   14  C7  UNL     1      24.197   3.651  -3.065  1.00  0.00     0.066 C 
HETATM   15  C9  UNL     1      24.095   2.721  -4.283  1.00  0.00     0.156 C 
BRANCH  14  16
HETATM   16  C8  UNL     1      25.323   3.101  -2.190  1.00  0.00     0.173 C 
BRANCH  16  17
HETATM   17  O4  UNL     1      26.504   3.082  -2.921  1.00  0.00    -0.400 OA
ATOM     18  H4  UNL     1      27.224   2.848  -2.348  1.00  0.00     0.209 HD
ENDBRANCH  16  17
ENDBRANCH  14  16
BRANCH  15  19
HETATM   19  O5  UNL     1      24.167   1.435  -3.792  1.00  0.00    -0.392 OA
ATOM     20  H5  UNL     1      25.056   1.153  -3.609  1.00  0.00     0.210 HD
ENDBRANCH  15  19
ENDBRANCH   7   8
ENDBRANCH   3   7
BRANCH   4  21
HETATM   21  O6  UNL     1      20.936   1.260  -7.543  1.00  0.00    -0.388 OA
ATOM     22  H6  UNL     1      20.195   0.854  -7.977  1.00  0.00     0.210 HD
ENDBRANCH   4  21
BRANCH   1  23
HETATM   23  C1  UNL     1      21.626   6.405  -8.984  1.00  0.00     0.198 C 
BRANCH  23  24
HETATM   24  O1  UNL     1      21.823   6.952  -7.697  1.00  0.00    -0.398 OA
ATOM     25  H1  UNL     1      21.350   7.776  -7.692  1.00  0.00     0.209 HD
ENDBRANCH  23  24
ENDBRANCH   1  23
BRANCH   5  26
HETATM   26  O7  UNL     1      19.045   3.097  -7.196  1.00  0.00    -0.390 OA
ATOM     27  H7  UNL     1      19.477   2.534  -6.564  1.00  0.00     0.210 HD
ENDBRANCH   5  26
BRANCH   6  28
HETATM   28  O8  UNL     1      19.551   4.768 -10.021  1.00  0.00    -0.390 OA
ATOM     29  H8  UNL     1      19.289   5.680 -10.065  1.00  0.00     0.210 HD
ENDBRANCH   6  28
TORSDOF 10
ENDMDL
