MODEL 4
REMARK VINA RESULT: -6.099266092      1.488      1.676
REMARK  10 active torsions:
REMARK  status: ('A' for Active; 'I' for Inactive)
REMARK    1  A    between atoms: O1_1  and  C1_3 
REMARK    2  A    between atoms: C1_3  and  C2_4 
REMARK    3  A    between atoms: C3_6  and  O3_7 
REMARK    4  A    between atoms: O3_7  and  C4_8 
REMARK    5  A    between atoms: C7_14  and  C8_15 
REMARK    6  A    between atoms: C8_15  and  O4_16 
REMARK    7  A    between atoms: C9_18  and  O5_19 
REMARK    8  A    between atoms: C10_21  and  O6_22 
REMARK    9  A    between atoms: C11_24  and  O7_25 
REMARK   10  A    between atoms: C12_27  and  O8_28 
ROOT
HETATM    1  C2  UNL     1      23.872   3.396  -3.037  1.00  0.00     0.179 C 
HETATM    2  O2  UNL     1      23.005   4.219  -2.338  1.00  0.00    -0.348 OA
HETATM    3  C3  UNL     1      21.875   4.573  -3.053  1.00  0.00     0.292 C 
HETATM    4  C10 UNL     1      21.646   3.588  -4.208  1.00  0.00     0.204 C 
HETATM    5  C11 UNL     1      22.746   3.887  -5.206  1.00  0.00     0.183 C 
HETATM    6  C12 UNL     1      24.047   3.837  -4.480  1.00  0.00     0.180 C 
ENDROOT
BRANCH   3   7
HETATM    7  O3  UNL     1      20.754   4.771  -2.299  1.00  0.00    -0.349 OA
BRANCH   7   8
HETATM    8  C4  UNL     1      20.089   5.959  -2.550  1.00  0.00     0.179 C 
HETATM    9  C5  UNL     1      20.486   6.935  -1.458  1.00  0.00     0.266 C 
HETATM   10  N1  UNL     1      19.605   6.832  -0.306  1.00  0.00    -0.072 N 
HETATM   11  C6  UNL     1      18.272   7.291  -0.583  1.00  0.00     0.241 C 
ATOM     12  H12 UNL     1      19.595   5.881   0.063  1.00  0.00     0.277 HD
ATOM     13  H11 UNL     1      19.999   7.318   0.501  1.00  0.00     0.277 HD
HETATM   14  C7  UNL     1      18.033   7.190  -2.071  1.00  0.00     0.066 C 
HETATM   15  C9  UNL     1      18.591   5.828  -2.506  1.00  0.00     0.156 C 
BRANCH  14  16
HETATM   16  C8  UNL     1      16.536   7.165  -2.376  1.00  0.00     0.173 C 
BRANCH  16  17
HETATM   17  O4  UNL     1      16.256   8.096  -3.370  1.00  0.00    -0.400 OA
ATOM     18  H4  UNL     1      15.766   8.818  -2.994  1.00  0.00     0.209 HD
ENDBRANCH  16  17
ENDBRANCH  14  16
BRANCH  15  19
HETATM   19  O5  UNL     1      18.034   5.558  -3.738  1.00  0.00    -0.392 OA
ATOM     20  H5  UNL     1      17.189   5.975  -3.866  1.00  0.00     0.210 HD
ENDBRANCH  15  19
ENDBRANCH   7   8
ENDBRANCH   3   7
BRANCH   4  21
HETATM   21  O6  UNL     1      20.441   3.861  -4.824  1.00  0.00    -0.388 OA
ATOM     22  H6  UNL     1      20.460   4.734  -5.198  1.00  0.00     0.210 HD
ENDBRANCH   4  21
BRANCH   1  23
HETATM   23  C1  UNL     1      25.231   3.536  -2.378  1.00  0.00     0.198 C 
BRANCH  23  24
HETATM   24  O1  UNL     1      25.804   2.246  -2.406  1.00  0.00    -0.398 OA
ATOM     25  H1  UNL     1      25.449   1.790  -1.651  1.00  0.00     0.209 HD
ENDBRANCH  23  24
ENDBRANCH   1  23
BRANCH   5  26
HETATM   26  O7  UNL     1      22.572   5.197  -5.691  1.00  0.00    -0.390 OA
ATOM     27  H7  UNL     1      23.352   5.701  -5.492  1.00  0.00     0.210 HD
ENDBRANCH   5  26
BRANCH   6  28
HETATM   28  O8  UNL     1      24.827   2.831  -5.099  1.00  0.00    -0.390 OA
ATOM     29  H8  UNL     1      25.731   3.047  -4.904  1.00  0.00     0.210 HD
ENDBRANCH   6  28
TORSDOF 10
ENDMDL
