MODEL 1
REMARK VINA RESULT: -6.532539069      0.000      0.000
REMARK  10 active torsions:
REMARK  status: ('A' for Active; 'I' for Inactive)
REMARK    1  A    between atoms: O1_1  and  C1_3 
REMARK    2  A    between atoms: C1_3  and  C2_4 
REMARK    3  A    between atoms: C3_6  and  O3_7 
REMARK    4  A    between atoms: O3_7  and  C4_8 
REMARK    5  A    between atoms: C7_14  and  C8_15 
REMARK    6  A    between atoms: C8_15  and  O4_16 
REMARK    7  A    between atoms: C9_18  and  O5_19 
REMARK    8  A    between atoms: C10_21  and  O6_22 
REMARK    9  A    between atoms: C11_24  and  O7_25 
REMARK   10  A    between atoms: C12_27  and  O8_28 
ROOT
HETATM    1  C2  UNL     1      23.099   3.459  -3.498  1.00  0.00     0.179 C 
HETATM    2  O2  UNL     1      21.955   4.006  -2.941  1.00  0.00    -0.348 OA
HETATM    3  C3  UNL     1      20.957   4.266  -3.862  1.00  0.00     0.292 C 
HETATM    4  C10 UNL     1      21.184   3.443  -5.139  1.00  0.00     0.204 C 
HETATM    5  C11 UNL     1      22.388   4.073  -5.806  1.00  0.00     0.183 C 
HETATM    6  C12 UNL     1      23.486   4.138  -4.800  1.00  0.00     0.180 C 
ENDROOT
BRANCH   3   7
HETATM    7  O3  UNL     1      19.684   4.151  -3.382  1.00  0.00    -0.349 OA
BRANCH   7   8
HETATM    8  C4  UNL     1      19.430   4.882  -2.233  1.00  0.00     0.179 C 
HETATM    9  C5  UNL     1      18.498   4.055  -1.370  1.00  0.00     0.266 C 
HETATM   10  N1  UNL     1      17.103   4.315  -1.692  1.00  0.00    -0.072 N 
HETATM   11  C6  UNL     1      16.685   5.638  -1.319  1.00  0.00     0.241 C 
ATOM     12  H12 UNL     1      16.916   4.136  -2.678  1.00  0.00     0.277 HD
ATOM     13  H11 UNL     1      16.494   3.608  -1.277  1.00  0.00     0.277 HD
HETATM   14  C7  UNL     1      17.906   6.523  -1.255  1.00  0.00     0.066 C 
HETATM   15  C9  UNL     1      18.744   6.194  -2.499  1.00  0.00     0.156 C 
BRANCH  14  16
HETATM   16  C8  UNL     1      17.512   7.995  -1.372  1.00  0.00     0.173 C 
BRANCH  16  17
HETATM   17  O4  UNL     1      17.117   8.261  -2.678  1.00  0.00    -0.400 OA
ATOM     18  H4  UNL     1      17.198   9.192  -2.846  1.00  0.00     0.209 HD
ENDBRANCH  16  17
ENDBRANCH  14  16
BRANCH  15  19
HETATM   19  O5  UNL     1      19.623   7.244  -2.661  1.00  0.00    -0.392 OA
ATOM     20  H5  UNL     1      19.278   8.072  -2.349  1.00  0.00     0.210 HD
ENDBRANCH  15  19
ENDBRANCH   7   8
ENDBRANCH   3   7
BRANCH   4  21
HETATM   21  O6  UNL     1      20.109   3.595  -5.992  1.00  0.00    -0.388 OA
ATOM     22  H6  UNL     1      19.349   3.890  -5.504  1.00  0.00     0.210 HD
ENDBRANCH   4  21
BRANCH   1  23
HETATM   23  C1  UNL     1      24.229   3.729  -2.522  1.00  0.00     0.198 C 
BRANCH  23  24
HETATM   24  O1  UNL     1      25.085   2.610  -2.610  1.00  0.00    -0.398 OA
ATOM     25  H1  UNL     1      24.755   1.983  -1.977  1.00  0.00     0.209 HD
ENDBRANCH  23  24
ENDBRANCH   1  23
BRANCH   5  26
HETATM   26  O7  UNL     1      22.061   5.392  -6.174  1.00  0.00    -0.390 OA
ATOM     27  H7  UNL     1      21.861   5.887  -5.388  1.00  0.00     0.210 HD
ENDBRANCH   5  26
BRANCH   6  28
HETATM   28  O8  UNL     1      24.567   3.386  -5.320  1.00  0.00    -0.390 OA
ATOM     29  H8  UNL     1      24.549   3.524  -6.260  1.00  0.00     0.210 HD
ENDBRANCH   6  28
TORSDOF 10
ENDMDL
