MODEL 2
REMARK VINA RESULT: -6.213107117      2.023      6.498
REMARK  10 active torsions:
REMARK  status: ('A' for Active; 'I' for Inactive)
REMARK    1  A    between atoms: O1_1  and  C1_3 
REMARK    2  A    between atoms: C1_3  and  C2_4 
REMARK    3  A    between atoms: C3_6  and  O3_7 
REMARK    4  A    between atoms: O3_7  and  C4_8 
REMARK    5  A    between atoms: C7_14  and  C8_15 
REMARK    6  A    between atoms: C8_15  and  O4_16 
REMARK    7  A    between atoms: C9_18  and  O5_19 
REMARK    8  A    between atoms: C10_21  and  O6_22 
REMARK    9  A    between atoms: C11_24  and  O7_25 
REMARK   10  A    between atoms: C12_27  and  O8_28 
ROOT
HETATM    1  C2  UNL     1      17.912   6.436  -2.070  1.00  0.00     0.179 C 
HETATM    2  O2  UNL     1      18.577   5.687  -3.027  1.00  0.00    -0.348 OA
HETATM    3  C3  UNL     1      19.914   5.481  -2.742  1.00  0.00     0.292 C 
HETATM    4  C10 UNL     1      20.180   5.701  -1.246  1.00  0.00     0.204 C 
HETATM    5  C11 UNL     1      20.049   7.196  -1.037  1.00  0.00     0.183 C 
HETATM    6  C12 UNL     1      18.733   7.622  -1.594  1.00  0.00     0.180 C 
ENDROOT
BRANCH   3   7
HETATM    7  O3  UNL     1      20.426   4.300  -3.199  1.00  0.00    -0.349 OA
BRANCH   7   8
HETATM    8  C4  UNL     1      21.357   4.428  -4.216  1.00  0.00     0.179 C 
HETATM    9  C5  UNL     1      21.013   3.397  -5.273  1.00  0.00     0.266 C 
HETATM   10  N1  UNL     1      21.664   2.123  -5.008  1.00  0.00    -0.072 N 
HETATM   11  C6  UNL     1      23.091   2.185  -5.170  1.00  0.00     0.241 C 
ATOM     12  H12 UNL     1      21.416   1.772  -4.083  1.00  0.00     0.277 HD
ATOM     13  H11 UNL     1      21.263   1.380  -5.581  1.00  0.00     0.277 HD
HETATM   14  C7  UNL     1      23.529   3.619  -4.993  1.00  0.00     0.066 C 
HETATM   15  C9  UNL     1      22.769   4.155  -3.772  1.00  0.00     0.156 C 
BRANCH  14  16
HETATM   16  C8  UNL     1      25.016   3.690  -4.646  1.00  0.00     0.173 C 
BRANCH  16  17
HETATM   17  O4  UNL     1      25.311   2.721  -3.694  1.00  0.00    -0.400 OA
ATOM     18  H4  UNL     1      25.419   3.137  -2.847  1.00  0.00     0.209 HD
ENDBRANCH  16  17
ENDBRANCH  14  16
BRANCH  15  19
HETATM   19  O5  UNL     1      23.439   5.290  -3.367  1.00  0.00    -0.392 OA
ATOM     20  H5  UNL     1      24.384   5.213  -3.441  1.00  0.00     0.210 HD
ENDBRANCH  15  19
ENDBRANCH   7   8
ENDBRANCH   3   7
BRANCH   4  21
HETATM   21  O6  UNL     1      21.481   5.352  -0.945  1.00  0.00    -0.388 OA
ATOM     22  H6  UNL     1      21.836   4.803  -1.634  1.00  0.00     0.210 HD
ENDBRANCH   4  21
BRANCH   1  23
HETATM   23  C1  UNL     1      16.682   7.011  -2.746  1.00  0.00     0.198 C 
BRANCH  23  24
HETATM   24  O1  UNL     1      16.995   8.359  -3.027  1.00  0.00    -0.398 OA
ATOM     25  H1  UNL     1      16.175   8.834  -2.958  1.00  0.00     0.209 HD
ENDBRANCH  23  24
ENDBRANCH   1  23
BRANCH   5  26
HETATM   26  O7  UNL     1      21.059   7.844  -1.773  1.00  0.00    -0.390 OA
ATOM     27  H7  UNL     1      20.651   8.405  -2.422  1.00  0.00     0.210 HD
ENDBRANCH   5  26
BRANCH   6  28
HETATM   28  O8  UNL     1      18.001   8.195  -0.527  1.00  0.00    -0.390 OA
ATOM     29  H8  UNL     1      18.554   8.882  -0.173  1.00  0.00     0.210 HD
ENDBRANCH   6  28
TORSDOF 10
ENDMDL
