MODEL 2
REMARK VINA RESULT: -5.023075242      0.138      1.481
REMARK  8 active torsions:
REMARK  status: ('A' for Active; 'I' for Inactive)
REMARK    1  A    between atoms: C2_2  and  N1_3 
REMARK    2  A    between atoms: N1_3  and  C3_4 
REMARK    3  A    between atoms: N1_3  and  C5_6 
REMARK    4  A    between atoms: C5_6  and  C6_7 
REMARK    5  A    between atoms: C6_7  and  C7_8 
REMARK    6  A    between atoms: C7_8  and  C8_9 
REMARK    7  A    between atoms: C8_9  and  N2_11 
REMARK    8  A    between atoms: N2_11  and  C10_13 
ROOT
HETATM    1  C10 UNL     1      39.196  70.766 105.468  1.00  0.00     0.042 A 
HETATM    2  C11 UNL     1      39.561  72.091 105.645  1.00  0.00     0.047 A 
HETATM    3  C12 UNL     1      40.873  72.490 105.716  1.00  0.00     0.090 A 
HETATM    4  N3  UNL     1      41.858  71.601 105.616  1.00  0.00    -0.365 N 
ATOM      5  H3  UNL     1      42.830  71.904 105.671  1.00  0.00     0.165 HD
HETATM    6  C13 UNL     1      41.560  70.291 105.441  1.00  0.00     0.046 A 
HETATM    7  C14 UNL     1      42.633  69.424 105.346  1.00  0.00     0.054 A 
HETATM    8  C15 UNL     1      42.354  68.092 105.171  1.00  0.00     0.036 A 
HETATM    9 CL1  UNL     1      43.686  66.956 105.043  1.00  0.00    -0.084 Cl
HETATM   10  C16 UNL     1      41.069  67.626 105.093  1.00  0.00     0.025 A 
HETATM   11  C17 UNL     1      40.011  68.506 105.189  1.00  0.00     0.018 A 
HETATM   12  C18 UNL     1      40.243  69.851 105.365  1.00  0.00     0.017 A 
ENDROOT
BRANCH   1  13
HETATM   13  N2  UNL     1      37.865  70.368 105.365  1.00  0.00    -0.385 N 
ATOM     14  H2  UNL     1      37.559  69.558 105.906  1.00  0.00     0.160 HD
BRANCH  13  15
HETATM   15  C8  UNL     1      36.878  71.053 104.519  1.00  0.00     0.077 C 
HETATM   16  C9  UNL     1      35.894  71.803 105.328  1.00  0.00     0.032 C 
BRANCH  15  17
HETATM   17  C7  UNL     1      36.387  70.048 103.548  1.00  0.00     0.026 C 
BRANCH  17  18
HETATM   18  C6  UNL     1      36.656  68.609 103.723  1.00  0.00     0.022 C 
BRANCH  18  19
HETATM   19  C5  UNL     1      35.887  67.719 102.800  1.00  0.00     0.122 C 
BRANCH  19  20
HETATM   20  N1  UNL     1      36.697  67.055 101.834  1.00  0.00    -0.394 N 
BRANCH  20  21
HETATM   21  C2  UNL     1      38.034  66.786 102.099  1.00  0.00     0.053 C 
HETATM   22  C1  UNL     1      38.820  66.737 100.801  1.00  0.00     0.054 C 
ENDBRANCH  20  21
BRANCH  20  23
HETATM   23  C3  UNL     1      35.963  66.242 100.944  1.00  0.00     0.117 C 
HETATM   24  C4  UNL     1      34.890  65.396 101.570  1.00  0.00     0.026 C 
ENDBRANCH  20  23
ENDBRANCH  19  20
ENDBRANCH  18  19
ENDBRANCH  17  18
ENDBRANCH  15  17
ENDBRANCH  13  15
ENDBRANCH   1  13
TORSDOF 8
ENDMDL
