MODEL 1
REMARK VINA RESULT: -5.096314724      0.000      0.000
REMARK  8 active torsions:
REMARK  status: ('A' for Active; 'I' for Inactive)
REMARK    1  A    between atoms: C2_2  and  N1_3 
REMARK    2  A    between atoms: N1_3  and  C3_4 
REMARK    3  A    between atoms: N1_3  and  C5_6 
REMARK    4  A    between atoms: C5_6  and  C6_7 
REMARK    5  A    between atoms: C6_7  and  C7_8 
REMARK    6  A    between atoms: C7_8  and  C8_9 
REMARK    7  A    between atoms: C8_9  and  N2_11 
REMARK    8  A    between atoms: N2_11  and  C10_13 
ROOT
HETATM    1  C10 UNL     1      39.272  70.777 105.471  1.00  0.00     0.042 A 
HETATM    2  C11 UNL     1      39.647  72.100 105.646  1.00  0.00     0.047 A 
HETATM    3  C12 UNL     1      40.961  72.489 105.720  1.00  0.00     0.090 A 
HETATM    4  N3  UNL     1      41.940  71.594 105.624  1.00  0.00    -0.365 N 
ATOM      5  H3  UNL     1      42.914  71.889 105.680  1.00  0.00     0.165 HD
HETATM    6  C13 UNL     1      41.633  70.285 105.452  1.00  0.00     0.046 A 
HETATM    7  C14 UNL     1      42.699  69.410 105.361  1.00  0.00     0.054 A 
HETATM    8  C15 UNL     1      42.412  68.080 105.188  1.00  0.00     0.036 A 
HETATM    9 CL1  UNL     1      43.736  66.934 105.066  1.00  0.00    -0.084 Cl
HETATM   10  C16 UNL     1      41.123  67.622 105.108  1.00  0.00     0.025 A 
HETATM   11  C17 UNL     1      40.072  68.510 105.200  1.00  0.00     0.018 A 
HETATM   12  C18 UNL     1      40.312  69.854 105.373  1.00  0.00     0.017 A 
ENDROOT
BRANCH   1  13
HETATM   13  N2  UNL     1      37.939  70.388 105.366  1.00  0.00    -0.385 N 
ATOM     14  H2  UNL     1      37.634  69.560 105.879  1.00  0.00     0.160 HD
BRANCH  13  15
HETATM   15  C8  UNL     1      36.947  71.108 104.554  1.00  0.00     0.077 C 
HETATM   16  C9  UNL     1      35.991  71.854 105.398  1.00  0.00     0.032 C 
BRANCH  15  17
HETATM   17  C7  UNL     1      36.422  70.133 103.570  1.00  0.00     0.026 C 
BRANCH  17  18
HETATM   18  C6  UNL     1      36.772  68.701 103.639  1.00  0.00     0.022 C 
BRANCH  18  19
HETATM   19  C5  UNL     1      35.897  67.811 102.816  1.00  0.00     0.122 C 
BRANCH  19  20
HETATM   20  N1  UNL     1      36.612  66.824 102.078  1.00  0.00    -0.394 N 
BRANCH  20  21
HETATM   21  C2  UNL     1      36.023  66.194 100.989  1.00  0.00     0.053 C 
HETATM   22  C1  UNL     1      34.690  65.593 101.398  1.00  0.00     0.054 C 
ENDBRANCH  20  21
BRANCH  20  23
HETATM   23  C3  UNL     1      38.014  66.967 102.155  1.00  0.00     0.117 C 
HETATM   24  C4  UNL     1      38.756  66.814 100.856  1.00  0.00     0.026 C 
ENDBRANCH  20  23
ENDBRANCH  19  20
ENDBRANCH  18  19
ENDBRANCH  17  18
ENDBRANCH  15  17
ENDBRANCH  13  15
ENDBRANCH   1  13
TORSDOF 8
ENDMDL
