MODEL 3
REMARK VINA RESULT: -4.986667822      3.686      5.872
REMARK  8 active torsions:
REMARK  status: ('A' for Active; 'I' for Inactive)
REMARK    1  A    between atoms: C2_2  and  N1_3 
REMARK    2  A    between atoms: N1_3  and  C3_4 
REMARK    3  A    between atoms: N1_3  and  C5_6 
REMARK    4  A    between atoms: C5_6  and  C6_7 
REMARK    5  A    between atoms: C6_7  and  C7_8 
REMARK    6  A    between atoms: C7_8  and  C8_9 
REMARK    7  A    between atoms: C8_9  and  N2_11 
REMARK    8  A    between atoms: N2_11  and  C10_13 
ROOT
HETATM    1  C10 UNL     1      37.231  67.695 103.038  1.00  0.00     0.042 A 
HETATM    2  C11 UNL     1      38.383  66.957 103.261  1.00  0.00     0.047 A 
HETATM    3  C12 UNL     1      39.328  67.329 104.184  1.00  0.00     0.090 A 
HETATM    4  N3  UNL     1      39.169  68.431 104.911  1.00  0.00    -0.365 N 
ATOM      5  H3  UNL     1      39.876  68.702 105.595  1.00  0.00     0.165 HD
HETATM    6  C13 UNL     1      38.062  69.192 104.737  1.00  0.00     0.046 A 
HETATM    7  C14 UNL     1      37.963  70.323 105.526  1.00  0.00     0.054 A 
HETATM    8  C15 UNL     1      36.850  71.109 105.364  1.00  0.00     0.036 A 
HETATM    9 CL1  UNL     1      36.682  72.554 106.347  1.00  0.00    -0.084 Cl
HETATM   10  C16 UNL     1      35.869  70.799 104.461  1.00  0.00     0.025 A 
HETATM   11  C17 UNL     1      35.985  69.665 103.683  1.00  0.00     0.018 A 
HETATM   12  C18 UNL     1      37.083  68.846 103.811  1.00  0.00     0.017 A 
ENDROOT
BRANCH   1  13
HETATM   13  N2  UNL     1      36.258  67.300 102.123  1.00  0.00    -0.385 N 
ATOM     14  H2  UNL     1      36.108  67.879 101.297  1.00  0.00     0.160 HD
BRANCH  13  15
HETATM   15  C8  UNL     1      35.436  66.092 102.286  1.00  0.00     0.077 C 
HETATM   16  C9  UNL     1      35.171  65.435 100.989  1.00  0.00     0.032 C 
BRANCH  15  17
HETATM   17  C7  UNL     1      34.289  66.476 103.140  1.00  0.00     0.026 C 
BRANCH  17  18
HETATM   18  C6  UNL     1      34.298  66.241 104.597  1.00  0.00     0.022 C 
BRANCH  18  19
HETATM   19  C5  UNL     1      33.408  67.155 105.376  1.00  0.00     0.122 C 
BRANCH  19  20
HETATM   20  N1  UNL     1      32.233  66.524 105.879  1.00  0.00    -0.394 N 
BRANCH  20  21
HETATM   21  C2  UNL     1      32.313  65.626 106.936  1.00  0.00     0.053 C 
HETATM   22  C1  UNL     1      31.170  64.630 106.858  1.00  0.00     0.054 C 
ENDBRANCH  20  21
BRANCH  20  23
HETATM   23  C3  UNL     1      31.053  67.261 105.649  1.00  0.00     0.117 C 
HETATM   24  C4  UNL     1      31.121  68.268 104.535  1.00  0.00     0.026 C 
ENDBRANCH  20  23
ENDBRANCH  19  20
ENDBRANCH  18  19
ENDBRANCH  17  18
ENDBRANCH  15  17
ENDBRANCH  13  15
ENDBRANCH   1  13
TORSDOF 8
ENDMDL
