MODEL 13
REMARK VINA RESULT: -8.442208458      3.808      8.695
REMARK  6 active torsions:
REMARK  status: ('A' for Active; 'I' for Inactive)
REMARK    1  A    between atoms: P1_2  and  C1_5 
REMARK    2  A    between atoms: C1_5  and  O4_6 
REMARK    3  A    between atoms: C1_5  and  C2_8 
REMARK    4  A    between atoms: C1_5  and  P2_28 
REMARK    5  A    between atoms: C2_8  and  C3_9 
REMARK    6  A    between atoms: C7_13  and  C8_14 
ROOT
HETATM    1  C3  UNL     1       0.324 -12.653  -6.068  1.00  0.00    -0.053 A 
HETATM    2  C4  UNL     1       0.655 -13.246  -7.280  1.00  0.00     0.007 A 
HETATM    3  C5  UNL     1      -0.215 -13.249  -8.365  1.00  0.00     0.001 A 
HETATM    4  C6  UNL     1      -1.442 -12.640  -8.217  1.00  0.00     0.012 A 
HETATM    5  C7  UNL     1      -1.772 -12.047  -6.997  1.00  0.00    -0.023 A 
HETATM    6  C20 UNL     1      -0.904 -12.049  -5.932  1.00  0.00     0.019 A 
ENDROOT
BRANCH   5   7
HETATM    7  C8  UNL     1      -3.059 -11.392  -6.796  1.00  0.00     0.009 A 
HETATM    8  C9  UNL     1      -3.198 -10.228  -6.071  1.00  0.00     0.015 A 
HETATM    9  C10 UNL     1      -4.419  -9.615  -5.887  1.00  0.00     0.002 A 
HETATM   10  C11 UNL     1      -5.573 -10.159  -6.433  1.00  0.00     0.015 A 
HETATM   11  C12 UNL     1      -5.445 -11.319  -7.157  1.00  0.00     0.012 A 
HETATM   12  C13 UNL     1      -4.214 -11.927  -7.337  1.00  0.00     0.098 A 
HETATM   13  C19 UNL     1      -6.380 -12.111  -7.825  1.00  0.00     0.011 A 
HETATM   14  O5  UNL     1      -4.396 -12.991  -8.051  1.00  0.00    -0.308 OA
HETATM   15  C14 UNL     1      -5.666 -13.153  -8.373  1.00  0.00     0.087 A 
HETATM   16  C15 UNL     1      -6.358 -14.098  -9.098  1.00  0.00     0.038 A 
HETATM   17  C16 UNL     1      -7.718 -13.998  -9.266  1.00  0.00     0.003 A 
HETATM   18  C17 UNL     1      -8.454 -12.965  -8.727  1.00  0.00     0.001 A 
HETATM   19  C18 UNL     1      -7.742 -12.026  -8.003  1.00  0.00     0.015 A 
ENDBRANCH   5   7
BRANCH   1  20
HETATM   20  C2  UNL     1       1.298 -12.692  -4.980  1.00  0.00     0.106 C 
BRANCH  20  21
HETATM   21  C1  UNL     1       2.530 -11.889  -5.142  1.00  0.00     0.289 C 
BRANCH  21  22
HETATM   22  P1  UNL     1       3.711 -12.749  -6.184  1.00  0.00     0.310 P 
HETATM   23  O1  UNL     1       5.137 -12.349  -5.859  1.00  0.00    -0.637 OA
HETATM   24  O2  UNL     1       3.519 -14.425  -5.938  1.00  0.00    -0.637 OA
HETATM   25  O3  UNL     1       3.479 -12.449  -7.831  1.00  0.00    -0.637 OA
ENDBRANCH  21  22
BRANCH  21  26
HETATM   26  O4  UNL     1       2.300 -10.582  -5.558  1.00  0.00    -0.365 OA
ATOM     27  H4  UNL     1       2.857  -9.953  -5.114  1.00  0.00     0.212 HD
ENDBRANCH  21  26
BRANCH  21  28
HETATM   28  P2  UNL     1       3.302 -11.748  -3.483  1.00  0.00     0.310 P 
HETATM   29  O6  UNL     1       4.378 -10.680  -3.488  1.00  0.00    -0.637 OA
HETATM   30  O7  UNL     1       3.960 -13.247  -3.063  1.00  0.00    -0.637 OA
HETATM   31  O8  UNL     1       2.108 -11.298  -2.379  1.00  0.00    -0.637 OA
ENDBRANCH  21  28
ENDBRANCH  20  21
ENDBRANCH   1  20
TORSDOF 6
ENDMDL
