MODEL 11
REMARK VINA RESULT: -8.606577407      2.114      3.804
REMARK  6 active torsions:
REMARK  status: ('A' for Active; 'I' for Inactive)
REMARK    1  A    between atoms: P1_2  and  C1_5 
REMARK    2  A    between atoms: C1_5  and  O4_6 
REMARK    3  A    between atoms: C1_5  and  C2_8 
REMARK    4  A    between atoms: C1_5  and  P2_28 
REMARK    5  A    between atoms: C2_8  and  C3_9 
REMARK    6  A    between atoms: C7_13  and  C8_14 
ROOT
HETATM    1  C3  UNL     1      -0.580 -12.122  -7.348  1.00  0.00    -0.053 A 
HETATM    2  C4  UNL     1      -0.655 -11.958  -8.726  1.00  0.00     0.007 A 
HETATM    3  C5  UNL     1       0.474 -11.971  -9.536  1.00  0.00     0.001 A 
HETATM    4  C6  UNL     1       1.702 -12.155  -8.939  1.00  0.00     0.012 A 
HETATM    5  C7  UNL     1       1.774 -12.319  -7.554  1.00  0.00    -0.023 A 
HETATM    6  C20 UNL     1       0.651 -12.305  -6.764  1.00  0.00     0.019 A 
ENDROOT
BRANCH   5   7
HETATM    7  C8  UNL     1       3.052 -12.516  -6.880  1.00  0.00     0.009 A 
HETATM    8  C9  UNL     1       4.160 -13.027  -7.519  1.00  0.00     0.015 A 
HETATM    9  C10 UNL     1       5.366 -13.208  -6.874  1.00  0.00     0.002 A 
HETATM   10  C11 UNL     1       5.507 -12.878  -5.534  1.00  0.00     0.015 A 
HETATM   11  C12 UNL     1       4.407 -12.368  -4.888  1.00  0.00     0.012 A 
HETATM   12  C13 UNL     1       3.201 -12.188  -5.544  1.00  0.00     0.098 A 
HETATM   13  C19 UNL     1       4.210 -11.942  -3.573  1.00  0.00     0.011 A 
HETATM   14  O5  UNL     1       2.355 -11.699  -4.697  1.00  0.00    -0.308 OA
HETATM   15  C14 UNL     1       2.898 -11.529  -3.506  1.00  0.00     0.087 A 
HETATM   16  C15 UNL     1       2.434 -11.054  -2.298  1.00  0.00     0.038 A 
HETATM   17  C16 UNL     1       3.258 -10.996  -1.201  1.00  0.00     0.003 A 
HETATM   18  C17 UNL     1       4.573 -11.403  -1.245  1.00  0.00     0.001 A 
HETATM   19  C18 UNL     1       5.022 -11.877  -2.464  1.00  0.00     0.015 A 
ENDBRANCH   5   7
BRANCH   1  20
HETATM   20  C2  UNL     1      -1.816 -12.099  -6.571  1.00  0.00     0.106 C 
BRANCH  20  21
HETATM   21  C1  UNL     1      -2.962 -11.353  -7.138  1.00  0.00     0.289 C 
BRANCH  21  22
HETATM   22  P1  UNL     1      -3.914 -10.572  -5.833  1.00  0.00     0.310 P 
HETATM   23  O1  UNL     1      -3.760 -11.305  -4.515  1.00  0.00    -0.637 OA
HETATM   24  O2  UNL     1      -3.367  -8.967  -5.660  1.00  0.00    -0.637 OA
HETATM   25  O3  UNL     1      -5.569 -10.510  -6.171  1.00  0.00    -0.637 OA
ENDBRANCH  21  22
BRANCH  21  26
HETATM   26  O4  UNL     1      -2.611 -10.467  -8.150  1.00  0.00    -0.365 OA
ATOM     27  H4  UNL     1      -1.797 -10.010  -7.972  1.00  0.00     0.212 HD
ENDBRANCH  21  26
BRANCH  21  28
HETATM   28  P2  UNL     1      -4.069 -12.586  -7.927  1.00  0.00     0.310 P 
HETATM   29  O6  UNL     1      -3.268 -13.543  -8.787  1.00  0.00    -0.637 OA
HETATM   30  O7  UNL     1      -5.211 -11.765  -8.864  1.00  0.00    -0.637 OA
HETATM   31  O8  UNL     1      -4.831 -13.471  -6.710  1.00  0.00    -0.637 OA
ENDBRANCH  21  28
ENDBRANCH  20  21
ENDBRANCH   1  20
TORSDOF 6
ENDMDL
