MODEL 18
REMARK VINA RESULT: -7.973916038      3.364      8.863
REMARK  6 active torsions:
REMARK  status: ('A' for Active; 'I' for Inactive)
REMARK    1  A    between atoms: P1_2  and  C1_5 
REMARK    2  A    between atoms: C1_5  and  O4_6 
REMARK    3  A    between atoms: C1_5  and  C2_8 
REMARK    4  A    between atoms: C1_5  and  P2_28 
REMARK    5  A    between atoms: C2_8  and  C3_9 
REMARK    6  A    between atoms: C7_13  and  C8_14 
ROOT
HETATM    1  C3  UNL     1      -2.038 -12.082  -7.827  1.00  0.00    -0.053 A 
HETATM    2  C4  UNL     1      -2.561 -13.225  -8.421  1.00  0.00     0.007 A 
HETATM    3  C5  UNL     1      -3.928 -13.469  -8.481  1.00  0.00     0.001 A 
HETATM    4  C6  UNL     1      -4.781 -12.538  -7.929  1.00  0.00     0.012 A 
HETATM    5  C7  UNL     1      -4.253 -11.392  -7.332  1.00  0.00    -0.023 A 
HETATM    6  C20 UNL     1      -2.900 -11.161  -7.279  1.00  0.00     0.019 A 
ENDROOT
BRANCH   5   7
HETATM    7  C8  UNL     1      -5.118 -10.382  -6.735  1.00  0.00     0.009 A 
HETATM    8  C9  UNL     1      -4.816  -9.751  -5.547  1.00  0.00     0.015 A 
HETATM    9  C10 UNL     1      -5.640  -8.795  -4.990  1.00  0.00     0.002 A 
HETATM   10  C11 UNL     1      -6.822  -8.429  -5.616  1.00  0.00     0.015 A 
HETATM   11  C12 UNL     1      -7.132  -9.052  -6.800  1.00  0.00     0.012 A 
HETATM   12  C13 UNL     1      -6.298 -10.010  -7.353  1.00  0.00     0.098 A 
HETATM   13  C19 UNL     1      -8.217  -8.922  -7.669  1.00  0.00     0.011 A 
HETATM   14  O5  UNL     1      -6.837 -10.419  -8.455  1.00  0.00    -0.308 OA
HETATM   15  C14 UNL     1      -7.982  -9.807  -8.697  1.00  0.00     0.087 A 
HETATM   16  C15 UNL     1      -8.915  -9.882  -9.708  1.00  0.00     0.038 A 
HETATM   17  C16 UNL     1     -10.042  -9.096  -9.685  1.00  0.00     0.003 A 
HETATM   18  C17 UNL     1     -10.298  -8.205  -8.667  1.00  0.00     0.001 A 
HETATM   19  C18 UNL     1      -9.351  -8.143  -7.661  1.00  0.00     0.015 A 
ENDBRANCH   5   7
BRANCH   1  20
HETATM   20  C2  UNL     1      -0.590 -11.901  -7.810  1.00  0.00     0.106 C 
BRANCH  20  21
HETATM   21  C1  UNL     1       0.179 -12.663  -6.801  1.00  0.00     0.289 C 
BRANCH  21  22
HETATM   22  P1  UNL     1       0.615 -11.611  -5.414  1.00  0.00     0.310 P 
HETATM   23  O1  UNL     1       1.589 -10.524  -5.823  1.00  0.00    -0.637 OA
HETATM   24  O2  UNL     1      -0.813 -10.900  -4.812  1.00  0.00    -0.637 OA
HETATM   25  O3  UNL     1       1.333 -12.461  -4.142  1.00  0.00    -0.637 OA
ENDBRANCH  21  22
BRANCH  21  26
HETATM   26  O4  UNL     1      -0.432 -13.848  -6.404  1.00  0.00    -0.365 OA
ATOM     27  H4  UNL     1      -1.366 -13.748  -6.258  1.00  0.00     0.212 HD
ENDBRANCH  21  26
BRANCH  21  28
HETATM   28  P2  UNL     1       1.757 -13.165  -7.593  1.00  0.00     0.310 P 
HETATM   29  O6  UNL     1       1.662 -14.588  -8.107  1.00  0.00    -0.637 OA
HETATM   30  O7  UNL     1       3.000 -13.029  -6.456  1.00  0.00    -0.637 OA
HETATM   31  O8  UNL     1       2.042 -12.142  -8.903  1.00  0.00    -0.637 OA
ENDBRANCH  21  28
ENDBRANCH  20  21
ENDBRANCH   1  20
TORSDOF 6
ENDMDL
