MODEL 12
REMARK VINA RESULT: -8.479585413      3.564      8.571
REMARK  6 active torsions:
REMARK  status: ('A' for Active; 'I' for Inactive)
REMARK    1  A    between atoms: P1_2  and  C1_5 
REMARK    2  A    between atoms: C1_5  and  O4_6 
REMARK    3  A    between atoms: C1_5  and  C2_8 
REMARK    4  A    between atoms: C1_5  and  P2_28 
REMARK    5  A    between atoms: C2_8  and  C3_9 
REMARK    6  A    between atoms: C7_13  and  C8_14 
ROOT
HETATM    1  C3  UNL     1       0.910 -12.425  -6.519  1.00  0.00    -0.053 A 
HETATM    2  C4  UNL     1       1.612 -12.192  -7.696  1.00  0.00     0.007 A 
HETATM    3  C5  UNL     1       0.971 -11.971  -8.909  1.00  0.00     0.001 A 
HETATM    4  C6  UNL     1      -0.406 -11.985  -8.930  1.00  0.00     0.012 A 
HETATM    5  C7  UNL     1      -1.109 -12.220  -7.746  1.00  0.00    -0.023 A 
HETATM    6  C20 UNL     1      -0.464 -12.437  -6.553  1.00  0.00     0.019 A 
ENDROOT
BRANCH   5   7
HETATM    7  C8  UNL     1      -2.566 -12.245  -7.722  1.00  0.00     0.009 A 
HETATM    8  C9  UNL     1      -3.301 -13.308  -8.201  1.00  0.00     0.015 A 
HETATM    9  C10 UNL     1      -4.680 -13.324  -8.173  1.00  0.00     0.002 A 
HETATM   10  C11 UNL     1      -5.389 -12.250  -7.654  1.00  0.00     0.015 A 
HETATM   11  C12 UNL     1      -4.665 -11.186  -7.174  1.00  0.00     0.012 A 
HETATM   12  C13 UNL     1      -3.281 -11.179  -7.205  1.00  0.00     0.098 A 
HETATM   13  C19 UNL     1      -5.055  -9.976  -6.597  1.00  0.00     0.011 A 
HETATM   14  O5  UNL     1      -2.876 -10.062  -6.694  1.00  0.00    -0.308 OA
HETATM   15  C14 UNL     1      -3.887  -9.304  -6.313  1.00  0.00     0.087 A 
HETATM   16  C15 UNL     1      -3.986  -8.059  -5.728  1.00  0.00     0.038 A 
HETATM   17  C16 UNL     1      -5.213  -7.513  -5.442  1.00  0.00     0.003 A 
HETATM   18  C17 UNL     1      -6.394  -8.165  -5.718  1.00  0.00     0.001 A 
HETATM   19  C18 UNL     1      -6.276  -9.412  -6.304  1.00  0.00     0.015 A 
ENDBRANCH   5   7
BRANCH   1  20
HETATM   20  C2  UNL     1       1.662 -12.645  -5.286  1.00  0.00     0.106 C 
BRANCH  20  21
HETATM   21  C1  UNL     1       2.968 -11.963  -5.156  1.00  0.00     0.289 C 
BRANCH  21  22
HETATM   22  P1  UNL     1       4.269 -12.942  -5.909  1.00  0.00     0.310 P 
HETATM   23  O1  UNL     1       5.592 -12.760  -5.191  1.00  0.00    -0.637 OA
HETATM   24  O2  UNL     1       3.808 -14.582  -5.848  1.00  0.00    -0.637 OA
HETATM   25  O3  UNL     1       4.533 -12.550  -7.532  1.00  0.00    -0.637 OA
ENDBRANCH  21  22
BRANCH  21  26
HETATM   26  O4  UNL     1       2.962 -10.645  -5.600  1.00  0.00    -0.365 OA
ATOM     27  H4  UNL     1       3.155 -10.570  -6.527  1.00  0.00     0.212 HD
ENDBRANCH  21  26
BRANCH  21  28
HETATM   28  P2  UNL     1       3.351 -11.875  -3.363  1.00  0.00     0.310 P 
HETATM   29  O6  UNL     1       4.360 -10.777  -3.090  1.00  0.00    -0.637 OA
HETATM   30  O7  UNL     1       3.959 -13.372  -2.866  1.00  0.00    -0.637 OA
HETATM   31  O8  UNL     1       1.928 -11.512  -2.533  1.00  0.00    -0.637 OA
ENDBRANCH  21  28
ENDBRANCH  20  21
ENDBRANCH   1  20
TORSDOF 6
ENDMDL
