MODEL 5
REMARK VINA RESULT: -5.427690428      0.189      1.536
REMARK  0 active torsions:
REMARK  status: ('A' for Active; 'I' for Inactive)
ROOT
HETATM    1  C1  UNL     1     -34.333   6.336   5.926  1.00  0.00     0.000 A 
HETATM    2  C2  UNL     1     -33.572   7.038   5.008  1.00  0.00     0.000 A 
HETATM    3  C3  UNL     1     -33.373   6.574   3.723  1.00  0.00     0.000 A 
HETATM    4  C4  UNL     1     -33.964   5.364   3.368  1.00  0.00     0.000 A 
HETATM    5  C5  UNL     1     -34.717   4.673   4.288  1.00  0.00     0.000 A 
HETATM    6  C6  UNL     1     -34.917   5.140   5.576  1.00  0.00     0.000 A 
ENDROOT
TORSDOF 0
ENDMDL
