MODEL 3
REMARK VINA RESULT: -5.436116400      0.177      1.937
REMARK  0 active torsions:
REMARK  status: ('A' for Active; 'I' for Inactive)
ROOT
HETATM    1  C1  UNL     1     -34.906   5.172   5.562  1.00  0.00     0.000 A 
HETATM    2  C2  UNL     1     -34.719   4.673   4.286  1.00  0.00     0.000 A 
HETATM    3  C3  UNL     1     -33.957   5.343   3.349  1.00  0.00     0.000 A 
HETATM    4  C4  UNL     1     -33.375   6.551   3.726  1.00  0.00     0.000 A 
HETATM    5  C5  UNL     1     -33.568   7.038   4.997  1.00  0.00     0.000 A 
HETATM    6  C6  UNL     1     -34.331   6.365   5.935  1.00  0.00     0.000 A 
ENDROOT
TORSDOF 0
ENDMDL
