MODEL 4
REMARK VINA RESULT: -5.429660147      0.136      1.955
REMARK  0 active torsions:
REMARK  status: ('A' for Active; 'I' for Inactive)
ROOT
HETATM    1  C1  UNL     1     -33.522   7.110   5.030  1.00  0.00     0.000 A 
HETATM    2  C2  UNL     1     -34.262   6.435   5.984  1.00  0.00     0.000 A 
HETATM    3  C3  UNL     1     -34.890   5.238   5.703  1.00  0.00     0.000 A 
HETATM    4  C4  UNL     1     -34.760   4.720   4.417  1.00  0.00     0.000 A 
HETATM    5  C5  UNL     1     -34.023   5.400   3.475  1.00  0.00     0.000 A 
HETATM    6  C6  UNL     1     -33.393   6.599   3.758  1.00  0.00     0.000 A 
ENDROOT
TORSDOF 0
ENDMDL
