MODEL 2
REMARK VINA RESULT: -5.445251339      0.039      2.394
REMARK  0 active torsions:
REMARK  status: ('A' for Active; 'I' for Inactive)
ROOT
HETATM    1  C1  UNL     1     -34.053   5.242   3.443  1.00  0.00     0.000 A 
HETATM    2  C2  UNL     1     -34.771   4.671   4.479  1.00  0.00     0.000 A 
HETATM    3  C3  UNL     1     -34.866   5.276   5.716  1.00  0.00     0.000 A 
HETATM    4  C4  UNL     1     -34.211   6.490   5.900  1.00  0.00     0.000 A 
HETATM    5  C5  UNL     1     -33.499   7.049   4.864  1.00  0.00     0.000 A 
HETATM    6  C6  UNL     1     -33.405   6.442   3.624  1.00  0.00     0.000 A 
ENDROOT
TORSDOF 0
ENDMDL
