MODEL 1
REMARK VINA RESULT: -5.445813764      0.000      0.000
REMARK  0 active torsions:
REMARK  status: ('A' for Active; 'I' for Inactive)
ROOT
HETATM    1  C1  UNL     1     -33.496   7.066   4.900  1.00  0.00     0.000 A 
HETATM    2  C2  UNL     1     -33.433   6.434   3.671  1.00  0.00     0.000 A 
HETATM    3  C3  UNL     1     -34.078   5.236   3.436  1.00  0.00     0.000 A 
HETATM    4  C4  UNL     1     -34.803   4.670   4.482  1.00  0.00     0.000 A 
HETATM    5  C5  UNL     1     -34.858   5.306   5.700  1.00  0.00     0.000 A 
HETATM    6  C6  UNL     1     -34.212   6.507   5.934  1.00  0.00     0.000 A 
ENDROOT
TORSDOF 0
ENDMDL
