MODEL 8
REMARK VINA RESULT: -3.758858310      7.445      8.068
REMARK  2 active torsions:
REMARK  status: ('A' for Active; 'I' for Inactive)
REMARK    1  A    between atoms: O1_1  and  C1_3 
REMARK    2  A    between atoms: C1_3  and  C2_4 
ROOT
HETATM    1  C2  UNL     1      88.430 -10.079  46.735  1.00  0.00     0.408 C 
HETATM    2  F1  UNL     1      89.459 -10.900  47.190  1.00  0.00    -0.169 F 
HETATM    3  F2  UNL     1      88.328  -8.934  47.515  1.00  0.00    -0.169 F 
HETATM    4  F3  UNL     1      88.743  -9.707  45.451  1.00  0.00    -0.169 F 
ENDROOT
BRANCH   1   5
HETATM    5  C1  UNL     1      87.114 -10.852  46.726  1.00  0.00     0.281 C 
BRANCH   5   6
HETATM    6  O1  UNL     1      87.306 -12.207  46.743  1.00  0.00    -0.392 OA
ATOM      7  H1  UNL     1      88.224 -12.443  46.676  1.00  0.00     0.209 HD
ENDBRANCH   5   6
ENDBRANCH   1   5
TORSDOF 2
ENDMDL
