MODEL 9
REMARK VINA RESULT: -3.745868463      7.410      7.947
REMARK  2 active torsions:
REMARK  status: ('A' for Active; 'I' for Inactive)
REMARK    1  A    between atoms: O1_1  and  C1_3 
REMARK    2  A    between atoms: C1_3  and  C2_4 
ROOT
HETATM    1  C2  UNL     1      88.426 -10.055  46.708  1.00  0.00     0.408 C 
HETATM    2  F1  UNL     1      88.310  -8.931  47.522  1.00  0.00    -0.169 F 
HETATM    3  F2  UNL     1      88.787  -9.697  45.415  1.00  0.00    -0.169 F 
HETATM    4  F3  UNL     1      89.420 -10.842  47.237  1.00  0.00    -0.169 F 
ENDROOT
BRANCH   1   5
HETATM    5  C1  UNL     1      87.115 -10.836  46.712  1.00  0.00     0.281 C 
BRANCH   5   6
HETATM    6  O1  UNL     1      87.315 -12.190  46.742  1.00  0.00    -0.392 OA
ATOM      7  H1  UNL     1      86.499 -12.676  46.746  1.00  0.00     0.209 HD
ENDBRANCH   5   6
ENDBRANCH   1   5
TORSDOF 2
ENDMDL
