MODEL 7
REMARK VINA RESULT: -3.765124410      7.431      8.078
REMARK  2 active torsions:
REMARK  status: ('A' for Active; 'I' for Inactive)
REMARK    1  A    between atoms: O1_1  and  C1_3 
REMARK    2  A    between atoms: C1_3  and  C2_4 
ROOT
HETATM    1  C2  UNL     1      88.448 -10.102  46.712  1.00  0.00     0.408 C 
HETATM    2  F1  UNL     1      88.736  -9.682  45.416  1.00  0.00    -0.169 F 
HETATM    3  F2  UNL     1      89.472 -10.894  47.216  1.00  0.00    -0.169 F 
HETATM    4  F3  UNL     1      88.344  -8.976  47.492  1.00  0.00    -0.169 F 
ENDROOT
BRANCH   1   5
HETATM    5  C1  UNL     1      87.118 -10.850  46.733  1.00  0.00     0.281 C 
BRANCH   5   6
HETATM    6  O1  UNL     1      87.285 -12.208  46.745  1.00  0.00    -0.392 OA
ATOM      7  H1  UNL     1      87.695 -12.529  45.951  1.00  0.00     0.209 HD
ENDBRANCH   5   6
ENDBRANCH   1   5
TORSDOF 2
ENDMDL
