MODEL 10
REMARK VINA RESULT: -3.594084277      7.032      7.659
REMARK  2 active torsions:
REMARK  status: ('A' for Active; 'I' for Inactive)
REMARK    1  A    between atoms: O1_1  and  C1_3 
REMARK    2  A    between atoms: C1_3  and  C2_4 
ROOT
HETATM    1  C2  UNL     1      88.298  -9.639  46.290  1.00  0.00     0.408 C 
HETATM    2  F1  UNL     1      87.024  -9.932  45.810  1.00  0.00    -0.169 F 
HETATM    3  F2  UNL     1      89.130  -9.215  45.261  1.00  0.00    -0.169 F 
HETATM    4  F3  UNL     1      88.167  -8.615  47.196  1.00  0.00    -0.169 F 
ENDROOT
BRANCH   1   5
HETATM    5  C1  UNL     1      88.881 -10.860  46.995  1.00  0.00     0.281 C 
BRANCH   5   6
HETATM    6  O1  UNL     1      88.104 -11.975  46.835  1.00  0.00    -0.392 OA
ATOM      7  H1  UNL     1      88.605 -12.778  46.905  1.00  0.00     0.209 HD
ENDBRANCH   5   6
ENDBRANCH   1   5
TORSDOF 2
ENDMDL
