MODEL 2
REMARK VINA RESULT: -3.929353146      0.086      1.628
REMARK  2 active torsions:
REMARK  status: ('A' for Active; 'I' for Inactive)
REMARK    1  A    between atoms: O1_1  and  C1_3 
REMARK    2  A    between atoms: C1_3  and  C2_4 
ROOT
HETATM    1  C2  UNL     1      91.923  -4.492  42.537  1.00  0.00     0.408 C 
HETATM    2  F1  UNL     1      92.227  -5.836  42.736  1.00  0.00    -0.169 F 
HETATM    3  F2  UNL     1      93.070  -3.710  42.591  1.00  0.00    -0.169 F 
HETATM    4  F3  UNL     1      91.376  -4.380  41.282  1.00  0.00    -0.169 F 
ENDROOT
BRANCH   1   5
HETATM    5  C1  UNL     1      90.900  -4.032  43.571  1.00  0.00     0.281 C 
BRANCH   5   6
HETATM    6  O1  UNL     1      90.095  -5.054  43.999  1.00  0.00    -0.392 OA
ATOM      7  H1  UNL     1      89.510  -5.362  43.317  1.00  0.00     0.209 HD
ENDBRANCH   5   6
ENDBRANCH   1   5
TORSDOF 2
ENDMDL
