MODEL 1
REMARK VINA RESULT: -3.944085948      0.000      0.000
REMARK  2 active torsions:
REMARK  status: ('A' for Active; 'I' for Inactive)
REMARK    1  A    between atoms: O1_1  and  C1_3 
REMARK    2  A    between atoms: C1_3  and  C2_4 
ROOT
HETATM    1  C2  UNL     1      91.917  -4.472  42.506  1.00  0.00     0.408 C 
HETATM    2  F1  UNL     1      93.050  -3.664  42.547  1.00  0.00    -0.169 F 
HETATM    3  F2  UNL     1      91.357  -4.479  41.234  1.00  0.00    -0.169 F 
HETATM    4  F3  UNL     1      92.315  -5.750  42.815  1.00  0.00    -0.169 F 
ENDROOT
BRANCH   1   5
HETATM    5  C1  UNL     1      90.903  -4.000  43.545  1.00  0.00     0.281 C 
BRANCH   5   6
HETATM    6  O1  UNL     1      90.133  -5.024  44.025  1.00  0.00    -0.392 OA
ATOM      7  H1  UNL     1      90.241  -5.150  44.960  1.00  0.00     0.209 HD
ENDBRANCH   5   6
ENDBRANCH   1   5
TORSDOF 2
ENDMDL
