MODEL 3
REMARK VINA RESULT: -3.899768890      0.154      1.545
REMARK  2 active torsions:
REMARK  status: ('A' for Active; 'I' for Inactive)
REMARK    1  A    between atoms: O1_1  and  C1_3 
REMARK    2  A    between atoms: C1_3  and  C2_4 
ROOT
HETATM    1  C2  UNL     1      91.859  -4.583  42.502  1.00  0.00     0.408 C 
HETATM    2  F1  UNL     1      91.337  -4.383  41.227  1.00  0.00    -0.169 F 
HETATM    3  F2  UNL     1      92.181  -5.920  42.703  1.00  0.00    -0.169 F 
HETATM    4  F3  UNL     1      93.010  -3.839  42.593  1.00  0.00    -0.169 F 
ENDROOT
BRANCH   1   5
HETATM    5  C1  UNL     1      90.865  -4.097  43.553  1.00  0.00     0.281 C 
BRANCH   5   6
HETATM    6  O1  UNL     1      90.054  -5.102  44.006  1.00  0.00    -0.392 OA
ATOM      7  H1  UNL     1      90.512  -5.930  44.083  1.00  0.00     0.209 HD
ENDBRANCH   5   6
ENDBRANCH   1   5
TORSDOF 2
ENDMDL
