MODEL 2
REMARK VINA RESULT: -6.552061036      2.488      9.885
REMARK  8 active torsions:
REMARK  status: ('A' for Active; 'I' for Inactive)
REMARK    1  A    between atoms: C2_2  and  C5_5 
REMARK    2  A    between atoms: C6_6  and  O1_7 
REMARK    3  A    between atoms: C6_6  and  N1_9 
REMARK    4  A    between atoms: C8_11  and  O2_12 
REMARK    5  A    between atoms: C10_15  and  C11_16 
REMARK       I    between atoms: C11_16  and  N2_18 
REMARK    6  A    between atoms: N2_18  and  C12_20 
REMARK    7  A    between atoms: C12_20  and  C13_21 
REMARK    8  A    between atoms: C16_24  and  C17_25 
ROOT
HETATM    1  C11 UNL     1      11.439  53.514  89.651  1.00  0.00     0.240 C 
HETATM    2  O3  UNL     1      10.539  52.718  90.008  1.00  0.00    -0.271 OA
HETATM    3  N2  UNL     1      11.936  53.338  88.333  1.00  0.00    -0.355 N 
ATOM      4  H2  UNL     1      12.670  53.956  87.987  1.00  0.00     0.162 HD
ENDROOT
BRANCH   1   5
HETATM    5  C10 UNL     1      11.903  54.535  90.576  1.00  0.00     0.180 C 
HETATM    6  N1  UNL     1      12.023  53.895  91.924  1.00  0.00    -0.346 N 
HETATM    7  C7  UNL     1      13.290  53.273  91.840  1.00  0.00     0.157 C 
HETATM    8  C8  UNL     1      14.182  54.444  91.361  1.00  0.00     0.138 C 
HETATM    9  C9  UNL     1      13.255  55.086  90.371  1.00  0.00     0.068 C 
BRANCH   6  10
HETATM   10  C6  UNL     1      10.989  54.007  92.842  1.00  0.00     0.135 C 
HETATM   11  C5  UNL     1      10.917  54.221  94.268  1.00  0.00     0.037 C 
BRANCH  11  12
HETATM   12  C2  UNL     1      12.106  54.438  95.108  1.00  0.00    -0.030 C 
HETATM   13  C1  UNL     1      11.628  54.513  96.611  1.00  0.00     0.019 C 
HETATM   14  C3  UNL     1      12.800  55.757  94.923  1.00  0.00     0.019 C 
HETATM   15  C4  UNL     1      13.010  53.234  95.079  1.00  0.00     0.019 C 
ENDBRANCH  11  12
BRANCH  10  16
HETATM   16  O1  UNL     1       9.742  53.897  92.342  1.00  0.00    -0.346 OA
ATOM     17  H1  UNL     1       9.648  54.477  91.596  1.00  0.00     0.219 HD
ENDBRANCH  10  16
ENDBRANCH   6  10
BRANCH   8  18
HETATM   18  O2  UNL     1      14.423  55.231  92.478  1.00  0.00    -0.394 OA
ATOM     19  H2  UNL     1      14.279  56.131  92.206  1.00  0.00     0.210 HD
ENDBRANCH   8  18
ENDBRANCH   1   5
BRANCH   3  20
HETATM   20  C12 UNL     1      11.417  52.298  87.474  1.00  0.00     0.161 C 
BRANCH  20  21
HETATM   21  C13 UNL     1      12.291  52.116  86.293  1.00  0.00    -0.040 A 
HETATM   22  C14 UNL     1      13.164  53.103  85.921  1.00  0.00     0.010 A 
HETATM   23  C15 UNL     1      13.977  52.920  84.818  1.00  0.00     0.015 A 
HETATM   24  C16 UNL     1      13.909  51.762  84.103  1.00  0.00    -0.001 A 
HETATM   25  C20 UNL     1      13.021  50.771  84.490  1.00  0.00     0.015 A 
HETATM   26  C21 UNL     1      12.211  50.940  85.580  1.00  0.00     0.010 A 
BRANCH  24  27
HETATM   27  C17 UNL     1      14.745  51.517  82.931  1.00  0.00     0.102 A 
HETATM   28  C18 UNL     1      16.078  51.792  82.781  1.00  0.00     0.127 A 
HETATM   29  N3  UNL     1      16.404  51.395  81.549  1.00  0.00    -0.354 N 
HETATM   30  C19 UNL     1      15.288  50.886  80.950  1.00  0.00     0.233 A 
ATOM     31  H3  UNL     1      17.329  51.462  81.126  1.00  0.00     0.166 HD
HETATM   32  O4  UNL     1      14.305  50.975  81.812  1.00  0.00    -0.304 OA
ENDBRANCH  24  27
ENDBRANCH  20  21
ENDBRANCH   3  20
TORSDOF 8
ENDMDL
