MODEL 7
REMARK VINA RESULT: -6.261019844      5.136      7.547
REMARK  8 active torsions:
REMARK  status: ('A' for Active; 'I' for Inactive)
REMARK    1  A    between atoms: C2_2  and  C5_5 
REMARK    2  A    between atoms: C6_6  and  O1_7 
REMARK    3  A    between atoms: C6_6  and  N1_9 
REMARK    4  A    between atoms: C8_11  and  O2_12 
REMARK    5  A    between atoms: C10_15  and  C11_16 
REMARK       I    between atoms: C11_16  and  N2_18 
REMARK    6  A    between atoms: N2_18  and  C12_20 
REMARK    7  A    between atoms: C12_20  and  C13_21 
REMARK    8  A    between atoms: C16_24  and  C17_25 
ROOT
HETATM    1  C11 UNL     1      13.927  53.742  93.010  1.00  0.00     0.240 C 
HETATM    2  O3  UNL     1      13.979  52.688  93.687  1.00  0.00    -0.271 OA
HETATM    3  N2  UNL     1      13.641  54.930  93.733  1.00  0.00    -0.355 N 
ATOM      4  H2  UNL     1      13.585  55.819  93.236  1.00  0.00     0.162 HD
ENDROOT
BRANCH   1   5
HETATM    5  C10 UNL     1      14.156  53.686  91.576  1.00  0.00     0.180 C 
HETATM    6  N1  UNL     1      12.828  53.849  90.905  1.00  0.00    -0.346 N 
HETATM    7  C7  UNL     1      12.667  55.253  90.911  1.00  0.00     0.157 C 
HETATM    8  C8  UNL     1      14.006  55.725  90.294  1.00  0.00     0.138 C 
HETATM    9  C9  UNL     1      14.950  54.768  90.963  1.00  0.00     0.068 C 
BRANCH   6  10
HETATM   10  C6  UNL     1      12.114  52.731  90.497  1.00  0.00     0.135 C 
HETATM   11  C5  UNL     1      10.723  52.346  90.539  1.00  0.00     0.037 C 
BRANCH  11  12
HETATM   12  C2  UNL     1       9.661  53.226  91.055  1.00  0.00    -0.030 C 
HETATM   13  C1  UNL     1       8.305  52.418  91.020  1.00  0.00     0.019 C 
HETATM   14  C3  UNL     1       9.345  54.426  90.210  1.00  0.00     0.019 C 
HETATM   15  C4  UNL     1       9.868  53.515  92.518  1.00  0.00     0.019 C 
ENDBRANCH  11  12
BRANCH  10  16
HETATM   16  O1  UNL     1      12.834  51.746  89.924  1.00  0.00    -0.346 OA
ATOM     17  H1  UNL     1      13.498  52.127  89.361  1.00  0.00     0.219 HD
ENDBRANCH  10  16
ENDBRANCH   6  10
BRANCH   8  18
HETATM   18  O2  UNL     1      13.897  55.519  88.926  1.00  0.00    -0.394 OA
ATOM     19  H2  UNL     1      14.622  54.955  88.682  1.00  0.00     0.210 HD
ENDBRANCH   8  18
ENDBRANCH   1   5
BRANCH   3  20
HETATM   20  C12 UNL     1      13.428  54.900  95.162  1.00  0.00     0.161 C 
BRANCH  20  21
HETATM   21  C13 UNL     1      12.196  55.639  95.520  1.00  0.00    -0.040 A 
HETATM   22  C14 UNL     1      12.243  56.988  95.747  1.00  0.00     0.010 A 
HETATM   23  C15 UNL     1      11.086  57.670  96.078  1.00  0.00     0.015 A 
HETATM   24  C16 UNL     1       9.903  56.999  96.178  1.00  0.00    -0.001 A 
HETATM   25  C20 UNL     1       9.870  55.634  95.945  1.00  0.00     0.015 A 
HETATM   26  C21 UNL     1      11.009  54.949  95.617  1.00  0.00     0.010 A 
BRANCH  24  27
HETATM   27  C17 UNL     1       8.653  57.669  96.523  1.00  0.00     0.102 A 
HETATM   28  C18 UNL     1       7.954  57.584  97.698  1.00  0.00     0.127 A 
HETATM   29  N3  UNL     1       6.882  58.366  97.551  1.00  0.00    -0.354 N 
HETATM   30  C19 UNL     1       6.921  58.922  96.305  1.00  0.00     0.233 A 
ATOM     31  H3  UNL     1       6.158  58.521  98.251  1.00  0.00     0.166 HD
HETATM   32  O4  UNL     1       8.002  58.480  95.711  1.00  0.00    -0.304 OA
ENDBRANCH  24  27
ENDBRANCH  20  21
ENDBRANCH   3  20
TORSDOF 8
ENDMDL
