MODEL 8
REMARK VINA RESULT: -6.255482443      5.753     12.083
REMARK  8 active torsions:
REMARK  status: ('A' for Active; 'I' for Inactive)
REMARK    1  A    between atoms: C2_2  and  C5_5 
REMARK    2  A    between atoms: C6_6  and  O1_7 
REMARK    3  A    between atoms: C6_6  and  N1_9 
REMARK    4  A    between atoms: C8_11  and  O2_12 
REMARK    5  A    between atoms: C10_15  and  C11_16 
REMARK       I    between atoms: C11_16  and  N2_18 
REMARK    6  A    between atoms: N2_18  and  C12_20 
REMARK    7  A    between atoms: C12_20  and  C13_21 
REMARK    8  A    between atoms: C16_24  and  C17_25 
ROOT
HETATM    1  C11 UNL     1      11.702  54.733  98.840  1.00  0.00     0.240 C 
HETATM    2  O3  UNL     1      11.917  53.674  99.476  1.00  0.00    -0.271 OA
HETATM    3  N2  UNL     1      12.176  54.760  97.502  1.00  0.00    -0.355 N 
ATOM      4  H2  UNL     1      12.032  55.595  96.935  1.00  0.00     0.162 HD
ENDROOT
BRANCH   1   5
HETATM    5  C10 UNL     1      11.005  55.831  99.489  1.00  0.00     0.180 C 
HETATM    6  N1  UNL     1       9.820  56.172  98.641  1.00  0.00    -0.346 N 
HETATM    7  C7  UNL     1       8.874  55.209  99.060  1.00  0.00     0.157 C 
HETATM    8  C8  UNL     1       8.909  55.385 100.597  1.00  0.00     0.138 C 
HETATM    9  C9  UNL     1      10.385  55.572 100.802  1.00  0.00     0.068 C 
BRANCH   6  10
HETATM   10  C6  UNL     1       9.899  57.206  97.719  1.00  0.00     0.135 C 
HETATM   11  C5  UNL     1       8.967  57.826  96.808  1.00  0.00     0.037 C 
BRANCH  11  12
HETATM   12  C2  UNL     1       7.549  57.439  96.724  1.00  0.00    -0.030 C 
HETATM   13  C1  UNL     1       6.843  58.411  95.699  1.00  0.00     0.019 C 
HETATM   14  C3  UNL     1       6.743  57.647  97.974  1.00  0.00     0.019 C 
HETATM   15  C4  UNL     1       7.401  56.081  96.090  1.00  0.00     0.019 C 
ENDBRANCH  11  12
BRANCH  10  16
HETATM   16  O1  UNL     1      11.101  57.807  97.607  1.00  0.00    -0.346 OA
ATOM     17  H1  UNL     1      10.988  58.749  97.640  1.00  0.00     0.219 HD
ENDBRANCH  10  16
ENDBRANCH   6  10
BRANCH   8  18
HETATM   18  O2  UNL     1       8.169  56.525 100.876  1.00  0.00    -0.394 OA
ATOM     19  H2  UNL     1       8.145  57.030 100.071  1.00  0.00     0.210 HD
ENDBRANCH   8  18
ENDBRANCH   1   5
BRANCH   3  20
HETATM   20  C12 UNL     1      12.859  53.622  96.930  1.00  0.00     0.161 C 
BRANCH  20  21
HETATM   21  C13 UNL     1      13.185  53.872  95.508  1.00  0.00    -0.040 A 
HETATM   22  C14 UNL     1      13.519  52.831  94.683  1.00  0.00     0.010 A 
HETATM   23  C15 UNL     1      13.819  53.076  93.356  1.00  0.00     0.015 A 
HETATM   24  C16 UNL     1      13.782  54.349  92.870  1.00  0.00    -0.001 A 
HETATM   25  C20 UNL     1      13.442  55.393  93.715  1.00  0.00     0.015 A 
HETATM   26  C21 UNL     1      13.143  55.164  95.031  1.00  0.00     0.010 A 
BRANCH  24  27
HETATM   27  C17 UNL     1      14.088  54.663  91.478  1.00  0.00     0.102 A 
HETATM   28  C18 UNL     1      13.336  54.378  90.370  1.00  0.00     0.127 A 
HETATM   29  N3  UNL     1      14.015  54.856  89.325  1.00  0.00    -0.354 N 
HETATM   30  C19 UNL     1      15.168  55.426  89.783  1.00  0.00     0.233 A 
ATOM     31  H3  UNL     1      13.723  54.805  88.350  1.00  0.00     0.166 HD
HETATM   32  O4  UNL     1      15.181  55.291  91.087  1.00  0.00    -0.304 OA
ENDBRANCH  24  27
ENDBRANCH  20  21
ENDBRANCH   3  20
TORSDOF 8
ENDMDL
