MODEL 1
REMARK VINA RESULT: -6.601883221      0.000      0.000
REMARK  8 active torsions:
REMARK  status: ('A' for Active; 'I' for Inactive)
REMARK    1  A    between atoms: C2_2  and  C5_5 
REMARK    2  A    between atoms: C6_6  and  O1_7 
REMARK    3  A    between atoms: C6_6  and  N1_9 
REMARK    4  A    between atoms: C8_11  and  O2_12 
REMARK    5  A    between atoms: C10_15  and  C11_16 
REMARK       I    between atoms: C11_16  and  N2_18 
REMARK    6  A    between atoms: N2_18  and  C12_20 
REMARK    7  A    between atoms: C12_20  and  C13_21 
REMARK    8  A    between atoms: C16_24  and  C17_25 
ROOT
HETATM    1  C11 UNL     1      13.270  53.431  85.949  1.00  0.00     0.240 C 
HETATM    2  O3  UNL     1      14.366  53.710  85.410  1.00  0.00    -0.271 OA
HETATM    3  N2  UNL     1      13.131  53.816  87.308  1.00  0.00    -0.355 N 
ATOM      4  H2  UNL     1      12.261  53.614  87.801  1.00  0.00     0.162 HD
ENDROOT
BRANCH   1   5
HETATM    5  C10 UNL     1      12.242  52.753  85.176  1.00  0.00     0.180 C 
HETATM    6  N1  UNL     1      12.769  51.396  84.825  1.00  0.00    -0.346 N 
HETATM    7  C7  UNL     1      12.491  50.661  86.000  1.00  0.00     0.157 C 
HETATM    8  C8  UNL     1      10.990  50.971  86.216  1.00  0.00     0.138 C 
HETATM    9  C9  UNL     1      10.973  52.429  85.854  1.00  0.00     0.068 C 
BRANCH   6  10
HETATM   10  C6  UNL     1      13.368  51.180  83.592  1.00  0.00     0.135 C 
HETATM   11  C5  UNL     1      12.888  50.810  82.282  1.00  0.00     0.037 C 
BRANCH  11  12
HETATM   12  C2  UNL     1      11.461  50.616  81.975  1.00  0.00    -0.030 C 
HETATM   13  C1  UNL     1      11.322  50.446  80.411  1.00  0.00     0.019 C 
HETATM   14  C3  UNL     1      10.571  51.793  82.253  1.00  0.00     0.019 C 
HETATM   15  C4  UNL     1      10.968  49.303  82.523  1.00  0.00     0.019 C 
ENDBRANCH  11  12
BRANCH  10  16
HETATM   16  O1  UNL     1      14.706  51.339  83.550  1.00  0.00    -0.346 OA
ATOM     17  H1  UNL     1      15.126  50.578  83.934  1.00  0.00     0.219 HD
ENDBRANCH  10  16
ENDBRANCH   6  10
BRANCH   8  18
HETATM   18  O2  UNL     1      10.295  50.175  85.316  1.00  0.00    -0.394 OA
ATOM     19  H2  UNL     1      10.053  49.388  85.790  1.00  0.00     0.210 HD
ENDBRANCH   8  18
ENDBRANCH   1   5
BRANCH   3  20
HETATM   20  C12 UNL     1      14.202  54.490  88.005  1.00  0.00     0.161 C 
BRANCH  20  21
HETATM   21  C13 UNL     1      13.981  54.444  89.468  1.00  0.00    -0.040 A 
HETATM   22  C14 UNL     1      12.844  53.877  89.977  1.00  0.00     0.010 A 
HETATM   23  C15 UNL     1      12.649  53.837  91.345  1.00  0.00     0.015 A 
HETATM   24  C16 UNL     1      13.587  54.360  92.184  1.00  0.00    -0.001 A 
HETATM   25  C20 UNL     1      14.734  54.931  91.656  1.00  0.00     0.015 A 
HETATM   26  C21 UNL     1      14.938  54.976  90.304  1.00  0.00     0.010 A 
BRANCH  24  27
HETATM   27  C17 UNL     1      13.432  54.343  93.635  1.00  0.00     0.102 A 
HETATM   28  C18 UNL     1      12.867  55.305  94.428  1.00  0.00     0.127 A 
HETATM   29  N3  UNL     1      12.950  54.852  95.682  1.00  0.00    -0.354 N 
HETATM   30  C19 UNL     1      13.558  53.631  95.659  1.00  0.00     0.233 A 
ATOM     31  H3  UNL     1      12.615  55.337  96.514  1.00  0.00     0.166 HD
HETATM   32  O4  UNL     1      13.837  53.354  94.409  1.00  0.00    -0.304 OA
ENDBRANCH  24  27
ENDBRANCH  20  21
ENDBRANCH   3  20
TORSDOF 8
ENDMDL
