MODEL 5
REMARK VINA RESULT: -7.410801593      1.089      1.616
REMARK  8 active torsions:
REMARK  status: ('A' for Active; 'I' for Inactive)
REMARK    1  A    between atoms: C4_7  and  C5_8 
REMARK    2  A    between atoms: C8_11  and  C9_12 
REMARK    3  A    between atoms: C9_12  and  N2_13 
REMARK       I    between atoms: N2_13  and  C10_15 
REMARK    4  A    between atoms: C10_15  and  C11_17 
REMARK    5  A    between atoms: C13_19  and  O3_20 
REMARK    6  A    between atoms: N3_23  and  C15_24 
REMARK    7  A    between atoms: C15_24  and  O4_25 
REMARK    8  A    between atoms: C16_27  and  C17_28 
ROOT
HETATM    1  N2  UNL     1      11.472  53.459  88.014  1.00  0.00    -0.355 N 
ATOM      2  H2  UNL     1      11.318  54.436  87.766  1.00  0.00     0.162 HD
HETATM    3  C10 UNL     1      12.215  53.149  89.232  1.00  0.00     0.240 C 
HETATM    4  O2  UNL     1      12.361  51.942  89.469  1.00  0.00    -0.271 OA
ENDROOT
BRANCH   3   5
HETATM    5  C11 UNL     1      12.667  54.313  89.974  1.00  0.00     0.180 C 
HETATM    6  C12 UNL     1      14.184  54.455  89.835  1.00  0.00     0.068 C 
HETATM    7  C13 UNL     1      14.619  55.029  91.153  1.00  0.00     0.138 C 
HETATM    8  C14 UNL     1      13.289  55.503  91.780  1.00  0.00     0.157 C 
HETATM    9  N3  UNL     1      12.458  54.376  91.398  1.00  0.00    -0.346 N 
BRANCH   7  10
HETATM   10  O3  UNL     1      15.386  56.161  90.944  1.00  0.00    -0.394 OA
ATOM     11  H3  UNL     1      15.575  56.581  91.774  1.00  0.00     0.210 HD
ENDBRANCH   7  10
BRANCH   9  12
HETATM   12  C15 UNL     1      11.667  53.617  92.257  1.00  0.00     0.135 C 
HETATM   13  C16 UNL     1      11.811  52.865  93.462  1.00  0.00     0.037 C 
BRANCH  12  14
HETATM   14  O4  UNL     1      10.401  53.579  91.838  1.00  0.00    -0.346 OA
ATOM     15  H4  UNL     1      10.105  52.684  91.721  1.00  0.00     0.219 HD
ENDBRANCH  12  14
BRANCH  13  16
HETATM   16  C17 UNL     1      13.057  52.552  94.152  1.00  0.00    -0.030 C 
HETATM   17  C18 UNL     1      14.132  51.866  93.372  1.00  0.00     0.019 C 
HETATM   18  C19 UNL     1      13.594  53.659  95.067  1.00  0.00     0.019 C 
HETATM   19  C20 UNL     1      12.651  51.456  95.217  1.00  0.00     0.019 C 
ENDBRANCH  13  16
ENDBRANCH   9  12
ENDBRANCH   3   5
BRANCH   1  20
HETATM   20  C9  UNL     1      10.951  52.431  87.152  1.00  0.00     0.161 C 
BRANCH  20  21
HETATM   21  C8  UNL     1      11.871  52.108  86.032  1.00  0.00    -0.040 A 
HETATM   22  C7  UNL     1      12.823  53.031  85.604  1.00  0.00     0.010 A 
HETATM   23  C6  UNL     1      13.691  52.783  84.571  1.00  0.00     0.015 A 
HETATM   24  C5  UNL     1      13.670  51.571  83.876  1.00  0.00    -0.000 A 
HETATM   25  C22 UNL     1      12.739  50.656  84.287  1.00  0.00     0.015 A 
HETATM   26  C21 UNL     1      11.855  50.921  85.347  1.00  0.00     0.010 A 
BRANCH  24  27
HETATM   27  C4  UNL     1      14.605  51.365  82.774  1.00  0.00     0.109 A 
HETATM   28  C2  UNL     1      14.495  50.676  81.599  1.00  0.00     0.041 A 
HETATM   29  C1  UNL     1      13.340  49.903  81.105  1.00  0.00     0.071 C 
HETATM   30  N1  UNL     1      15.687  50.829  80.956  1.00  0.00    -0.348 N 
HETATM   31  C3  UNL     1      16.485  51.585  81.718  1.00  0.00     0.234 A 
ATOM     32  H1  UNL     1      15.928  50.435  80.047  1.00  0.00     0.167 HD
HETATM   33  O1  UNL     1      15.827  51.892  82.791  1.00  0.00    -0.303 OA
ENDBRANCH  24  27
ENDBRANCH  20  21
ENDBRANCH   1  20
TORSDOF 8
ENDMDL
