MODEL 3
REMARK VINA RESULT: -7.662159616      5.538      8.988
REMARK  8 active torsions:
REMARK  status: ('A' for Active; 'I' for Inactive)
REMARK    1  A    between atoms: C4_7  and  C5_8 
REMARK    2  A    between atoms: C8_11  and  C9_12 
REMARK    3  A    between atoms: C9_12  and  N2_13 
REMARK       I    between atoms: N2_13  and  C10_15 
REMARK    4  A    between atoms: C10_15  and  C11_17 
REMARK    5  A    between atoms: C13_19  and  O3_20 
REMARK    6  A    between atoms: N3_23  and  C15_24 
REMARK    7  A    between atoms: C15_24  and  O4_25 
REMARK    8  A    between atoms: C16_27  and  C17_28 
ROOT
HETATM    1  N2  UNL     1      11.963  52.632  97.320  1.00  0.00    -0.355 N 
ATOM      2  H2  UNL     1      11.096  52.515  96.797  1.00  0.00     0.162 HD
HETATM    3  C10 UNL     1      11.898  53.108  98.699  1.00  0.00     0.240 C 
HETATM    4  O2  UNL     1      12.990  53.224  99.270  1.00  0.00    -0.271 OA
ENDROOT
BRANCH   3   5
HETATM    5  C11 UNL     1      10.552  53.371  99.181  1.00  0.00     0.180 C 
HETATM    6  C12 UNL     1       9.542  52.591  98.338  1.00  0.00     0.068 C 
HETATM    7  C13 UNL     1       8.333  53.481  98.302  1.00  0.00     0.138 C 
HETATM    8  C14 UNL     1       8.625  54.507  99.420  1.00  0.00     0.157 C 
HETATM    9  N3  UNL     1      10.037  54.716  99.156  1.00  0.00    -0.346 N 
BRANCH   7  10
HETATM   10  O3  UNL     1       7.213  52.771  98.697  1.00  0.00    -0.394 OA
ATOM     11  H3  UNL     1       6.918  53.079  99.545  1.00  0.00     0.210 HD
ENDBRANCH   7  10
BRANCH   9  12
HETATM   12  C15 UNL     1      10.658  55.947  98.965  1.00  0.00     0.135 C 
HETATM   13  C16 UNL     1      10.752  56.955  97.957  1.00  0.00     0.037 C 
BRANCH  12  14
HETATM   14  O4  UNL     1      11.377  56.295 100.033  1.00  0.00    -0.346 OA
ATOM     15  H4  UNL     1      12.307  56.268  99.844  1.00  0.00     0.219 HD
ENDBRANCH  12  14
BRANCH  13  16
HETATM   16  C17 UNL     1      10.225  56.883  96.599  1.00  0.00    -0.030 C 
HETATM   17  C18 UNL     1      10.216  55.548  95.926  1.00  0.00     0.019 C 
HETATM   18  C19 UNL     1       8.946  57.690  96.350  1.00  0.00     0.019 C 
HETATM   19  C20 UNL     1      11.265  57.699  95.732  1.00  0.00     0.019 C 
ENDBRANCH  13  16
ENDBRANCH   9  12
ENDBRANCH   3   5
BRANCH   1  20
HETATM   20  C9  UNL     1      13.213  52.324  96.675  1.00  0.00     0.161 C 
BRANCH  20  21
HETATM   21  C8  UNL     1      13.382  53.047  95.389  1.00  0.00    -0.040 A 
HETATM   22  C7  UNL     1      13.651  52.352  94.212  1.00  0.00     0.010 A 
HETATM   23  C6  UNL     1      13.822  52.974  93.001  1.00  0.00     0.015 A 
HETATM   24  C5  UNL     1      13.737  54.363  92.876  1.00  0.00    -0.000 A 
HETATM   25  C22 UNL     1      13.474  55.057  94.026  1.00  0.00     0.015 A 
HETATM   26  C21 UNL     1      13.300  54.409  95.261  1.00  0.00     0.010 A 
BRANCH  24  27
HETATM   27  C4  UNL     1      13.942  54.975  91.567  1.00  0.00     0.109 A 
HETATM   28  C2  UNL     1      13.143  55.056  90.461  1.00  0.00     0.041 A 
HETATM   29  C1  UNL     1      11.786  54.508  90.279  1.00  0.00     0.071 C 
HETATM   30  N1  UNL     1      13.857  55.745  89.527  1.00  0.00    -0.348 N 
HETATM   31  C3  UNL     1      15.044  56.068  90.053  1.00  0.00     0.234 A 
ATOM     32  H1  UNL     1      13.539  55.977  88.586  1.00  0.00     0.167 HD
HETATM   33  O1  UNL     1      15.075  55.602  91.262  1.00  0.00    -0.303 OA
ENDBRANCH  24  27
ENDBRANCH  20  21
ENDBRANCH   1  20
TORSDOF 8
ENDMDL
