MODEL 2
REMARK VINA RESULT: -8.351789734      1.046      1.684
REMARK  8 active torsions:
REMARK  status: ('A' for Active; 'I' for Inactive)
REMARK    1  A    between atoms: C4_7  and  C5_8 
REMARK    2  A    between atoms: C8_11  and  C9_12 
REMARK    3  A    between atoms: C9_12  and  N2_13 
REMARK       I    between atoms: N2_13  and  C10_15 
REMARK    4  A    between atoms: C10_15  and  C11_17 
REMARK    5  A    between atoms: C13_19  and  O3_20 
REMARK    6  A    between atoms: N3_23  and  C15_24 
REMARK    7  A    between atoms: C15_24  and  O4_25 
REMARK    8  A    between atoms: C16_27  and  C17_28 
ROOT
HETATM    1  N2  UNL     1      12.174  53.526  88.211  1.00  0.00    -0.355 N 
ATOM      2  H2  UNL     1      12.929  54.080  87.806  1.00  0.00     0.162 HD
HETATM    3  C10 UNL     1      11.874  53.673  89.632  1.00  0.00     0.240 C 
HETATM    4  O2  UNL     1      10.945  52.970  90.051  1.00  0.00    -0.271 OA
ENDROOT
BRANCH   3   5
HETATM    5  C11 UNL     1      12.720  54.626  90.330  1.00  0.00     0.180 C 
HETATM    6  C12 UNL     1      13.933  54.969  89.463  1.00  0.00     0.068 C 
HETATM    7  C13 UNL     1      15.038  55.196  90.455  1.00  0.00     0.138 C 
HETATM    8  C14 UNL     1      14.279  55.324  91.795  1.00  0.00     0.157 C 
HETATM    9  N3  UNL     1      13.308  54.263  91.595  1.00  0.00    -0.346 N 
BRANCH   7  10
HETATM   10  O3  UNL     1      15.639  56.419  90.220  1.00  0.00    -0.394 OA
ATOM     11  H3  UNL     1      16.390  56.525  90.791  1.00  0.00     0.210 HD
ENDBRANCH   7  10
BRANCH   9  12
HETATM   12  C15 UNL     1      13.056  53.212  92.472  1.00  0.00     0.135 C 
HETATM   13  C16 UNL     1      12.489  53.010  93.766  1.00  0.00     0.037 C 
BRANCH  12  14
HETATM   14  O4  UNL     1      13.457  52.049  91.957  1.00  0.00    -0.346 OA
ATOM     15  H4  UNL     1      13.230  51.325  92.528  1.00  0.00     0.219 HD
ENDBRANCH  12  14
BRANCH  13  16
HETATM   16  C17 UNL     1      12.065  54.042  94.705  1.00  0.00    -0.030 C 
HETATM   17  C18 UNL     1      13.074  55.064  95.119  1.00  0.00     0.019 C 
HETATM   18  C19 UNL     1      10.680  54.642  94.434  1.00  0.00     0.019 C 
HETATM   19  C20 UNL     1      11.792  53.261  96.052  1.00  0.00     0.019 C 
ENDBRANCH  13  16
ENDBRANCH   9  12
ENDBRANCH   3   5
BRANCH   1  20
HETATM   20  C9  UNL     1      11.440  52.624  87.363  1.00  0.00     0.161 C 
BRANCH  20  21
HETATM   21  C8  UNL     1      12.169  52.302  86.109  1.00  0.00    -0.040 A 
HETATM   22  C7  UNL     1      11.873  51.146  85.390  1.00  0.00     0.010 A 
HETATM   23  C6  UNL     1      12.522  50.802  84.231  1.00  0.00     0.015 A 
HETATM   24  C5  UNL     1      13.534  51.602  83.696  1.00  0.00    -0.000 A 
HETATM   25  C22 UNL     1      13.834  52.741  84.395  1.00  0.00     0.015 A 
HETATM   26  C21 UNL     1      13.162  53.084  85.581  1.00  0.00     0.010 A 
BRANCH  24  27
HETATM   27  C4  UNL     1      14.202  51.181  82.469  1.00  0.00     0.109 A 
HETATM   28  C2  UNL     1      15.503  51.272  82.060  1.00  0.00     0.041 A 
HETATM   29  C1  UNL     1      16.644  51.862  82.785  1.00  0.00     0.071 C 
HETATM   30  N1  UNL     1      15.550  50.712  80.819  1.00  0.00    -0.348 N 
HETATM   31  C3  UNL     1      14.320  50.298  80.493  1.00  0.00     0.234 A 
ATOM     32  H1  UNL     1      16.383  50.623  80.237  1.00  0.00     0.167 HD
HETATM   33  O1  UNL     1      13.536  50.586  81.483  1.00  0.00    -0.303 OA
ENDBRANCH  24  27
ENDBRANCH  20  21
ENDBRANCH   1  20
TORSDOF 8
ENDMDL
