MODEL 12
REMARK VINA RESULT: -7.147919673      2.183     10.003
REMARK  8 active torsions:
REMARK  status: ('A' for Active; 'I' for Inactive)
REMARK    1  A    between atoms: C4_7  and  C5_8 
REMARK    2  A    between atoms: C8_11  and  C9_12 
REMARK    3  A    between atoms: C9_12  and  N2_13 
REMARK       I    between atoms: N2_13  and  C10_15 
REMARK    4  A    between atoms: C10_15  and  C11_17 
REMARK    5  A    between atoms: C13_19  and  O3_20 
REMARK    6  A    between atoms: N3_23  and  C15_24 
REMARK    7  A    between atoms: C15_24  and  O4_25 
REMARK    8  A    between atoms: C16_27  and  C17_28 
ROOT
HETATM    1  N2  UNL     1      12.679  52.228  84.269  1.00  0.00    -0.355 N 
ATOM      2  H2  UNL     1      13.484  52.837  84.126  1.00  0.00     0.162 HD
HETATM    3  C10 UNL     1      12.651  50.927  83.608  1.00  0.00     0.240 C 
HETATM    4  O2  UNL     1      11.643  50.243  83.829  1.00  0.00    -0.271 OA
ENDROOT
BRANCH   3   5
HETATM    5  C11 UNL     1      13.818  50.642  82.790  1.00  0.00     0.180 C 
HETATM    6  C12 UNL     1      14.857  51.750  82.973  1.00  0.00     0.068 C 
HETATM    7  C13 UNL     1      15.520  51.853  81.629  1.00  0.00     0.138 C 
HETATM    8  C14 UNL     1      15.062  50.561  80.917  1.00  0.00     0.157 C 
HETATM    9  N3  UNL     1      13.679  50.551  81.358  1.00  0.00    -0.346 N 
BRANCH   7  10
HETATM   10  O3  UNL     1      16.892  51.763  81.773  1.00  0.00    -0.394 OA
ATOM     11  H3  UNL     1      17.288  52.617  81.643  1.00  0.00     0.210 HD
ENDBRANCH   7  10
BRANCH   9  12
HETATM   12  C15 UNL     1      12.560  50.447  80.536  1.00  0.00     0.135 C 
HETATM   13  C16 UNL     1      11.794  49.429  79.894  1.00  0.00     0.037 C 
BRANCH  12  14
HETATM   14  O4  UNL     1      12.049  51.649  80.266  1.00  0.00    -0.346 OA
ATOM     15  H4  UNL     1      11.733  51.694  79.371  1.00  0.00     0.219 HD
ENDBRANCH  12  14
BRANCH  13  16
HETATM   16  C17 UNL     1      12.110  48.006  79.832  1.00  0.00    -0.030 C 
HETATM   17  C18 UNL     1      13.301  47.592  79.030  1.00  0.00     0.019 C 
HETATM   18  C19 UNL     1      11.989  47.251  81.162  1.00  0.00     0.019 C 
HETATM   19  C20 UNL     1      10.910  47.372  79.021  1.00  0.00     0.019 C 
ENDBRANCH  13  16
ENDBRANCH   9  12
ENDBRANCH   3   5
BRANCH   1  20
HETATM   20  C9  UNL     1      11.606  52.680  85.115  1.00  0.00     0.161 C 
BRANCH  20  21
HETATM   21  C8  UNL     1      12.076  53.076  86.467  1.00  0.00    -0.040 A 
HETATM   22  C7  UNL     1      11.320  52.778  87.600  1.00  0.00     0.010 A 
HETATM   23  C6  UNL     1      11.709  53.128  88.868  1.00  0.00     0.015 A 
HETATM   24  C5  UNL     1      12.902  53.815  89.102  1.00  0.00    -0.000 A 
HETATM   25  C22 UNL     1      13.653  54.114  87.997  1.00  0.00     0.015 A 
HETATM   26  C21 UNL     1      13.246  53.750  86.702  1.00  0.00     0.010 A 
BRANCH  24  27
HETATM   27  C4  UNL     1      13.259  54.177  90.471  1.00  0.00     0.109 A 
HETATM   28  C2  UNL     1      14.239  54.985  90.976  1.00  0.00     0.041 A 
HETATM   29  C1  UNL     1      15.263  55.743  90.232  1.00  0.00     0.071 C 
HETATM   30  N1  UNL     1      14.099  54.950  92.330  1.00  0.00    -0.348 N 
HETATM   31  C3  UNL     1      13.070  54.149  92.629  1.00  0.00     0.234 A 
ATOM     32  H1  UNL     1      14.680  55.451  93.002  1.00  0.00     0.167 HD
HETATM   33  O1  UNL     1      12.586  53.701  91.515  1.00  0.00    -0.303 OA
ENDBRANCH  24  27
ENDBRANCH  20  21
ENDBRANCH   1  20
TORSDOF 8
ENDMDL
