MODEL 1
REMARK VINA RESULT: -8.365955648      0.000      0.000
REMARK  8 active torsions:
REMARK  status: ('A' for Active; 'I' for Inactive)
REMARK    1  A    between atoms: C4_7  and  C5_8 
REMARK    2  A    between atoms: C8_11  and  C9_12 
REMARK    3  A    between atoms: C9_12  and  N2_13 
REMARK       I    between atoms: N2_13  and  C10_15 
REMARK    4  A    between atoms: C10_15  and  C11_17 
REMARK    5  A    between atoms: C13_19  and  O3_20 
REMARK    6  A    between atoms: N3_23  and  C15_24 
REMARK    7  A    between atoms: C15_24  and  O4_25 
REMARK    8  A    between atoms: C16_27  and  C17_28 
ROOT
HETATM    1  N2  UNL     1      11.694  53.573  88.136  1.00  0.00    -0.355 N 
ATOM      2  H2  UNL     1      11.622  54.557  87.876  1.00  0.00     0.162 HD
HETATM    3  C10 UNL     1      12.376  53.218  89.377  1.00  0.00     0.240 C 
HETATM    4  O2  UNL     1      12.422  52.007  89.627  1.00  0.00    -0.271 OA
ENDROOT
BRANCH   3   5
HETATM    5  C11 UNL     1      12.894  54.352  90.125  1.00  0.00     0.180 C 
HETATM    6  C12 UNL     1      14.185  54.851  89.473  1.00  0.00     0.068 C 
HETATM    7  C13 UNL     1      15.012  55.338  90.628  1.00  0.00     0.138 C 
HETATM    8  C14 UNL     1      13.986  55.414  91.781  1.00  0.00     0.157 C 
HETATM    9  N3  UNL     1      13.264  54.185  91.507  1.00  0.00    -0.346 N 
BRANCH   7  10
HETATM   10  O3  UNL     1      15.439  56.631  90.390  1.00  0.00    -0.394 OA
ATOM     11  H3  UNL     1      15.251  57.178  91.143  1.00  0.00     0.210 HD
ENDBRANCH   7  10
BRANCH   9  12
HETATM   12  C15 UNL     1      13.014  53.164  92.421  1.00  0.00     0.135 C 
HETATM   13  C16 UNL     1      11.991  52.775  93.337  1.00  0.00     0.037 C 
BRANCH  12  14
HETATM   14  O4  UNL     1      14.020  52.290  92.454  1.00  0.00    -0.346 OA
ATOM     15  H4  UNL     1      13.708  51.403  92.322  1.00  0.00     0.219 HD
ENDBRANCH  12  14
BRANCH  13  16
HETATM   16  C17 UNL     1      10.800  53.537  93.693  1.00  0.00    -0.030 C 
HETATM   17  C18 UNL     1      10.980  54.758  94.535  1.00  0.00     0.019 C 
HETATM   18  C19 UNL     1       9.787  53.735  92.558  1.00  0.00     0.019 C 
HETATM   19  C20 UNL     1       9.989  52.575  94.650  1.00  0.00     0.019 C 
ENDBRANCH  13  16
ENDBRANCH   9  12
ENDBRANCH   3   5
BRANCH   1  20
HETATM   20  C9  UNL     1      11.122  52.579  87.266  1.00  0.00     0.161 C 
BRANCH  20  21
HETATM   21  C8  UNL     1      12.006  52.250  86.120  1.00  0.00    -0.040 A 
HETATM   22  C7  UNL     1      12.974  53.153  85.684  1.00  0.00     0.010 A 
HETATM   23  C6  UNL     1      13.810  52.898  84.627  1.00  0.00     0.015 A 
HETATM   24  C5  UNL     1      13.739  51.699  83.913  1.00  0.00    -0.000 A 
HETATM   25  C22 UNL     1      12.792  50.804  84.331  1.00  0.00     0.015 A 
HETATM   26  C21 UNL     1      11.940  51.076  85.416  1.00  0.00     0.010 A 
BRANCH  24  27
HETATM   27  C4  UNL     1      14.642  51.486  82.786  1.00  0.00     0.109 A 
HETATM   28  C2  UNL     1      14.517  50.748  81.643  1.00  0.00     0.041 A 
HETATM   29  C1  UNL     1      13.376  49.915  81.220  1.00  0.00     0.071 C 
HETATM   30  N1  UNL     1      15.678  50.921  80.952  1.00  0.00    -0.348 N 
HETATM   31  C3  UNL     1      16.474  51.734  81.655  1.00  0.00     0.234 A 
ATOM     32  H1  UNL     1      15.903  50.501  80.050  1.00  0.00     0.167 HD
HETATM   33  O1  UNL     1      15.842  52.058  82.739  1.00  0.00    -0.303 OA
ENDBRANCH  24  27
ENDBRANCH  20  21
ENDBRANCH   1  20
TORSDOF 8
ENDMDL
