MODEL 9
REMARK VINA RESULT: -7.211476455      2.644     10.190
REMARK  8 active torsions:
REMARK  status: ('A' for Active; 'I' for Inactive)
REMARK    1  A    between atoms: C4_7  and  C5_8 
REMARK    2  A    between atoms: C8_11  and  C9_12 
REMARK    3  A    between atoms: C9_12  and  N2_13 
REMARK       I    between atoms: N2_13  and  C10_15 
REMARK    4  A    between atoms: C10_15  and  C11_17 
REMARK    5  A    between atoms: C13_19  and  O3_20 
REMARK    6  A    between atoms: N3_23  and  C15_24 
REMARK    7  A    between atoms: C15_24  and  O4_25 
REMARK    8  A    between atoms: C16_27  and  C17_28 
ROOT
HETATM    1  N2  UNL     1      12.413  53.956  89.709  1.00  0.00    -0.355 N 
ATOM      2  H2  UNL     1      12.047  54.867  89.431  1.00  0.00     0.162 HD
HETATM    3  C10 UNL     1      11.858  52.754  89.095  1.00  0.00     0.240 C 
HETATM    4  O2  UNL     1      12.352  51.687  89.480  1.00  0.00    -0.271 OA
ENDROOT
BRANCH   3   5
HETATM    5  C11 UNL     1      10.806  53.006  88.123  1.00  0.00     0.180 C 
HETATM    6  C12 UNL     1       9.788  51.865  88.160  1.00  0.00     0.068 C 
HETATM    7  C13 UNL     1       9.320  51.748  86.738  1.00  0.00     0.138 C 
HETATM    8  C14 UNL     1       9.831  53.057  86.096  1.00  0.00     0.157 C 
HETATM    9  N3  UNL     1      11.138  53.109  86.725  1.00  0.00    -0.346 N 
BRANCH   7  10
HETATM   10  O3  UNL     1       7.939  51.793  86.691  1.00  0.00    -0.394 OA
ATOM     11  H3  UNL     1       7.651  51.962  85.801  1.00  0.00     0.210 HD
ENDBRANCH   7  10
BRANCH   9  12
HETATM   12  C15 UNL     1      12.356  53.251  86.065  1.00  0.00     0.135 C 
HETATM   13  C16 UNL     1      13.090  52.611  85.022  1.00  0.00     0.037 C 
BRANCH  12  14
HETATM   14  O4  UNL     1      13.043  54.290  86.542  1.00  0.00    -0.346 OA
ATOM     15  H4  UNL     1      13.050  55.010  85.922  1.00  0.00     0.219 HD
ENDBRANCH  12  14
BRANCH  13  16
HETATM   16  C17 UNL     1      12.742  51.365  84.347  1.00  0.00    -0.030 C 
HETATM   17  C18 UNL     1      12.619  50.132  85.183  1.00  0.00     0.019 C 
HETATM   18  C19 UNL     1      11.645  51.482  83.283  1.00  0.00     0.019 C 
HETATM   19  C20 UNL     1      14.000  51.045  83.444  1.00  0.00     0.019 C 
ENDBRANCH  13  16
ENDBRANCH   9  12
ENDBRANCH   3   5
BRANCH   1  20
HETATM   20  C9  UNL     1      13.459  53.898  90.696  1.00  0.00     0.161 C 
BRANCH  20  21
HETATM   21  C8  UNL     1      12.990  54.299  92.047  1.00  0.00    -0.040 A 
HETATM   22  C7  UNL     1      13.840  54.969  92.925  1.00  0.00     0.010 A 
HETATM   23  C6  UNL     1      13.456  55.355  94.185  1.00  0.00     0.015 A 
HETATM   24  C5  UNL     1      12.172  55.094  94.668  1.00  0.00    -0.000 A 
HETATM   25  C22 UNL     1      11.329  54.436  93.814  1.00  0.00     0.015 A 
HETATM   26  C21 UNL     1      11.732  54.045  92.526  1.00  0.00     0.010 A 
BRANCH  24  27
HETATM   27  C4  UNL     1      11.821  55.513  96.022  1.00  0.00     0.109 A 
HETATM   28  C2  UNL     1      11.582  56.745  96.564  1.00  0.00     0.041 A 
HETATM   29  C1  UNL     1      11.627  58.056  95.891  1.00  0.00     0.071 C 
HETATM   30  N1  UNL     1      11.299  56.532  97.879  1.00  0.00    -0.348 N 
HETATM   31  C3  UNL     1      11.365  55.218  98.120  1.00  0.00     0.234 A 
ATOM     32  H1  UNL     1      11.074  57.253  98.564  1.00  0.00     0.167 HD
HETATM   33  O1  UNL     1      11.676  54.631  97.007  1.00  0.00    -0.303 OA
ENDBRANCH  24  27
ENDBRANCH  20  21
ENDBRANCH   1  20
TORSDOF 8
ENDMDL
