MODEL 1
REMARK VINA RESULT: -7.637004952      0.000      0.000
REMARK  8 active torsions:
REMARK  status: ('A' for Active; 'I' for Inactive)
REMARK    1  A    between atoms: C4_7  and  C5_8 
REMARK    2  A    between atoms: C8_11  and  C9_12 
REMARK    3  A    between atoms: C9_12  and  N2_13 
REMARK       I    between atoms: N2_13  and  C10_15 
REMARK    4  A    between atoms: C10_15  and  C11_17 
REMARK    5  A    between atoms: C13_19  and  O2_20 
REMARK    6  A    between atoms: N3_23  and  C15_24 
REMARK    7  A    between atoms: C15_24  and  O3_25 
REMARK    8  A    between atoms: C16_27  and  C17_28 
ROOT
HETATM    1  N2  UNL     1      -5.828  34.849   3.135  1.00  0.00    -0.355 N 
ATOM      2  H2  UNL     1      -6.020  33.879   3.386  1.00  0.00     0.162 HD
HETATM    3  C10 UNL     1      -6.546  35.436   2.029  1.00  0.00     0.240 C 
HETATM    4  O1  UNL     1      -6.286  36.601   1.764  1.00  0.00    -0.271 OA
ENDROOT
BRANCH   3   5
HETATM    5  C11 UNL     1      -7.518  34.531   1.352  1.00  0.00     0.180 C 
HETATM    6  C12 UNL     1      -7.596  33.231   2.118  1.00  0.00     0.068 C 
HETATM    7  C13 UNL     1      -8.212  32.336   1.076  1.00  0.00     0.138 C 
HETATM    8  C14 UNL     1      -7.519  32.805  -0.216  1.00  0.00     0.157 C 
HETATM    9  N3  UNL     1      -7.153  34.170   0.009  1.00  0.00    -0.346 N 
BRANCH   7  10
HETATM   10  O2  UNL     1      -9.575  32.641   1.008  1.00  0.00    -0.394 OA
ATOM     11  H2  UNL     1      -9.965  32.072   0.354  1.00  0.00     0.210 HD
ENDBRANCH   7  10
BRANCH   9  12
HETATM   12  C15 UNL     1      -6.526  35.026  -0.939  1.00  0.00     0.135 C 
HETATM   13  C16 UNL     1      -5.289  35.010  -1.647  1.00  0.00     0.037 C 
BRANCH  12  14
HETATM   14  O3  UNL     1      -7.270  36.075  -1.221  1.00  0.00    -0.346 OA
ATOM     15  H3  UNL     1      -7.038  36.827  -0.689  1.00  0.00     0.219 HD
ENDBRANCH  12  14
BRANCH  13  16
HETATM   16  C17 UNL     1      -4.119  34.211  -1.257  1.00  0.00    -0.030 C 
HETATM   17  C18 UNL     1      -3.594  34.472   0.142  1.00  0.00     0.019 C 
HETATM   18  C19 UNL     1      -4.136  32.767  -1.653  1.00  0.00     0.019 C 
HETATM   19  C20 UNL     1      -2.948  34.793  -2.151  1.00  0.00     0.019 C 
ENDBRANCH  13  16
ENDBRANCH   9  12
ENDBRANCH   3   5
BRANCH   1  20
HETATM   20  C9  UNL     1      -4.846  35.587   3.902  1.00  0.00     0.161 C 
BRANCH  20  21
HETATM   21  C8  UNL     1      -4.704  34.903   5.215  1.00  0.00    -0.040 A 
HETATM   22  C7  UNL     1      -3.466  34.812   5.806  1.00  0.00     0.010 A 
HETATM   23  C6  UNL     1      -3.283  34.189   7.018  1.00  0.00     0.013 A 
HETATM   24  C5  UNL     1      -4.372  33.613   7.700  1.00  0.00    -0.017 A 
HETATM   25  C22 UNL     1      -5.571  33.701   7.123  1.00  0.00     0.013 A 
HETATM   26  C21 UNL     1      -5.761  34.343   5.878  1.00  0.00     0.010 A 
BRANCH  24  27
HETATM   27  C4  UNL     1      -4.094  32.963   8.978  1.00  0.00     0.038 A 
HETATM   28  C2  UNL     1      -4.356  31.738   9.504  1.00  0.00     0.023 A 
HETATM   29  C1  UNL     1      -5.102  30.656   8.739  1.00  0.00     0.069 C 
HETATM   30  N1  UNL     1      -3.953  31.499  10.720  1.00  0.00    -0.362 N 
HETATM   31  C3  UNL     1      -3.314  32.407  11.416  1.00  0.00     0.139 A 
ATOM     32  H1  UNL     1      -4.138  30.586  11.138  1.00  0.00     0.165 HD
HETATM   33  S1  UNL     1      -3.255  33.705  10.325  1.00  0.00    -0.082 SA
ENDBRANCH  24  27
ENDBRANCH  20  21
ENDBRANCH   1  20
TORSDOF 8
ENDMDL
