MODEL 2
REMARK VINA RESULT: -7.575543306      1.281      1.910
REMARK  8 active torsions:
REMARK  status: ('A' for Active; 'I' for Inactive)
REMARK    1  A    between atoms: C4_7  and  C5_8 
REMARK    2  A    between atoms: C8_11  and  C9_12 
REMARK    3  A    between atoms: C9_12  and  N2_13 
REMARK       I    between atoms: N2_13  and  C10_15 
REMARK    4  A    between atoms: C10_15  and  C11_17 
REMARK    5  A    between atoms: C13_19  and  O2_20 
REMARK    6  A    between atoms: N3_23  and  C15_24 
REMARK    7  A    between atoms: C15_24  and  O3_25 
REMARK    8  A    between atoms: C16_27  and  C17_28 
ROOT
HETATM    1  N2  UNL     1      -6.058  35.085   3.214  1.00  0.00    -0.355 N 
ATOM      2  H2  UNL     1      -6.674  34.419   3.682  1.00  0.00     0.162 HD
HETATM    3  C10 UNL     1      -6.208  35.292   1.794  1.00  0.00     0.240 C 
HETATM    4  O1  UNL     1      -5.450  36.100   1.275  1.00  0.00    -0.271 OA
ENDROOT
BRANCH   3   5
HETATM    5  C11 UNL     1      -7.278  34.483   1.145  1.00  0.00     0.180 C 
HETATM    6  C12 UNL     1      -7.836  33.505   2.153  1.00  0.00     0.068 C 
HETATM    7  C13 UNL     1      -8.510  32.521   1.236  1.00  0.00     0.138 C 
HETATM    8  C14 UNL     1      -7.522  32.435   0.058  1.00  0.00     0.157 C 
HETATM    9  N3  UNL     1      -6.827  33.685   0.038  1.00  0.00    -0.346 N 
BRANCH   7  10
HETATM   10  O2  UNL     1      -9.705  33.101   0.797  1.00  0.00    -0.394 OA
ATOM     11  H2  UNL     1     -10.105  33.535   1.542  1.00  0.00     0.210 HD
ENDBRANCH   7  10
BRANCH   9  12
HETATM   12  C15 UNL     1      -5.846  34.071  -0.919  1.00  0.00     0.135 C 
HETATM   13  C16 UNL     1      -5.874  34.751  -2.171  1.00  0.00     0.037 C 
BRANCH  12  14
HETATM   14  O3  UNL     1      -4.635  33.708  -0.553  1.00  0.00    -0.346 OA
ATOM     15  H3  UNL     1      -4.049  33.631  -1.296  1.00  0.00     0.219 HD
ENDBRANCH  12  14
BRANCH  13  16
HETATM   16  C17 UNL     1      -7.075  34.915  -3.001  1.00  0.00    -0.030 C 
HETATM   17  C18 UNL     1      -7.928  33.669  -3.158  1.00  0.00     0.019 C 
HETATM   18  C19 UNL     1      -7.855  36.178  -2.804  1.00  0.00     0.019 C 
HETATM   19  C20 UNL     1      -6.502  35.096  -4.466  1.00  0.00     0.019 C 
ENDBRANCH  13  16
ENDBRANCH   9  12
ENDBRANCH   3   5
BRANCH   1  20
HETATM   20  C9  UNL     1      -5.065  35.789   4.001  1.00  0.00     0.161 C 
BRANCH  20  21
HETATM   21  C8  UNL     1      -4.898  35.040   5.275  1.00  0.00    -0.040 A 
HETATM   22  C7  UNL     1      -3.683  35.050   5.917  1.00  0.00     0.010 A 
HETATM   23  C6  UNL     1      -3.478  34.372   7.096  1.00  0.00     0.013 A 
HETATM   24  C5  UNL     1      -4.521  33.635   7.690  1.00  0.00    -0.017 A 
HETATM   25  C22 UNL     1      -5.697  33.626   7.064  1.00  0.00     0.013 A 
HETATM   26  C21 UNL     1      -5.910  34.323   5.852  1.00  0.00     0.010 A 
BRANCH  24  27
HETATM   27  C4  UNL     1      -4.221  32.938   8.938  1.00  0.00     0.038 A 
HETATM   28  C2  UNL     1      -4.453  31.687   9.413  1.00  0.00     0.023 A 
HETATM   29  C1  UNL     1      -5.179  30.622   8.606  1.00  0.00     0.069 C 
HETATM   30  N1  UNL     1      -4.037  31.405  10.616  1.00  0.00    -0.362 N 
HETATM   31  C3  UNL     1      -3.416  32.297  11.346  1.00  0.00     0.139 A 
ATOM     32  H1  UNL     1      -4.199  30.472  10.996  1.00  0.00     0.165 HD
HETATM   33  S1  UNL     1      -3.391  33.641  10.311  1.00  0.00    -0.082 SA
ENDBRANCH  24  27
ENDBRANCH  20  21
ENDBRANCH   1  20
TORSDOF 8
ENDMDL
