MODEL 14
REMARK VINA RESULT: -6.393108604      4.218     10.006
REMARK  8 active torsions:
REMARK  status: ('A' for Active; 'I' for Inactive)
REMARK    1  A    between atoms: C4_7  and  C5_8 
REMARK    2  A    between atoms: C8_11  and  C9_12 
REMARK    3  A    between atoms: C9_12  and  N2_13 
REMARK       I    between atoms: N2_13  and  C10_15 
REMARK    4  A    between atoms: C10_15  and  C11_17 
REMARK    5  A    between atoms: C13_19  and  O2_20 
REMARK    6  A    between atoms: N3_23  and  C15_24 
REMARK    7  A    between atoms: C15_24  and  O3_25 
REMARK    8  A    between atoms: C16_27  and  C17_28 
ROOT
HETATM    1  N2  UNL     1      -6.926  34.741   1.892  1.00  0.00    -0.355 N 
ATOM      2  H2  UNL     1      -7.824  35.186   2.081  1.00  0.00     0.162 HD
HETATM    3  C10 UNL     1      -5.744  35.258   2.539  1.00  0.00     0.240 C 
HETATM    4  O1  UNL     1      -4.689  34.694   2.285  1.00  0.00    -0.271 OA
ENDROOT
BRANCH   3   5
HETATM    5  C11 UNL     1      -5.973  36.423   3.440  1.00  0.00     0.180 C 
HETATM    6  C12 UNL     1      -4.988  37.515   3.091  1.00  0.00     0.068 C 
HETATM    7  C13 UNL     1      -5.051  38.350   4.342  1.00  0.00     0.138 C 
HETATM    8  C14 UNL     1      -5.157  37.284   5.448  1.00  0.00     0.157 C 
HETATM    9  N3  UNL     1      -5.765  36.143   4.834  1.00  0.00    -0.346 N 
BRANCH   7  10
HETATM   10  O2  UNL     1      -6.236  39.091   4.297  1.00  0.00    -0.394 OA
ATOM     11  H2  UNL     1      -6.328  39.434   3.415  1.00  0.00     0.210 HD
ENDBRANCH   7  10
BRANCH   9  12
HETATM   12  C15 UNL     1      -6.103  34.930   5.497  1.00  0.00     0.135 C 
HETATM   13  C16 UNL     1      -5.641  34.259   6.666  1.00  0.00     0.037 C 
BRANCH  12  14
HETATM   14  O3  UNL     1      -7.067  34.283   4.875  1.00  0.00    -0.346 OA
ATOM     15  H3  UNL     1      -7.538  34.845   4.271  1.00  0.00     0.219 HD
ENDBRANCH  12  14
BRANCH  13  16
HETATM   16  C17 UNL     1      -4.352  34.521   7.319  1.00  0.00    -0.030 C 
HETATM   17  C18 UNL     1      -3.140  34.461   6.407  1.00  0.00     0.019 C 
HETATM   18  C19 UNL     1      -4.323  35.639   8.315  1.00  0.00     0.019 C 
HETATM   19  C20 UNL     1      -4.125  33.248   8.234  1.00  0.00     0.019 C 
ENDBRANCH  13  16
ENDBRANCH   9  12
ENDBRANCH   3   5
BRANCH   1  20
HETATM   20  C9  UNL     1      -6.883  33.614   0.983  1.00  0.00     0.161 C 
BRANCH  20  21
HETATM   21  C8  UNL     1      -7.210  34.127  -0.374  1.00  0.00    -0.040 A 
HETATM   22  C7  UNL     1      -7.850  33.310  -1.276  1.00  0.00     0.010 A 
HETATM   23  C6  UNL     1      -8.173  33.737  -2.542  1.00  0.00     0.013 A 
HETATM   24  C5  UNL     1      -7.851  35.042  -2.962  1.00  0.00    -0.017 A 
HETATM   25  C22 UNL     1      -7.230  35.832  -2.087  1.00  0.00     0.013 A 
HETATM   26  C21 UNL     1      -6.898  35.394  -0.784  1.00  0.00     0.010 A 
BRANCH  24  27
HETATM   27  C4  UNL     1      -8.222  35.417  -4.325  1.00  0.00     0.038 A 
HETATM   28  C2  UNL     1      -9.396  35.664  -4.962  1.00  0.00     0.023 A 
HETATM   29  C1  UNL     1     -10.745  35.583  -4.262  1.00  0.00     0.069 C 
HETATM   30  N1  UNL     1      -9.350  35.975  -6.227  1.00  0.00    -0.362 N 
HETATM   31  C3  UNL     1      -8.210  36.047  -6.867  1.00  0.00     0.139 A 
ATOM     32  H1  UNL     1     -10.219  36.165  -6.728  1.00  0.00     0.165 HD
HETATM   33  S1  UNL     1      -7.097  35.658  -5.646  1.00  0.00    -0.082 SA
ENDBRANCH  24  27
ENDBRANCH  20  21
ENDBRANCH   1  20
TORSDOF 8
ENDMDL
