MODEL 13
REMARK VINA RESULT: -6.417311031      3.585      6.045
REMARK  8 active torsions:
REMARK  status: ('A' for Active; 'I' for Inactive)
REMARK    1  A    between atoms: C4_7  and  C5_8 
REMARK    2  A    between atoms: C8_11  and  C9_12 
REMARK    3  A    between atoms: C9_12  and  N2_13 
REMARK       I    between atoms: N2_13  and  C10_15 
REMARK    4  A    between atoms: C10_15  and  C11_17 
REMARK    5  A    between atoms: C13_19  and  O2_20 
REMARK    6  A    between atoms: N3_23  and  C15_24 
REMARK    7  A    between atoms: C15_24  and  O3_25 
REMARK    8  A    between atoms: C16_27  and  C17_28 
ROOT
HETATM    1  N2  UNL     1      -6.386  36.683   4.140  1.00  0.00    -0.355 N 
ATOM      2  H2  UNL     1      -7.163  36.803   4.790  1.00  0.00     0.162 HD
HETATM    3  C10 UNL     1      -5.784  37.854   3.552  1.00  0.00     0.240 C 
HETATM    4  O1  UNL     1      -4.855  37.664   2.779  1.00  0.00    -0.271 OA
ENDROOT
BRANCH   3   5
HETATM    5  C11 UNL     1      -6.383  39.154   3.970  1.00  0.00     0.180 C 
HETATM    6  C12 UNL     1      -5.947  40.231   3.003  1.00  0.00     0.068 C 
HETATM    7  C13 UNL     1      -6.235  41.463   3.819  1.00  0.00     0.138 C 
HETATM    8  C14 UNL     1      -5.816  41.028   5.236  1.00  0.00     0.157 C 
HETATM    9  N3  UNL     1      -5.967  39.606   5.269  1.00  0.00    -0.346 N 
BRANCH   7  10
HETATM   10  O2  UNL     1      -7.617  41.677   3.789  1.00  0.00    -0.394 OA
ATOM     11  H2  UNL     1      -7.763  42.569   3.494  1.00  0.00     0.210 HD
ENDBRANCH   7  10
BRANCH   9  12
HETATM   12  C15 UNL     1      -5.737  38.776   6.403  1.00  0.00     0.135 C 
HETATM   13  C16 UNL     1      -4.622  38.517   7.251  1.00  0.00     0.037 C 
BRANCH  12  14
HETATM   14  O3  UNL     1      -6.811  38.093   6.736  1.00  0.00    -0.346 OA
ATOM     15  H3  UNL     1      -6.882  37.980   7.677  1.00  0.00     0.219 HD
ENDBRANCH  12  14
BRANCH  13  16
HETATM   16  C17 UNL     1      -3.226  38.812   6.901  1.00  0.00    -0.030 C 
HETATM   17  C18 UNL     1      -2.780  38.310   5.540  1.00  0.00     0.019 C 
HETATM   18  C19 UNL     1      -2.724  40.179   7.252  1.00  0.00     0.019 C 
HETATM   19  C20 UNL     1      -2.387  37.884   7.873  1.00  0.00     0.019 C 
ENDBRANCH  13  16
ENDBRANCH   9  12
ENDBRANCH   3   5
BRANCH   1  20
HETATM   20  C9  UNL     1      -5.928  35.341   3.840  1.00  0.00     0.161 C 
BRANCH  20  21
HETATM   21  C8  UNL     1      -5.576  34.695   5.132  1.00  0.00    -0.040 A 
HETATM   22  C7  UNL     1      -4.399  35.024   5.761  1.00  0.00     0.010 A 
HETATM   23  C6  UNL     1      -4.027  34.453   6.955  1.00  0.00     0.013 A 
HETATM   24  C5  UNL     1      -4.852  33.498   7.580  1.00  0.00    -0.017 A 
HETATM   25  C22 UNL     1      -5.993  33.180   6.968  1.00  0.00     0.013 A 
HETATM   26  C21 UNL     1      -6.376  33.767   5.740  1.00  0.00     0.010 A 
BRANCH  24  27
HETATM   27  C4  UNL     1      -4.384  32.934   8.844  1.00  0.00     0.038 A 
HETATM   28  C2  UNL     1      -4.465  31.712   9.433  1.00  0.00     0.023 A 
HETATM   29  C1  UNL     1      -5.167  30.530   8.782  1.00  0.00     0.069 C 
HETATM   30  N1  UNL     1      -3.922  31.565  10.609  1.00  0.00    -0.362 N 
HETATM   31  C3  UNL     1      -3.316  32.561  11.206  1.00  0.00     0.139 A 
ATOM     32  H1  UNL     1      -3.970  30.658  11.072  1.00  0.00     0.165 HD
HETATM   33  S1  UNL     1      -3.499  33.812  10.074  1.00  0.00    -0.082 SA
ENDBRANCH  24  27
ENDBRANCH  20  21
ENDBRANCH   1  20
TORSDOF 8
ENDMDL
