MODEL 17
REMARK VINA RESULT: -6.319666323      1.478      1.866
REMARK  8 active torsions:
REMARK  status: ('A' for Active; 'I' for Inactive)
REMARK    1  A    between atoms: C4_7  and  C5_8 
REMARK    2  A    between atoms: C8_11  and  C9_12 
REMARK    3  A    between atoms: C9_12  and  N2_13 
REMARK       I    between atoms: N2_13  and  C10_15 
REMARK    4  A    between atoms: C10_15  and  C11_17 
REMARK    5  A    between atoms: C13_19  and  O2_20 
REMARK    6  A    between atoms: N3_23  and  C15_24 
REMARK    7  A    between atoms: C15_24  and  O3_25 
REMARK    8  A    between atoms: C16_27  and  C17_28 
ROOT
HETATM    1  N2  UNL     1      -6.324  35.395   2.661  1.00  0.00    -0.355 N 
ATOM      2  H2  UNL     1      -6.342  34.468   3.087  1.00  0.00     0.162 HD
HETATM    3  C10 UNL     1      -7.114  35.632   1.477  1.00  0.00     0.240 C 
HETATM    4  O1  UNL     1      -7.064  36.757   1.001  1.00  0.00    -0.271 OA
ENDROOT
BRANCH   3   5
HETATM    5  C11 UNL     1      -7.893  34.458   0.989  1.00  0.00     0.180 C 
HETATM    6  C12 UNL     1      -7.808  33.351   2.014  1.00  0.00     0.068 C 
HETATM    7  C13 UNL     1      -8.217  32.170   1.176  1.00  0.00     0.138 C 
HETATM    8  C14 UNL     1      -7.536  32.468  -0.173  1.00  0.00     0.157 C 
HETATM    9  N3  UNL     1      -7.402  33.892  -0.237  1.00  0.00    -0.346 N 
BRANCH   7  10
HETATM   10  O2  UNL     1      -9.606  32.225   1.016  1.00  0.00    -0.394 OA
ATOM     11  H2  UNL     1      -9.848  31.570   0.371  1.00  0.00     0.210 HD
ENDBRANCH   7  10
BRANCH   9  12
HETATM   12  C15 UNL     1      -6.866  34.623  -1.334  1.00  0.00     0.135 C 
HETATM   13  C16 UNL     1      -5.608  34.658  -2.002  1.00  0.00     0.037 C 
BRANCH  12  14
HETATM   14  O3  UNL     1      -7.746  35.461  -1.841  1.00  0.00    -0.346 OA
ATOM     15  H3  UNL     1      -8.050  35.181  -2.696  1.00  0.00     0.219 HD
ENDBRANCH  12  14
BRANCH  13  16
HETATM   16  C17 UNL     1      -4.352  34.150  -1.435  1.00  0.00    -0.030 C 
HETATM   17  C18 UNL     1      -3.994  34.695  -0.065  1.00  0.00     0.019 C 
HETATM   18  C19 UNL     1      -4.084  32.687  -1.609  1.00  0.00     0.019 C 
HETATM   19  C20 UNL     1      -3.233  34.809  -2.342  1.00  0.00     0.019 C 
ENDBRANCH  13  16
ENDBRANCH   9  12
ENDBRANCH   3   5
BRANCH   1  20
HETATM   20  C9  UNL     1      -5.506  36.426   3.267  1.00  0.00     0.161 C 
BRANCH  20  21
HETATM   21  C8  UNL     1      -5.251  36.018   4.674  1.00  0.00    -0.040 A 
HETATM   22  C7  UNL     1      -4.148  36.503   5.335  1.00  0.00     0.010 A 
HETATM   23  C6  UNL     1      -3.868  36.155   6.636  1.00  0.00     0.013 A 
HETATM   24  C5  UNL     1      -4.714  35.277   7.341  1.00  0.00    -0.017 A 
HETATM   25  C22 UNL     1      -5.782  34.807   6.697  1.00  0.00     0.013 A 
HETATM   26  C21 UNL     1      -6.071  35.165   5.360  1.00  0.00     0.010 A 
BRANCH  24  27
HETATM   27  C4  UNL     1      -4.344  34.951   8.716  1.00  0.00     0.038 A 
HETATM   28  C2  UNL     1      -4.338  35.633   9.891  1.00  0.00     0.023 A 
HETATM   29  C1  UNL     1      -4.785  37.083  10.003  1.00  0.00     0.069 C 
HETATM   30  N1  UNL     1      -3.922  35.009  10.956  1.00  0.00    -0.362 N 
HETATM   31  C3  UNL     1      -3.521  33.763  10.900  1.00  0.00     0.139 A 
ATOM     32  H1  UNL     1      -3.908  35.499  11.851  1.00  0.00     0.165 HD
HETATM   33  S1  UNL     1      -3.725  33.403   9.254  1.00  0.00    -0.082 SA
ENDBRANCH  24  27
ENDBRANCH  20  21
ENDBRANCH   1  20
TORSDOF 8
ENDMDL
