MODEL 7
REMARK VINA RESULT: -6.830097175      2.269      3.998
REMARK  8 active torsions:
REMARK  status: ('A' for Active; 'I' for Inactive)
REMARK    1  A    between atoms: C4_7  and  C5_8 
REMARK    2  A    between atoms: C8_11  and  C9_12 
REMARK    3  A    between atoms: C9_12  and  N2_13 
REMARK       I    between atoms: N2_13  and  C10_15 
REMARK    4  A    between atoms: C10_15  and  C11_17 
REMARK    5  A    between atoms: C13_19  and  O2_20 
REMARK    6  A    between atoms: N3_23  and  C15_24 
REMARK    7  A    between atoms: C15_24  and  O3_25 
REMARK    8  A    between atoms: C16_27  and  C17_28 
ROOT
HETATM    1  N2  UNL     1      -6.725  34.453   4.135  1.00  0.00    -0.355 N 
ATOM      2  H2  UNL     1      -6.489  35.295   4.659  1.00  0.00     0.162 HD
HETATM    3  C10 UNL     1      -6.647  34.486   2.695  1.00  0.00     0.240 C 
HETATM    4  O1  UNL     1      -6.938  33.454   2.106  1.00  0.00    -0.271 OA
ENDROOT
BRANCH   3   5
HETATM    5  C11 UNL     1      -6.220  35.790   2.112  1.00  0.00     0.180 C 
HETATM    6  C12 UNL     1      -6.979  36.027   0.827  1.00  0.00     0.068 C 
HETATM    7  C13 UNL     1      -6.113  37.079   0.188  1.00  0.00     0.138 C 
HETATM    8  C14 UNL     1      -4.693  36.605   0.550  1.00  0.00     0.157 C 
HETATM    9  N3  UNL     1      -4.828  35.852   1.759  1.00  0.00    -0.346 N 
BRANCH   7  10
HETATM   10  O2  UNL     1      -6.375  38.292   0.833  1.00  0.00    -0.394 OA
ATOM     11  H2  UNL     1      -7.155  38.174   1.363  1.00  0.00     0.210 HD
ENDBRANCH   7  10
BRANCH   9  12
HETATM   12  C15 UNL     1      -3.759  35.260   2.488  1.00  0.00     0.135 C 
HETATM   13  C16 UNL     1      -3.097  35.549   3.717  1.00  0.00     0.037 C 
BRANCH  12  14
HETATM   14  O3  UNL     1      -3.275  34.201   1.876  1.00  0.00    -0.346 OA
ATOM     15  H3  UNL     1      -3.551  34.160   0.968  1.00  0.00     0.219 HD
ENDBRANCH  12  14
BRANCH  13  16
HETATM   16  C17 UNL     1      -3.142  36.849   4.400  1.00  0.00    -0.030 C 
HETATM   17  C18 UNL     1      -2.361  37.961   3.726  1.00  0.00     0.019 C 
HETATM   18  C19 UNL     1      -4.472  37.270   4.947  1.00  0.00     0.019 C 
HETATM   19  C20 UNL     1      -2.294  36.615   5.717  1.00  0.00     0.019 C 
ENDBRANCH  13  16
ENDBRANCH   9  12
ENDBRANCH   3   5
BRANCH   1  20
HETATM   20  C9  UNL     1      -7.126  33.266   4.864  1.00  0.00     0.161 C 
BRANCH  20  21
HETATM   21  C8  UNL     1      -6.314  33.216   6.108  1.00  0.00    -0.040 A 
HETATM   22  C7  UNL     1      -5.447  34.242   6.399  1.00  0.00     0.010 A 
HETATM   23  C6  UNL     1      -4.674  34.241   7.536  1.00  0.00     0.013 A 
HETATM   24  C5  UNL     1      -4.745  33.173   8.450  1.00  0.00    -0.017 A 
HETATM   25  C22 UNL     1      -5.585  32.178   8.165  1.00  0.00     0.013 A 
HETATM   26  C21 UNL     1      -6.382  32.179   6.997  1.00  0.00     0.010 A 
BRANCH  24  27
HETATM   27  C4  UNL     1      -3.886  33.244   9.630  1.00  0.00     0.038 A 
HETATM   28  C2  UNL     1      -3.784  32.529  10.781  1.00  0.00     0.023 A 
HETATM   29  C1  UNL     1      -4.683  31.343  11.096  1.00  0.00     0.069 C 
HETATM   30  N1  UNL     1      -2.878  32.892  11.645  1.00  0.00    -0.362 N 
HETATM   31  C3  UNL     1      -2.090  33.912  11.414  1.00  0.00     0.139 A 
ATOM     32  H1  UNL     1      -2.781  32.371  12.517  1.00  0.00     0.165 HD
HETATM   33  S1  UNL     1      -2.624  34.429   9.889  1.00  0.00    -0.082 SA
ENDBRANCH  24  27
ENDBRANCH  20  21
ENDBRANCH   1  20
TORSDOF 8
ENDMDL
