MODEL 3
REMARK VINA RESULT: -7.255720934      0.862      1.462
REMARK  8 active torsions:
REMARK  status: ('A' for Active; 'I' for Inactive)
REMARK    1  A    between atoms: C4_7  and  C5_8 
REMARK    2  A    between atoms: C8_11  and  C9_12 
REMARK    3  A    between atoms: C9_12  and  N2_13 
REMARK       I    between atoms: N2_13  and  C10_15 
REMARK    4  A    between atoms: C10_15  and  C11_17 
REMARK    5  A    between atoms: C13_19  and  O2_20 
REMARK    6  A    between atoms: N3_23  and  C15_24 
REMARK    7  A    between atoms: C15_24  and  O3_25 
REMARK    8  A    between atoms: C16_27  and  C17_28 
ROOT
HETATM    1  N2  UNL     1      -5.795  34.911   2.987  1.00  0.00    -0.355 N 
ATOM      2  H2  UNL     1      -5.973  33.935   3.221  1.00  0.00     0.162 HD
HETATM    3  C10 UNL     1      -6.551  35.519   1.918  1.00  0.00     0.240 C 
HETATM    4  O1  UNL     1      -6.306  36.691   1.671  1.00  0.00    -0.271 OA
ENDROOT
BRANCH   3   5
HETATM    5  C11 UNL     1      -7.539  34.623   1.251  1.00  0.00     0.180 C 
HETATM    6  C12 UNL     1      -7.648  33.338   2.039  1.00  0.00     0.068 C 
HETATM    7  C13 UNL     1      -8.278  32.439   1.010  1.00  0.00     0.138 C 
HETATM    8  C14 UNL     1      -7.570  32.871  -0.287  1.00  0.00     0.157 C 
HETATM    9  N3  UNL     1      -7.175  34.232  -0.083  1.00  0.00    -0.346 N 
BRANCH   7  10
HETATM   10  O2  UNL     1      -9.634  32.772   0.930  1.00  0.00    -0.394 OA
ATOM     11  H2  UNL     1      -9.700  33.601   0.469  1.00  0.00     0.210 HD
ENDBRANCH   7  10
BRANCH   9  12
HETATM   12  C15 UNL     1      -6.527  35.058  -1.043  1.00  0.00     0.135 C 
HETATM   13  C16 UNL     1      -5.280  35.011  -1.733  1.00  0.00     0.037 C 
BRANCH  12  14
HETATM   14  O3  UNL     1      -7.255  36.108  -1.359  1.00  0.00    -0.346 OA
ATOM     15  H3  UNL     1      -8.068  36.135  -0.870  1.00  0.00     0.219 HD
ENDBRANCH  12  14
BRANCH  13  16
HETATM   16  C17 UNL     1      -4.125  34.209  -1.309  1.00  0.00    -0.030 C 
HETATM   17  C18 UNL     1      -3.593  34.523   0.077  1.00  0.00     0.019 C 
HETATM   18  C19 UNL     1      -4.170  32.748  -1.638  1.00  0.00     0.019 C 
HETATM   19  C20 UNL     1      -2.945  34.727  -2.229  1.00  0.00     0.019 C 
ENDBRANCH  13  16
ENDBRANCH   9  12
ENDBRANCH   3   5
BRANCH   1  20
HETATM   20  C9  UNL     1      -4.792  35.638   3.738  1.00  0.00     0.161 C 
BRANCH  20  21
HETATM   21  C8  UNL     1      -4.651  34.963   5.056  1.00  0.00    -0.040 A 
HETATM   22  C7  UNL     1      -5.756  34.418   5.664  1.00  0.00     0.010 A 
HETATM   23  C6  UNL     1      -5.677  33.785   6.883  1.00  0.00     0.013 A 
HETATM   24  C5  UNL     1      -4.445  33.675   7.555  1.00  0.00    -0.017 A 
HETATM   25  C22 UNL     1      -3.375  34.206   6.964  1.00  0.00     0.013 A 
HETATM   26  C21 UNL     1      -3.455  34.856   5.710  1.00  0.00     0.010 A 
BRANCH  24  27
HETATM   27  C4  UNL     1      -4.447  32.994   8.848  1.00  0.00     0.038 A 
HETATM   28  C2  UNL     1      -3.965  33.289  10.083  1.00  0.00     0.023 A 
HETATM   29  C1  UNL     1      -3.223  34.581  10.391  1.00  0.00     0.069 C 
HETATM   30  N1  UNL     1      -4.147  32.415  11.033  1.00  0.00    -0.362 N 
HETATM   31  C3  UNL     1      -4.773  31.287  10.807  1.00  0.00     0.139 A 
ATOM     32  H1  UNL     1      -3.794  32.613  11.970  1.00  0.00     0.165 HD
HETATM   33  S1  UNL     1      -5.151  31.421   9.158  1.00  0.00    -0.082 SA
ENDBRANCH  24  27
ENDBRANCH  20  21
ENDBRANCH   1  20
TORSDOF 8
ENDMDL
