MODEL 18
REMARK VINA RESULT: -6.775635602      3.876     10.734
REMARK  10 active torsions:
REMARK  status: ('A' for Active; 'I' for Inactive)
REMARK       I    between atoms: C2_2  and  N1_4 
REMARK    1  A    between atoms: N1_4  and  C3_6 
REMARK    2  A    between atoms: C3_6  and  C4_7 
REMARK    3  A    between atoms: C3_6  and  C21_35 
REMARK    4  A    between atoms: C4_7  and  O2_8 
REMARK    5  A    between atoms: C4_7  and  N2_10 
REMARK    6  A    between atoms: C6_12  and  O3_13 
REMARK    7  A    between atoms: C8_16  and  C9_17 
REMARK       I    between atoms: C9_17  and  N3_19 
REMARK    8  A    between atoms: N3_19  and  C10_21 
REMARK    9  A    between atoms: C10_21  and  C11_22 
REMARK   10  A    between atoms: C14_25  and  C15_26 
ROOT
HETATM    1  N2  UNL     1      11.391  50.445  86.812  1.00  0.00    -0.348 N 
HETATM    2  C5  UNL     1      11.528  49.557  87.911  1.00  0.00     0.157 C 
HETATM    3  C6  UNL     1      10.084  49.581  88.457  1.00  0.00     0.138 C 
HETATM    4  C7  UNL     1       9.949  51.112  88.591  1.00  0.00     0.068 C 
HETATM    5  C8  UNL     1      10.796  51.655  87.470  1.00  0.00     0.180 C 
ENDROOT
BRANCH   5   6
HETATM    6  C9  UNL     1      11.829  52.544  87.990  1.00  0.00     0.240 C 
HETATM    7  O4  UNL     1      12.678  53.154  87.319  1.00  0.00    -0.271 OA
HETATM    8  N3  UNL     1      11.879  52.740  89.411  1.00  0.00    -0.355 N 
ATOM      9  H3  UNL     1      11.209  52.262  90.015  1.00  0.00     0.162 HD
BRANCH   8  10
HETATM   10  C10 UNL     1      12.880  53.614  89.992  1.00  0.00     0.161 C 
BRANCH  10  11
HETATM   11  C11 UNL     1      12.530  53.877  91.411  1.00  0.00    -0.040 A 
HETATM   12  C12 UNL     1      11.296  53.568  91.940  1.00  0.00     0.010 A 
HETATM   13  C13 UNL     1      10.989  53.831  93.254  1.00  0.00     0.013 A 
HETATM   14  C14 UNL     1      11.906  54.427  94.133  1.00  0.00    -0.017 A 
HETATM   15  C19 UNL     1      13.117  54.727  93.601  1.00  0.00     0.013 A 
HETATM   16  C20 UNL     1      13.435  54.461  92.262  1.00  0.00     0.010 A 
BRANCH  14  17
HETATM   17  C15 UNL     1      11.460  54.646  95.509  1.00  0.00     0.038 A 
HETATM   18  S1  UNL     1      11.406  53.438  96.766  1.00  0.00    -0.082 SA
HETATM   19  C16 UNL     1      10.784  54.393  98.022  1.00  0.00     0.139 A 
HETATM   20  N4  UNL     1      10.653  55.557  97.436  1.00  0.00    -0.362 N 
HETATM   21  C17 UNL     1      10.976  55.729  96.186  1.00  0.00     0.023 A 
ATOM     22  H4  UNL     1      10.289  56.347  97.970  1.00  0.00     0.165 HD
HETATM   23  C18 UNL     1      10.792  57.093  95.537  1.00  0.00     0.069 C 
ENDBRANCH  14  17
ENDBRANCH  10  11
ENDBRANCH   8  10
ENDBRANCH   5   6
BRANCH   1  24
HETATM   24  C4  UNL     1      11.657  50.391  85.471  1.00  0.00     0.138 C 
BRANCH  24  25
HETATM   25  C3  UNL     1      11.518  51.224  84.290  1.00  0.00     0.166 C 
BRANCH  25  26
HETATM   26  N1  UNL     1      12.746  50.985  83.449  1.00  0.00    -0.349 N 
HETATM   27  C2  UNL     1      13.850  51.868  83.496  1.00  0.00     0.214 C 
HETATM   28  C1  UNL     1      15.074  51.649  82.673  1.00  0.00     0.117 C 
HETATM   29  O1  UNL     1      13.799  52.864  84.253  1.00  0.00    -0.274 OA
ATOM     30  H1  UNL     1      12.782  50.171  82.834  1.00  0.00     0.163 HD
ENDBRANCH  25  26
BRANCH  25  31
HETATM   31  C21 UNL     1      10.324  51.216  83.435  1.00  0.00    -0.023 C 
HETATM   32  C22 UNL     1      10.485  50.708  82.033  1.00  0.00     0.017 C 
HETATM   33  C23 UNL     1       9.679  52.607  83.338  1.00  0.00     0.017 C 
HETATM   34  C24 UNL     1       9.207  50.339  84.059  1.00  0.00     0.017 C 
ENDBRANCH  25  31
ENDBRANCH  24  25
BRANCH  24  35
HETATM   35  O2  UNL     1      12.218  49.205  85.111  1.00  0.00    -0.348 OA
ATOM     36  H2  UNL     1      12.839  49.357  84.409  1.00  0.00     0.219 HD
ENDBRANCH  24  35
ENDBRANCH   1  24
BRANCH   3  37
HETATM   37  O3  UNL     1       9.158  49.173  87.534  1.00  0.00    -0.394 OA
ATOM     38  H3  UNL     1       8.624  49.887  87.207  1.00  0.00     0.210 HD
ENDBRANCH   3  37
TORSDOF 10
ENDMDL
