MODEL 1
REMARK VINA RESULT: -7.655008555      0.000      0.000
REMARK  10 active torsions:
REMARK  status: ('A' for Active; 'I' for Inactive)
REMARK       I    between atoms: C2_2  and  N1_4 
REMARK    1  A    between atoms: N1_4  and  C3_6 
REMARK    2  A    between atoms: C3_6  and  C4_7 
REMARK    3  A    between atoms: C3_6  and  C21_35 
REMARK    4  A    between atoms: C4_7  and  O2_8 
REMARK    5  A    between atoms: C4_7  and  N2_10 
REMARK    6  A    between atoms: C6_12  and  O3_13 
REMARK    7  A    between atoms: C8_16  and  C9_17 
REMARK       I    between atoms: C9_17  and  N3_19 
REMARK    8  A    between atoms: N3_19  and  C10_21 
REMARK    9  A    between atoms: C10_21  and  C11_22 
REMARK   10  A    between atoms: C14_25  and  C15_26 
ROOT
HETATM    1  N2  UNL     1      12.711  53.953  90.961  1.00  0.00    -0.348 N 
HETATM    2  C5  UNL     1      14.089  53.877  90.629  1.00  0.00     0.157 C 
HETATM    3  C6  UNL     1      14.205  55.093  89.682  1.00  0.00     0.138 C 
HETATM    4  C7  UNL     1      13.060  54.705  88.724  1.00  0.00     0.068 C 
HETATM    5  C8  UNL     1      12.073  53.983  89.603  1.00  0.00     0.180 C 
ENDROOT
BRANCH   5   6
HETATM    6  C9  UNL     1      11.822  52.637  89.099  1.00  0.00     0.240 C 
HETATM    7  O4  UNL     1      12.038  51.575  89.706  1.00  0.00    -0.271 OA
HETATM    8  N3  UNL     1      11.276  52.517  87.777  1.00  0.00    -0.355 N 
ATOM      9  H3  UNL     1      11.080  53.355  87.229  1.00  0.00     0.162 HD
BRANCH   8  10
HETATM   10  C10 UNL     1      11.000  51.207  87.219  1.00  0.00     0.161 C 
BRANCH  10  11
HETATM   11  C11 UNL     1      11.682  51.086  85.906  1.00  0.00    -0.040 A 
HETATM   12  C12 UNL     1      11.828  49.881  85.254  1.00  0.00     0.010 A 
HETATM   13  C13 UNL     1      12.475  49.791  84.044  1.00  0.00     0.013 A 
HETATM   14  C14 UNL     1      13.023  50.910  83.401  1.00  0.00    -0.017 A 
HETATM   15  C19 UNL     1      12.873  52.091  84.052  1.00  0.00     0.013 A 
HETATM   16  C20 UNL     1      12.216  52.189  85.286  1.00  0.00     0.010 A 
BRANCH  14  17
HETATM   17  C15 UNL     1      13.678  50.682  82.112  1.00  0.00     0.038 A 
HETATM   18  S1  UNL     1      12.965  49.883  80.736  1.00  0.00    -0.082 SA
HETATM   19  C16 UNL     1      14.281  49.971  79.670  1.00  0.00     0.139 A 
HETATM   20  N4  UNL     1      15.176  50.591  80.398  1.00  0.00    -0.362 N 
HETATM   21  C17 UNL     1      14.920  50.962  81.619  1.00  0.00     0.023 A 
ATOM     22  H4  UNL     1      16.095  50.787  80.000  1.00  0.00     0.165 HD
HETATM   23  C18 UNL     1      15.994  51.665  82.438  1.00  0.00     0.069 C 
ENDBRANCH  14  17
ENDBRANCH  10  11
ENDBRANCH   8  10
ENDBRANCH   5   6
BRANCH   1  24
HETATM   24  C4  UNL     1      11.984  54.004  92.119  1.00  0.00     0.138 C 
BRANCH  24  25
HETATM   25  C3  UNL     1      12.204  53.999  93.553  1.00  0.00     0.166 C 
BRANCH  25  26
HETATM   26  N1  UNL     1      11.031  54.717  94.170  1.00  0.00    -0.349 N 
HETATM   27  C2  UNL     1      11.195  55.961  94.822  1.00  0.00     0.214 C 
HETATM   28  C1  UNL     1      10.048  56.689  95.438  1.00  0.00     0.117 C 
HETATM   29  O1  UNL     1      12.338  56.470  94.884  1.00  0.00    -0.274 OA
ATOM     30  H1  UNL     1      10.102  54.298  94.117  1.00  0.00     0.163 HD
ENDBRANCH  25  26
BRANCH  25  31
HETATM   31  C21 UNL     1      12.495  52.779  94.318  1.00  0.00    -0.023 C 
HETATM   32  C22 UNL     1      13.321  52.927  95.561  1.00  0.00     0.017 C 
HETATM   33  C23 UNL     1      13.175  51.708  93.452  1.00  0.00     0.017 C 
HETATM   34  C24 UNL     1      11.182  52.094  94.781  1.00  0.00     0.017 C 
ENDBRANCH  25  31
ENDBRANCH  24  25
BRANCH  24  35
HETATM   35  O2  UNL     1      10.648  54.080  91.876  1.00  0.00    -0.348 OA
ATOM     36  H2  UNL     1      10.510  54.498  91.034  1.00  0.00     0.219 HD
ENDBRANCH  24  35
ENDBRANCH   1  24
BRANCH   3  37
HETATM   37  O3  UNL     1      13.847  56.271  90.282  1.00  0.00    -0.394 OA
ATOM     38  H3  UNL     1      14.586  56.849  90.428  1.00  0.00     0.210 HD
ENDBRANCH   3  37
TORSDOF 10
ENDMDL
