MODEL 14
REMARK VINA RESULT: -6.914374728      3.191      5.943
REMARK  10 active torsions:
REMARK  status: ('A' for Active; 'I' for Inactive)
REMARK       I    between atoms: C2_2  and  N1_4 
REMARK    1  A    between atoms: N1_4  and  C3_6 
REMARK    2  A    between atoms: C3_6  and  C4_7 
REMARK    3  A    between atoms: C3_6  and  C21_35 
REMARK    4  A    between atoms: C4_7  and  O2_8 
REMARK    5  A    between atoms: C4_7  and  N2_10 
REMARK    6  A    between atoms: C6_12  and  O3_13 
REMARK    7  A    between atoms: C8_16  and  C9_17 
REMARK       I    between atoms: C9_17  and  N3_19 
REMARK    8  A    between atoms: N3_19  and  C10_21 
REMARK    9  A    between atoms: C10_21  and  C11_22 
REMARK   10  A    between atoms: C14_25  and  C15_26 
ROOT
HETATM    1  N2  UNL     1      10.678  51.264  88.694  1.00  0.00    -0.348 N 
HETATM    2  C5  UNL     1      11.499  50.457  89.525  1.00  0.00     0.157 C 
HETATM    3  C6  UNL     1      11.068  50.977  90.914  1.00  0.00     0.138 C 
HETATM    4  C7  UNL     1      11.314  52.476  90.648  1.00  0.00     0.068 C 
HETATM    5  C8  UNL     1      11.016  52.643  89.181  1.00  0.00     0.180 C 
ENDROOT
BRANCH   5   6
HETATM    6  C9  UNL     1      12.173  53.190  88.479  1.00  0.00     0.240 C 
HETATM    7  O4  UNL     1      13.179  53.695  89.005  1.00  0.00    -0.271 OA
HETATM    8  N3  UNL     1      12.157  53.146  87.044  1.00  0.00    -0.355 N 
ATOM      9  H3  UNL     1      11.355  52.746  86.556  1.00  0.00     0.162 HD
BRANCH   8  10
HETATM   10  C10 UNL     1      13.277  53.669  86.287  1.00  0.00     0.161 C 
BRANCH  10  11
HETATM   11  C11 UNL     1      13.401  52.910  85.017  1.00  0.00    -0.040 A 
HETATM   12  C12 UNL     1      12.455  51.998  84.603  1.00  0.00     0.010 A 
HETATM   13  C13 UNL     1      12.596  51.296  83.429  1.00  0.00     0.013 A 
HETATM   14  C14 UNL     1      13.704  51.461  82.585  1.00  0.00    -0.017 A 
HETATM   15  C19 UNL     1      14.630  52.361  83.004  1.00  0.00     0.013 A 
HETATM   16  C20 UNL     1      14.491  53.079  84.200  1.00  0.00     0.010 A 
BRANCH  14  17
HETATM   17  C15 UNL     1      13.732  50.662  81.360  1.00  0.00     0.038 A 
HETATM   18  S1  UNL     1      12.600  49.402  80.942  1.00  0.00    -0.082 SA
HETATM   19  C16 UNL     1      13.263  48.937  79.452  1.00  0.00     0.139 A 
HETATM   20  N4  UNL     1      14.289  49.746  79.349  1.00  0.00    -0.362 N 
HETATM   21  C17 UNL     1      14.561  50.620  80.276  1.00  0.00     0.023 A 
ATOM     22  H4  UNL     1      14.889  49.690  78.525  1.00  0.00     0.165 HD
HETATM   23  C18 UNL     1      15.772  51.529  80.127  1.00  0.00     0.069 C 
ENDBRANCH  14  17
ENDBRANCH  10  11
ENDBRANCH   8  10
ENDBRANCH   5   6
BRANCH   1  24
HETATM   24  C4  UNL     1       9.773  51.037  87.694  1.00  0.00     0.138 C 
BRANCH  24  25
HETATM   25  C3  UNL     1       8.668  51.714  87.039  1.00  0.00     0.166 C 
BRANCH  25  26
HETATM   26  N1  UNL     1       8.642  51.216  85.616  1.00  0.00    -0.349 N 
HETATM   27  C2  UNL     1       8.930  52.078  84.533  1.00  0.00     0.214 C 
HETATM   28  C1  UNL     1       8.910  51.605  83.119  1.00  0.00     0.117 C 
HETATM   29  O1  UNL     1       9.212  53.275  84.768  1.00  0.00    -0.274 OA
ATOM     30  H1  UNL     1       8.411  50.239  85.432  1.00  0.00     0.163 HD
ENDBRANCH  25  26
BRANCH  25  31
HETATM   31  C21 UNL     1       7.303  51.736  87.581  1.00  0.00    -0.023 C 
HETATM   32  C22 UNL     1       7.153  51.676  89.072  1.00  0.00     0.017 C 
HETATM   33  C23 UNL     1       6.436  50.611  86.997  1.00  0.00     0.017 C 
HETATM   34  C24 UNL     1       6.561  53.029  87.150  1.00  0.00     0.017 C 
ENDBRANCH  25  31
ENDBRANCH  24  25
BRANCH  24  35
HETATM   35  O2  UNL     1       9.935  49.809  87.131  1.00  0.00    -0.348 OA
ATOM     36  H2  UNL     1       9.577  49.824  86.251  1.00  0.00     0.219 HD
ENDBRANCH  24  35
ENDBRANCH   1  24
BRANCH   3  37
HETATM   37  O3  UNL     1       9.728  50.823  91.149  1.00  0.00    -0.394 OA
ATOM     38  H3  UNL     1       9.197  51.464  90.691  1.00  0.00     0.210 HD
ENDBRANCH   3  37
TORSDOF 10
ENDMDL
