MODEL 11
REMARK VINA RESULT: -7.046845819      3.782     10.675
REMARK  10 active torsions:
REMARK  status: ('A' for Active; 'I' for Inactive)
REMARK       I    between atoms: C2_2  and  N1_4 
REMARK    1  A    between atoms: N1_4  and  C3_6 
REMARK    2  A    between atoms: C3_6  and  C4_7 
REMARK    3  A    between atoms: C3_6  and  C21_35 
REMARK    4  A    between atoms: C4_7  and  O2_8 
REMARK    5  A    between atoms: C4_7  and  N2_10 
REMARK    6  A    between atoms: C6_12  and  O3_13 
REMARK    7  A    between atoms: C8_16  and  C9_17 
REMARK       I    between atoms: C9_17  and  N3_19 
REMARK    8  A    between atoms: N3_19  and  C10_21 
REMARK    9  A    between atoms: C10_21  and  C11_22 
REMARK   10  A    between atoms: C14_25  and  C15_26 
ROOT
HETATM    1  N2  UNL     1      11.549  50.900  85.643  1.00  0.00    -0.348 N 
HETATM    2  C5  UNL     1      11.196  50.208  86.832  1.00  0.00     0.157 C 
HETATM    3  C6  UNL     1       9.721  50.646  86.970  1.00  0.00     0.138 C 
HETATM    4  C7  UNL     1       9.960  52.167  86.891  1.00  0.00     0.068 C 
HETATM    5  C8  UNL     1      11.152  52.307  85.981  1.00  0.00     0.180 C 
ENDROOT
BRANCH   5   6
HETATM    6  C9  UNL     1      12.232  53.021  86.653  1.00  0.00     0.240 C 
HETATM    7  O4  UNL     1      13.289  53.413  86.131  1.00  0.00    -0.271 OA
HETATM    8  N3  UNL     1      12.070  53.301  88.052  1.00  0.00    -0.355 N 
ATOM      9  H3  UNL     1      11.224  53.000  88.536  1.00  0.00     0.162 HD
BRANCH   8  10
HETATM   10  C10 UNL     1      13.105  54.011  88.777  1.00  0.00     0.161 C 
BRANCH  10  11
HETATM   11  C11 UNL     1      12.776  54.001  90.225  1.00  0.00    -0.040 A 
HETATM   12  C12 UNL     1      13.676  54.391  91.193  1.00  0.00     0.010 A 
HETATM   13  C13 UNL     1      13.354  54.362  92.529  1.00  0.00     0.013 A 
HETATM   14  C14 UNL     1      12.099  53.936  92.990  1.00  0.00    -0.017 A 
HETATM   15  C19 UNL     1      11.222  53.555  92.028  1.00  0.00     0.013 A 
HETATM   16  C20 UNL     1      11.545  53.582  90.664  1.00  0.00     0.010 A 
BRANCH  14  17
HETATM   17  C15 UNL     1      11.878  53.961  94.436  1.00  0.00     0.038 A 
HETATM   18  S1  UNL     1      11.901  52.573  95.492  1.00  0.00    -0.082 SA
HETATM   19  C16 UNL     1      11.554  53.352  96.958  1.00  0.00     0.139 A 
HETATM   20  N4  UNL     1      11.442  54.601  96.579  1.00  0.00    -0.362 N 
HETATM   21  C17 UNL     1      11.595  54.949  95.333  1.00  0.00     0.023 A 
ATOM     22  H4  UNL     1      11.230  55.317  97.275  1.00  0.00     0.165 HD
HETATM   23  C18 UNL     1      11.439  56.409  94.932  1.00  0.00     0.069 C 
ENDBRANCH  14  17
ENDBRANCH  10  11
ENDBRANCH   8  10
ENDBRANCH   5   6
BRANCH   1  24
HETATM   24  C4  UNL     1      12.091  50.557  84.435  1.00  0.00     0.138 C 
BRANCH  24  25
HETATM   25  C3  UNL     1      12.134  51.052  83.071  1.00  0.00     0.166 C 
BRANCH  25  26
HETATM   26  N1  UNL     1      13.498  50.705  82.530  1.00  0.00    -0.349 N 
HETATM   27  C2  UNL     1      14.599  51.575  82.709  1.00  0.00     0.214 C 
HETATM   28  C1  UNL     1      15.956  51.251  82.183  1.00  0.00     0.117 C 
HETATM   29  O1  UNL     1      14.430  52.650  83.328  1.00  0.00    -0.274 OA
ATOM     30  H1  UNL     1      13.629  49.828  82.027  1.00  0.00     0.163 HD
ENDBRANCH  25  26
BRANCH  25  31
HETATM   31  C21 UNL     1      11.109  50.736  82.067  1.00  0.00    -0.023 C 
HETATM   32  C22 UNL     1      10.398  49.422  82.201  1.00  0.00     0.017 C 
HETATM   33  C23 UNL     1      11.667  50.801  80.638  1.00  0.00     0.017 C 
HETATM   34  C24 UNL     1       9.987  51.807  82.070  1.00  0.00     0.017 C 
ENDBRANCH  25  31
ENDBRANCH  24  25
BRANCH  24  35
HETATM   35  O2  UNL     1      12.809  49.404  84.509  1.00  0.00    -0.348 OA
ATOM     36  H2  UNL     1      13.310  49.404  85.316  1.00  0.00     0.219 HD
ENDBRANCH  24  35
ENDBRANCH   1  24
BRANCH   3  37
HETATM   37  O3  UNL     1       8.959  50.300  85.886  1.00  0.00    -0.394 OA
ATOM     38  H3  UNL     1       8.321  50.965  85.656  1.00  0.00     0.210 HD
ENDBRANCH   3  37
TORSDOF 10
ENDMDL
