MODEL 12
REMARK VINA RESULT: -7.046708891      1.511      2.044
REMARK  10 active torsions:
REMARK  status: ('A' for Active; 'I' for Inactive)
REMARK       I    between atoms: C2_2  and  N1_4 
REMARK    1  A    between atoms: N1_4  and  C3_6 
REMARK    2  A    between atoms: C3_6  and  C4_7 
REMARK    3  A    between atoms: C3_6  and  C21_35 
REMARK    4  A    between atoms: C4_7  and  O2_8 
REMARK    5  A    between atoms: C4_7  and  N2_10 
REMARK    6  A    between atoms: C6_12  and  O3_13 
REMARK    7  A    between atoms: C8_16  and  C9_17 
REMARK       I    between atoms: C9_17  and  N3_19 
REMARK    8  A    between atoms: N3_19  and  C10_21 
REMARK    9  A    between atoms: C10_21  and  C11_22 
REMARK   10  A    between atoms: C14_25  and  C15_26 
ROOT
HETATM    1  N2  UNL     1      13.063  53.971  91.049  1.00  0.00    -0.348 N 
HETATM    2  C5  UNL     1      14.368  53.911  90.492  1.00  0.00     0.157 C 
HETATM    3  C6  UNL     1      14.332  55.164  89.589  1.00  0.00     0.138 C 
HETATM    4  C7  UNL     1      13.044  54.814  88.818  1.00  0.00     0.068 C 
HETATM    5  C8  UNL     1      12.211  54.055  89.817  1.00  0.00     0.180 C 
ENDROOT
BRANCH   5   6
HETATM    6  C9  UNL     1      11.875  52.730  89.307  1.00  0.00     0.240 C 
HETATM    7  O4  UNL     1      11.933  51.663  89.941  1.00  0.00    -0.271 OA
HETATM    8  N3  UNL     1      11.434  52.639  87.944  1.00  0.00    -0.355 N 
ATOM      9  H3  UNL     1      11.368  53.481  87.372  1.00  0.00     0.162 HD
BRANCH   8  10
HETATM   10  C10 UNL     1      11.081  51.351  87.377  1.00  0.00     0.161 C 
BRANCH  10  11
HETATM   11  C11 UNL     1      11.697  51.229  86.032  1.00  0.00    -0.040 A 
HETATM   12  C12 UNL     1      11.811  50.023  85.375  1.00  0.00     0.010 A 
HETATM   13  C13 UNL     1      12.396  49.930  84.135  1.00  0.00     0.013 A 
HETATM   14  C14 UNL     1      12.911  51.049  83.463  1.00  0.00    -0.017 A 
HETATM   15  C19 UNL     1      12.794  52.230  84.119  1.00  0.00     0.013 A 
HETATM   16  C20 UNL     1      12.198  52.331  85.384  1.00  0.00     0.010 A 
BRANCH  14  17
HETATM   17  C15 UNL     1      13.501  50.819  82.144  1.00  0.00     0.038 A 
HETATM   18  S1  UNL     1      15.171  51.084  81.716  1.00  0.00    -0.082 SA
HETATM   19  C16 UNL     1      15.098  50.640  80.081  1.00  0.00     0.139 A 
HETATM   20  N4  UNL     1      13.835  50.318  79.946  1.00  0.00    -0.362 N 
HETATM   21  C17 UNL     1      13.004  50.393  80.946  1.00  0.00     0.023 A 
ATOM     22  H4  UNL     1      13.495  50.002  79.038  1.00  0.00     0.165 HD
HETATM   23  C18 UNL     1      11.541  50.027  80.743  1.00  0.00     0.069 C 
ENDBRANCH  14  17
ENDBRANCH  10  11
ENDBRANCH   8  10
ENDBRANCH   5   6
BRANCH   1  24
HETATM   24  C4  UNL     1      12.537  53.973  92.312  1.00  0.00     0.138 C 
BRANCH  24  25
HETATM   25  C3  UNL     1      11.880  53.059  93.228  1.00  0.00     0.166 C 
BRANCH  25  26
HETATM   26  N1  UNL     1      10.637  52.570  92.530  1.00  0.00    -0.349 N 
HETATM   27  C2  UNL     1       9.378  53.168  92.771  1.00  0.00     0.214 C 
HETATM   28  C1  UNL     1       8.137  52.700  92.090  1.00  0.00     0.117 C 
HETATM   29  O1  UNL     1       9.303  54.121  93.580  1.00  0.00    -0.274 OA
ATOM     30  H1  UNL     1      10.704  51.793  91.872  1.00  0.00     0.163 HD
ENDBRANCH  25  26
BRANCH  25  31
HETATM   31  C21 UNL     1      12.567  51.928  93.866  1.00  0.00    -0.023 C 
HETATM   32  C22 UNL     1      13.626  51.227  93.068  1.00  0.00     0.017 C 
HETATM   33  C23 UNL     1      11.579  50.853  94.342  1.00  0.00     0.017 C 
HETATM   34  C24 UNL     1      13.273  52.378  95.171  1.00  0.00     0.017 C 
ENDBRANCH  25  31
ENDBRANCH  24  25
BRANCH  24  35
HETATM   35  O2  UNL     1      12.648  55.192  92.906  1.00  0.00    -0.348 OA
ATOM     36  H2  UNL     1      12.011  55.782  92.521  1.00  0.00     0.219 HD
ENDBRANCH  24  35
ENDBRANCH   1  24
BRANCH   3  37
HETATM   37  O3  UNL     1      14.084  56.317  90.287  1.00  0.00    -0.394 OA
ATOM     38  H3  UNL     1      13.182  56.386  90.576  1.00  0.00     0.210 HD
ENDBRANCH   3  37
TORSDOF 10
ENDMDL
