MODEL 9
REMARK VINA RESULT: -6.908118299      2.001      4.631
REMARK  7 active torsions:
REMARK  status: ('A' for Active; 'I' for Inactive)
REMARK       I    between atoms: C2_2  and  N1_4 
REMARK    1  A    between atoms: C4_6  and  O2_7 
REMARK    2  A    between atoms: C6_10  and  C7_11 
REMARK       I    between atoms: C7_11  and  N2_13 
REMARK    3  A    between atoms: C9_15  and  O4_16 
REMARK    4  A    between atoms: C11_19  and  C12_20 
REMARK       I    between atoms: C12_20  and  N3_22 
REMARK    5  A    between atoms: N3_22  and  C13_24 
REMARK    6  A    between atoms: C13_24  and  C14_25 
REMARK    7  A    between atoms: C17_28  and  C18_29 
ROOT
HETATM    1  C7  UNL     1       9.495  53.051  88.570  1.00  0.00     0.243 C 
HETATM    2  O3  UNL     1       9.081  54.238  88.789  1.00  0.00    -0.271 OA
HETATM    3  N2  UNL     1      10.773  52.673  89.008  1.00  0.00    -0.334 N 
HETATM    4  C8  UNL     1      11.368  51.380  88.832  1.00  0.00     0.158 C 
HETATM    5  C9  UNL     1      12.038  51.144  90.171  1.00  0.00     0.138 C 
HETATM    6  C10 UNL     1      12.252  52.521  90.760  1.00  0.00     0.068 C 
HETATM    7  C11 UNL     1      11.714  53.489  89.710  1.00  0.00     0.181 C 
ENDROOT
BRANCH   7   8
HETATM    8  C12 UNL     1      12.814  53.924  88.778  1.00  0.00     0.241 C 
HETATM    9  O5  UNL     1      13.948  54.266  89.196  1.00  0.00    -0.271 OA
HETATM   10  N3  UNL     1      12.597  53.962  87.371  1.00  0.00    -0.355 N 
ATOM     11  H3  UNL     1      11.684  53.688  87.006  1.00  0.00     0.162 HD
BRANCH  10  12
HETATM   12  C13 UNL     1      13.621  54.373  86.442  1.00  0.00     0.161 C 
BRANCH  12  13
HETATM   13  C14 UNL     1      13.598  53.477  85.267  1.00  0.00    -0.040 A 
HETATM   14  C15 UNL     1      12.532  52.653  85.030  1.00  0.00     0.010 A 
HETATM   15  C16 UNL     1      12.536  51.836  83.927  1.00  0.00     0.013 A 
HETATM   16  C17 UNL     1      13.605  51.805  83.012  1.00  0.00    -0.017 A 
HETATM   17  C22 UNL     1      14.644  52.629  83.271  1.00  0.00     0.013 A 
HETATM   18  C23 UNL     1      14.651  53.473  84.400  1.00  0.00     0.010 A 
BRANCH  16  19
HETATM   19  C18 UNL     1      13.449  50.874  81.899  1.00  0.00     0.038 A 
HETATM   20  S1  UNL     1      12.180  49.685  81.730  1.00  0.00    -0.082 SA
HETATM   21  C19 UNL     1      12.641  49.013  80.239  1.00  0.00     0.139 A 
HETATM   22  N4  UNL     1      13.711  49.711  79.952  1.00  0.00    -0.362 N 
HETATM   23  C20 UNL     1      14.144  50.645  80.750  1.00  0.00     0.023 A 
ATOM     24  H4  UNL     1      14.215  49.520  79.086  1.00  0.00     0.165 HD
HETATM   25  C21 UNL     1      15.389  51.436  80.376  1.00  0.00     0.069 C 
ENDBRANCH  16  19
ENDBRANCH  12  13
ENDBRANCH  10  12
ENDBRANCH   7   8
BRANCH   1  26
HETATM   26  C6  UNL     1       8.569  52.138  87.850  1.00  0.00     0.182 C 
HETATM   27  N1  UNL     1       7.328  51.961  88.576  1.00  0.00    -0.337 N 
HETATM   28  C2  UNL     1       7.264  51.501  89.905  1.00  0.00     0.216 C 
HETATM   29  C3  UNL     1       6.200  52.319  87.743  1.00  0.00     0.158 C 
HETATM   30  C1  UNL     1       5.957  51.349  90.570  1.00  0.00     0.117 C 
HETATM   31  O1  UNL     1       8.298  51.206  90.577  1.00  0.00    -0.274 OA
HETATM   32  C4  UNL     1       6.769  53.415  86.872  1.00  0.00     0.138 C 
HETATM   33  C5  UNL     1       8.162  52.867  86.579  1.00  0.00     0.068 C 
BRANCH  32  34
HETATM   34  O2  UNL     1       6.098  53.585  85.686  1.00  0.00    -0.394 OA
ATOM     35  H2  UNL     1       6.222  52.873  85.070  1.00  0.00     0.210 HD
ENDBRANCH  32  34
ENDBRANCH   1  26
BRANCH   5  36
HETATM   36  O4  UNL     1      11.121  50.408  90.945  1.00  0.00    -0.394 OA
ATOM     37  H4  UNL     1      10.418  50.158  90.356  1.00  0.00     0.210 HD
ENDBRANCH   5  36
TORSDOF 7
ENDMDL
