MODEL 5
REMARK VINA RESULT: -7.040112599      4.031      9.804
REMARK  7 active torsions:
REMARK  status: ('A' for Active; 'I' for Inactive)
REMARK       I    between atoms: C2_2  and  N1_4 
REMARK    1  A    between atoms: C4_6  and  O2_7 
REMARK    2  A    between atoms: C6_10  and  C7_11 
REMARK       I    between atoms: C7_11  and  N2_13 
REMARK    3  A    between atoms: C9_15  and  O4_16 
REMARK    4  A    between atoms: C11_19  and  C12_20 
REMARK       I    between atoms: C12_20  and  N3_22 
REMARK    5  A    between atoms: N3_22  and  C13_24 
REMARK    6  A    between atoms: C13_24  and  C14_25 
REMARK    7  A    between atoms: C17_28  and  C18_29 
ROOT
HETATM    1  C7  UNL     1      12.017  51.110  83.060  1.00  0.00     0.243 C 
HETATM    2  O3  UNL     1      11.769  52.048  82.231  1.00  0.00    -0.271 OA
HETATM    3  N2  UNL     1      11.832  51.332  84.432  1.00  0.00    -0.334 N 
HETATM    4  C8  UNL     1      12.071  50.376  85.473  1.00  0.00     0.158 C 
HETATM    5  C9  UNL     1      10.887  50.594  86.394  1.00  0.00     0.138 C 
HETATM    6  C10 UNL     1      10.411  52.002  86.109  1.00  0.00     0.068 C 
HETATM    7  C11 UNL     1      11.370  52.536  85.049  1.00  0.00     0.181 C 
ENDROOT
BRANCH   7   8
HETATM    8  C12 UNL     1      12.523  53.259  85.694  1.00  0.00     0.241 C 
HETATM    9  O5  UNL     1      13.556  53.575  85.054  1.00  0.00    -0.271 OA
HETATM   10  N3  UNL     1      12.476  53.609  87.074  1.00  0.00    -0.355 N 
ATOM     11  H3  UNL     1      11.649  53.363  87.616  1.00  0.00     0.162 HD
BRANCH  10  12
HETATM   12  C13 UNL     1      13.559  54.300  87.732  1.00  0.00     0.161 C 
BRANCH  12  13
HETATM   13  C14 UNL     1      13.340  54.263  89.193  1.00  0.00    -0.040 A 
HETATM   14  C15 UNL     1      12.209  53.704  89.723  1.00  0.00     0.010 A 
HETATM   15  C16 UNL     1      12.036  53.679  91.083  1.00  0.00     0.013 A 
HETATM   16  C17 UNL     1      12.984  54.210  91.977  1.00  0.00    -0.017 A 
HETATM   17  C22 UNL     1      14.092  54.755  91.427  1.00  0.00     0.013 A 
HETATM   18  C23 UNL     1      14.281  54.787  90.031  1.00  0.00     0.010 A 
BRANCH  16  19
HETATM   19  C18 UNL     1      12.639  54.106  93.392  1.00  0.00     0.038 A 
HETATM   20  S1  UNL     1      11.823  55.326  94.339  1.00  0.00    -0.082 SA
HETATM   21  C19 UNL     1      11.769  54.515  95.830  1.00  0.00     0.139 A 
HETATM   22  N4  UNL     1      12.360  53.382  95.539  1.00  0.00    -0.362 N 
HETATM   23  C20 UNL     1      12.805  53.141  94.339  1.00  0.00     0.023 A 
ATOM     24  H4  UNL     1      12.473  52.676  96.265  1.00  0.00     0.165 HD
HETATM   25  C21 UNL     1      13.480  51.810  94.041  1.00  0.00     0.069 C 
ENDBRANCH  16  19
ENDBRANCH  12  13
ENDBRANCH  10  12
ENDBRANCH   7   8
BRANCH   1  26
HETATM   26  C6  UNL     1      12.496  49.822  82.492  1.00  0.00     0.182 C 
HETATM   27  N1  UNL     1      11.560  49.288  81.524  1.00  0.00    -0.337 N 
HETATM   28  C2  UNL     1      10.206  49.030  81.813  1.00  0.00     0.216 C 
HETATM   29  C3  UNL     1      12.217  49.068  80.253  1.00  0.00     0.158 C 
HETATM   30  C1  UNL     1       9.321  48.485  80.767  1.00  0.00     0.117 C 
HETATM   31  O1  UNL     1       9.697  49.248  82.953  1.00  0.00    -0.274 OA
HETATM   32  C4  UNL     1      13.256  50.166  80.227  1.00  0.00     0.138 C 
HETATM   33  C5  UNL     1      13.735  50.155  81.675  1.00  0.00     0.068 C 
BRANCH  32  34
HETATM   34  O2  UNL     1      14.322  49.899  79.403  1.00  0.00    -0.394 OA
ATOM     35  H2  UNL     1      15.164  50.119  79.783  1.00  0.00     0.210 HD
ENDBRANCH  32  34
ENDBRANCH   1  26
BRANCH   5  36
HETATM   36  O4  UNL     1       9.912  49.652  86.011  1.00  0.00    -0.394 OA
ATOM     37  H4  UNL     1      10.385  48.860  85.783  1.00  0.00     0.210 HD
ENDBRANCH   5  36
TORSDOF 7
ENDMDL
