MODEL 10
REMARK VINA RESULT: -6.876986822      6.216     10.396
REMARK  7 active torsions:
REMARK  status: ('A' for Active; 'I' for Inactive)
REMARK       I    between atoms: C2_2  and  N1_4 
REMARK    1  A    between atoms: C4_6  and  O2_7 
REMARK    2  A    between atoms: C6_10  and  C7_11 
REMARK       I    between atoms: C7_11  and  N2_13 
REMARK    3  A    between atoms: C9_15  and  O4_16 
REMARK    4  A    between atoms: C11_19  and  C12_20 
REMARK       I    between atoms: C12_20  and  N3_22 
REMARK    5  A    between atoms: N3_22  and  C13_24 
REMARK    6  A    between atoms: C13_24  and  C14_25 
REMARK    7  A    between atoms: C17_28  and  C18_29 
ROOT
HETATM    1  C7  UNL     1      15.722  49.157  96.687  1.00  0.00     0.243 C 
HETATM    2  O3  UNL     1      14.875  48.257  97.005  1.00  0.00    -0.271 OA
HETATM    3  N2  UNL     1      15.862  50.292  97.499  1.00  0.00    -0.334 N 
HETATM    4  C8  UNL     1      16.767  51.380  97.266  1.00  0.00     0.158 C 
HETATM    5  C9  UNL     1      17.294  51.668  98.657  1.00  0.00     0.138 C 
HETATM    6  C10 UNL     1      16.245  51.129  99.604  1.00  0.00     0.068 C 
HETATM    7  C11 UNL     1      15.144  50.578  98.703  1.00  0.00     0.181 C 
ENDROOT
BRANCH   7   8
HETATM    8  C12 UNL     1      14.098  51.628  98.441  1.00  0.00     0.241 C 
HETATM    9  O5  UNL     1      13.729  52.439  99.326  1.00  0.00    -0.271 OA
HETATM   10  N3  UNL     1      13.482  51.733  97.160  1.00  0.00    -0.355 N 
ATOM     11  H3  UNL     1      13.764  51.085  96.425  1.00  0.00     0.162 HD
BRANCH  10  12
HETATM   12  C13 UNL     1      12.475  52.723  96.867  1.00  0.00     0.161 C 
BRANCH  12  13
HETATM   13  C14 UNL     1      12.602  53.139  95.455  1.00  0.00    -0.040 A 
HETATM   14  C15 UNL     1      13.091  52.281  94.508  1.00  0.00     0.010 A 
HETATM   15  C16 UNL     1      13.192  52.693  93.203  1.00  0.00     0.013 A 
HETATM   16  C17 UNL     1      12.810  53.981  92.785  1.00  0.00    -0.017 A 
HETATM   17  C22 UNL     1      12.329  54.808  93.741  1.00  0.00     0.013 A 
HETATM   18  C23 UNL     1      12.221  54.395  95.083  1.00  0.00     0.010 A 
BRANCH  16  19
HETATM   19  C18 UNL     1      12.990  54.257  91.363  1.00  0.00     0.038 A 
HETATM   20  S1  UNL     1      14.421  54.932  90.624  1.00  0.00    -0.082 SA
HETATM   21  C19 UNL     1      13.904  54.951  89.007  1.00  0.00     0.139 A 
HETATM   22  N4  UNL     1      12.697  54.453  89.107  1.00  0.00    -0.362 N 
HETATM   23  C20 UNL     1      12.207  54.096  90.260  1.00  0.00     0.023 A 
ATOM     24  H4  UNL     1      12.129  54.344  88.267  1.00  0.00     0.165 HD
HETATM   25  C21 UNL     1      10.801  53.518  90.332  1.00  0.00     0.069 C 
ENDBRANCH  16  19
ENDBRANCH  12  13
ENDBRANCH  10  12
ENDBRANCH   7   8
BRANCH   1  26
HETATM   26  C6  UNL     1      16.512  48.928  95.449  1.00  0.00     0.182 C 
HETATM   27  N1  UNL     1      17.316  47.727  95.547  1.00  0.00    -0.337 N 
HETATM   28  C2  UNL     1      18.251  47.500  96.575  1.00  0.00     0.216 C 
HETATM   29  C3  UNL     1      17.014  46.827  94.455  1.00  0.00     0.158 C 
HETATM   30  C1  UNL     1      19.029  46.247  96.599  1.00  0.00     0.117 C 
HETATM   31  O1  UNL     1      18.464  48.336  97.503  1.00  0.00    -0.274 OA
HETATM   32  C4  UNL     1      15.550  47.103  94.197  1.00  0.00     0.138 C 
HETATM   33  C5  UNL     1      15.504  48.619  94.354  1.00  0.00     0.068 C 
BRANCH  32  34
HETATM   34  O2  UNL     1      15.140  46.773  92.928  1.00  0.00    -0.394 OA
ATOM     35  H2  UNL     1      14.198  46.799  92.812  1.00  0.00     0.210 HD
ENDBRANCH  32  34
ENDBRANCH   1  26
BRANCH   5  36
HETATM   36  O4  UNL     1      18.495  50.943  98.780  1.00  0.00    -0.394 OA
ATOM     37  H4  UNL     1      18.992  51.368  99.470  1.00  0.00     0.210 HD
ENDBRANCH   5  36
TORSDOF 7
ENDMDL
