MODEL 2
REMARK VINA RESULT: -6.906890242      1.942      3.205
REMARK  12 active torsions:
REMARK  status: ('A' for Active; 'I' for Inactive)
REMARK       I    between atoms: C2_2  and  N1_4 
REMARK    1  A    between atoms: N1_4  and  C3_6 
REMARK    2  A    between atoms: C3_6  and  C4_7 
REMARK    3  A    between atoms: C3_6  and  C8_11 
REMARK    4  A    between atoms: C4_7  and  C5_8 
REMARK       I    between atoms: C8_11  and  N2_13 
REMARK    5  A    between atoms: N2_13  and  C9_15 
REMARK    6  A    between atoms: C9_15  and  C10_16 
REMARK    7  A    between atoms: C9_15  and  C27_43 
REMARK       I    between atoms: C10_16  and  N3_18 
REMARK    8  A    between atoms: C12_20  and  O4_21 
REMARK    9  A    between atoms: C14_24  and  C15_25 
REMARK       I    between atoms: C15_25  and  N4_27 
REMARK   10  A    between atoms: N4_27  and  C16_29 
REMARK   11  A    between atoms: C16_29  and  C17_30 
REMARK   12  A    between atoms: C20_33  and  C21_34 
ROOT
HETATM    1  C10 UNL     1       9.325  53.191  88.991  1.00  0.00     0.244 C 
HETATM    2  O3  UNL     1      10.060  54.189  88.607  1.00  0.00    -0.271 OA
HETATM    3  N3  UNL     1       8.523  52.652  87.989  1.00  0.00    -0.334 N 
HETATM    4  C11 UNL     1       8.414  53.155  86.605  1.00  0.00     0.158 C 
HETATM    5  C12 UNL     1       6.985  52.868  86.229  1.00  0.00     0.138 C 
HETATM    6  C13 UNL     1       6.405  52.023  87.348  1.00  0.00     0.068 C 
HETATM    7  C14 UNL     1       7.673  51.512  88.014  1.00  0.00     0.181 C 
ENDROOT
BRANCH   1   8
HETATM    8  C9  UNL     1       9.488  52.826  90.391  1.00  0.00     0.184 C 
BRANCH   8   9
HETATM    9  N2  UNL     1      10.714  53.477  90.944  1.00  0.00    -0.342 N 
HETATM   10  C8  UNL     1      11.866  52.707  91.252  1.00  0.00     0.264 C 
HETATM   11  O2  UNL     1      11.765  51.475  91.029  1.00  0.00    -0.266 OA
ATOM     12  H2  UNL     1      10.723  54.485  91.103  1.00  0.00     0.163 HD
BRANCH  10  13
HETATM   13  C3  UNL     1      13.126  53.315  91.811  1.00  0.00     0.080 C 
BRANCH  13  14
HETATM   14  N1  UNL     1      14.030  53.787  90.830  1.00  0.00    -0.326 N 
HETATM   15  C2  UNL     1      13.830  54.910  90.003  1.00  0.00     0.218 C 
HETATM   16  C1  UNL     1      14.861  55.316  88.976  1.00  0.00     0.117 C 
HETATM   17  O1  UNL     1      12.826  55.612  90.067  1.00  0.00    -0.274 OA
ATOM     18  H1  UNL     1      14.901  53.269  90.711  1.00  0.00     0.168 HD
ENDBRANCH  13  14
BRANCH  13  19
HETATM   19  C4  UNL     1      12.891  54.192  92.982  1.00  0.00     0.067 C 
BRANCH  19  20
HETATM   20  C5  UNL     1      12.330  53.485  94.191  1.00  0.00    -0.017 C 
HETATM   21  C6  UNL     1      11.757  54.417  95.207  1.00  0.00     0.010 C 
HETATM   22  C7  UNL     1      13.366  52.601  94.852  1.00  0.00     0.010 C 
ENDBRANCH  19  20
ENDBRANCH  13  19
ENDBRANCH  10  13
ENDBRANCH   8   9
BRANCH   8  23
HETATM   23  C27 UNL     1       8.404  53.264  91.330  1.00  0.00    -0.022 C 
HETATM   24  C28 UNL     1       8.935  53.976  92.549  1.00  0.00     0.017 C 
HETATM   25  C29 UNL     1       7.806  51.951  91.884  1.00  0.00     0.017 C 
HETATM   26  C30 UNL     1       7.274  54.000  90.717  1.00  0.00     0.017 C 
ENDBRANCH   8  23
ENDBRANCH   1   8
BRANCH   7  27
HETATM   27  C15 UNL     1       8.229  50.414  87.119  1.00  0.00     0.241 C 
HETATM   28  O5  UNL     1       7.513  49.663  86.441  1.00  0.00    -0.271 OA
HETATM   29  N4  UNL     1       9.632  50.252  87.065  1.00  0.00    -0.355 N 
ATOM     30  H4  UNL     1      10.203  50.879  87.632  1.00  0.00     0.162 HD
BRANCH  29  31
HETATM   31  C16 UNL     1      10.320  49.261  86.262  1.00  0.00     0.161 C 
BRANCH  31  32
HETATM   32  C17 UNL     1      11.094  49.788  85.148  1.00  0.00    -0.040 A 
HETATM   33  C18 UNL     1      11.093  51.128  84.863  1.00  0.00     0.010 A 
HETATM   34  C19 UNL     1      11.836  51.679  83.805  1.00  0.00     0.013 A 
HETATM   35  C20 UNL     1      12.589  50.895  83.017  1.00  0.00    -0.017 A 
HETATM   36  C25 UNL     1      12.600  49.516  83.296  1.00  0.00     0.013 A 
HETATM   37  C26 UNL     1      11.864  48.993  84.342  1.00  0.00     0.010 A 
BRANCH  35  38
HETATM   38  C21 UNL     1      13.422  51.336  81.875  1.00  0.00     0.038 A 
HETATM   39  S1  UNL     1      13.337  50.690  80.256  1.00  0.00    -0.082 SA
HETATM   40  C22 UNL     1      14.541  51.642  79.533  1.00  0.00     0.139 A 
HETATM   41  N5  UNL     1      14.938  52.386  80.538  1.00  0.00    -0.362 N 
HETATM   42  C23 UNL     1      14.400  52.259  81.721  1.00  0.00     0.023 A 
ATOM     43  H5  UNL     1      15.678  53.074  80.393  1.00  0.00     0.165 HD
HETATM   44  C24 UNL     1      14.896  53.141  82.860  1.00  0.00     0.069 C 
ENDBRANCH  35  38
ENDBRANCH  31  32
ENDBRANCH  29  31
ENDBRANCH   7  27
BRANCH   5  45
HETATM   45  O4  UNL     1       6.255  54.049  86.129  1.00  0.00    -0.394 OA
ATOM     46  H4  UNL     1       5.686  54.157  86.883  1.00  0.00     0.210 HD
ENDBRANCH   5  45
TORSDOF 12
ENDMDL
