MODEL 3
REMARK VINA RESULT: -6.895493096      3.899      9.995
REMARK  12 active torsions:
REMARK  status: ('A' for Active; 'I' for Inactive)
REMARK       I    between atoms: C2_2  and  N1_4 
REMARK    1  A    between atoms: N1_4  and  C3_6 
REMARK    2  A    between atoms: C3_6  and  C4_7 
REMARK    3  A    between atoms: C3_6  and  C8_11 
REMARK    4  A    between atoms: C4_7  and  C5_8 
REMARK       I    between atoms: C8_11  and  N2_13 
REMARK    5  A    between atoms: N2_13  and  C9_15 
REMARK    6  A    between atoms: C9_15  and  C10_16 
REMARK    7  A    between atoms: C9_15  and  C27_43 
REMARK       I    between atoms: C10_16  and  N3_18 
REMARK    8  A    between atoms: C12_20  and  O4_21 
REMARK    9  A    between atoms: C14_24  and  C15_25 
REMARK       I    between atoms: C15_25  and  N4_27 
REMARK   10  A    between atoms: N4_27  and  C16_29 
REMARK   11  A    between atoms: C16_29  and  C17_30 
REMARK   12  A    between atoms: C20_33  and  C21_34 
ROOT
HETATM    1  C10 UNL     1       8.618  51.385  84.818  1.00  0.00     0.244 C 
HETATM    2  O3  UNL     1       8.195  50.158  84.791  1.00  0.00    -0.271 OA
HETATM    3  N3  UNL     1       8.762  51.913  86.098  1.00  0.00    -0.334 N 
HETATM    4  C11 UNL     1       8.426  51.225  87.360  1.00  0.00     0.158 C 
HETATM    5  C12 UNL     1       7.965  52.337  88.265  1.00  0.00     0.138 C 
HETATM    6  C13 UNL     1       8.260  53.635  87.538  1.00  0.00     0.068 C 
HETATM    7  C14 UNL     1       9.283  53.170  86.514  1.00  0.00     0.181 C 
ENDROOT
BRANCH   1   8
HETATM    8  C9  UNL     1       8.863  51.966  83.506  1.00  0.00     0.184 C 
BRANCH   8   9
HETATM    9  N2  UNL     1       9.870  51.143  82.768  1.00  0.00    -0.342 N 
HETATM   10  C8  UNL     1      11.249  51.479  82.808  1.00  0.00     0.264 C 
HETATM   11  O2  UNL     1      11.536  52.493  83.491  1.00  0.00    -0.266 OA
ATOM     12  H2  UNL     1       9.562  50.332  82.231  1.00  0.00     0.163 HD
BRANCH  10  13
HETATM   13  C3  UNL     1      12.301  50.682  82.083  1.00  0.00     0.080 C 
BRANCH  13  14
HETATM   14  N1  UNL     1      12.087  50.568  80.689  1.00  0.00    -0.326 N 
HETATM   15  C2  UNL     1      11.251  49.623  80.061  1.00  0.00     0.218 C 
HETATM   16  C1  UNL     1      11.107  49.584  78.558  1.00  0.00     0.117 C 
HETATM   17  O1  UNL     1      10.601  48.793  80.688  1.00  0.00    -0.274 OA
ATOM     18  H1  UNL     1      12.582  51.227  80.086  1.00  0.00     0.168 HD
ENDBRANCH  13  14
BRANCH  13  19
HETATM   19  C4  UNL     1      13.682  50.983  82.526  1.00  0.00     0.067 C 
BRANCH  19  20
HETATM   20  C5  UNL     1      14.333  52.138  81.805  1.00  0.00    -0.017 C 
HETATM   21  C6  UNL     1      15.504  51.731  80.973  1.00  0.00     0.010 C 
HETATM   22  C7  UNL     1      14.756  53.230  82.765  1.00  0.00     0.010 C 
ENDBRANCH  19  20
ENDBRANCH  13  19
ENDBRANCH  10  13
ENDBRANCH   8   9
BRANCH   8  23
HETATM   23  C27 UNL     1       7.697  52.020  82.565  1.00  0.00    -0.022 C 
HETATM   24  C28 UNL     1       7.650  50.846  81.621  1.00  0.00     0.017 C 
HETATM   25  C29 UNL     1       7.981  53.234  81.652  1.00  0.00     0.017 C 
HETATM   26  C30 UNL     1       6.377  52.277  83.185  1.00  0.00     0.017 C 
ENDBRANCH   8  23
ENDBRANCH   1   8
BRANCH   7  27
HETATM   27  C15 UNL     1      10.597  52.982  87.257  1.00  0.00     0.241 C 
HETATM   28  O5  UNL     1      11.337  52.001  87.089  1.00  0.00    -0.271 OA
HETATM   29  N4  UNL     1      10.985  53.979  88.180  1.00  0.00    -0.355 N 
ATOM     30  H4  UNL     1      10.360  54.776  88.305  1.00  0.00     0.162 HD
BRANCH  29  31
HETATM   31  C16 UNL     1      12.205  53.953  88.963  1.00  0.00     0.161 C 
BRANCH  31  32
HETATM   32  C17 UNL     1      12.038  54.197  90.387  1.00  0.00    -0.040 A 
HETATM   33  C18 UNL     1      10.833  53.978  91.001  1.00  0.00     0.010 A 
HETATM   34  C19 UNL     1      10.633  54.189  92.377  1.00  0.00     0.013 A 
HETATM   35  C20 UNL     1      11.637  54.624  93.155  1.00  0.00    -0.017 A 
HETATM   36  C25 UNL     1      12.881  54.854  92.538  1.00  0.00     0.013 A 
HETATM   37  C26 UNL     1      13.058  54.640  91.186  1.00  0.00     0.010 A 
BRANCH  35  38
HETATM   38  C21 UNL     1      11.572  54.884  94.611  1.00  0.00     0.038 A 
HETATM   39  S1  UNL     1      11.755  53.679  95.859  1.00  0.00    -0.082 SA
HETATM   40  C22 UNL     1      11.564  54.680  97.216  1.00  0.00     0.139 A 
HETATM   41  N5  UNL     1      11.375  55.854  96.663  1.00  0.00    -0.362 N 
HETATM   42  C23 UNL     1      11.373  55.991  95.364  1.00  0.00     0.023 A 
ATOM     43  H5  UNL     1      11.226  56.672  97.255  1.00  0.00     0.165 HD
HETATM   44  C24 UNL     1      11.144  57.372  94.765  1.00  0.00     0.069 C 
ENDBRANCH  35  38
ENDBRANCH  31  32
ENDBRANCH  29  31
ENDBRANCH   7  27
BRANCH   5  45
HETATM   45  O4  UNL     1       6.595  52.249  88.494  1.00  0.00    -0.394 OA
ATOM     46  H4  UNL     1       6.143  51.937  87.717  1.00  0.00     0.210 HD
ENDBRANCH   5  45
TORSDOF 12
ENDMDL
