MODEL 1
REMARK VINA RESULT: -6.956861155      0.000      0.000
REMARK  12 active torsions:
REMARK  status: ('A' for Active; 'I' for Inactive)
REMARK       I    between atoms: C2_2  and  N1_4 
REMARK    1  A    between atoms: N1_4  and  C3_6 
REMARK    2  A    between atoms: C3_6  and  C4_7 
REMARK    3  A    between atoms: C3_6  and  C8_11 
REMARK    4  A    between atoms: C4_7  and  C5_8 
REMARK       I    between atoms: C8_11  and  N2_13 
REMARK    5  A    between atoms: N2_13  and  C9_15 
REMARK    6  A    between atoms: C9_15  and  C10_16 
REMARK    7  A    between atoms: C9_15  and  C27_43 
REMARK       I    between atoms: C10_16  and  N3_18 
REMARK    8  A    between atoms: C12_20  and  O4_21 
REMARK    9  A    between atoms: C14_24  and  C15_25 
REMARK       I    between atoms: C15_25  and  N4_27 
REMARK   10  A    between atoms: N4_27  and  C16_29 
REMARK   11  A    between atoms: C16_29  and  C17_30 
REMARK   12  A    between atoms: C20_33  and  C21_34 
ROOT
HETATM    1  C10 UNL     1       9.146  51.494  90.192  1.00  0.00     0.244 C 
HETATM    2  O3  UNL     1       8.035  51.077  90.716  1.00  0.00    -0.271 OA
HETATM    3  N3  UNL     1      10.061  50.484  89.908  1.00  0.00    -0.334 N 
HETATM    4  C11 UNL     1       9.883  49.049  90.205  1.00  0.00     0.158 C 
HETATM    5  C12 UNL     1      11.278  48.566  90.503  1.00  0.00     0.138 C 
HETATM    6  C13 UNL     1      12.213  49.709  90.156  1.00  0.00     0.068 C 
HETATM    7  C14 UNL     1      11.323  50.551  89.255  1.00  0.00     0.181 C 
ENDROOT
BRANCH   1   8
HETATM    8  C9  UNL     1       9.217  52.935  89.998  1.00  0.00     0.184 C 
BRANCH   8   9
HETATM    9  N2  UNL     1      10.566  53.435  90.406  1.00  0.00    -0.342 N 
HETATM   10  C8  UNL     1      10.737  54.141  91.626  1.00  0.00     0.264 C 
HETATM   11  O2  UNL     1       9.693  54.304  92.305  1.00  0.00    -0.266 OA
ATOM     12  H2  UNL     1      11.371  53.267  89.802  1.00  0.00     0.163 HD
BRANCH  10  13
HETATM   13  C3  UNL     1      12.074  54.664  92.082  1.00  0.00     0.080 C 
BRANCH  13  14
HETATM   14  N1  UNL     1      12.830  55.295  91.065  1.00  0.00    -0.326 N 
HETATM   15  C2  UNL     1      13.933  54.732  90.393  1.00  0.00     0.218 C 
HETATM   16  C1  UNL     1      14.677  55.504  89.329  1.00  0.00     0.117 C 
HETATM   17  O1  UNL     1      14.347  53.601  90.629  1.00  0.00    -0.274 OA
ATOM     18  H1  UNL     1      12.551  56.239  90.795  1.00  0.00     0.168 HD
ENDBRANCH  13  14
BRANCH  13  19
HETATM   19  C4  UNL     1      12.028  55.341  93.399  1.00  0.00     0.067 C 
BRANCH  19  20
HETATM   20  C5  UNL     1      12.449  54.476  94.562  1.00  0.00    -0.017 C 
HETATM   21  C6  UNL     1      12.997  53.151  94.144  1.00  0.00     0.010 C 
HETATM   22  C7  UNL     1      11.313  54.261  95.539  1.00  0.00     0.010 C 
ENDBRANCH  19  20
ENDBRANCH  13  19
ENDBRANCH  10  13
ENDBRANCH   8   9
BRANCH   8  23
HETATM   23  C27 UNL     1       9.070  53.433  88.592  1.00  0.00    -0.022 C 
HETATM   24  C28 UNL     1      10.389  53.565  87.874  1.00  0.00     0.017 C 
HETATM   25  C29 UNL     1       8.566  54.887  88.737  1.00  0.00     0.017 C 
HETATM   26  C30 UNL     1       8.063  52.734  87.760  1.00  0.00     0.017 C 
ENDBRANCH   8  23
ENDBRANCH   1   8
BRANCH   7  27
HETATM   27  C15 UNL     1      11.264  49.845  87.909  1.00  0.00     0.241 C 
HETATM   28  O5  UNL     1      12.091  48.993  87.553  1.00  0.00    -0.271 OA
HETATM   29  N4  UNL     1      10.209  50.182  87.030  1.00  0.00    -0.355 N 
ATOM     30  H4  UNL     1       9.541  50.887  87.343  1.00  0.00     0.162 HD
BRANCH  29  31
HETATM   31  C16 UNL     1      10.007  49.600  85.719  1.00  0.00     0.161 C 
BRANCH  31  32
HETATM   32  C17 UNL     1      10.913  50.069  84.681  1.00  0.00    -0.040 A 
HETATM   33  C18 UNL     1      11.150  51.407  84.507  1.00  0.00     0.010 A 
HETATM   34  C19 UNL     1      12.026  51.901  83.526  1.00  0.00     0.013 A 
HETATM   35  C20 UNL     1      12.677  51.062  82.705  1.00  0.00    -0.017 A 
HETATM   36  C25 UNL     1      12.444  49.684  82.871  1.00  0.00     0.013 A 
HETATM   37  C26 UNL     1      11.580  49.218  83.842  1.00  0.00     0.010 A 
BRANCH  35  38
HETATM   38  C21 UNL     1      13.629  51.439  81.635  1.00  0.00     0.038 A 
HETATM   39  S1  UNL     1      13.628  50.795  80.013  1.00  0.00    -0.082 SA
HETATM   40  C22 UNL     1      14.951  51.657  79.391  1.00  0.00     0.139 A 
HETATM   41  N5  UNL     1      15.318  52.374  80.427  1.00  0.00    -0.362 N 
HETATM   42  C23 UNL     1      14.679  52.289  81.563  1.00  0.00     0.023 A 
ATOM     43  H5  UNL     1      16.114  53.006  80.343  1.00  0.00     0.165 HD
HETATM   44  C24 UNL     1      15.144  53.136  82.740  1.00  0.00     0.069 C 
ENDBRANCH  35  38
ENDBRANCH  31  32
ENDBRANCH  29  31
ENDBRANCH   7  27
BRANCH   5  45
HETATM   45  O4  UNL     1      11.416  48.263  91.855  1.00  0.00    -0.394 OA
ATOM     46  H4  UNL     1      10.712  47.694  92.145  1.00  0.00     0.210 HD
ENDBRANCH   5  45
TORSDOF 12
ENDMDL
