MODEL 2
REMARK VINA RESULT: -8.048846197      4.501      6.777
REMARK  12 active torsions:
REMARK  status: ('A' for Active; 'I' for Inactive)
REMARK       I    between atoms: C2_2  and  N1_4 
REMARK    1  A    between atoms: N1_4  and  C3_6 
REMARK    2  A    between atoms: C3_6  and  C4_7 
REMARK    3  A    between atoms: C3_6  and  C11_14 
REMARK    4  A    between atoms: C4_7  and  C5_8 
REMARK       I    between atoms: C11_14  and  N2_16 
REMARK    5  A    between atoms: N2_16  and  C12_18 
REMARK    6  A    between atoms: C12_18  and  C13_19 
REMARK    7  A    between atoms: C12_18  and  C30_46 
REMARK       I    between atoms: C13_19  and  N3_21 
REMARK    8  A    between atoms: C15_23  and  O4_24 
REMARK    9  A    between atoms: C17_27  and  C18_28 
REMARK       I    between atoms: C18_28  and  N4_30 
REMARK   10  A    between atoms: N4_30  and  C19_32 
REMARK   11  A    between atoms: C19_32  and  C20_33 
REMARK   12  A    between atoms: C23_36  and  C24_37 
ROOT
HETATM    1  C13 UNL     1       8.562  51.624  85.781  1.00  0.00     0.244 C 
HETATM    2  O3  UNL     1       7.924  50.514  86.000  1.00  0.00    -0.271 OA
HETATM    3  N3  UNL     1       8.977  52.300  86.947  1.00  0.00    -0.334 N 
HETATM    4  C14 UNL     1       8.677  51.758  88.309  1.00  0.00     0.158 C 
HETATM    5  C15 UNL     1       8.737  52.907  89.251  1.00  0.00     0.138 C 
HETATM    6  C16 UNL     1       8.787  54.116  88.301  1.00  0.00     0.068 C 
HETATM    7  C17 UNL     1       9.699  53.494  87.225  1.00  0.00     0.181 C 
ENDROOT
BRANCH   1   8
HETATM    8  C12 UNL     1       8.741  51.975  84.386  1.00  0.00     0.184 C 
BRANCH   8   9
HETATM    9  N2  UNL     1       9.618  50.939  83.779  1.00  0.00    -0.345 N 
HETATM   10  C11 UNL     1      10.986  51.211  83.652  1.00  0.00     0.241 C 
HETATM   11  O2  UNL     1      11.402  52.322  84.105  1.00  0.00    -0.271 OA
ATOM     12  H2  UNL     1       9.232  50.050  83.461  1.00  0.00     0.163 HD
BRANCH  10  13
HETATM   13  C3  UNL     1      11.982  50.333  83.045  1.00  0.00     0.180 C 
BRANCH  13  14
HETATM   14  N1  UNL     1      11.797  48.929  83.286  1.00  0.00    -0.348 N 
HETATM   15  C2  UNL     1      12.362  48.191  84.341  1.00  0.00     0.214 C 
HETATM   16  C1  UNL     1      12.123  46.725  84.510  1.00  0.00     0.117 C 
HETATM   17  O1  UNL     1      13.100  48.800  85.172  1.00  0.00    -0.274 OA
ATOM     18  H1  UNL     1      11.201  48.422  82.633  1.00  0.00     0.163 HD
ENDBRANCH  13  14
BRANCH  13  19
HETATM   19  C4  UNL     1      12.293  50.566  81.606  1.00  0.00     0.073 C 
BRANCH  19  20
HETATM   20  C5  UNL     1      13.601  51.124  81.306  1.00  0.00    -0.056 A 
HETATM   21  C6  UNL     1      14.381  51.696  82.298  1.00  0.00     0.007 A 
HETATM   22  C7  UNL     1      15.609  52.255  82.020  1.00  0.00     0.001 A 
HETATM   23  C8  UNL     1      16.104  52.263  80.745  1.00  0.00     0.000 A 
HETATM   24  C9  UNL     1      15.350  51.701  79.736  1.00  0.00     0.001 A 
HETATM   25  C10 UNL     1      14.106  51.137  80.025  1.00  0.00     0.007 A 
ENDBRANCH  19  20
ENDBRANCH  13  19
ENDBRANCH  10  13
ENDBRANCH   8   9
BRANCH   8  26
HETATM   26  C30 UNL     1       7.540  52.101  83.520  1.00  0.00    -0.022 C 
HETATM   27  C31 UNL     1       6.297  52.663  84.105  1.00  0.00     0.017 C 
HETATM   28  C32 UNL     1       7.164  50.776  82.870  1.00  0.00     0.017 C 
HETATM   29  C33 UNL     1       7.945  53.068  82.383  1.00  0.00     0.017 C 
ENDBRANCH   8  26
ENDBRANCH   1   8
BRANCH   7  30
HETATM   30  C18 UNL     1      10.987  53.165  87.950  1.00  0.00     0.241 C 
HETATM   31  O5  UNL     1      11.585  52.075  87.825  1.00  0.00    -0.271 OA
HETATM   32  N4  UNL     1      11.558  54.139  88.824  1.00  0.00    -0.355 N 
ATOM     33  H4  UNL     1      11.080  55.033  88.941  1.00  0.00     0.162 HD
BRANCH  32  34
HETATM   34  C19 UNL     1      12.779  53.911  89.547  1.00  0.00     0.161 C 
BRANCH  34  35
HETATM   35  C20 UNL     1      12.612  54.231  91.003  1.00  0.00    -0.040 A 
HETATM   36  C21 UNL     1      13.651  54.638  91.797  1.00  0.00     0.010 A 
HETATM   37  C22 UNL     1      13.440  54.937  93.157  1.00  0.00     0.013 A 
HETATM   38  C23 UNL     1      12.222  54.838  93.744  1.00  0.00    -0.017 A 
HETATM   39  C28 UNL     1      11.172  54.418  92.915  1.00  0.00     0.013 A 
HETATM   40  C29 UNL     1      11.366  54.124  91.582  1.00  0.00     0.010 A 
BRANCH  38  41
HETATM   41  C24 UNL     1      11.888  55.130  95.139  1.00  0.00     0.038 A 
HETATM   42  S1  UNL     1      11.904  53.979  96.452  1.00  0.00    -0.082 SA
HETATM   43  C25 UNL     1      11.422  55.013  97.707  1.00  0.00     0.139 A 
HETATM   44  N5  UNL     1      11.275  56.154  97.079  1.00  0.00    -0.362 N 
HETATM   45  C26 UNL     1      11.498  56.253  95.800  1.00  0.00     0.023 A 
ATOM     46  H5  UNL     1      10.981  56.979  97.602  1.00  0.00     0.165 HD
HETATM   47  C27 UNL     1      11.308  57.595  95.104  1.00  0.00     0.069 C 
ENDBRANCH  38  41
ENDBRANCH  34  35
ENDBRANCH  32  34
ENDBRANCH   7  30
BRANCH   5  48
HETATM   48  O4  UNL     1       7.651  52.980  90.120  1.00  0.00    -0.394 OA
ATOM     49  H4  UNL     1       7.584  53.808  90.583  1.00  0.00     0.210 HD
ENDBRANCH   5  48
TORSDOF 12
ENDMDL
