MODEL 3
REMARK VINA RESULT: -7.937775570      1.541      2.046
REMARK  12 active torsions:
REMARK  status: ('A' for Active; 'I' for Inactive)
REMARK       I    between atoms: C2_2  and  N1_4 
REMARK    1  A    between atoms: N1_4  and  C3_6 
REMARK    2  A    between atoms: C3_6  and  C4_7 
REMARK    3  A    between atoms: C3_6  and  C11_14 
REMARK    4  A    between atoms: C4_7  and  C5_8 
REMARK       I    between atoms: C11_14  and  N2_16 
REMARK    5  A    between atoms: N2_16  and  C12_18 
REMARK    6  A    between atoms: C12_18  and  C13_19 
REMARK    7  A    between atoms: C12_18  and  C30_46 
REMARK       I    between atoms: C13_19  and  N3_21 
REMARK    8  A    between atoms: C15_23  and  O4_24 
REMARK    9  A    between atoms: C17_27  and  C18_28 
REMARK       I    between atoms: C18_28  and  N4_30 
REMARK   10  A    between atoms: N4_30  and  C19_32 
REMARK   11  A    between atoms: C19_32  and  C20_33 
REMARK   12  A    between atoms: C23_36  and  C24_37 
ROOT
HETATM    1  C13 UNL     1      11.781  54.080  90.650  1.00  0.00     0.244 C 
HETATM    2  O3  UNL     1      10.534  54.218  90.312  1.00  0.00    -0.271 OA
HETATM    3  N3  UNL     1      12.012  54.063  92.040  1.00  0.00    -0.334 N 
HETATM    4  C14 UNL     1      10.888  54.210  93.019  1.00  0.00     0.158 C 
HETATM    5  C15 UNL     1      11.486  54.695  94.290  1.00  0.00     0.138 C 
HETATM    6  C16 UNL     1      12.913  55.079  93.864  1.00  0.00     0.068 C 
HETATM    7  C17 UNL     1      13.153  53.919  92.878  1.00  0.00     0.181 C 
ENDROOT
BRANCH   1   8
HETATM    8  C12 UNL     1      12.715  53.963  89.547  1.00  0.00     0.184 C 
BRANCH   8   9
HETATM    9  N2  UNL     1      11.914  53.786  88.307  1.00  0.00    -0.345 N 
HETATM   10  C11 UNL     1      11.807  52.502  87.758  1.00  0.00     0.241 C 
HETATM   11  O2  UNL     1      12.375  51.553  88.383  1.00  0.00    -0.271 OA
ATOM     12  H2  UNL     1      11.454  54.581  87.866  1.00  0.00     0.163 HD
BRANCH  10  13
HETATM   13  C3  UNL     1      11.102  52.151  86.528  1.00  0.00     0.180 C 
BRANCH  13  14
HETATM   14  N1  UNL     1       9.723  51.784  86.691  1.00  0.00    -0.348 N 
HETATM   15  C2  UNL     1       8.690  52.630  87.132  1.00  0.00     0.214 C 
HETATM   16  C1  UNL     1       7.280  52.160  87.283  1.00  0.00     0.117 C 
HETATM   17  O1  UNL     1       8.978  53.833  87.411  1.00  0.00    -0.274 OA
ATOM     18  H1  UNL     1       9.469  50.822  86.466  1.00  0.00     0.163 HD
ENDBRANCH  13  14
BRANCH  13  19
HETATM   19  C4  UNL     1      11.247  53.090  85.381  1.00  0.00     0.073 C 
BRANCH  19  20
HETATM   20  C5  UNL     1      12.430  52.926  84.552  1.00  0.00    -0.056 A 
HETATM   21  C6  UNL     1      13.501  53.800  84.651  1.00  0.00     0.007 A 
HETATM   22  C7  UNL     1      14.614  53.673  83.851  1.00  0.00     0.001 A 
HETATM   23  C8  UNL     1      14.702  52.670  82.924  1.00  0.00     0.000 A 
HETATM   24  C9  UNL     1      13.651  51.784  82.802  1.00  0.00     0.001 A 
HETATM   25  C10 UNL     1      12.526  51.920  83.617  1.00  0.00     0.007 A 
ENDBRANCH  19  20
ENDBRANCH  13  19
ENDBRANCH  10  13
ENDBRANCH   8   9
BRANCH   8  26
HETATM   26  C30 UNL     1      13.673  55.071  89.301  1.00  0.00    -0.022 C 
HETATM   27  C31 UNL     1      13.315  56.437  89.757  1.00  0.00     0.017 C 
HETATM   28  C32 UNL     1      14.052  55.181  87.829  1.00  0.00     0.017 C 
HETATM   29  C33 UNL     1      14.957  54.693  90.075  1.00  0.00     0.017 C 
ENDBRANCH   8  26
ENDBRANCH   1   8
BRANCH   7  30
HETATM   30  C18 UNL     1      13.026  52.664  93.717  1.00  0.00     0.241 C 
HETATM   31  O5  UNL     1      12.398  51.651  93.343  1.00  0.00    -0.271 OA
HETATM   32  N4  UNL     1      13.649  52.624  95.000  1.00  0.00    -0.355 N 
ATOM     33  H4  UNL     1      14.162  53.444  95.322  1.00  0.00     0.162 HD
BRANCH  32  34
HETATM   34  C19 UNL     1      13.582  51.472  95.858  1.00  0.00     0.161 C 
BRANCH  34  35
HETATM   35  C20 UNL     1      14.562  51.584  96.989  1.00  0.00    -0.040 A 
HETATM   36  C21 UNL     1      15.916  51.475  96.810  1.00  0.00     0.010 A 
HETATM   37  C22 UNL     1      16.796  51.598  97.903  1.00  0.00     0.013 A 
HETATM   38  C23 UNL     1      16.360  51.823  99.167  1.00  0.00    -0.017 A 
HETATM   39  C28 UNL     1      14.971  51.930  99.329  1.00  0.00     0.013 A 
HETATM   40  C29 UNL     1      14.100  51.813  98.266  1.00  0.00     0.010 A 
BRANCH  38  41
HETATM   41  C24 UNL     1      17.180  51.976 100.369  1.00  0.00     0.038 A 
HETATM   42  S1  UNL     1      17.144  53.340 101.459  1.00  0.00    -0.082 SA
HETATM   43  C25 UNL     1      18.322  52.819 102.564  1.00  0.00     0.139 A 
HETATM   44  N5  UNL     1      18.676  51.662 102.059  1.00  0.00    -0.362 N 
HETATM   45  C26 UNL     1      18.130  51.207 100.968  1.00  0.00     0.023 A 
ATOM     46  H5  UNL     1      19.391  51.108 102.530  1.00  0.00     0.165 HD
HETATM   47  C27 UNL     1      18.574  49.862 100.407  1.00  0.00     0.069 C 
ENDBRANCH  38  41
ENDBRANCH  34  35
ENDBRANCH  32  34
ENDBRANCH   7  30
BRANCH   5  48
HETATM   48  O4  UNL     1      10.809  55.773  94.855  1.00  0.00    -0.394 OA
ATOM     49  H4  UNL     1      10.761  55.743  95.804  1.00  0.00     0.210 HD
ENDBRANCH   5  48
TORSDOF 12
ENDMDL
