MODEL 1
REMARK VINA RESULT: -8.299488467      0.000      0.000
REMARK  12 active torsions:
REMARK  status: ('A' for Active; 'I' for Inactive)
REMARK       I    between atoms: C2_2  and  N1_4 
REMARK    1  A    between atoms: N1_4  and  C3_6 
REMARK    2  A    between atoms: C3_6  and  C4_7 
REMARK    3  A    between atoms: C3_6  and  C11_14 
REMARK    4  A    between atoms: C4_7  and  C5_8 
REMARK       I    between atoms: C11_14  and  N2_16 
REMARK    5  A    between atoms: N2_16  and  C12_18 
REMARK    6  A    between atoms: C12_18  and  C13_19 
REMARK    7  A    between atoms: C12_18  and  C30_46 
REMARK       I    between atoms: C13_19  and  N3_21 
REMARK    8  A    between atoms: C15_23  and  O4_24 
REMARK    9  A    between atoms: C17_27  and  C18_28 
REMARK       I    between atoms: C18_28  and  N4_30 
REMARK   10  A    between atoms: N4_30  and  C19_32 
REMARK   11  A    between atoms: C19_32  and  C20_33 
REMARK   12  A    between atoms: C23_36  and  C24_37 
ROOT
HETATM    1  C13 UNL     1      11.611  54.111  90.619  1.00  0.00     0.244 C 
HETATM    2  O3  UNL     1      10.404  54.267  90.164  1.00  0.00    -0.271 OA
HETATM    3  N3  UNL     1      11.720  54.171  92.023  1.00  0.00    -0.334 N 
HETATM    4  C14 UNL     1      10.523  54.411  92.888  1.00  0.00     0.158 C 
HETATM    5  C15 UNL     1      11.025  54.954  94.177  1.00  0.00     0.138 C 
HETATM    6  C16 UNL     1      12.497  55.267  93.857  1.00  0.00     0.068 C 
HETATM    7  C17 UNL     1      12.779  54.043  92.965  1.00  0.00     0.181 C 
ENDROOT
BRANCH   1   8
HETATM    8  C12 UNL     1      12.633  53.899  89.612  1.00  0.00     0.184 C 
BRANCH   8   9
HETATM    9  N2  UNL     1      11.940  53.753  88.304  1.00  0.00    -0.345 N 
HETATM   10  C11 UNL     1      11.823  52.473  87.748  1.00  0.00     0.241 C 
HETATM   11  O2  UNL     1      12.288  51.502  88.421  1.00  0.00    -0.271 OA
ATOM     12  H2  UNL     1      11.558  54.567  87.823  1.00  0.00     0.163 HD
BRANCH  10  13
HETATM   13  C3  UNL     1      11.217  52.150  86.459  1.00  0.00     0.180 C 
BRANCH  13  14
HETATM   14  N1  UNL     1       9.838  51.750  86.509  1.00  0.00    -0.348 N 
HETATM   15  C2  UNL     1       9.287  50.608  85.902  1.00  0.00     0.214 C 
HETATM   16  C1  UNL     1       7.833  50.273  85.998  1.00  0.00     0.117 C 
HETATM   17  O1  UNL     1      10.059  49.841  85.252  1.00  0.00    -0.274 OA
ATOM     18  H1  UNL     1       9.201  52.349  87.033  1.00  0.00     0.163 HD
ENDBRANCH  13  14
BRANCH  13  19
HETATM   19  C4  UNL     1      11.422  53.130  85.356  1.00  0.00     0.073 C 
BRANCH  19  20
HETATM   20  C5  UNL     1      12.576  52.911  84.499  1.00  0.00    -0.056 A 
HETATM   21  C6  UNL     1      13.658  53.776  84.518  1.00  0.00     0.007 A 
HETATM   22  C7  UNL     1      14.743  53.595  83.690  1.00  0.00     0.001 A 
HETATM   23  C8  UNL     1      14.789  52.546  82.813  1.00  0.00     0.000 A 
HETATM   24  C9  UNL     1      13.726  51.668  82.770  1.00  0.00     0.001 A 
HETATM   25  C10 UNL     1      12.630  51.858  83.613  1.00  0.00     0.007 A 
ENDBRANCH  19  20
ENDBRANCH  13  19
ENDBRANCH  10  13
ENDBRANCH   8   9
BRANCH   8  26
HETATM   26  C30 UNL     1      13.692  54.925  89.439  1.00  0.00    -0.022 C 
HETATM   27  C31 UNL     1      14.950  54.787  90.216  1.00  0.00     0.017 C 
HETATM   28  C32 UNL     1      13.168  56.333  89.691  1.00  0.00     0.017 C 
HETATM   29  C33 UNL     1      14.107  54.851  87.951  1.00  0.00     0.017 C 
ENDBRANCH   8  26
ENDBRANCH   1   8
BRANCH   7  30
HETATM   30  C18 UNL     1      12.534  52.845  93.860  1.00  0.00     0.241 C 
HETATM   31  O5  UNL     1      11.980  51.798  93.466  1.00  0.00    -0.271 OA
HETATM   32  N4  UNL     1      12.951  52.904  95.224  1.00  0.00    -0.355 N 
ATOM     33  H4  UNL     1      13.402  53.755  95.562  1.00  0.00     0.162 HD
BRANCH  32  34
HETATM   34  C19 UNL     1      12.762  51.812  96.140  1.00  0.00     0.161 C 
BRANCH  34  35
HETATM   35  C20 UNL     1      14.064  51.394  96.756  1.00  0.00    -0.040 A 
HETATM   36  C21 UNL     1      14.193  51.092  98.086  1.00  0.00     0.010 A 
HETATM   37  C22 UNL     1      15.436  50.693  98.615  1.00  0.00     0.013 A 
HETATM   38  C23 UNL     1      16.552  50.590  97.852  1.00  0.00    -0.017 A 
HETATM   39  C28 UNL     1      16.400  50.905  96.494  1.00  0.00     0.013 A 
HETATM   40  C29 UNL     1      15.188  51.295  95.965  1.00  0.00     0.010 A 
BRANCH  38  41
HETATM   41  C24 UNL     1      17.886  50.179  98.291  1.00  0.00     0.038 A 
HETATM   42  S1  UNL     1      18.554  48.572  98.149  1.00  0.00    -0.082 SA
HETATM   43  C25 UNL     1      20.073  48.861  98.847  1.00  0.00     0.139 A 
HETATM   44  N5  UNL     1      19.997  50.135  99.147  1.00  0.00    -0.362 N 
HETATM   45  C26 UNL     1      18.925  50.826  98.885  1.00  0.00     0.023 A 
ATOM     46  H5  UNL     1      20.792  50.593  99.592  1.00  0.00     0.165 HD
HETATM   47  C27 UNL     1      18.872  52.303  99.257  1.00  0.00     0.069 C 
ENDBRANCH  38  41
ENDBRANCH  34  35
ENDBRANCH  32  34
ENDBRANCH   7  30
BRANCH   5  48
HETATM   48  O4  UNL     1      10.342  56.085  94.617  1.00  0.00    -0.394 OA
ATOM     49  H4  UNL     1      10.905  56.830  94.796  1.00  0.00     0.210 HD
ENDBRANCH   5  48
TORSDOF 12
ENDMDL
