MODEL 10
REMARK VINA RESULT: -7.007234970      1.590      2.246
REMARK  15 active torsions:
REMARK  status: ('A' for Active; 'I' for Inactive)
REMARK       I    between atoms: C2_2  and  N1_4 
REMARK    1  A    between atoms: N1_4  and  C3_6 
REMARK    2  A    between atoms: C3_6  and  C4_7 
REMARK    3  A    between atoms: C3_6  and  C27_45 
REMARK       I    between atoms: C4_7  and  N2_9 
REMARK    4  A    between atoms: N2_9  and  C5_11 
REMARK    5  A    between atoms: C5_11  and  C6_12 
REMARK    6  A    between atoms: C5_11  and  C23_41 
REMARK    7  A    between atoms: C6_12  and  O3_13 
REMARK    8  A    between atoms: C6_12  and  N3_15 
REMARK    9  A    between atoms: C8_17  and  O4_18 
REMARK   10  A    between atoms: C10_21  and  C11_22 
REMARK   11  A    between atoms: C11_22  and  O5_23 
REMARK   12  A    between atoms: C11_22  and  N4_25 
REMARK   13  A    between atoms: N4_25  and  C12_27 
REMARK   14  A    between atoms: C12_27  and  C13_28 
REMARK   15  A    between atoms: C16_31  and  C17_32 
ROOT
HETATM    1  N3  UNL     1      12.708  53.811  90.845  1.00  0.00    -0.349 N 
HETATM    2  C7  UNL     1      13.467  55.064  91.299  1.00  0.00     0.157 C 
HETATM    3  C8  UNL     1      14.283  55.381  90.065  1.00  0.00     0.138 C 
HETATM    4  C9  UNL     1      13.686  54.544  88.938  1.00  0.00     0.067 C 
HETATM    5  C10 UNL     1      12.287  54.229  89.583  1.00  0.00     0.163 C 
ENDROOT
BRANCH   1   6
HETATM    6  C6  UNL     1      12.705  52.718  91.689  1.00  0.00     0.138 C 
BRANCH   6   7
HETATM    7  C5  UNL     1      11.730  52.158  92.608  1.00  0.00     0.166 C 
BRANCH   7   8
HETATM    8  N2  UNL     1      11.128  53.298  93.368  1.00  0.00    -0.347 N 
HETATM    9  C4  UNL     1      11.363  53.441  94.740  1.00  0.00     0.241 C 
HETATM   10  O2  UNL     1      12.128  52.536  95.249  1.00  0.00    -0.271 OA
ATOM     11  H2  UNL     1      10.542  53.976  92.881  1.00  0.00     0.163 HD
BRANCH   9  12
HETATM   12  C3  UNL     1      10.881  54.446  95.667  1.00  0.00     0.184 C 
BRANCH  12  13
HETATM   13  N1  UNL     1      11.767  54.562  96.838  1.00  0.00    -0.347 N 
HETATM   14  C2  UNL     1      11.515  53.982  98.090  1.00  0.00     0.214 C 
HETATM   15  C1  UNL     1      12.499  54.179  99.216  1.00  0.00     0.117 C 
HETATM   16  O1  UNL     1      10.459  53.312  98.222  1.00  0.00    -0.274 OA
ATOM     17  H1  UNL     1      12.626  55.102  96.730  1.00  0.00     0.163 HD
ENDBRANCH  12  13
BRANCH  12  18
HETATM   18  C27 UNL     1      10.592  55.813  95.202  1.00  0.00    -0.022 C 
HETATM   19  C28 UNL     1      10.310  56.644  96.483  1.00  0.00     0.017 C 
HETATM   20  C29 UNL     1       9.284  55.931  94.426  1.00  0.00     0.017 C 
HETATM   21  C30 UNL     1      11.740  56.519  94.533  1.00  0.00     0.017 C 
ENDBRANCH  12  18
ENDBRANCH   9  12
ENDBRANCH   7   8
BRANCH   7  22
HETATM   22  C23 UNL     1      10.543  51.521  91.913  1.00  0.00    -0.023 C 
HETATM   23  C24 UNL     1      10.925  50.679  90.722  1.00  0.00     0.017 C 
HETATM   24  C25 UNL     1       9.957  50.544  92.951  1.00  0.00     0.017 C 
HETATM   25  C26 UNL     1       9.455  52.452  91.510  1.00  0.00     0.017 C 
ENDBRANCH   7  22
ENDBRANCH   6   7
BRANCH   6  26
HETATM   26  O3  UNL     1      13.824  52.006  91.678  1.00  0.00    -0.348 OA
ATOM     27  H3  UNL     1      14.484  52.408  91.126  1.00  0.00     0.219 HD
ENDBRANCH   6  26
ENDBRANCH   1   6
BRANCH   5  28
HETATM   28  C11 UNL     1      11.460  53.549  88.651  1.00  0.00     0.135 C 
BRANCH  28  29
HETATM   29  O5  UNL     1      10.239  53.999  88.502  1.00  0.00    -0.348 OA
ATOM     30  H5  UNL     1       9.897  54.032  87.616  1.00  0.00     0.219 HD
ENDBRANCH  28  29
BRANCH  28  31
HETATM   31  N4  UNL     1      11.742  52.442  87.846  1.00  0.00    -0.368 N 
ATOM     32  H4  UNL     1      12.579  51.894  88.047  1.00  0.00     0.161 HD
BRANCH  31  33
HETATM   33  C12 UNL     1      10.893  52.033  86.729  1.00  0.00     0.160 C 
BRANCH  33  34
HETATM   34  C13 UNL     1      11.726  52.038  85.501  1.00  0.00    -0.041 A 
HETATM   35  C14 UNL     1      12.437  53.139  85.111  1.00  0.00     0.010 A 
HETATM   36  C15 UNL     1      13.208  53.107  83.933  1.00  0.00     0.013 A 
HETATM   37  C16 UNL     1      13.285  52.011  83.145  1.00  0.00    -0.017 A 
HETATM   38  C21 UNL     1      12.548  50.885  83.562  1.00  0.00     0.013 A 
HETATM   39  C22 UNL     1      11.799  50.909  84.699  1.00  0.00     0.010 A 
BRANCH  37  40
HETATM   40  C17 UNL     1      14.058  51.889  81.911  1.00  0.00     0.038 A 
HETATM   41  S1  UNL     1      15.784  52.131  81.777  1.00  0.00    -0.082 SA
HETATM   42  C18 UNL     1      15.958  51.833  80.113  1.00  0.00     0.139 A 
HETATM   43  N5  UNL     1      14.721  51.570  79.755  1.00  0.00    -0.362 N 
HETATM   44  C19 UNL     1      13.753  51.589  80.623  1.00  0.00     0.023 A 
ATOM     45  H5  UNL     1      14.518  51.347  78.780  1.00  0.00     0.165 HD
HETATM   46  C20 UNL     1      12.328  51.275  80.179  1.00  0.00     0.069 C 
ENDBRANCH  37  40
ENDBRANCH  33  34
ENDBRANCH  31  33
ENDBRANCH  28  31
ENDBRANCH   5  28
BRANCH   3  47
HETATM   47  O4  UNL     1      14.138  56.736  89.695  1.00  0.00    -0.394 OA
ATOM     48  H4  UNL     1      13.994  56.821  88.760  1.00  0.00     0.210 HD
ENDBRANCH   3  47
TORSDOF 15
ENDMDL
