MODEL 11
REMARK VINA RESULT: -6.869212723      2.799      4.536
REMARK  15 active torsions:
REMARK  status: ('A' for Active; 'I' for Inactive)
REMARK       I    between atoms: C2_2  and  N1_4 
REMARK    1  A    between atoms: N1_4  and  C3_6 
REMARK    2  A    between atoms: C3_6  and  C4_7 
REMARK    3  A    between atoms: C3_6  and  C27_45 
REMARK       I    between atoms: C4_7  and  N2_9 
REMARK    4  A    between atoms: N2_9  and  C5_11 
REMARK    5  A    between atoms: C5_11  and  C6_12 
REMARK    6  A    between atoms: C5_11  and  C23_41 
REMARK    7  A    between atoms: C6_12  and  O3_13 
REMARK    8  A    between atoms: C6_12  and  N3_15 
REMARK    9  A    between atoms: C8_17  and  O4_18 
REMARK   10  A    between atoms: C10_21  and  C11_22 
REMARK   11  A    between atoms: C11_22  and  O5_23 
REMARK   12  A    between atoms: C11_22  and  N4_25 
REMARK   13  A    between atoms: N4_25  and  C12_27 
REMARK   14  A    between atoms: C12_27  and  C13_28 
REMARK   15  A    between atoms: C16_31  and  C17_32 
ROOT
HETATM    1  N3  UNL     1      12.451  54.040  90.783  1.00  0.00    -0.349 N 
HETATM    2  C7  UNL     1      13.279  55.245  91.245  1.00  0.00     0.157 C 
HETATM    3  C8  UNL     1      14.256  55.392  90.098  1.00  0.00     0.138 C 
HETATM    4  C9  UNL     1      13.704  54.536  88.963  1.00  0.00     0.067 C 
HETATM    5  C10 UNL     1      12.217  54.404  89.457  1.00  0.00     0.163 C 
ENDROOT
BRANCH   1   6
HETATM    6  C6  UNL     1      12.242  53.017  91.687  1.00  0.00     0.138 C 
BRANCH   6   7
HETATM    7  C5  UNL     1      12.149  51.573  91.569  1.00  0.00     0.166 C 
BRANCH   7   8
HETATM    8  N2  UNL     1      12.443  50.996  92.917  1.00  0.00    -0.347 N 
HETATM    9  C4  UNL     1      13.725  50.527  93.227  1.00  0.00     0.241 C 
HETATM   10  O2  UNL     1      14.585  50.654  92.274  1.00  0.00    -0.271 OA
ATOM     11  H2  UNL     1      11.703  50.944  93.617  1.00  0.00     0.163 HD
BRANCH   9  12
HETATM   12  C3  UNL     1      14.228  49.928  94.446  1.00  0.00     0.184 C 
BRANCH  12  13
HETATM   13  N1  UNL     1      15.205  48.864  94.157  1.00  0.00    -0.347 N 
HETATM   14  C2  UNL     1      14.894  47.501  94.050  1.00  0.00     0.214 C 
HETATM   15  C1  UNL     1      15.988  46.506  93.756  1.00  0.00     0.117 C 
HETATM   16  O1  UNL     1      13.693  47.162  94.210  1.00  0.00    -0.274 OA
ATOM     17  H1  UNL     1      16.179  49.139  94.024  1.00  0.00     0.163 HD
ENDBRANCH  12  13
BRANCH  12  18
HETATM   18  C27 UNL     1      14.801  50.770  95.511  1.00  0.00    -0.022 C 
HETATM   19  C28 UNL     1      14.254  50.195  96.845  1.00  0.00     0.017 C 
HETATM   20  C29 UNL     1      14.269  52.199  95.513  1.00  0.00     0.017 C 
HETATM   21  C30 UNL     1      16.298  50.697  95.648  1.00  0.00     0.017 C 
ENDBRANCH  12  18
ENDBRANCH   9  12
ENDBRANCH   7   8
BRANCH   7  22
HETATM   22  C23 UNL     1      10.748  51.082  91.263  1.00  0.00    -0.023 C 
HETATM   23  C24 UNL     1      10.651  50.304  89.975  1.00  0.00     0.017 C 
HETATM   24  C25 UNL     1      10.429  50.078  92.388  1.00  0.00     0.017 C 
HETATM   25  C26 UNL     1       9.683  52.121  91.275  1.00  0.00     0.017 C 
ENDBRANCH   7  22
ENDBRANCH   6   7
BRANCH   6  26
HETATM   26  O3  UNL     1      12.092  53.411  92.944  1.00  0.00    -0.348 OA
ATOM     27  H3  UNL     1      11.657  54.254  92.994  1.00  0.00     0.219 HD
ENDBRANCH   6  26
ENDBRANCH   1   6
BRANCH   5  28
HETATM   28  C11 UNL     1      11.432  53.739  88.478  1.00  0.00     0.135 C 
BRANCH  28  29
HETATM   29  O5  UNL     1      10.201  54.159  88.319  1.00  0.00    -0.348 OA
ATOM     30  H5  UNL     1       9.604  53.578  87.863  1.00  0.00     0.219 HD
ENDBRANCH  28  29
BRANCH  28  31
HETATM   31  N4  UNL     1      11.766  52.676  87.635  1.00  0.00    -0.368 N 
ATOM     32  H4  UNL     1      12.686  52.247  87.733  1.00  0.00     0.161 HD
BRANCH  31  33
HETATM   33  C12 UNL     1      10.856  52.151  86.618  1.00  0.00     0.160 C 
BRANCH  33  34
HETATM   34  C13 UNL     1      11.636  51.958  85.370  1.00  0.00    -0.041 A 
HETATM   35  C14 UNL     1      12.198  53.006  84.695  1.00  0.00     0.010 A 
HETATM   36  C15 UNL     1      12.922  52.781  83.508  1.00  0.00     0.013 A 
HETATM   37  C16 UNL     1      13.096  51.546  82.986  1.00  0.00    -0.017 A 
HETATM   38  C21 UNL     1      12.511  50.477  83.694  1.00  0.00     0.013 A 
HETATM   39  C22 UNL     1      11.810  50.687  84.842  1.00  0.00     0.010 A 
BRANCH  37  40
HETATM   40  C17 UNL     1      13.830  51.222  81.765  1.00  0.00     0.038 A 
HETATM   41  S1  UNL     1      13.172  50.360  80.394  1.00  0.00    -0.082 SA
HETATM   42  C18 UNL     1      14.551  50.359  79.403  1.00  0.00     0.139 A 
HETATM   43  N5  UNL     1      15.421  51.003  80.149  1.00  0.00    -0.362 N 
HETATM   44  C19 UNL     1      15.096  51.445  81.329  1.00  0.00     0.023 A 
ATOM     45  H5  UNL     1      16.366  51.157  79.798  1.00  0.00     0.165 HD
HETATM   46  C20 UNL     1      16.124  52.191  82.170  1.00  0.00     0.069 C 
ENDBRANCH  37  40
ENDBRANCH  33  34
ENDBRANCH  31  33
ENDBRANCH  28  31
ENDBRANCH   5  28
BRANCH   3  47
HETATM   47  O4  UNL     1      14.292  56.724  89.631  1.00  0.00    -0.394 OA
ATOM     48  H4  UNL     1      15.179  57.064  89.639  1.00  0.00     0.210 HD
ENDBRANCH   3  47
TORSDOF 15
ENDMDL
