MODEL 16
REMARK VINA RESULT: -6.771418152      1.660      2.413
REMARK  15 active torsions:
REMARK  status: ('A' for Active; 'I' for Inactive)
REMARK       I    between atoms: C2_2  and  N1_4 
REMARK    1  A    between atoms: N1_4  and  C3_6 
REMARK    2  A    between atoms: C3_6  and  C4_7 
REMARK    3  A    between atoms: C3_6  and  C27_45 
REMARK       I    between atoms: C4_7  and  N2_9 
REMARK    4  A    between atoms: N2_9  and  C5_11 
REMARK    5  A    between atoms: C5_11  and  C6_12 
REMARK    6  A    between atoms: C5_11  and  C23_41 
REMARK    7  A    between atoms: C6_12  and  O3_13 
REMARK    8  A    between atoms: C6_12  and  N3_15 
REMARK    9  A    between atoms: C8_17  and  O4_18 
REMARK   10  A    between atoms: C10_21  and  C11_22 
REMARK   11  A    between atoms: C11_22  and  O5_23 
REMARK   12  A    between atoms: C11_22  and  N4_25 
REMARK   13  A    between atoms: N4_25  and  C12_27 
REMARK   14  A    between atoms: C12_27  and  C13_28 
REMARK   15  A    between atoms: C16_31  and  C17_32 
ROOT
HETATM    1  N3  UNL     1      12.327  54.296  91.069  1.00  0.00    -0.349 N 
HETATM    2  C7  UNL     1      13.452  55.306  91.322  1.00  0.00     0.157 C 
HETATM    3  C8  UNL     1      14.304  55.119  90.085  1.00  0.00     0.138 C 
HETATM    4  C9  UNL     1      13.451  54.323  89.103  1.00  0.00     0.067 C 
HETATM    5  C10 UNL     1      12.037  54.588  89.736  1.00  0.00     0.163 C 
ENDROOT
BRANCH   1   6
HETATM    6  C6  UNL     1      11.993  53.433  92.094  1.00  0.00     0.138 C 
BRANCH   6   7
HETATM    7  C5  UNL     1      12.507  53.215  93.435  1.00  0.00     0.166 C 
BRANCH   7   8
HETATM    8  N2  UNL     1      11.342  53.269  94.372  1.00  0.00    -0.347 N 
HETATM    9  C4  UNL     1      11.230  54.302  95.309  1.00  0.00     0.241 C 
HETATM   10  O2  UNL     1      12.186  55.167  95.267  1.00  0.00    -0.271 OA
ATOM     11  H2  UNL     1      10.623  52.546  94.327  1.00  0.00     0.163 HD
BRANCH   9  12
HETATM   12  C3  UNL     1      10.210  54.546  96.308  1.00  0.00     0.184 C 
BRANCH  12  13
HETATM   13  N1  UNL     1      10.807  54.826  97.626  1.00  0.00    -0.347 N 
HETATM   14  C2  UNL     1      10.825  53.926  98.701  1.00  0.00     0.214 C 
HETATM   15  C1  UNL     1      11.463  54.333 100.005  1.00  0.00     0.117 C 
HETATM   16  O1  UNL     1      10.297  52.797  98.528  1.00  0.00    -0.274 OA
ATOM     17  H1  UNL     1      11.238  55.740  97.766  1.00  0.00     0.163 HD
ENDBRANCH  12  13
BRANCH  12  18
HETATM   18  C27 UNL     1       9.166  55.560  96.078  1.00  0.00    -0.022 C 
HETATM   19  C28 UNL     1       7.852  54.946  96.633  1.00  0.00     0.017 C 
HETATM   20  C29 UNL     1       8.842  55.780  94.604  1.00  0.00     0.017 C 
HETATM   21  C30 UNL     1       9.341  56.844  96.843  1.00  0.00     0.017 C 
ENDBRANCH  12  18
ENDBRANCH   9  12
ENDBRANCH   7   8
BRANCH   7  22
HETATM   22  C23 UNL     1      13.075  51.826  93.644  1.00  0.00    -0.023 C 
HETATM   23  C24 UNL     1      13.943  51.353  92.505  1.00  0.00     0.017 C 
HETATM   24  C25 UNL     1      14.012  51.962  94.861  1.00  0.00     0.017 C 
HETATM   25  C26 UNL     1      12.082  50.763  93.961  1.00  0.00     0.017 C 
ENDBRANCH   7  22
ENDBRANCH   6   7
BRANCH   6  26
HETATM   26  O3  UNL     1      10.985  52.615  91.823  1.00  0.00    -0.348 OA
ATOM     27  H3  UNL     1      10.919  52.445  90.890  1.00  0.00     0.219 HD
ENDBRANCH   6  26
ENDBRANCH   1   6
BRANCH   5  28
HETATM   28  C11 UNL     1      11.020  54.046  88.907  1.00  0.00     0.135 C 
BRANCH  28  29
HETATM   29  O5  UNL     1       9.842  53.869  89.453  1.00  0.00    -0.348 OA
ATOM     30  H5  UNL     1       9.814  53.378  90.267  1.00  0.00     0.219 HD
ENDBRANCH  28  29
BRANCH  28  31
HETATM   31  N4  UNL     1      11.072  53.653  87.568  1.00  0.00    -0.368 N 
ATOM     32  H4  UNL     1      11.249  54.364  86.858  1.00  0.00     0.161 HD
BRANCH  31  33
HETATM   33  C12 UNL     1      10.883  52.269  87.136  1.00  0.00     0.160 C 
BRANCH  33  34
HETATM   34  C13 UNL     1      11.622  52.088  85.862  1.00  0.00    -0.041 A 
HETATM   35  C14 UNL     1      12.231  53.131  85.221  1.00  0.00     0.010 A 
HETATM   36  C15 UNL     1      12.913  52.918  84.007  1.00  0.00     0.013 A 
HETATM   37  C16 UNL     1      13.001  51.701  83.426  1.00  0.00    -0.017 A 
HETATM   38  C21 UNL     1      12.369  50.637  84.100  1.00  0.00     0.013 A 
HETATM   39  C22 UNL     1      11.707  50.834  85.274  1.00  0.00     0.010 A 
BRANCH  37  40
HETATM   40  C17 UNL     1      13.687  51.391  82.174  1.00  0.00     0.038 A 
HETATM   41  S1  UNL     1      12.997  50.486  80.846  1.00  0.00    -0.082 SA
HETATM   42  C18 UNL     1      14.325  50.528  79.788  1.00  0.00     0.139 A 
HETATM   43  N5  UNL     1      15.205  51.214  80.484  1.00  0.00    -0.362 N 
HETATM   44  C19 UNL     1      14.920  51.657  81.673  1.00  0.00     0.023 A 
ATOM     45  H5  UNL     1      16.125  51.401  80.085  1.00  0.00     0.165 HD
HETATM   46  C20 UNL     1      15.958  52.454  82.456  1.00  0.00     0.069 C 
ENDBRANCH  37  40
ENDBRANCH  33  34
ENDBRANCH  31  33
ENDBRANCH  28  31
ENDBRANCH   5  28
BRANCH   3  47
HETATM   47  O4  UNL     1      14.590  56.359  89.473  1.00  0.00    -0.394 OA
ATOM     48  H4  UNL     1      14.067  57.055  89.853  1.00  0.00     0.210 HD
ENDBRANCH   3  47
TORSDOF 15
ENDMDL
