MODEL 8
REMARK VINA RESULT: -7.034226176      2.615      5.579
REMARK  15 active torsions:
REMARK  status: ('A' for Active; 'I' for Inactive)
REMARK       I    between atoms: C2_2  and  N1_4 
REMARK    1  A    between atoms: N1_4  and  C3_6 
REMARK    2  A    between atoms: C3_6  and  C4_7 
REMARK    3  A    between atoms: C3_6  and  C27_45 
REMARK       I    between atoms: C4_7  and  N2_9 
REMARK    4  A    between atoms: N2_9  and  C5_11 
REMARK    5  A    between atoms: C5_11  and  C6_12 
REMARK    6  A    between atoms: C5_11  and  C23_41 
REMARK    7  A    between atoms: C6_12  and  O3_13 
REMARK    8  A    between atoms: C6_12  and  N3_15 
REMARK    9  A    between atoms: C8_17  and  O4_18 
REMARK   10  A    between atoms: C10_21  and  C11_22 
REMARK   11  A    between atoms: C11_22  and  O5_23 
REMARK   12  A    between atoms: C11_22  and  N4_25 
REMARK   13  A    between atoms: N4_25  and  C12_27 
REMARK   14  A    between atoms: C12_27  and  C13_28 
REMARK   15  A    between atoms: C16_31  and  C17_32 
ROOT
HETATM    1  N3  UNL     1      12.973  53.774  90.731  1.00  0.00    -0.349 N 
HETATM    2  C7  UNL     1      13.831  54.966  91.171  1.00  0.00     0.157 C 
HETATM    3  C8  UNL     1      14.523  55.330  89.874  1.00  0.00     0.138 C 
HETATM    4  C9  UNL     1      13.771  54.589  88.774  1.00  0.00     0.067 C 
HETATM    5  C10 UNL     1      12.436  54.287  89.549  1.00  0.00     0.163 C 
ENDROOT
BRANCH   1   6
HETATM    6  C6  UNL     1      13.012  52.632  91.504  1.00  0.00     0.138 C 
BRANCH   6   7
HETATM    7  C5  UNL     1      12.001  51.710  91.993  1.00  0.00     0.166 C 
BRANCH   7   8
HETATM    8  N2  UNL     1      12.497  50.324  91.729  1.00  0.00    -0.347 N 
HETATM    9  C4  UNL     1      11.975  49.571  90.670  1.00  0.00     0.241 C 
HETATM   10  O2  UNL     1      11.076  50.180  89.974  1.00  0.00    -0.271 OA
ATOM     11  H2  UNL     1      13.222  49.924  92.325  1.00  0.00     0.163 HD
BRANCH   9  12
HETATM   12  C3  UNL     1      12.293  48.224  90.241  1.00  0.00     0.184 C 
BRANCH  12  13
HETATM   13  N1  UNL     1      13.708  48.107  89.847  1.00  0.00    -0.347 N 
HETATM   14  C2  UNL     1      14.159  47.953  88.528  1.00  0.00     0.214 C 
HETATM   15  C1  UNL     1      15.637  47.838  88.253  1.00  0.00     0.117 C 
HETATM   16  O1  UNL     1      13.294  47.915  87.615  1.00  0.00    -0.274 OA
ATOM     17  H1  UNL     1      14.409  48.141  90.587  1.00  0.00     0.163 HD
ENDBRANCH  12  13
BRANCH  12  18
HETATM   18  C27 UNL     1      11.984  47.073  91.106  1.00  0.00    -0.022 C 
HETATM   19  C28 UNL     1      13.223  46.891  92.025  1.00  0.00     0.017 C 
HETATM   20  C29 UNL     1      11.920  45.745  90.358  1.00  0.00     0.017 C 
HETATM   21  C30 UNL     1      10.832  47.273  92.053  1.00  0.00     0.017 C 
ENDBRANCH  12  18
ENDBRANCH   9  12
ENDBRANCH   7   8
BRANCH   7  22
HETATM   22  C23 UNL     1      11.825  51.751  93.497  1.00  0.00    -0.023 C 
HETATM   23  C24 UNL     1      12.223  53.067  94.115  1.00  0.00     0.017 C 
HETATM   24  C25 UNL     1      10.305  51.622  93.720  1.00  0.00     0.017 C 
HETATM   25  C26 UNL     1      12.482  50.650  94.254  1.00  0.00     0.017 C 
ENDBRANCH   7  22
ENDBRANCH   6   7
BRANCH   6  26
HETATM   26  O3  UNL     1      14.226  52.273  91.901  1.00  0.00    -0.348 OA
ATOM     27  H3  UNL     1      14.277  52.212  92.848  1.00  0.00     0.219 HD
ENDBRANCH   6  26
ENDBRANCH   1   6
BRANCH   5  28
HETATM   28  C11 UNL     1      11.484  53.699  88.676  1.00  0.00     0.135 C 
BRANCH  28  29
HETATM   29  O5  UNL     1      10.341  54.323  88.538  1.00  0.00    -0.348 OA
ATOM     30  H5  UNL     1       9.806  54.081  87.791  1.00  0.00     0.219 HD
ENDBRANCH  28  29
BRANCH  28  31
HETATM   31  N4  UNL     1      11.567  52.526  87.922  1.00  0.00    -0.368 N 
ATOM     32  H4  UNL     1      12.276  51.836  88.171  1.00  0.00     0.161 HD
BRANCH  31  33
HETATM   33  C12 UNL     1      10.685  52.242  86.792  1.00  0.00     0.160 C 
BRANCH  33  34
HETATM   34  C13 UNL     1      11.531  52.095  85.582  1.00  0.00    -0.041 A 
HETATM   35  C14 UNL     1      12.308  53.117  85.111  1.00  0.00     0.010 A 
HETATM   36  C15 UNL     1      13.090  52.940  83.953  1.00  0.00     0.013 A 
HETATM   37  C16 UNL     1      13.114  51.778  83.263  1.00  0.00    -0.017 A 
HETATM   38  C21 UNL     1      12.309  50.735  83.761  1.00  0.00     0.013 A 
HETATM   39  C22 UNL     1      11.549  50.898  84.880  1.00  0.00     0.010 A 
BRANCH  37  40
HETATM   40  C17 UNL     1      13.893  51.508  82.056  1.00  0.00     0.038 A 
HETATM   41  S1  UNL     1      13.325  50.600  80.674  1.00  0.00    -0.082 SA
HETATM   42  C18 UNL     1      14.720  50.699  79.710  1.00  0.00     0.139 A 
HETATM   43  N5  UNL     1      15.527  51.403  80.472  1.00  0.00    -0.362 N 
HETATM   44  C19 UNL     1      15.148  51.820  81.645  1.00  0.00     0.023 A 
ATOM     45  H5  UNL     1      16.466  51.625  80.140  1.00  0.00     0.165 HD
HETATM   46  C20 UNL     1      16.103  52.639  82.505  1.00  0.00     0.069 C 
ENDBRANCH  37  40
ENDBRANCH  33  34
ENDBRANCH  31  33
ENDBRANCH  28  31
ENDBRANCH   5  28
BRANCH   3  47
HETATM   47  O4  UNL     1      14.399  56.710  89.603  1.00  0.00    -0.394 OA
ATOM     48  H4  UNL     1      13.486  56.973  89.580  1.00  0.00     0.210 HD
ENDBRANCH   3  47
TORSDOF 15
ENDMDL
