MODEL 6
REMARK VINA RESULT: -7.318451509      2.631      4.521
REMARK  15 active torsions:
REMARK  status: ('A' for Active; 'I' for Inactive)
REMARK       I    between atoms: C2_2  and  N1_4 
REMARK    1  A    between atoms: N1_4  and  C3_6 
REMARK    2  A    between atoms: C3_6  and  C4_7 
REMARK    3  A    between atoms: C3_6  and  C27_45 
REMARK       I    between atoms: C4_7  and  N2_9 
REMARK    4  A    between atoms: N2_9  and  C5_11 
REMARK    5  A    between atoms: C5_11  and  C6_12 
REMARK    6  A    between atoms: C5_11  and  C23_41 
REMARK    7  A    between atoms: C6_12  and  O3_13 
REMARK    8  A    between atoms: C6_12  and  N3_15 
REMARK    9  A    between atoms: C8_17  and  O4_18 
REMARK   10  A    between atoms: C10_21  and  C11_22 
REMARK   11  A    between atoms: C11_22  and  O5_23 
REMARK   12  A    between atoms: C11_22  and  N4_25 
REMARK   13  A    between atoms: N4_25  and  C12_27 
REMARK   14  A    between atoms: C12_27  and  C13_28 
REMARK   15  A    between atoms: C16_31  and  C17_32 
ROOT
HETATM    1  N3  UNL     1      12.263  49.389  88.902  1.00  0.00    -0.349 N 
HETATM    2  C7  UNL     1      12.027  48.170  88.004  1.00  0.00     0.157 C 
HETATM    3  C8  UNL     1      10.536  48.265  87.757  1.00  0.00     0.138 C 
HETATM    4  C9  UNL     1      10.124  49.662  88.210  1.00  0.00     0.067 C 
HETATM    5  C10 UNL     1      11.538  50.351  88.198  1.00  0.00     0.163 C 
ENDROOT
BRANCH   1   6
HETATM    6  C6  UNL     1      12.994  49.205  90.059  1.00  0.00     0.138 C 
BRANCH   6   7
HETATM    7  C5  UNL     1      12.673  49.274  91.474  1.00  0.00     0.166 C 
BRANCH   7   8
HETATM    8  N2  UNL     1      12.367  50.703  91.793  1.00  0.00    -0.347 N 
HETATM    9  C4  UNL     1      13.389  51.583  92.167  1.00  0.00     0.241 C 
HETATM   10  O2  UNL     1      14.566  51.056  92.191  1.00  0.00    -0.271 OA
ATOM     11  H2  UNL     1      11.405  51.038  91.737  1.00  0.00     0.163 HD
BRANCH   9  12
HETATM   12  C3  UNL     1      13.324  52.985  92.526  1.00  0.00     0.184 C 
BRANCH  12  13
HETATM   13  N1  UNL     1      12.737  53.789  91.440  1.00  0.00    -0.347 N 
HETATM   14  C2  UNL     1      13.475  54.514  90.493  1.00  0.00     0.214 C 
HETATM   15  C1  UNL     1      12.755  55.305  89.431  1.00  0.00     0.117 C 
HETATM   16  O1  UNL     1      14.730  54.473  90.575  1.00  0.00    -0.274 OA
ATOM     17  H1  UNL     1      11.719  53.820  91.371  1.00  0.00     0.163 HD
ENDBRANCH  12  13
BRANCH  12  18
HETATM   18  C27 UNL     1      12.677  53.406  93.780  1.00  0.00    -0.022 C 
HETATM   19  C28 UNL     1      13.103  54.883  94.000  1.00  0.00     0.017 C 
HETATM   20  C29 UNL     1      13.227  52.706  95.018  1.00  0.00     0.017 C 
HETATM   21  C30 UNL     1      11.173  53.444  93.743  1.00  0.00     0.017 C 
ENDBRANCH  12  18
ENDBRANCH   9  12
ENDBRANCH   7   8
BRANCH   7  22
HETATM   22  C23 UNL     1      11.398  48.540  91.840  1.00  0.00    -0.023 C 
HETATM   23  C24 UNL     1      11.296  47.167  91.226  1.00  0.00     0.017 C 
HETATM   24  C25 UNL     1      11.494  48.317  93.362  1.00  0.00     0.017 C 
HETATM   25  C26 UNL     1      10.132  49.277  91.575  1.00  0.00     0.017 C 
ENDBRANCH   7  22
ENDBRANCH   6   7
BRANCH   6  26
HETATM   26  O3  UNL     1      14.269  48.896  89.866  1.00  0.00    -0.348 OA
ATOM     27  H3  UNL     1      14.430  47.974  90.028  1.00  0.00     0.219 HD
ENDBRANCH   6  26
ENDBRANCH   1   6
BRANCH   5  28
HETATM   28  C11 UNL     1      11.409  51.739  88.465  1.00  0.00     0.135 C 
BRANCH  28  29
HETATM   29  O5  UNL     1      11.000  52.077  89.663  1.00  0.00    -0.348 OA
ATOM     30  H5  UNL     1      11.342  52.888  90.022  1.00  0.00     0.219 HD
ENDBRANCH  28  29
BRANCH  28  31
HETATM   31  N4  UNL     1      11.648  52.836  87.634  1.00  0.00    -0.368 N 
ATOM     32  H4  UNL     1      12.413  53.469  87.870  1.00  0.00     0.161 HD
BRANCH  31  33
HETATM   33  C12 UNL     1      10.854  53.118  86.440  1.00  0.00     0.160 C 
BRANCH  33  34
HETATM   34  C13 UNL     1      11.665  52.739  85.256  1.00  0.00    -0.041 A 
HETATM   35  C14 UNL     1      12.785  53.433  84.891  1.00  0.00     0.010 A 
HETATM   36  C15 UNL     1      13.521  53.046  83.754  1.00  0.00     0.013 A 
HETATM   37  C16 UNL     1      13.169  51.993  82.983  1.00  0.00    -0.017 A 
HETATM   38  C21 UNL     1      12.013  51.289  83.373  1.00  0.00     0.013 A 
HETATM   39  C22 UNL     1      11.295  51.657  84.471  1.00  0.00     0.010 A 
BRANCH  37  40
HETATM   40  C17 UNL     1      13.872  51.524  81.792  1.00  0.00     0.038 A 
HETATM   41  S1  UNL     1      13.136  50.655  80.466  1.00  0.00    -0.082 SA
HETATM   42  C18 UNL     1      14.513  50.453  79.492  1.00  0.00     0.139 A 
HETATM   43  N5  UNL     1      15.441  51.045  80.211  1.00  0.00    -0.362 N 
HETATM   44  C19 UNL     1      15.157  51.587  81.358  1.00  0.00     0.023 A 
ATOM     45  H5  UNL     1      16.400  51.080  79.862  1.00  0.00     0.165 HD
HETATM   46  C20 UNL     1      16.252  52.272  82.168  1.00  0.00     0.069 C 
ENDBRANCH  37  40
ENDBRANCH  33  34
ENDBRANCH  31  33
ENDBRANCH  28  31
ENDBRANCH   5  28
BRANCH   3  47
HETATM   47  O4  UNL     1      10.243  48.174  86.379  1.00  0.00    -0.394 OA
ATOM     48  H4  UNL     1       9.576  47.518  86.215  1.00  0.00     0.210 HD
ENDBRANCH   3  47
TORSDOF 15
ENDMDL
