MODEL 14
REMARK VINA RESULT: -7.956513044      3.037      4.826
REMARK  12 active torsions:
REMARK  status: ('A' for Active; 'I' for Inactive)
REMARK    1  A    between atoms: O1_2  and  C2_3 
REMARK    2  A    between atoms: C5_6  and  O2_7 
REMARK    3  A    between atoms: O2_7  and  C6_8 
REMARK    4  A    between atoms: C6_8  and  C7_9 
REMARK    5  A    between atoms: C7_9  and  N1_10 
REMARK    6  A    between atoms: C9_12  and  C10_13 
REMARK    7  A    between atoms: C10_13  and  O3_14 
REMARK    8  A    between atoms: C10_13  and  C11_16 
REMARK    9  A    between atoms: C11_16  and  O4_17 
REMARK   10  A    between atoms: N2_26  and  S1_27 
REMARK   11  A    between atoms: S1_27  and  C18_30 
REMARK   12  A    between atoms: C25_39  and  O8_40 
ROOT
HETATM    1  N1  UNL     1      13.914   3.632  14.504  1.00  0.00    -0.348 N 
HETATM    2  C8  UNL     1      14.464   4.687  15.366  1.00  0.00     0.135 C 
HETATM    3  C9  UNL     1      15.791   5.165  14.860  1.00  0.00     0.058 C 
HETATM    4  C12 UNL     1      15.676   6.102  13.677  1.00  0.00     0.105 C 
HETATM    5  C13 UNL     1      16.918   5.993  12.823  1.00  0.00     0.027 C 
HETATM    6  C14 UNL     1      16.748   5.167  11.605  1.00  0.00     0.004 C 
HETATM    7  C15 UNL     1      15.603   4.228  11.606  1.00  0.00     0.036 C 
HETATM    8  C16 UNL     1      14.332   4.771  12.183  1.00  0.00     0.188 C 
HETATM    9  C17 UNL     1      13.777   3.731  13.092  1.00  0.00     0.243 C 
HETATM   10  O5  UNL     1      13.107   2.829  12.536  1.00  0.00    -0.271 OA
HETATM   11  N2  UNL     1      14.479   5.962  12.933  1.00  0.00    -0.288 N 
ENDROOT
BRANCH   1  12
HETATM   12  C7  UNL     1      13.480   2.405  15.147  1.00  0.00     0.152 C 
BRANCH  12  13
HETATM   13  C6  UNL     1      13.375   2.629  16.636  1.00  0.00     0.195 C 
BRANCH  13  14
HETATM   14  O2  UNL     1      14.026   1.699  17.409  1.00  0.00    -0.349 OA
BRANCH  14  15
HETATM   15  C5  UNL     1      15.244   1.120  17.299  1.00  0.00     0.071 A 
HETATM   16  C4  UNL     1      16.387   1.759  16.883  1.00  0.00     0.039 A 
HETATM   17  C3  UNL     1      17.590   1.056  16.812  1.00  0.00     0.042 A 
HETATM   18  C2  UNL     1      17.681  -0.279  17.149  1.00  0.00     0.101 A 
HETATM   19  C25 UNL     1      16.531  -0.913  17.566  1.00  0.00     0.104 A 
HETATM   20  C24 UNL     1      15.334  -0.243  17.644  1.00  0.00     0.076 A 
BRANCH  18  21
HETATM   21  O1  UNL     1      18.857  -1.003  17.090  1.00  0.00    -0.353 OA
HETATM   22  C1  UNL     1      19.897  -0.647  17.992  1.00  0.00     0.210 C 
ENDBRANCH  18  21
BRANCH  19  23
HETATM   23  O8  UNL     1      16.608  -2.267  17.911  1.00  0.00    -0.353 OA
HETATM   24  C26 UNL     1      15.432  -3.053  17.893  1.00  0.00     0.210 C 
ENDBRANCH  19  23
ENDBRANCH  14  15
ENDBRANCH  13  14
ENDBRANCH  12  13
ENDBRANCH   1  12
BRANCH   3  25
HETATM   25  C10 UNL     1      16.507   5.877  15.988  1.00  0.00     0.149 C 
BRANCH  25  26
HETATM   26  O3  UNL     1      16.453   7.258  15.869  1.00  0.00    -0.393 OA
ATOM     27  H3  UNL     1      17.296   7.672  16.009  1.00  0.00     0.210 HD
ENDBRANCH  25  26
BRANCH  25  28
HETATM   28  C11 UNL     1      16.004   5.470  17.334  1.00  0.00     0.196 C 
BRANCH  28  29
HETATM   29  O4  UNL     1      17.054   5.018  18.118  1.00  0.00    -0.398 OA
ATOM     30  H4  UNL     1      16.724   4.462  18.815  1.00  0.00     0.209 HD
ENDBRANCH  28  29
ENDBRANCH  25  28
ENDBRANCH   3  25
BRANCH  11  31
HETATM   31  S1  UNL     1      13.858   7.371  12.239  1.00  0.00     0.262 S 
HETATM   32  O6  UNL     1      14.955   8.292  11.844  1.00  0.00    -0.200 OA
HETATM   33  O7  UNL     1      13.080   7.007  11.007  1.00  0.00    -0.200 OA
BRANCH  31  34
HETATM   34  C18 UNL     1      12.770   8.239  13.296  1.00  0.00     0.083 A 
HETATM   35  C19 UNL     1      13.095   9.451  13.869  1.00  0.00     0.049 A 
HETATM   36  C20 UNL     1      12.235  10.136  14.704  1.00  0.00     0.037 A 
HETATM   37 CL1  UNL     1      12.670  11.685  15.426  1.00  0.00    -0.084 Cl
HETATM   38  C21 UNL     1      10.993   9.616  14.997  1.00  0.00     0.047 A 
HETATM   39  C22 UNL     1      10.661   8.404  14.428  1.00  0.00     0.037 A 
HETATM   40 CL2  UNL     1       9.077   7.709  14.783  1.00  0.00    -0.084 Cl
HETATM   41  C23 UNL     1      11.522   7.718  13.592  1.00  0.00     0.049 A 
ENDBRANCH  31  34
ENDBRANCH  11  31
TORSDOF 12
ENDMDL
