MODEL 9
REMARK VINA RESULT: -8.011681964      0.831      2.121
REMARK  12 active torsions:
REMARK  status: ('A' for Active; 'I' for Inactive)
REMARK    1  A    between atoms: O1_2  and  C2_3 
REMARK    2  A    between atoms: C5_6  and  O2_7 
REMARK    3  A    between atoms: O2_7  and  C6_8 
REMARK    4  A    between atoms: C6_8  and  C7_9 
REMARK    5  A    between atoms: C7_9  and  N1_10 
REMARK    6  A    between atoms: C9_12  and  C10_13 
REMARK    7  A    between atoms: C10_13  and  O3_14 
REMARK    8  A    between atoms: C10_13  and  C11_16 
REMARK    9  A    between atoms: C11_16  and  O4_17 
REMARK   10  A    between atoms: N2_26  and  S1_27 
REMARK   11  A    between atoms: S1_27  and  C18_30 
REMARK   12  A    between atoms: C25_39  and  O8_40 
ROOT
HETATM    1  N1  UNL     1      13.771   3.439  13.448  1.00  0.00    -0.348 N 
HETATM    2  C8  UNL     1      13.884   4.187  14.708  1.00  0.00     0.135 C 
HETATM    3  C9  UNL     1      15.243   4.802  14.854  1.00  0.00     0.058 C 
HETATM    4  C12 UNL     1      15.425   6.052  14.021  1.00  0.00     0.105 C 
HETATM    5  C13 UNL     1      16.884   6.212  13.662  1.00  0.00     0.027 C 
HETATM    6  C14 UNL     1      17.220   5.791  12.282  1.00  0.00     0.004 C 
HETATM    7  C15 UNL     1      16.252   4.890  11.618  1.00  0.00     0.036 C 
HETATM    8  C16 UNL     1      14.809   5.227  11.841  1.00  0.00     0.188 C 
HETATM    9  C17 UNL     1      14.102   3.959  12.166  1.00  0.00     0.243 C 
HETATM   10  O5  UNL     1      13.758   3.264  11.182  1.00  0.00    -0.271 OA
HETATM   11  N2  UNL     1      14.567   6.137  12.898  1.00  0.00    -0.288 N 
ENDROOT
BRANCH   1  12
HETATM   12  C7  UNL     1      13.286   2.072  13.526  1.00  0.00     0.152 C 
BRANCH  12  13
HETATM   13  C6  UNL     1      12.383   1.928  14.727  1.00  0.00     0.195 C 
BRANCH  13  14
HETATM   14  O2  UNL     1      11.497   0.881  14.663  1.00  0.00    -0.349 OA
BRANCH  14  15
HETATM   15  C5  UNL     1      10.761   0.375  13.646  1.00  0.00     0.071 A 
HETATM   16  C4  UNL     1       9.794   1.064  12.954  1.00  0.00     0.039 A 
HETATM   17  C3  UNL     1       9.101   0.436  11.919  1.00  0.00     0.042 A 
HETATM   18  C2  UNL     1       9.350  -0.871  11.556  1.00  0.00     0.101 A 
HETATM   19  C25 UNL     1      10.321  -1.555  12.254  1.00  0.00     0.104 A 
HETATM   20  C24 UNL     1      11.018  -0.960  13.278  1.00  0.00     0.076 A 
BRANCH  18  21
HETATM   21  O1  UNL     1       8.681  -1.522  10.535  1.00  0.00    -0.353 OA
HETATM   22  C1  UNL     1       8.444  -0.797   9.334  1.00  0.00     0.210 C 
ENDBRANCH  18  21
BRANCH  19  23
HETATM   23  O8  UNL     1      10.585  -2.882  11.897  1.00  0.00    -0.353 OA
HETATM   24  C26 UNL     1       9.912  -3.927  12.573  1.00  0.00     0.210 C 
ENDBRANCH  19  23
ENDBRANCH  14  15
ENDBRANCH  13  14
ENDBRANCH  12  13
ENDBRANCH   1  12
BRANCH   3  25
HETATM   25  C10 UNL     1      15.460   5.143  16.313  1.00  0.00     0.149 C 
BRANCH  25  26
HETATM   26  O3  UNL     1      14.600   6.133  16.766  1.00  0.00    -0.393 OA
ATOM     27  H3  UNL     1      13.902   5.791  17.312  1.00  0.00     0.210 HD
ENDBRANCH  25  26
BRANCH  25  28
HETATM   28  C11 UNL     1      15.359   3.948  17.203  1.00  0.00     0.196 C 
BRANCH  28  29
HETATM   29  O4  UNL     1      16.407   3.076  16.949  1.00  0.00    -0.398 OA
ATOM     30  H4  UNL     1      16.076   2.191  16.847  1.00  0.00     0.209 HD
ENDBRANCH  28  29
ENDBRANCH  25  28
ENDBRANCH   3  25
BRANCH  11  31
HETATM   31  S1  UNL     1      14.060   7.687  12.457  1.00  0.00     0.262 S 
HETATM   32  O6  UNL     1      15.219   8.611  12.354  1.00  0.00    -0.200 OA
HETATM   33  O7  UNL     1      13.390   7.618  11.113  1.00  0.00    -0.200 OA
BRANCH  31  34
HETATM   34  C18 UNL     1      12.906   8.379  13.572  1.00  0.00     0.083 A 
HETATM   35  C19 UNL     1      11.655   7.836  13.782  1.00  0.00     0.049 A 
HETATM   36  C20 UNL     1      10.743   8.383  14.662  1.00  0.00     0.037 A 
HETATM   37 CL1  UNL     1       9.149   7.674  14.917  1.00  0.00    -0.084 Cl
HETATM   38  C21 UNL     1      11.064   9.517  15.377  1.00  0.00     0.047 A 
HETATM   39  C22 UNL     1      12.314  10.065  15.171  1.00  0.00     0.037 A 
HETATM   40 CL2  UNL     1      12.757  11.519  16.070  1.00  0.00    -0.084 Cl
HETATM   41  C23 UNL     1      13.226   9.517  14.289  1.00  0.00     0.049 A 
ENDBRANCH  31  34
ENDBRANCH  11  31
TORSDOF 12
ENDMDL
