MODEL 3
REMARK VINA RESULT: -8.102311645      0.786      1.536
REMARK  12 active torsions:
REMARK  status: ('A' for Active; 'I' for Inactive)
REMARK    1  A    between atoms: O1_2  and  C2_3 
REMARK    2  A    between atoms: C5_6  and  O2_7 
REMARK    3  A    between atoms: O2_7  and  C6_8 
REMARK    4  A    between atoms: C6_8  and  C7_9 
REMARK    5  A    between atoms: C7_9  and  N1_10 
REMARK    6  A    between atoms: C9_12  and  C10_13 
REMARK    7  A    between atoms: C10_13  and  O3_14 
REMARK    8  A    between atoms: C10_13  and  C11_16 
REMARK    9  A    between atoms: C11_16  and  O4_17 
REMARK   10  A    between atoms: N2_26  and  S1_27 
REMARK   11  A    between atoms: S1_27  and  C18_30 
REMARK   12  A    between atoms: C25_39  and  O8_40 
ROOT
HETATM    1  N1  UNL     1      13.790   3.439  13.494  1.00  0.00    -0.348 N 
HETATM    2  C8  UNL     1      13.927   4.224  14.728  1.00  0.00     0.135 C 
HETATM    3  C9  UNL     1      15.287   4.848  14.827  1.00  0.00     0.058 C 
HETATM    4  C12 UNL     1      15.447   6.072  13.952  1.00  0.00     0.105 C 
HETATM    5  C13 UNL     1      16.897   6.226  13.556  1.00  0.00     0.027 C 
HETATM    6  C14 UNL     1      17.205   5.764  12.183  1.00  0.00     0.004 C 
HETATM    7  C15 UNL     1      16.225   4.841  11.568  1.00  0.00     0.036 C 
HETATM    8  C16 UNL     1      14.786   5.180  11.812  1.00  0.00     0.188 C 
HETATM    9  C17 UNL     1      14.091   3.920  12.190  1.00  0.00     0.243 C 
HETATM   10  O5  UNL     1      13.728   3.195  11.235  1.00  0.00    -0.271 OA
HETATM   11  N2  UNL     1      14.564   6.121  12.846  1.00  0.00    -0.288 N 
ENDROOT
BRANCH   1  12
HETATM   12  C7  UNL     1      13.311   2.073  13.624  1.00  0.00     0.152 C 
BRANCH  12  13
HETATM   13  C6  UNL     1      12.307   1.998  14.748  1.00  0.00     0.195 C 
BRANCH  13  14
HETATM   14  O2  UNL     1      11.428   0.947  14.671  1.00  0.00    -0.349 OA
BRANCH  14  15
HETATM   15  C5  UNL     1      10.711   0.436  13.642  1.00  0.00     0.071 A 
HETATM   16  C4  UNL     1       9.754   1.119  12.933  1.00  0.00     0.039 A 
HETATM   17  C3  UNL     1       9.081   0.487  11.887  1.00  0.00     0.042 A 
HETATM   18  C2  UNL     1       9.341  -0.820  11.531  1.00  0.00     0.101 A 
HETATM   19  C25 UNL     1      10.303  -1.499  12.247  1.00  0.00     0.104 A 
HETATM   20  C24 UNL     1      10.980  -0.899  13.281  1.00  0.00     0.076 A 
BRANCH  18  21
HETATM   21  O1  UNL     1       8.693  -1.475  10.500  1.00  0.00    -0.353 OA
HETATM   22  C1  UNL     1       8.498  -0.763   9.285  1.00  0.00     0.210 C 
ENDBRANCH  18  21
BRANCH  19  23
HETATM   23  O8  UNL     1      10.578  -2.826  11.897  1.00  0.00    -0.353 OA
HETATM   24  C26 UNL     1       9.939  -3.873  12.600  1.00  0.00     0.210 C 
ENDBRANCH  19  23
ENDBRANCH  14  15
ENDBRANCH  13  14
ENDBRANCH  12  13
ENDBRANCH   1  12
BRANCH   3  25
HETATM   25  C10 UNL     1      15.535   5.234  16.269  1.00  0.00     0.149 C 
BRANCH  25  26
HETATM   26  O3  UNL     1      14.741   6.293  16.684  1.00  0.00    -0.393 OA
ATOM     27  H3  UNL     1      14.245   6.095  17.469  1.00  0.00     0.210 HD
ENDBRANCH  25  26
BRANCH  25  28
HETATM   28  C11 UNL     1      15.364   4.084  17.208  1.00  0.00     0.196 C 
BRANCH  28  29
HETATM   29  O4  UNL     1      16.420   3.196  17.070  1.00  0.00    -0.398 OA
ATOM     30  H4  UNL     1      16.136   2.425  16.593  1.00  0.00     0.209 HD
ENDBRANCH  28  29
ENDBRANCH  25  28
ENDBRANCH   3  25
BRANCH  11  31
HETATM   31  S1  UNL     1      14.043   7.655  12.369  1.00  0.00     0.262 S 
HETATM   32  O6  UNL     1      15.196   8.576  12.203  1.00  0.00    -0.200 OA
HETATM   33  O7  UNL     1      13.334   7.543  11.049  1.00  0.00    -0.200 OA
BRANCH  31  34
HETATM   34  C18 UNL     1      12.920   8.383  13.494  1.00  0.00     0.083 A 
HETATM   35  C19 UNL     1      13.206   9.540  14.189  1.00  0.00     0.049 A 
HETATM   36  C20 UNL     1      12.319  10.114  15.077  1.00  0.00     0.037 A 
HETATM   37 CL1  UNL     1      12.703  11.593  15.957  1.00  0.00    -0.084 Cl
HETATM   38  C21 UNL     1      11.089   9.534  15.302  1.00  0.00     0.047 A 
HETATM   39  C22 UNL     1      10.797   8.377  14.609  1.00  0.00     0.037 A 
HETATM   40 CL2  UNL     1       9.229   7.607  14.873  1.00  0.00    -0.084 Cl
HETATM   41  C23 UNL     1      11.685   7.802  13.720  1.00  0.00     0.049 A 
ENDBRANCH  31  34
ENDBRANCH  11  31
TORSDOF 12
ENDMDL
