MODEL 1
REMARK VINA RESULT: -8.260863048      0.000      0.000
REMARK  12 active torsions:
REMARK  status: ('A' for Active; 'I' for Inactive)
REMARK    1  A    between atoms: O1_2  and  C2_3 
REMARK    2  A    between atoms: C5_6  and  O2_7 
REMARK    3  A    between atoms: O2_7  and  C6_8 
REMARK    4  A    between atoms: C6_8  and  C7_9 
REMARK    5  A    between atoms: C7_9  and  N1_10 
REMARK    6  A    between atoms: C9_12  and  C10_13 
REMARK    7  A    between atoms: C10_13  and  O3_14 
REMARK    8  A    between atoms: C10_13  and  C11_16 
REMARK    9  A    between atoms: C11_16  and  O4_17 
REMARK   10  A    between atoms: N2_26  and  S1_27 
REMARK   11  A    between atoms: S1_27  and  C18_30 
REMARK   12  A    between atoms: C25_39  and  O8_40 
ROOT
HETATM    1  N1  UNL     1      13.855   3.536  14.134  1.00  0.00    -0.348 N 
HETATM    2  C8  UNL     1      14.256   4.494  15.173  1.00  0.00     0.135 C 
HETATM    3  C9  UNL     1      15.616   5.060  14.895  1.00  0.00     0.058 C 
HETATM    4  C12 UNL     1      15.609   6.127  13.823  1.00  0.00     0.105 C 
HETATM    5  C13 UNL     1      16.949   6.150  13.124  1.00  0.00     0.027 C 
HETATM    6  C14 UNL     1      16.960   5.469  11.808  1.00  0.00     0.004 C 
HETATM    7  C15 UNL     1      15.861   4.510  11.558  1.00  0.00     0.036 C 
HETATM    8  C16 UNL     1      14.509   4.950  12.029  1.00  0.00     0.188 C 
HETATM    9  C17 UNL     1      13.888   3.797  12.736  1.00  0.00     0.243 C 
HETATM   10  O5  UNL     1      13.325   2.952  12.002  1.00  0.00    -0.271 OA
HETATM   11  N2  UNL     1      14.519   6.048  12.923  1.00  0.00    -0.288 N 
ENDROOT
BRANCH   1  12
HETATM   12  C7  UNL     1      13.393   2.231  14.573  1.00  0.00     0.152 C 
BRANCH  12  13
HETATM   13  C6  UNL     1      11.972   2.343  15.070  1.00  0.00     0.195 C 
BRANCH  13  14
HETATM   14  O2  UNL     1      11.009   2.007  14.152  1.00  0.00    -0.349 OA
BRANCH  14  15
HETATM   15  C5  UNL     1      10.748   0.856  13.488  1.00  0.00     0.071 A 
HETATM   16  C4  UNL     1      11.372  -0.346  13.719  1.00  0.00     0.039 A 
HETATM   17  C3  UNL     1      11.016  -1.468  12.971  1.00  0.00     0.042 A 
HETATM   18  C2  UNL     1      10.047  -1.419  11.991  1.00  0.00     0.101 A 
HETATM   19  C25 UNL     1       9.426  -0.211  11.764  1.00  0.00     0.104 A 
HETATM   20  C24 UNL     1       9.758   0.910  12.487  1.00  0.00     0.076 A 
BRANCH  18  21
HETATM   21  O1  UNL     1       9.671  -2.513  11.233  1.00  0.00    -0.353 OA
HETATM   22  C1  UNL     1      10.496  -3.670  11.288  1.00  0.00     0.210 C 
ENDBRANCH  18  21
BRANCH  19  23
HETATM   23  O8  UNL     1       8.441  -0.146  10.773  1.00  0.00    -0.353 OA
HETATM   24  C26 UNL     1       7.100   0.108  11.145  1.00  0.00     0.210 C 
ENDBRANCH  19  23
ENDBRANCH  14  15
ENDBRANCH  13  14
ENDBRANCH  12  13
ENDBRANCH   1  12
BRANCH   3  25
HETATM   25  C10 UNL     1      16.161   5.650  16.178  1.00  0.00     0.149 C 
BRANCH  25  26
HETATM   26  O3  UNL     1      15.812   6.982  16.346  1.00  0.00    -0.393 OA
ATOM     27  H3  UNL     1      15.416   7.154  17.191  1.00  0.00     0.210 HD
ENDBRANCH  25  26
BRANCH  25  28
HETATM   28  C11 UNL     1      15.754   4.871  17.387  1.00  0.00     0.196 C 
BRANCH  28  29
HETATM   29  O4  UNL     1      16.740   3.953  17.715  1.00  0.00    -0.398 OA
ATOM     30  H4  UNL     1      17.277   4.291  18.422  1.00  0.00     0.209 HD
ENDBRANCH  28  29
ENDBRANCH  25  28
ENDBRANCH   3  25
BRANCH  11  31
HETATM   31  S1  UNL     1      13.933   7.514  12.323  1.00  0.00     0.262 S 
HETATM   32  O6  UNL     1      15.051   8.443  12.020  1.00  0.00    -0.200 OA
HETATM   33  O7  UNL     1      13.176   7.254  11.051  1.00  0.00    -0.200 OA
BRANCH  31  34
HETATM   34  C18 UNL     1      12.834   8.319  13.419  1.00  0.00     0.083 A 
HETATM   35  C19 UNL     1      13.166   9.479  14.088  1.00  0.00     0.049 A 
HETATM   36  C20 UNL     1      12.298  10.114  14.953  1.00  0.00     0.037 A 
HETATM   37 CL1  UNL     1      12.741  11.596  15.801  1.00  0.00    -0.084 Cl
HETATM   38  C21 UNL     1      11.041   9.595  15.179  1.00  0.00     0.047 A 
HETATM   39  C22 UNL     1      10.703   8.436  14.512  1.00  0.00     0.037 A 
HETATM   40 CL2  UNL     1       9.101   7.744  14.779  1.00  0.00    -0.084 Cl
HETATM   41  C23 UNL     1      11.573   7.800  13.647  1.00  0.00     0.049 A 
ENDBRANCH  31  34
ENDBRANCH  11  31
TORSDOF 12
ENDMDL
