MODEL 11
REMARK VINA RESULT: -7.966134573      3.227      6.077
REMARK  12 active torsions:
REMARK  status: ('A' for Active; 'I' for Inactive)
REMARK    1  A    between atoms: O1_2  and  C2_3 
REMARK    2  A    between atoms: C5_6  and  O2_7 
REMARK    3  A    between atoms: O2_7  and  C6_8 
REMARK    4  A    between atoms: C6_8  and  C7_9 
REMARK    5  A    between atoms: C7_9  and  N1_10 
REMARK    6  A    between atoms: C9_12  and  C10_13 
REMARK    7  A    between atoms: C10_13  and  O3_14 
REMARK    8  A    between atoms: C10_13  and  C11_16 
REMARK    9  A    between atoms: C11_16  and  O4_17 
REMARK   10  A    between atoms: N2_26  and  S1_27 
REMARK   11  A    between atoms: S1_27  and  C18_30 
REMARK   12  A    between atoms: C25_39  and  O8_40 
ROOT
HETATM    1  N1  UNL     1      14.143   3.765  14.722  1.00  0.00    -0.348 N 
HETATM    2  C8  UNL     1      14.701   4.896  15.475  1.00  0.00     0.135 C 
HETATM    3  C9  UNL     1      15.978   5.383  14.858  1.00  0.00     0.058 C 
HETATM    4  C12 UNL     1      15.758   6.229  13.622  1.00  0.00     0.105 C 
HETATM    5  C13 UNL     1      16.952   6.102  12.704  1.00  0.00     0.027 C 
HETATM    6  C14 UNL     1      16.745   5.186  11.559  1.00  0.00     0.004 C 
HETATM    7  C15 UNL     1      15.639   4.211  11.694  1.00  0.00     0.036 C 
HETATM    8  C16 UNL     1      14.383   4.749  12.307  1.00  0.00     0.188 C 
HETATM    9  C17 UNL     1      13.922   3.758  13.317  1.00  0.00     0.243 C 
HETATM   10  O5  UNL     1      13.256   2.796  12.866  1.00  0.00    -0.271 OA
HETATM   11  N2  UNL     1      14.527   5.995  12.963  1.00  0.00    -0.288 N 
ENDROOT
BRANCH   1  12
HETATM   12  C7  UNL     1      13.795   2.571  15.473  1.00  0.00     0.152 C 
BRANCH  12  13
HETATM   13  C6  UNL     1      14.865   2.295  16.501  1.00  0.00     0.195 C 
BRANCH  13  14
HETATM   14  O2  UNL     1      16.064   1.868  15.988  1.00  0.00    -0.349 OA
BRANCH  14  15
HETATM   15  C5  UNL     1      17.158   1.321  16.571  1.00  0.00     0.071 A 
HETATM   16  C4  UNL     1      17.865   0.253  16.073  1.00  0.00     0.039 A 
HETATM   17  C3  UNL     1      18.980  -0.223  16.762  1.00  0.00     0.042 A 
HETATM   18  C2  UNL     1      19.410   0.345  17.944  1.00  0.00     0.101 A 
HETATM   19  C25 UNL     1      18.697   1.415  18.436  1.00  0.00     0.104 A 
HETATM   20  C24 UNL     1      17.594   1.903  17.777  1.00  0.00     0.076 A 
BRANCH  18  21
HETATM   21  O1  UNL     1      20.512  -0.102  18.650  1.00  0.00    -0.353 OA
HETATM   22  C1  UNL     1      20.930  -1.446  18.441  1.00  0.00     0.210 C 
ENDBRANCH  18  21
BRANCH  19  23
HETATM   23  O8  UNL     1      19.121   2.001  19.634  1.00  0.00    -0.353 OA
HETATM   24  C26 UNL     1      19.655   3.311  19.612  1.00  0.00     0.210 C 
ENDBRANCH  19  23
ENDBRANCH  14  15
ENDBRANCH  13  14
ENDBRANCH  12  13
ENDBRANCH   1  12
BRANCH   3  25
HETATM   25  C10 UNL     1      16.729   6.197  15.889  1.00  0.00     0.149 C 
BRANCH  25  26
HETATM   26  O3  UNL     1      16.398   7.544  15.852  1.00  0.00    -0.393 OA
ATOM     27  H3  UNL     1      16.526   7.976  16.689  1.00  0.00     0.210 HD
ENDBRANCH  25  26
BRANCH  25  28
HETATM   28  C11 UNL     1      16.546   5.675  17.277  1.00  0.00     0.196 C 
BRANCH  28  29
HETATM   29  O4  UNL     1      17.719   5.827  18.000  1.00  0.00    -0.398 OA
ATOM     30  H4  UNL     1      17.671   5.329  18.808  1.00  0.00     0.209 HD
ENDBRANCH  28  29
ENDBRANCH  25  28
ENDBRANCH   3  25
BRANCH  11  31
HETATM   31  S1  UNL     1      13.813   7.329  12.212  1.00  0.00     0.262 S 
HETATM   32  O6  UNL     1      14.848   8.288  11.747  1.00  0.00    -0.200 OA
HETATM   33  O7  UNL     1      13.033   6.858  11.017  1.00  0.00    -0.200 OA
BRANCH  31  34
HETATM   34  C18 UNL     1      12.697   8.188  13.248  1.00  0.00     0.083 A 
HETATM   35  C19 UNL     1      11.464   7.679  13.598  1.00  0.00     0.049 A 
HETATM   36  C20 UNL     1      10.582   8.358  14.416  1.00  0.00     0.037 A 
HETATM   37 CL1  UNL     1       9.010   7.691  14.853  1.00  0.00    -0.084 Cl
HETATM   38  C21 UNL     1      10.918   9.596  14.920  1.00  0.00     0.047 A 
HETATM   39  C22 UNL     1      12.150  10.110  14.573  1.00  0.00     0.037 A 
HETATM   40 CL2  UNL     1      12.612  11.695  15.201  1.00  0.00    -0.084 Cl
HETATM   41  C23 UNL     1      13.032   9.431  13.754  1.00  0.00     0.049 A 
ENDBRANCH  31  34
ENDBRANCH  11  31
TORSDOF 12
ENDMDL
