MODEL 2
REMARK VINA RESULT: -8.167631235      0.102      1.440
REMARK  12 active torsions:
REMARK  status: ('A' for Active; 'I' for Inactive)
REMARK    1  A    between atoms: O1_2  and  C2_3 
REMARK    2  A    between atoms: C5_6  and  O2_7 
REMARK    3  A    between atoms: O2_7  and  C6_8 
REMARK    4  A    between atoms: C6_8  and  C7_9 
REMARK    5  A    between atoms: C7_9  and  N1_10 
REMARK    6  A    between atoms: C9_12  and  C10_13 
REMARK    7  A    between atoms: C10_13  and  O3_14 
REMARK    8  A    between atoms: C10_13  and  C11_16 
REMARK    9  A    between atoms: C11_16  and  O4_17 
REMARK   10  A    between atoms: N2_26  and  S1_27 
REMARK   11  A    between atoms: S1_27  and  C18_30 
REMARK   12  A    between atoms: C25_39  and  O8_40 
ROOT
HETATM    1  N1  UNL     1      13.852   3.549  14.149  1.00  0.00    -0.348 N 
HETATM    2  C8  UNL     1      14.267   4.469  15.217  1.00  0.00     0.135 C 
HETATM    3  C9  UNL     1      15.641   5.012  14.963  1.00  0.00     0.058 C 
HETATM    4  C12 UNL     1      15.665   6.109  13.920  1.00  0.00     0.105 C 
HETATM    5  C13 UNL     1      17.010   6.120  13.230  1.00  0.00     0.027 C 
HETATM    6  C14 UNL     1      17.014   5.476  11.896  1.00  0.00     0.004 C 
HETATM    7  C15 UNL     1      15.895   4.549  11.614  1.00  0.00     0.036 C 
HETATM    8  C16 UNL     1      14.550   5.006  12.088  1.00  0.00     0.188 C 
HETATM    9  C17 UNL     1      13.900   3.848  12.760  1.00  0.00     0.243 C 
HETATM   10  O5  UNL     1      13.323   3.036  11.999  1.00  0.00    -0.271 OA
HETATM   11  N2  UNL     1      14.579   6.078  13.013  1.00  0.00    -0.288 N 
ENDROOT
BRANCH   1  12
HETATM   12  C7  UNL     1      13.359   2.243  14.550  1.00  0.00     0.152 C 
BRANCH  12  13
HETATM   13  C6  UNL     1      11.938   2.373  15.043  1.00  0.00     0.195 C 
BRANCH  13  14
HETATM   14  O2  UNL     1      10.974   2.027  14.129  1.00  0.00    -0.349 OA
BRANCH  14  15
HETATM   15  C5  UNL     1      10.724   0.874  13.465  1.00  0.00     0.071 A 
HETATM   16  C4  UNL     1      11.362  -0.322  13.693  1.00  0.00     0.039 A 
HETATM   17  C3  UNL     1      11.016  -1.447  12.945  1.00  0.00     0.042 A 
HETATM   18  C2  UNL     1      10.043  -1.409  11.968  1.00  0.00     0.101 A 
HETATM   19  C25 UNL     1       9.407  -0.207  11.745  1.00  0.00     0.104 A 
HETATM   20  C24 UNL     1       9.730   0.917  12.467  1.00  0.00     0.076 A 
BRANCH  18  21
HETATM   21  O1  UNL     1       9.676  -2.506  11.211  1.00  0.00    -0.353 OA
HETATM   22  C1  UNL     1      10.457  -3.687  11.339  1.00  0.00     0.210 C 
ENDBRANCH  18  21
BRANCH  19  23
HETATM   23  O8  UNL     1       8.418  -0.152  10.757  1.00  0.00    -0.353 OA
HETATM   24  C26 UNL     1       7.068   0.030  11.139  1.00  0.00     0.210 C 
ENDBRANCH  19  23
ENDBRANCH  14  15
ENDBRANCH  13  14
ENDBRANCH  12  13
ENDBRANCH   1  12
BRANCH   3  25
HETATM   25  C10 UNL     1      16.191   5.554  16.264  1.00  0.00     0.149 C 
BRANCH  25  26
HETATM   26  O3  UNL     1      15.872   6.890  16.466  1.00  0.00    -0.393 OA
ATOM     27  H3  UNL     1      15.214   7.012  17.139  1.00  0.00     0.210 HD
ENDBRANCH  25  26
BRANCH  25  28
HETATM   28  C11 UNL     1      15.759   4.753  17.449  1.00  0.00     0.196 C 
BRANCH  28  29
HETATM   29  O4  UNL     1      16.753   3.854  17.803  1.00  0.00    -0.398 OA
ATOM     30  H4  UNL     1      16.404   3.200  18.398  1.00  0.00     0.209 HD
ENDBRANCH  28  29
ENDBRANCH  25  28
ENDBRANCH   3  25
BRANCH  11  31
HETATM   31  S1  UNL     1      14.029   7.573  12.450  1.00  0.00     0.262 S 
HETATM   32  O6  UNL     1      15.164   8.512  12.256  1.00  0.00    -0.200 OA
HETATM   33  O7  UNL     1      13.347   7.376  11.126  1.00  0.00    -0.200 OA
BRANCH  31  34
HETATM   34  C18 UNL     1      12.870   8.329  13.517  1.00  0.00     0.083 A 
HETATM   35  C19 UNL     1      11.606   7.817  13.727  1.00  0.00     0.049 A 
HETATM   36  C20 UNL     1      10.690   8.414  14.569  1.00  0.00     0.037 A 
HETATM   37 CL1  UNL     1       9.079   7.746  14.824  1.00  0.00    -0.084 Cl
HETATM   38  C21 UNL     1      11.021   9.569  15.246  1.00  0.00     0.047 A 
HETATM   39  C22 UNL     1      12.284  10.086  15.041  1.00  0.00     0.037 A 
HETATM   40 CL2  UNL     1      12.740  11.565  15.891  1.00  0.00    -0.084 Cl
HETATM   41  C23 UNL     1      13.200   9.488  14.197  1.00  0.00     0.049 A 
ENDBRANCH  31  34
ENDBRANCH  11  31
TORSDOF 12
ENDMDL
