MODEL 5
REMARK VINA RESULT: -8.048383478      3.222      5.893
REMARK  12 active torsions:
REMARK  status: ('A' for Active; 'I' for Inactive)
REMARK    1  A    between atoms: O1_2  and  C2_3 
REMARK    2  A    between atoms: C5_6  and  O2_7 
REMARK    3  A    between atoms: O2_7  and  C6_8 
REMARK    4  A    between atoms: C6_8  and  C7_9 
REMARK    5  A    between atoms: C7_9  and  N1_10 
REMARK    6  A    between atoms: C9_12  and  C10_13 
REMARK    7  A    between atoms: C10_13  and  O3_14 
REMARK    8  A    between atoms: C10_13  and  C11_16 
REMARK    9  A    between atoms: C11_16  and  O4_17 
REMARK   10  A    between atoms: N2_26  and  S1_27 
REMARK   11  A    between atoms: S1_27  and  C18_30 
REMARK   12  A    between atoms: C25_39  and  O8_40 
ROOT
HETATM    1  N1  UNL     1      14.134   3.753  14.729  1.00  0.00    -0.348 N 
HETATM    2  C8  UNL     1      14.683   4.884  15.490  1.00  0.00     0.135 C 
HETATM    3  C9  UNL     1      15.964   5.374  14.885  1.00  0.00     0.058 C 
HETATM    4  C12 UNL     1      15.755   6.223  13.650  1.00  0.00     0.105 C 
HETATM    5  C13 UNL     1      16.958   6.100  12.743  1.00  0.00     0.027 C 
HETATM    6  C14 UNL     1      16.762   5.186  11.594  1.00  0.00     0.004 C 
HETATM    7  C15 UNL     1      15.658   4.209  11.716  1.00  0.00     0.036 C 
HETATM    8  C16 UNL     1      14.395   4.743  12.318  1.00  0.00     0.188 C 
HETATM    9  C17 UNL     1      13.926   3.749  13.322  1.00  0.00     0.243 C 
HETATM   10  O5  UNL     1      13.266   2.787  12.863  1.00  0.00    -0.271 OA
HETATM   11  N2  UNL     1      14.530   5.988  12.979  1.00  0.00    -0.288 N 
ENDROOT
BRANCH   1  12
HETATM   12  C7  UNL     1      13.781   2.557  15.474  1.00  0.00     0.152 C 
BRANCH  12  13
HETATM   13  C6  UNL     1      14.854   2.267  16.495  1.00  0.00     0.195 C 
BRANCH  13  14
HETATM   14  O2  UNL     1      16.045   1.825  15.974  1.00  0.00    -0.349 OA
BRANCH  14  15
HETATM   15  C5  UNL     1      17.143   1.282  16.551  1.00  0.00     0.071 A 
HETATM   16  C4  UNL     1      17.858   0.223  16.045  1.00  0.00     0.039 A 
HETATM   17  C3  UNL     1      18.978  -0.248  16.729  1.00  0.00     0.042 A 
HETATM   18  C2  UNL     1      19.405   0.314  17.915  1.00  0.00     0.101 A 
HETATM   19  C25 UNL     1      18.683   1.375  18.416  1.00  0.00     0.104 A 
HETATM   20  C24 UNL     1      17.576   1.858  17.761  1.00  0.00     0.076 A 
BRANCH  18  21
HETATM   21  O1  UNL     1      20.511  -0.130  18.616  1.00  0.00    -0.353 OA
HETATM   22  C1  UNL     1      21.095  -1.363  18.216  1.00  0.00     0.210 C 
ENDBRANCH  18  21
BRANCH  19  23
HETATM   23  O8  UNL     1      19.104   1.955  19.617  1.00  0.00    -0.353 OA
HETATM   24  C26 UNL     1      19.607   3.277  19.608  1.00  0.00     0.210 C 
ENDBRANCH  19  23
ENDBRANCH  14  15
ENDBRANCH  13  14
ENDBRANCH  12  13
ENDBRANCH   1  12
BRANCH   3  25
HETATM   25  C10 UNL     1      16.704   6.187  15.926  1.00  0.00     0.149 C 
BRANCH  25  26
HETATM   26  O3  UNL     1      16.399   7.539  15.865  1.00  0.00    -0.393 OA
ATOM     27  H3  UNL     1      16.899   8.056  16.485  1.00  0.00     0.210 HD
ENDBRANCH  25  26
BRANCH  25  28
HETATM   28  C11 UNL     1      16.478   5.685  17.315  1.00  0.00     0.196 C 
BRANCH  28  29
HETATM   29  O4  UNL     1      17.601   5.918  18.093  1.00  0.00    -0.398 OA
ATOM     30  H4  UNL     1      17.431   6.624  18.707  1.00  0.00     0.209 HD
ENDBRANCH  28  29
ENDBRANCH  25  28
ENDBRANCH   3  25
BRANCH  11  31
HETATM   31  S1  UNL     1      13.821   7.322  12.225  1.00  0.00     0.262 S 
HETATM   32  O6  UNL     1      14.860   8.260  11.727  1.00  0.00    -0.200 OA
HETATM   33  O7  UNL     1      13.012   6.848  11.051  1.00  0.00    -0.200 OA
BRANCH  31  34
HETATM   34  C18 UNL     1      12.737   8.210  13.270  1.00  0.00     0.083 A 
HETATM   35  C19 UNL     1      13.062   9.438  13.809  1.00  0.00     0.049 A 
HETATM   36  C20 UNL     1      12.206  10.139  14.635  1.00  0.00     0.037 A 
HETATM   37 CL1  UNL     1      12.639  11.707  15.315  1.00  0.00    -0.084 Cl
HETATM   38  C21 UNL     1      10.969   9.620  14.952  1.00  0.00     0.047 A 
HETATM   39  C22 UNL     1      10.638   8.393  14.415  1.00  0.00     0.037 A 
HETATM   40 CL2  UNL     1       9.061   7.699  14.802  1.00  0.00    -0.084 Cl
HETATM   41  C23 UNL     1      11.496   7.691  13.589  1.00  0.00     0.049 A 
ENDBRANCH  31  34
ENDBRANCH  11  31
TORSDOF 12
ENDMDL
