MODEL 8
REMARK VINA RESULT: -8.022615132      0.949      1.788
REMARK  12 active torsions:
REMARK  status: ('A' for Active; 'I' for Inactive)
REMARK    1  A    between atoms: O1_2  and  C2_3 
REMARK    2  A    between atoms: C5_6  and  O2_7 
REMARK    3  A    between atoms: O2_7  and  C6_8 
REMARK    4  A    between atoms: C6_8  and  C7_9 
REMARK    5  A    between atoms: C7_9  and  N1_10 
REMARK    6  A    between atoms: C9_12  and  C10_13 
REMARK    7  A    between atoms: C10_13  and  O3_14 
REMARK    8  A    between atoms: C10_13  and  C11_16 
REMARK    9  A    between atoms: C11_16  and  O4_17 
REMARK   10  A    between atoms: N2_26  and  S1_27 
REMARK   11  A    between atoms: S1_27  and  C18_30 
REMARK   12  A    between atoms: C25_39  and  O8_40 
ROOT
HETATM    1  N1  UNL     1      13.728   3.465  13.805  1.00  0.00    -0.348 N 
HETATM    2  C8  UNL     1      14.052   4.310  14.963  1.00  0.00     0.135 C 
HETATM    3  C9  UNL     1      15.439   4.870  14.855  1.00  0.00     0.058 C 
HETATM    4  C12 UNL     1      15.539   6.035  13.895  1.00  0.00     0.105 C 
HETATM    5  C13 UNL     1      16.933   6.094  13.315  1.00  0.00     0.027 C 
HETATM    6  C14 UNL     1      17.046   5.543  11.945  1.00  0.00     0.004 C 
HETATM    7  C15 UNL     1      15.959   4.638  11.512  1.00  0.00     0.036 C 
HETATM    8  C16 UNL     1      14.578   5.060  11.910  1.00  0.00     0.188 C 
HETATM    9  C17 UNL     1      13.883   3.859  12.447  1.00  0.00     0.243 C 
HETATM   10  O5  UNL     1      13.373   3.101  11.589  1.00  0.00    -0.271 OA
HETATM   11  N2  UNL     1      14.527   6.067  12.904  1.00  0.00    -0.288 N 
ENDROOT
BRANCH   1  12
HETATM   12  C7  UNL     1      13.212   2.135  14.075  1.00  0.00     0.152 C 
BRANCH  12  13
HETATM   13  C6  UNL     1      11.894   2.246  14.802  1.00  0.00     0.195 C 
BRANCH  13  14
HETATM   14  O2  UNL     1      11.068   1.157  14.673  1.00  0.00    -0.349 OA
BRANCH  14  15
HETATM   15  C5  UNL     1       9.881   0.986  14.044  1.00  0.00     0.071 A 
HETATM   16  C4  UNL     1       8.649   1.214  14.608  1.00  0.00     0.039 A 
HETATM   17  C3  UNL     1       7.492   1.006  13.858  1.00  0.00     0.042 A 
HETATM   18  C2  UNL     1       7.535   0.572  12.549  1.00  0.00     0.101 A 
HETATM   19  C25 UNL     1       8.773   0.346  11.990  1.00  0.00     0.104 A 
HETATM   20  C24 UNL     1       9.928   0.543  12.708  1.00  0.00     0.076 A 
BRANCH  18  21
HETATM   21  O1  UNL     1       6.407   0.358  11.778  1.00  0.00    -0.353 OA
HETATM   22  C1  UNL     1       5.445   1.403  11.709  1.00  0.00     0.210 C 
ENDBRANCH  18  21
BRANCH  19  23
HETATM   23  O8  UNL     1       8.832  -0.094  10.663  1.00  0.00    -0.353 OA
HETATM   24  C26 UNL     1       9.244  -1.420  10.392  1.00  0.00     0.210 C 
ENDBRANCH  19  23
ENDBRANCH  14  15
ENDBRANCH  13  14
ENDBRANCH  12  13
ENDBRANCH   1  12
BRANCH   3  25
HETATM   25  C10 UNL     1      15.882   5.321  16.230  1.00  0.00     0.149 C 
BRANCH  25  26
HETATM   26  O3  UNL     1      15.417   6.588  16.553  1.00  0.00    -0.393 OA
ATOM     27  H3  UNL     1      16.120   7.212  16.691  1.00  0.00     0.210 HD
ENDBRANCH  25  26
BRANCH  25  28
HETATM   28  C11 UNL     1      15.493   4.358  17.304  1.00  0.00     0.196 C 
BRANCH  28  29
HETATM   29  O4  UNL     1      16.474   3.388  17.450  1.00  0.00    -0.398 OA
ATOM     30  H4  UNL     1      17.327   3.798  17.531  1.00  0.00     0.209 HD
ENDBRANCH  28  29
ENDBRANCH  25  28
ENDBRANCH   3  25
BRANCH  11  31
HETATM   31  S1  UNL     1      14.015   7.596  12.404  1.00  0.00     0.262 S 
HETATM   32  O6  UNL     1      15.175   8.505  12.217  1.00  0.00    -0.200 OA
HETATM   33  O7  UNL     1      13.301   7.466  11.088  1.00  0.00    -0.200 OA
BRANCH  31  34
HETATM   34  C18 UNL     1      12.902   8.351  13.520  1.00  0.00     0.083 A 
HETATM   35  C19 UNL     1      13.215   9.495  14.225  1.00  0.00     0.049 A 
HETATM   36  C20 UNL     1      12.336  10.091  15.106  1.00  0.00     0.037 A 
HETATM   37 CL1  UNL     1      12.755  11.553  15.999  1.00  0.00    -0.084 Cl
HETATM   38  C21 UNL     1      11.086   9.548  15.313  1.00  0.00     0.047 A 
HETATM   39  C22 UNL     1      10.767   8.404  14.611  1.00  0.00     0.037 A 
HETATM   40 CL2  UNL     1       9.174   7.681  14.852  1.00  0.00    -0.084 Cl
HETATM   41  C23 UNL     1      11.648   7.807  13.728  1.00  0.00     0.049 A 
ENDBRANCH  31  34
ENDBRANCH  11  31
TORSDOF 12
ENDMDL
