MODEL 2
REMARK VINA RESULT: -8.457492215      0.060      1.430
REMARK  12 active torsions:
REMARK  status: ('A' for Active; 'I' for Inactive)
REMARK    1  A    between atoms: O1_2  and  C2_3 
REMARK    2  A    between atoms: C5_6  and  O2_7 
REMARK    3  A    between atoms: O2_7  and  C6_8 
REMARK    4  A    between atoms: C6_8  and  C7_9 
REMARK    5  A    between atoms: C7_9  and  N1_10 
REMARK    6  A    between atoms: C9_12  and  C10_13 
REMARK    7  A    between atoms: C10_13  and  O3_14 
REMARK    8  A    between atoms: C10_13  and  C11_16 
REMARK    9  A    between atoms: C11_16  and  O4_17 
REMARK   10  A    between atoms: N2_26  and  S1_27 
REMARK   11  A    between atoms: S1_27  and  C18_30 
REMARK   12  A    between atoms: C25_39  and  O8_40 
ROOT
HETATM    1  N1  UNL     1      22.490   4.201 -14.305  1.00  0.00    -0.348 N 
HETATM    2  C8  UNL     1      22.071   5.269 -15.194  1.00  0.00     0.135 C 
HETATM    3  C9  UNL     1      20.730   5.805 -14.692  1.00  0.00     0.058 C 
HETATM    4  C12 UNL     1      20.898   6.780 -13.555  1.00  0.00     0.105 C 
HETATM    5  C13 UNL     1      19.648   6.638 -12.679  1.00  0.00     0.027 C 
HETATM    6  C14 UNL     1      19.685   5.382 -11.868  1.00  0.00     0.004 C 
HETATM    7  C15 UNL     1      20.990   5.206 -11.161  1.00  0.00     0.036 C 
HETATM    8  C16 UNL     1      22.196   5.427 -12.024  1.00  0.00     0.188 C 
HETATM    9  C17 UNL     1      22.489   4.236 -12.883  1.00  0.00     0.243 C 
HETATM   10  O5  UNL     1      22.762   3.154 -12.328  1.00  0.00    -0.271 OA
HETATM   11  N2  UNL     1      22.087   6.605 -12.807  1.00  0.00    -0.288 N 
ENDROOT
BRANCH   1  12
HETATM   12  C7  UNL     1      22.957   2.968 -14.918  1.00  0.00     0.152 C 
BRANCH  12  13
HETATM   13  C6  UNL     1      24.365   3.118 -15.419  1.00  0.00     0.195 C 
BRANCH  13  14
HETATM   14  O2  UNL     1      25.326   2.598 -14.587  1.00  0.00    -0.349 OA
BRANCH  14  15
HETATM   15  C5  UNL     1      25.457   1.395 -13.978  1.00  0.00     0.071 A 
HETATM   16  C4  UNL     1      24.819   0.249 -14.366  1.00  0.00     0.039 A 
HETATM   17  C3  UNL     1      25.023  -0.947 -13.674  1.00  0.00     0.042 A 
HETATM   18  C2  UNL     1      25.854  -1.012 -12.602  1.00  0.00     0.101 A 
HETATM   19  C25 UNL     1      26.506   0.148 -12.199  1.00  0.00     0.104 A 
HETATM   20  C24 UNL     1      26.321   1.324 -12.862  1.00  0.00     0.076 A 
BRANCH  18  21
HETATM   21  O1  UNL     1      26.054  -2.199 -11.917  1.00  0.00    -0.353 OA
HETATM   22  C1  UNL     1      26.738  -3.247 -12.563  1.00  0.00     0.210 C 
ENDBRANCH  18  21
BRANCH  19  23
HETATM   23  O8  UNL     1      27.361   0.073 -11.093  1.00  0.00    -0.353 OA
HETATM   24  C26 UNL     1      28.655   0.656 -11.186  1.00  0.00     0.210 C 
ENDBRANCH  19  23
ENDBRANCH  14  15
ENDBRANCH  13  14
ENDBRANCH  12  13
ENDBRANCH   1  12
BRANCH   3  25
HETATM   25  C10 UNL     1      19.882   6.318 -15.801  1.00  0.00     0.149 C 
BRANCH  25  26
HETATM   26  O3  UNL     1      20.013   5.437 -16.885  1.00  0.00    -0.393 OA
ATOM     27  H3  UNL     1      19.660   5.868 -17.654  1.00  0.00     0.210 HD
ENDBRANCH  25  26
BRANCH  25  28
HETATM   28  C11 UNL     1      20.258   7.703 -16.260  1.00  0.00     0.196 C 
BRANCH  28  29
HETATM   29  O4  UNL     1      19.126   8.513 -16.327  1.00  0.00    -0.398 OA
ATOM     30  H4  UNL     1      19.225   9.161 -17.015  1.00  0.00     0.209 HD
ENDBRANCH  28  29
ENDBRANCH  25  28
ENDBRANCH   3  25
BRANCH  11  31
HETATM   31  S1  UNL     1      22.854   7.989 -12.226  1.00  0.00     0.262 S 
HETATM   32  O6  UNL     1      23.671   7.625 -11.020  1.00  0.00    -0.200 OA
HETATM   33  O7  UNL     1      21.836   9.018 -11.774  1.00  0.00    -0.200 OA
BRANCH  31  34
HETATM   34  C18 UNL     1      23.880   8.783 -13.419  1.00  0.00     0.083 A 
HETATM   35  C19 UNL     1      23.513  10.009 -13.928  1.00  0.00     0.049 A 
HETATM   36  C20 UNL     1      24.303  10.641 -14.860  1.00  0.00     0.037 A 
HETATM   37 CL1  UNL     1      23.810  12.213 -15.496  1.00  0.00    -0.084 Cl
HETATM   38  C21 UNL     1      25.481  10.097 -15.330  1.00  0.00     0.047 A 
HETATM   39  C22 UNL     1      25.814   8.861 -14.793  1.00  0.00     0.037 A 
HETATM   40 CL2  UNL     1      27.325   8.162 -15.395  1.00  0.00    -0.084 Cl
HETATM   41  C23 UNL     1      25.045   8.210 -13.863  1.00  0.00     0.049 A 
ENDBRANCH  31  34
ENDBRANCH  11  31
TORSDOF 12
ENDMDL
