MODEL 15
REMARK VINA RESULT: -8.116047829      2.790      4.574
REMARK  12 active torsions:
REMARK  status: ('A' for Active; 'I' for Inactive)
REMARK    1  A    between atoms: O1_2  and  C2_3 
REMARK    2  A    between atoms: C5_6  and  O2_7 
REMARK    3  A    between atoms: O2_7  and  C6_8 
REMARK    4  A    between atoms: C6_8  and  C7_9 
REMARK    5  A    between atoms: C7_9  and  N1_10 
REMARK    6  A    between atoms: C9_12  and  C10_13 
REMARK    7  A    between atoms: C10_13  and  O3_14 
REMARK    8  A    between atoms: C10_13  and  C11_16 
REMARK    9  A    between atoms: C11_16  and  O4_17 
REMARK   10  A    between atoms: N2_26  and  S1_27 
REMARK   11  A    between atoms: S1_27  and  C18_30 
REMARK   12  A    between atoms: C25_39  and  O8_40 
ROOT
HETATM    1  N1  UNL     1      22.566   4.183 -14.254  1.00  0.00    -0.348 N 
HETATM    2  C8  UNL     1      22.137   5.240 -15.151  1.00  0.00     0.135 C 
HETATM    3  C9  UNL     1      20.778   5.749 -14.669  1.00  0.00     0.058 C 
HETATM    4  C12 UNL     1      20.910   6.730 -13.533  1.00  0.00     0.105 C 
HETATM    5  C13 UNL     1      19.651   6.563 -12.674  1.00  0.00     0.027 C 
HETATM    6  C14 UNL     1      19.704   5.310 -11.859  1.00  0.00     0.004 C 
HETATM    7  C15 UNL     1      21.001   5.163 -11.133  1.00  0.00     0.036 C 
HETATM    8  C16 UNL     1      22.215   5.408 -11.980  1.00  0.00     0.188 C 
HETATM    9  C17 UNL     1      22.544   4.221 -12.833  1.00  0.00     0.243 C 
HETATM   10  O5  UNL     1      22.832   3.146 -12.271  1.00  0.00    -0.271 OA
HETATM   11  N2  UNL     1      22.092   6.581 -12.767  1.00  0.00    -0.288 N 
ENDROOT
BRANCH   1  12
HETATM   12  C7  UNL     1      23.067   2.958 -14.858  1.00  0.00     0.152 C 
BRANCH  12  13
HETATM   13  C6  UNL     1      23.187   3.104 -16.347  1.00  0.00     0.195 C 
BRANCH  13  14
HETATM   14  O2  UNL     1      22.017   2.898 -17.037  1.00  0.00    -0.349 OA
BRANCH  14  15
HETATM   15  C5  UNL     1      21.231   1.807 -17.203  1.00  0.00     0.071 A 
HETATM   16  C4  UNL     1      21.683   0.566 -17.555  1.00  0.00     0.039 A 
HETATM   17  C3  UNL     1      20.792  -0.501 -17.698  1.00  0.00     0.042 A 
HETATM   18  C2  UNL     1      19.459  -0.341 -17.494  1.00  0.00     0.101 A 
HETATM   19  C25 UNL     1      18.990   0.918 -17.136  1.00  0.00     0.104 A 
HETATM   20  C24 UNL     1      19.844   1.970 -16.992  1.00  0.00     0.076 A 
BRANCH  18  21
HETATM   21  O1  UNL     1      18.577  -1.400 -17.637  1.00  0.00    -0.353 OA
HETATM   22  C1  UNL     1      18.737  -2.273 -18.731  1.00  0.00     0.210 C 
ENDBRANCH  18  21
BRANCH  19  23
HETATM   23  O8  UNL     1      17.615   1.074 -16.929  1.00  0.00    -0.353 OA
HETATM   24  C26 UNL     1      16.829   1.662 -17.959  1.00  0.00     0.210 C 
ENDBRANCH  19  23
ENDBRANCH  14  15
ENDBRANCH  13  14
ENDBRANCH  12  13
ENDBRANCH   1  12
BRANCH   3  25
HETATM   25  C10 UNL     1      19.935   6.241 -15.791  1.00  0.00     0.149 C 
BRANCH  25  26
HETATM   26  O3  UNL     1      20.162   5.409 -16.897  1.00  0.00    -0.393 OA
ATOM     27  H3  UNL     1      19.696   5.775 -17.638  1.00  0.00     0.210 HD
ENDBRANCH  25  26
BRANCH  25  28
HETATM   28  C11 UNL     1      20.232   7.663 -16.192  1.00  0.00     0.196 C 
BRANCH  28  29
HETATM   29  O4  UNL     1      19.046   8.380 -16.343  1.00  0.00    -0.398 OA
ATOM     30  H4  UNL     1      19.219   9.223 -16.745  1.00  0.00     0.209 HD
ENDBRANCH  28  29
ENDBRANCH  25  28
ENDBRANCH   3  25
BRANCH  11  31
HETATM   31  S1  UNL     1      22.821   7.982 -12.179  1.00  0.00     0.262 S 
HETATM   32  O6  UNL     1      23.646   7.635 -10.973  1.00  0.00    -0.200 OA
HETATM   33  O7  UNL     1      21.777   8.982 -11.726  1.00  0.00    -0.200 OA
BRANCH  31  34
HETATM   34  C18 UNL     1      23.829   8.807 -13.367  1.00  0.00     0.083 A 
HETATM   35  C19 UNL     1      25.004   8.226 -13.788  1.00  0.00     0.049 A 
HETATM   36  C20 UNL     1      25.801   8.857 -14.715  1.00  0.00     0.037 A 
HETATM   37 CL1  UNL     1      27.302   8.089 -15.238  1.00  0.00    -0.084 Cl
HETATM   38  C21 UNL     1      25.479  10.083 -15.263  1.00  0.00     0.047 A 
HETATM   39  C22 UNL     1      24.288  10.634 -14.811  1.00  0.00     0.037 A 
HETATM   40 CL2  UNL     1      23.874  12.206 -15.514  1.00  0.00    -0.084 Cl
HETATM   41  C23 UNL     1      23.475  10.026 -13.890  1.00  0.00     0.049 A 
ENDBRANCH  31  34
ENDBRANCH  11  31
TORSDOF 12
ENDMDL
