MODEL 1
REMARK VINA RESULT: -8.531068754      0.000      0.000
REMARK  12 active torsions:
REMARK  status: ('A' for Active; 'I' for Inactive)
REMARK    1  A    between atoms: O1_2  and  C2_3 
REMARK    2  A    between atoms: C5_6  and  O2_7 
REMARK    3  A    between atoms: O2_7  and  C6_8 
REMARK    4  A    between atoms: C6_8  and  C7_9 
REMARK    5  A    between atoms: C7_9  and  N1_10 
REMARK    6  A    between atoms: C9_12  and  C10_13 
REMARK    7  A    between atoms: C10_13  and  O3_14 
REMARK    8  A    between atoms: C10_13  and  C11_16 
REMARK    9  A    between atoms: C11_16  and  O4_17 
REMARK   10  A    between atoms: N2_26  and  S1_27 
REMARK   11  A    between atoms: S1_27  and  C18_30 
REMARK   12  A    between atoms: C25_39  and  O8_40 
ROOT
HETATM    1  N1  UNL     1      22.483   4.201 -14.316  1.00  0.00    -0.348 N 
HETATM    2  C8  UNL     1      22.056   5.280 -15.189  1.00  0.00     0.135 C 
HETATM    3  C9  UNL     1      20.711   5.799 -14.678  1.00  0.00     0.058 C 
HETATM    4  C12 UNL     1      20.874   6.759 -13.527  1.00  0.00     0.105 C 
HETATM    5  C13 UNL     1      19.626   6.596 -12.652  1.00  0.00     0.027 C 
HETATM    6  C14 UNL     1      19.673   5.328 -11.860  1.00  0.00     0.004 C 
HETATM    7  C15 UNL     1      20.979   5.151 -11.156  1.00  0.00     0.036 C 
HETATM    8  C16 UNL     1      22.183   5.393 -12.017  1.00  0.00     0.188 C 
HETATM    9  C17 UNL     1      22.483   4.216 -12.894  1.00  0.00     0.243 C 
HETATM   10  O5  UNL     1      22.763   3.128 -12.354  1.00  0.00    -0.271 OA
HETATM   11  N2  UNL     1      22.065   6.581 -12.782  1.00  0.00    -0.288 N 
ENDROOT
BRANCH   1  12
HETATM   12  C7  UNL     1      22.958   2.981 -14.947  1.00  0.00     0.152 C 
BRANCH  12  13
HETATM   13  C6  UNL     1      24.373   3.139 -15.423  1.00  0.00     0.195 C 
BRANCH  13  14
HETATM   14  O2  UNL     1      25.322   2.614 -14.581  1.00  0.00    -0.349 OA
BRANCH  14  15
HETATM   15  C5  UNL     1      25.448   1.405 -13.983  1.00  0.00     0.071 A 
HETATM   16  C4  UNL     1      24.821   0.261 -14.393  1.00  0.00     0.039 A 
HETATM   17  C3  UNL     1      25.018  -0.942 -13.711  1.00  0.00     0.042 A 
HETATM   18  C2  UNL     1      25.833  -1.015 -12.628  1.00  0.00     0.101 A 
HETATM   19  C25 UNL     1      26.475   0.142 -12.203  1.00  0.00     0.104 A 
HETATM   20  C24 UNL     1      26.295   1.325 -12.855  1.00  0.00     0.076 A 
BRANCH  18  21
HETATM   21  O1  UNL     1      26.027  -2.210 -11.953  1.00  0.00    -0.353 OA
HETATM   22  C1  UNL     1      26.847  -3.194 -12.539  1.00  0.00     0.210 C 
ENDBRANCH  18  21
BRANCH  19  23
HETATM   23  O8  UNL     1      27.313   0.057 -11.085  1.00  0.00    -0.353 OA
HETATM   24  C26 UNL     1      28.636   0.571 -11.180  1.00  0.00     0.210 C 
ENDBRANCH  19  23
ENDBRANCH  14  15
ENDBRANCH  13  14
ENDBRANCH  12  13
ENDBRANCH   1  12
BRANCH   3  25
HETATM   25  C10 UNL     1      19.860   6.323 -15.779  1.00  0.00     0.149 C 
BRANCH  25  26
HETATM   26  O3  UNL     1      19.984   5.450 -16.870  1.00  0.00    -0.393 OA
ATOM     27  H3  UNL     1      19.813   5.947 -17.661  1.00  0.00     0.210 HD
ENDBRANCH  25  26
BRANCH  25  28
HETATM   28  C11 UNL     1      20.235   7.711 -16.228  1.00  0.00     0.196 C 
BRANCH  28  29
HETATM   29  O4  UNL     1      19.096   8.502 -16.357  1.00  0.00    -0.398 OA
ATOM     30  H4  UNL     1      18.325   7.955 -16.461  1.00  0.00     0.209 HD
ENDBRANCH  28  29
ENDBRANCH  25  28
ENDBRANCH   3  25
BRANCH  11  31
HETATM   31  S1  UNL     1      22.823   7.962 -12.182  1.00  0.00     0.262 S 
HETATM   32  O6  UNL     1      23.654   7.584 -10.990  1.00  0.00    -0.200 OA
HETATM   33  O7  UNL     1      21.799   8.971 -11.703  1.00  0.00    -0.200 OA
BRANCH  31  34
HETATM   34  C18 UNL     1      23.831   8.788 -13.369  1.00  0.00     0.083 A 
HETATM   35  C19 UNL     1      25.005   8.205 -13.792  1.00  0.00     0.049 A 
HETATM   36  C20 UNL     1      25.802   8.837 -14.718  1.00  0.00     0.037 A 
HETATM   37 CL1  UNL     1      27.302   8.067 -15.244  1.00  0.00    -0.084 Cl
HETATM   38  C21 UNL     1      25.483  10.065 -15.263  1.00  0.00     0.047 A 
HETATM   39  C22 UNL     1      24.293  10.617 -14.808  1.00  0.00     0.037 A 
HETATM   40 CL2  UNL     1      23.881  12.192 -15.507  1.00  0.00    -0.084 Cl
HETATM   41  C23 UNL     1      23.479  10.009 -13.888  1.00  0.00     0.049 A 
ENDBRANCH  31  34
ENDBRANCH  11  31
TORSDOF 12
ENDMDL
