MODEL 4
REMARK VINA RESULT: -8.293296543      0.800      1.618
REMARK  12 active torsions:
REMARK  status: ('A' for Active; 'I' for Inactive)
REMARK    1  A    between atoms: O1_2  and  C2_3 
REMARK    2  A    between atoms: C5_6  and  O2_7 
REMARK    3  A    between atoms: O2_7  and  C6_8 
REMARK    4  A    between atoms: C6_8  and  C7_9 
REMARK    5  A    between atoms: C7_9  and  N1_10 
REMARK    6  A    between atoms: C9_12  and  C10_13 
REMARK    7  A    between atoms: C10_13  and  O3_14 
REMARK    8  A    between atoms: C10_13  and  C11_16 
REMARK    9  A    between atoms: C11_16  and  O4_17 
REMARK   10  A    between atoms: N2_26  and  S1_27 
REMARK   11  A    between atoms: S1_27  and  C18_30 
REMARK   12  A    between atoms: C25_39  and  O8_40 
ROOT
HETATM    1  N1  UNL     1      22.508   4.208 -14.314  1.00  0.00    -0.348 N 
HETATM    2  C8  UNL     1      22.072   5.282 -15.188  1.00  0.00     0.135 C 
HETATM    3  C9  UNL     1      20.721   5.789 -14.679  1.00  0.00     0.058 C 
HETATM    4  C12 UNL     1      20.874   6.751 -13.529  1.00  0.00     0.105 C 
HETATM    5  C13 UNL     1      19.626   6.577 -12.655  1.00  0.00     0.027 C 
HETATM    6  C14 UNL     1      19.684   5.310 -11.862  1.00  0.00     0.004 C 
HETATM    7  C15 UNL     1      20.992   5.146 -11.156  1.00  0.00     0.036 C 
HETATM    8  C16 UNL     1      22.194   5.399 -12.016  1.00  0.00     0.188 C 
HETATM    9  C17 UNL     1      22.506   4.224 -12.892  1.00  0.00     0.243 C 
HETATM   10  O5  UNL     1      22.797   3.140 -12.351  1.00  0.00    -0.271 OA
HETATM   11  N2  UNL     1      22.066   6.585 -12.783  1.00  0.00    -0.288 N 
ENDROOT
BRANCH   1  12
HETATM   12  C7  UNL     1      22.995   2.992 -14.944  1.00  0.00     0.152 C 
BRANCH  12  13
HETATM   13  C6  UNL     1      24.348   3.210 -15.557  1.00  0.00     0.195 C 
BRANCH  13  14
HETATM   14  O2  UNL     1      25.395   2.699 -14.828  1.00  0.00    -0.349 OA
BRANCH  14  15
HETATM   15  C5  UNL     1      25.601   1.497 -14.238  1.00  0.00     0.071 A 
HETATM   16  C4  UNL     1      25.968   1.321 -12.933  1.00  0.00     0.039 A 
HETATM   17  C3  UNL     1      26.152   0.037 -12.414  1.00  0.00     0.042 A 
HETATM   18  C2  UNL     1      25.974  -1.069 -13.182  1.00  0.00     0.101 A 
HETATM   19  C25 UNL     1      25.601  -0.899 -14.511  1.00  0.00     0.104 A 
HETATM   20  C24 UNL     1      25.417   0.345 -15.035  1.00  0.00     0.076 A 
BRANCH  18  21
HETATM   21  O1  UNL     1      26.158  -2.341 -12.665  1.00  0.00    -0.353 OA
HETATM   22  C1  UNL     1      26.425  -2.482 -11.290  1.00  0.00     0.210 C 
ENDBRANCH  18  21
BRANCH  19  23
HETATM   23  O8  UNL     1      25.421  -2.044 -15.295  1.00  0.00    -0.353 OA
HETATM   24  C26 UNL     1      24.336  -2.080 -16.215  1.00  0.00     0.210 C 
ENDBRANCH  19  23
ENDBRANCH  14  15
ENDBRANCH  13  14
ENDBRANCH  12  13
ENDBRANCH   1  12
BRANCH   3  25
HETATM   25  C10 UNL     1      19.865   6.303 -15.782  1.00  0.00     0.149 C 
BRANCH  25  26
HETATM   26  O3  UNL     1      20.008   5.437 -16.875  1.00  0.00    -0.393 OA
ATOM     27  H3  UNL     1      20.649   5.815 -17.465  1.00  0.00     0.210 HD
ENDBRANCH  25  26
BRANCH  25  28
HETATM   28  C11 UNL     1      20.221   7.699 -16.224  1.00  0.00     0.196 C 
BRANCH  28  29
HETATM   29  O4  UNL     1      19.071   8.475 -16.343  1.00  0.00    -0.398 OA
ATOM     30  H4  UNL     1      18.705   8.390 -17.216  1.00  0.00     0.209 HD
ENDBRANCH  28  29
ENDBRANCH  25  28
ENDBRANCH   3  25
BRANCH  11  31
HETATM   31  S1  UNL     1      22.810   7.974 -12.184  1.00  0.00     0.262 S 
HETATM   32  O6  UNL     1      23.635   7.607 -10.984  1.00  0.00    -0.200 OA
HETATM   33  O7  UNL     1      21.776   8.978 -11.716  1.00  0.00    -0.200 OA
BRANCH  31  34
HETATM   34  C18 UNL     1      23.820   8.802 -13.366  1.00  0.00     0.083 A 
HETATM   35  C19 UNL     1      24.997   8.223 -13.784  1.00  0.00     0.049 A 
HETATM   36  C20 UNL     1      25.797   8.856 -14.707  1.00  0.00     0.037 A 
HETATM   37 CL1  UNL     1      27.301   8.091 -15.226  1.00  0.00    -0.084 Cl
HETATM   38  C21 UNL     1      25.476  10.082 -15.254  1.00  0.00     0.047 A 
HETATM   39  C22 UNL     1      24.283  10.631 -14.806  1.00  0.00     0.037 A 
HETATM   40 CL2  UNL     1      23.869  12.204 -15.508  1.00  0.00    -0.084 Cl
HETATM   41  C23 UNL     1      23.467  10.021 -13.888  1.00  0.00     0.049 A 
ENDBRANCH  31  34
ENDBRANCH  11  31
TORSDOF 12
ENDMDL
