MODEL 13
REMARK VINA RESULT: -8.132696241      3.069      5.507
REMARK  12 active torsions:
REMARK  status: ('A' for Active; 'I' for Inactive)
REMARK    1  A    between atoms: O1_2  and  C2_3 
REMARK    2  A    between atoms: C5_6  and  O2_7 
REMARK    3  A    between atoms: O2_7  and  C6_8 
REMARK    4  A    between atoms: C6_8  and  C7_9 
REMARK    5  A    between atoms: C7_9  and  N1_10 
REMARK    6  A    between atoms: C9_12  and  C10_13 
REMARK    7  A    between atoms: C10_13  and  O3_14 
REMARK    8  A    between atoms: C10_13  and  C11_16 
REMARK    9  A    between atoms: C11_16  and  O4_17 
REMARK   10  A    between atoms: N2_26  and  S1_27 
REMARK   11  A    between atoms: S1_27  and  C18_30 
REMARK   12  A    between atoms: C25_39  and  O8_40 
ROOT
HETATM    1  N1  UNL     1      22.369   4.145 -14.568  1.00  0.00    -0.348 N 
HETATM    2  C8  UNL     1      21.977   5.290 -15.369  1.00  0.00     0.135 C 
HETATM    3  C9  UNL     1      20.679   5.853 -14.785  1.00  0.00     0.058 C 
HETATM    4  C12 UNL     1      20.931   6.739 -13.593  1.00  0.00     0.105 C 
HETATM    5  C13 UNL     1      19.704   6.597 -12.685  1.00  0.00     0.027 C 
HETATM    6  C14 UNL     1      19.705   5.287 -11.962  1.00  0.00     0.004 C 
HETATM    7  C15 UNL     1      21.020   5.002 -11.313  1.00  0.00     0.036 C 
HETATM    8  C16 UNL     1      22.208   5.225 -12.201  1.00  0.00     0.188 C 
HETATM    9  C17 UNL     1      22.415   4.083 -13.148  1.00  0.00     0.243 C 
HETATM   10  O5  UNL     1      22.652   2.954 -12.675  1.00  0.00    -0.271 OA
HETATM   11  N2  UNL     1      22.133   6.457 -12.899  1.00  0.00    -0.288 N 
ENDROOT
BRANCH   1  12
HETATM   12  C7  UNL     1      22.756   2.936 -15.278  1.00  0.00     0.152 C 
BRANCH  12  13
HETATM   13  C6  UNL     1      21.764   2.605 -16.354  1.00  0.00     0.195 C 
BRANCH  13  14
HETATM   14  O2  UNL     1      20.501   2.314 -15.898  1.00  0.00    -0.349 OA
BRANCH  14  15
HETATM   15  C5  UNL     1      19.417   1.759 -16.492  1.00  0.00     0.071 A 
HETATM   16  C4  UNL     1      18.698   0.714 -15.982  1.00  0.00     0.039 A 
HETATM   17  C3  UNL     1      17.590   0.212 -16.669  1.00  0.00     0.042 A 
HETATM   18  C2  UNL     1      17.193   0.741 -17.856  1.00  0.00     0.101 A 
HETATM   19  C25 UNL     1      17.919   1.804 -18.381  1.00  0.00     0.104 A 
HETATM   20  C24 UNL     1      19.003   2.307 -17.726  1.00  0.00     0.076 A 
BRANCH  18  21
HETATM   21  O1  UNL     1      16.094   0.242 -18.535  1.00  0.00    -0.353 OA
HETATM   22  C1  UNL     1      15.592  -1.024 -18.175  1.00  0.00     0.210 C 
ENDBRANCH  18  21
BRANCH  19  23
HETATM   23  O8  UNL     1      17.504   2.344 -19.604  1.00  0.00    -0.353 OA
HETATM   24  C26 UNL     1      16.944   3.651 -19.622  1.00  0.00     0.210 C 
ENDBRANCH  19  23
ENDBRANCH  14  15
ENDBRANCH  13  14
ENDBRANCH  12  13
ENDBRANCH   1  12
BRANCH   3  25
HETATM   25  C10 UNL     1      19.824   6.480 -15.828  1.00  0.00     0.149 C 
BRANCH  25  26
HETATM   26  O3  UNL     1      19.830   5.640 -16.951  1.00  0.00    -0.393 OA
ATOM     27  H3  UNL     1      18.944   5.328 -17.087  1.00  0.00     0.210 HD
ENDBRANCH  25  26
BRANCH  25  28
HETATM   28  C11 UNL     1      20.288   7.850 -16.249  1.00  0.00     0.196 C 
BRANCH  28  29
HETATM   29  O4  UNL     1      19.194   8.683 -16.471  1.00  0.00    -0.398 OA
ATOM     30  H4  UNL     1      18.687   8.782 -15.673  1.00  0.00     0.209 HD
ENDBRANCH  28  29
ENDBRANCH  25  28
ENDBRANCH   3  25
BRANCH  11  31
HETATM   31  S1  UNL     1      22.985   7.761 -12.255  1.00  0.00     0.262 S 
HETATM   32  O6  UNL     1      23.898   7.261 -11.172  1.00  0.00    -0.200 OA
HETATM   33  O7  UNL     1      22.039   8.755 -11.610  1.00  0.00    -0.200 OA
BRANCH  31  34
HETATM   34  C18 UNL     1      23.920   8.656 -13.450  1.00  0.00     0.083 A 
HETATM   35  C19 UNL     1      25.036   8.081 -14.015  1.00  0.00     0.049 A 
HETATM   36  C20 UNL     1      25.777   8.766 -14.950  1.00  0.00     0.037 A 
HETATM   37 CL1  UNL     1      27.203   8.005 -15.659  1.00  0.00    -0.084 Cl
HETATM   38  C21 UNL     1      25.454  10.042 -15.366  1.00  0.00     0.047 A 
HETATM   39  C22 UNL     1      24.323  10.586 -14.772  1.00  0.00     0.037 A 
HETATM   40 CL2  UNL     1      23.908  12.222 -15.306  1.00  0.00    -0.084 Cl
HETATM   41  C23 UNL     1      23.567   9.924 -13.839  1.00  0.00     0.049 A 
ENDBRANCH  31  34
ENDBRANCH  11  31
TORSDOF 12
ENDMDL
