MODEL 6
REMARK VINA RESULT: -8.245472688      1.049      1.415
REMARK  12 active torsions:
REMARK  status: ('A' for Active; 'I' for Inactive)
REMARK    1  A    between atoms: O1_2  and  C2_3 
REMARK    2  A    between atoms: C5_6  and  O2_7 
REMARK    3  A    between atoms: O2_7  and  C6_8 
REMARK    4  A    between atoms: C6_8  and  C7_9 
REMARK    5  A    between atoms: C7_9  and  N1_10 
REMARK    6  A    between atoms: C9_12  and  C10_13 
REMARK    7  A    between atoms: C10_13  and  O3_14 
REMARK    8  A    between atoms: C10_13  and  C11_16 
REMARK    9  A    between atoms: C11_16  and  O4_17 
REMARK   10  A    between atoms: N2_26  and  S1_27 
REMARK   11  A    between atoms: S1_27  and  C18_30 
REMARK   12  A    between atoms: C25_39  and  O8_40 
ROOT
HETATM    1  N1  UNL     1      22.523   4.163 -14.303  1.00  0.00    -0.348 N 
HETATM    2  C8  UNL     1      22.102   5.236 -15.186  1.00  0.00     0.135 C 
HETATM    3  C9  UNL     1      20.754   5.758 -14.687  1.00  0.00     0.058 C 
HETATM    4  C12 UNL     1      20.909   6.726 -13.541  1.00  0.00     0.105 C 
HETATM    5  C13 UNL     1      19.655   6.568 -12.673  1.00  0.00     0.027 C 
HETATM    6  C14 UNL     1      19.697   5.305 -11.872  1.00  0.00     0.004 C 
HETATM    7  C15 UNL     1      20.999   5.133 -11.159  1.00  0.00     0.036 C 
HETATM    8  C16 UNL     1      22.208   5.370 -12.014  1.00  0.00     0.188 C 
HETATM    9  C17 UNL     1      22.514   4.187 -12.881  1.00  0.00     0.243 C 
HETATM   10  O5  UNL     1      22.792   3.103 -12.333  1.00  0.00    -0.271 OA
HETATM   11  N2  UNL     1      22.095   6.552 -12.788  1.00  0.00    -0.288 N 
ENDROOT
BRANCH   1  12
HETATM   12  C7  UNL     1      23.003   2.939 -14.923  1.00  0.00     0.152 C 
BRANCH  12  13
HETATM   13  C6  UNL     1      24.413   3.101 -15.411  1.00  0.00     0.195 C 
BRANCH  13  14
HETATM   14  O2  UNL     1      25.182   1.966 -15.326  1.00  0.00    -0.349 OA
BRANCH  14  15
HETATM   15  C5  UNL     1      25.930   1.438 -14.327  1.00  0.00     0.071 A 
HETATM   16  C4  UNL     1      25.433   0.719 -13.276  1.00  0.00     0.039 A 
HETATM   17  C3  UNL     1      26.288   0.211 -12.295  1.00  0.00     0.042 A 
HETATM   18  C2  UNL     1      27.630   0.414 -12.352  1.00  0.00     0.101 A 
HETATM   19  C25 UNL     1      28.144   1.144 -13.418  1.00  0.00     0.104 A 
HETATM   20  C24 UNL     1      27.326   1.647 -14.384  1.00  0.00     0.076 A 
BRANCH  18  21
HETATM   21  O1  UNL     1      28.477  -0.091 -11.378  1.00  0.00    -0.353 OA
HETATM   22  C1  UNL     1      28.016  -0.157 -10.049  1.00  0.00     0.210 C 
ENDBRANCH  18  21
BRANCH  19  23
HETATM   23  O8  UNL     1      29.528   1.348 -13.469  1.00  0.00    -0.353 OA
HETATM   24  C26 UNL     1      30.080   2.021 -14.594  1.00  0.00     0.210 C 
ENDBRANCH  19  23
ENDBRANCH  14  15
ENDBRANCH  13  14
ENDBRANCH  12  13
ENDBRANCH   1  12
BRANCH   3  25
HETATM   25  C10 UNL     1      19.909   6.274 -15.797  1.00  0.00     0.149 C 
BRANCH  25  26
HETATM   26  O3  UNL     1      20.049   5.401 -16.885  1.00  0.00    -0.393 OA
ATOM     27  H3  UNL     1      19.736   5.850 -17.661  1.00  0.00     0.210 HD
ENDBRANCH  25  26
BRANCH  25  28
HETATM   28  C11 UNL     1      20.280   7.664 -16.245  1.00  0.00     0.196 C 
BRANCH  28  29
HETATM   29  O4  UNL     1      19.144   8.467 -16.318  1.00  0.00    -0.398 OA
ATOM     30  H4  UNL     1      19.069   8.854 -17.183  1.00  0.00     0.209 HD
ENDBRANCH  28  29
ENDBRANCH  25  28
ENDBRANCH   3  25
BRANCH  11  31
HETATM   31  S1  UNL     1      22.849   7.938 -12.192  1.00  0.00     0.262 S 
HETATM   32  O6  UNL     1      23.696   7.563 -11.009  1.00  0.00    -0.200 OA
HETATM   33  O7  UNL     1      21.823   8.938 -11.699  1.00  0.00    -0.200 OA
BRANCH  31  34
HETATM   34  C18 UNL     1      23.838   8.774 -13.387  1.00  0.00     0.083 A 
HETATM   35  C19 UNL     1      25.024   8.213 -13.807  1.00  0.00     0.049 A 
HETATM   36  C20 UNL     1      25.807   8.853 -14.738  1.00  0.00     0.037 A 
HETATM   37 CL1  UNL     1      27.322   8.111 -15.260  1.00  0.00    -0.084 Cl
HETATM   38  C21 UNL     1      25.461  10.069 -15.294  1.00  0.00     0.047 A 
HETATM   39  C22 UNL     1      24.260  10.600 -14.843  1.00  0.00     0.037 A 
HETATM   40 CL2  UNL     1      23.815  12.159 -15.555  1.00  0.00    -0.084 Cl
HETATM   41  C23 UNL     1      23.461   9.983 -13.916  1.00  0.00     0.049 A 
ENDBRANCH  31  34
ENDBRANCH  11  31
TORSDOF 12
ENDMDL
