MODEL 5
REMARK VINA RESULT: -8.282629453      0.972      1.680
REMARK  12 active torsions:
REMARK  status: ('A' for Active; 'I' for Inactive)
REMARK    1  A    between atoms: O1_2  and  C2_3 
REMARK    2  A    between atoms: C5_6  and  O2_7 
REMARK    3  A    between atoms: O2_7  and  C6_8 
REMARK    4  A    between atoms: C6_8  and  C7_9 
REMARK    5  A    between atoms: C7_9  and  N1_10 
REMARK    6  A    between atoms: C9_12  and  C10_13 
REMARK    7  A    between atoms: C10_13  and  O3_14 
REMARK    8  A    between atoms: C10_13  and  C11_16 
REMARK    9  A    between atoms: C11_16  and  O4_17 
REMARK   10  A    between atoms: N2_26  and  S1_27 
REMARK   11  A    between atoms: S1_27  and  C18_30 
REMARK   12  A    between atoms: C25_39  and  O8_40 
ROOT
HETATM    1  N1  UNL     1      22.555   4.163 -14.219  1.00  0.00    -0.348 N 
HETATM    2  C8  UNL     1      22.130   5.216 -15.123  1.00  0.00     0.135 C 
HETATM    3  C9  UNL     1      20.772   5.731 -14.645  1.00  0.00     0.058 C 
HETATM    4  C12 UNL     1      20.906   6.720 -13.516  1.00  0.00     0.105 C 
HETATM    5  C13 UNL     1      19.646   6.563 -12.656  1.00  0.00     0.027 C 
HETATM    6  C14 UNL     1      19.695   5.315 -11.833  1.00  0.00     0.004 C 
HETATM    7  C15 UNL     1      20.992   5.169 -11.105  1.00  0.00     0.036 C 
HETATM    8  C16 UNL     1      22.206   5.405 -11.953  1.00  0.00     0.188 C 
HETATM    9  C17 UNL     1      22.533   4.211 -12.797  1.00  0.00     0.243 C 
HETATM   10  O5  UNL     1      22.818   3.140 -12.228  1.00  0.00    -0.271 OA
HETATM   11  N2  UNL     1      22.087   6.573 -12.749  1.00  0.00    -0.288 N 
ENDROOT
BRANCH   1  12
HETATM   12  C7  UNL     1      23.054   2.933 -14.813  1.00  0.00     0.152 C 
BRANCH  12  13
HETATM   13  C6  UNL     1      24.439   3.125 -15.359  1.00  0.00     0.195 C 
BRANCH  13  14
HETATM   14  O2  UNL     1      25.221   1.996 -15.342  1.00  0.00    -0.349 OA
BRANCH  14  15
HETATM   15  C5  UNL     1      26.340   1.666 -14.654  1.00  0.00     0.071 A 
HETATM   16  C4  UNL     1      27.617   1.834 -15.113  1.00  0.00     0.039 A 
HETATM   17  C3  UNL     1      28.710   1.467 -14.324  1.00  0.00     0.042 A 
HETATM   18  C2  UNL     1      28.542   0.935 -13.085  1.00  0.00     0.101 A 
HETATM   19  C25 UNL     1      27.247   0.760 -12.610  1.00  0.00     0.104 A 
HETATM   20  C24 UNL     1      26.169   1.113 -13.365  1.00  0.00     0.076 A 
BRANCH  18  21
HETATM   21  O1  UNL     1      29.627   0.571 -12.305  1.00  0.00    -0.353 OA
HETATM   22  C1  UNL     1      30.503   1.577 -11.851  1.00  0.00     0.210 C 
ENDBRANCH  18  21
BRANCH  19  23
HETATM   23  O8  UNL     1      27.083   0.211 -11.334  1.00  0.00    -0.353 OA
HETATM   24  C26 UNL     1      26.746  -1.166 -11.218  1.00  0.00     0.210 C 
ENDBRANCH  19  23
ENDBRANCH  14  15
ENDBRANCH  13  14
ENDBRANCH  12  13
ENDBRANCH   1  12
BRANCH   3  25
HETATM   25  C10 UNL     1      19.931   6.218 -15.771  1.00  0.00     0.149 C 
BRANCH  25  26
HETATM   26  O3  UNL     1      20.096   5.332 -16.846  1.00  0.00    -0.393 OA
ATOM     27  H3  UNL     1      19.254   5.234 -17.274  1.00  0.00     0.210 HD
ENDBRANCH  25  26
BRANCH  25  28
HETATM   28  C11 UNL     1      20.286   7.607 -16.235  1.00  0.00     0.196 C 
BRANCH  28  29
HETATM   29  O4  UNL     1      19.149   8.412 -16.265  1.00  0.00    -0.398 OA
ATOM     30  H4  UNL     1      18.897   8.593 -17.163  1.00  0.00     0.209 HD
ENDBRANCH  28  29
ENDBRANCH  25  28
ENDBRANCH   3  25
BRANCH  11  31
HETATM   31  S1  UNL     1      22.820   7.976 -12.170  1.00  0.00     0.262 S 
HETATM   32  O6  UNL     1      23.647   7.634 -10.964  1.00  0.00    -0.200 OA
HETATM   33  O7  UNL     1      21.778   8.980 -11.720  1.00  0.00    -0.200 OA
BRANCH  31  34
HETATM   34  C18 UNL     1      23.826   8.793 -13.365  1.00  0.00     0.083 A 
HETATM   35  C19 UNL     1      25.011   8.219 -13.768  1.00  0.00     0.049 A 
HETATM   36  C20 UNL     1      25.807   8.844 -14.699  1.00  0.00     0.037 A 
HETATM   37 CL1  UNL     1      27.321   8.085 -15.199  1.00  0.00    -0.084 Cl
HETATM   38  C21 UNL     1      25.475  10.056 -15.270  1.00  0.00     0.047 A 
HETATM   39  C22 UNL     1      24.274  10.600 -14.836  1.00  0.00     0.037 A 
HETATM   40 CL2  UNL     1      23.846  12.155 -15.569  1.00  0.00    -0.084 Cl
HETATM   41  C23 UNL     1      23.462   9.999 -13.910  1.00  0.00     0.049 A 
ENDBRANCH  31  34
ENDBRANCH  11  31
TORSDOF 12
ENDMDL
