MODEL 3
REMARK VINA RESULT: -8.306591506      2.685      4.938
REMARK  12 active torsions:
REMARK  status: ('A' for Active; 'I' for Inactive)
REMARK    1  A    between atoms: O1_2  and  C2_3 
REMARK    2  A    between atoms: C5_6  and  O2_7 
REMARK    3  A    between atoms: O2_7  and  C6_8 
REMARK    4  A    between atoms: C6_8  and  C7_9 
REMARK    5  A    between atoms: C7_9  and  N1_10 
REMARK    6  A    between atoms: C9_12  and  C10_13 
REMARK    7  A    between atoms: C10_13  and  O3_14 
REMARK    8  A    between atoms: C10_13  and  C11_16 
REMARK    9  A    between atoms: C11_16  and  O4_17 
REMARK   10  A    between atoms: N2_26  and  S1_27 
REMARK   11  A    between atoms: S1_27  and  C18_30 
REMARK   12  A    between atoms: C25_39  and  O8_40 
ROOT
HETATM    1  N1  UNL     1      22.675   4.186 -14.130  1.00  0.00    -0.348 N 
HETATM    2  C8  UNL     1      22.156   5.172 -15.061  1.00  0.00     0.135 C 
HETATM    3  C9  UNL     1      20.768   5.596 -14.577  1.00  0.00     0.058 C 
HETATM    4  C12 UNL     1      20.841   6.629 -13.483  1.00  0.00     0.105 C 
HETATM    5  C13 UNL     1      19.610   6.404 -12.597  1.00  0.00     0.027 C 
HETATM    6  C14 UNL     1      19.767   5.192 -11.735  1.00  0.00     0.004 C 
HETATM    7  C15 UNL     1      21.082   5.172 -11.025  1.00  0.00     0.036 C 
HETATM    8  C16 UNL     1      22.262   5.473 -11.901  1.00  0.00     0.188 C 
HETATM    9  C17 UNL     1      22.669   4.281 -12.711  1.00  0.00     0.243 C 
HETATM   10  O5  UNL     1      23.045   3.254 -12.112  1.00  0.00    -0.271 OA
HETATM   11  N2  UNL     1      22.040   6.601 -12.731  1.00  0.00    -0.288 N 
ENDROOT
BRANCH   1  12
HETATM   12  C7  UNL     1      23.260   2.980 -14.693  1.00  0.00     0.152 C 
BRANCH  12  13
HETATM   13  C6  UNL     1      23.995   3.284 -15.966  1.00  0.00     0.195 C 
BRANCH  13  14
HETATM   14  O2  UNL     1      25.093   4.095 -15.813  1.00  0.00    -0.349 OA
BRANCH  14  15
HETATM   15  C5  UNL     1      25.664   5.025 -16.616  1.00  0.00     0.071 A 
HETATM   16  C4  UNL     1      26.951   4.977 -17.074  1.00  0.00     0.039 A 
HETATM   17  C3  UNL     1      27.449   5.985 -17.903  1.00  0.00     0.042 A 
HETATM   18  C2  UNL     1      26.677   7.038 -18.278  1.00  0.00     0.101 A 
HETATM   19  C25 UNL     1      25.367   7.096 -17.816  1.00  0.00     0.104 A 
HETATM   20  C24 UNL     1      24.864   6.122 -17.007  1.00  0.00     0.076 A 
BRANCH  18  21
HETATM   21  O1  UNL     1      27.173   8.037 -19.100  1.00  0.00    -0.353 OA
HETATM   22  C1  UNL     1      28.097   8.956 -18.567  1.00  0.00     0.210 C 
ENDBRANCH  18  21
BRANCH  19  23
HETATM   23  O8  UNL     1      24.579   8.185 -18.207  1.00  0.00    -0.353 OA
HETATM   24  C26 UNL     1      23.256   8.291 -17.696  1.00  0.00     0.210 C 
ENDBRANCH  19  23
ENDBRANCH  14  15
ENDBRANCH  13  14
ENDBRANCH  12  13
ENDBRANCH   1  12
BRANCH   3  25
HETATM   25  C10 UNL     1      19.876   5.978 -15.704  1.00  0.00     0.149 C 
BRANCH  25  26
HETATM   26  O3  UNL     1      20.237   5.207 -16.819  1.00  0.00    -0.393 OA
ATOM     27  H3  UNL     1      20.332   5.793 -17.560  1.00  0.00     0.210 HD
ENDBRANCH  25  26
BRANCH  25  28
HETATM   28  C11 UNL     1      19.965   7.435 -16.079  1.00  0.00     0.196 C 
BRANCH  28  29
HETATM   29  O4  UNL     1      18.694   7.945 -16.336  1.00  0.00    -0.398 OA
ATOM     30  H4  UNL     1      18.277   8.214 -15.525  1.00  0.00     0.209 HD
ENDBRANCH  28  29
ENDBRANCH  25  28
ENDBRANCH   3  25
BRANCH  11  31
HETATM   31  S1  UNL     1      22.670   8.075 -12.211  1.00  0.00     0.262 S 
HETATM   32  O6  UNL     1      23.408   7.864 -10.920  1.00  0.00    -0.200 OA
HETATM   33  O7  UNL     1      21.557   9.063 -11.924  1.00  0.00    -0.200 OA
BRANCH  31  34
HETATM   34  C18 UNL     1      23.737   8.843 -13.384  1.00  0.00     0.083 A 
HETATM   35  C19 UNL     1      24.952   8.268 -13.682  1.00  0.00     0.049 A 
HETATM   36  C20 UNL     1      25.796   8.855 -14.596  1.00  0.00     0.037 A 
HETATM   37 CL1  UNL     1      27.348   8.096 -14.959  1.00  0.00    -0.084 Cl
HETATM   38  C21 UNL     1      25.484  10.028 -15.252  1.00  0.00     0.047 A 
HETATM   39  C22 UNL     1      24.251  10.575 -14.923  1.00  0.00     0.037 A 
HETATM   40 CL2  UNL     1      23.849  12.081 -15.765  1.00  0.00    -0.084 Cl
HETATM   41  C23 UNL     1      23.391  10.011 -14.017  1.00  0.00     0.049 A 
ENDBRANCH  31  34
ENDBRANCH  11  31
TORSDOF 12
ENDMDL
