MODEL 1
REMARK VINA RESULT: -6.430419841      0.000      0.000
REMARK  7 active torsions:
REMARK  status: ('A' for Active; 'I' for Inactive)
REMARK    1  A    between atoms: C2_2  and  C3_3 
REMARK    2  A    between atoms: C3_3  and  C4_4 
REMARK    3  A    between atoms: C3_3  and  O1_6 
REMARK    4  A    between atoms: O1_6  and  C6_7 
REMARK    5  A    between atoms: C8_9  and  C9_10 
REMARK    6  A    between atoms: C11_14  and  N1_15 
REMARK    7  A    between atoms: C12_19  and  N2_20 
REMARK       I    between atoms: N2_20  and  C13_22 
ROOT
HETATM    1  C6  UNL     1      19.646 -25.113 -21.311  1.00  0.00     0.170 C 
HETATM    2  C7  UNL     1      20.669 -24.405 -20.507  1.00  0.00     0.021 C 
HETATM    3  C8  UNL     1      20.442 -23.495 -19.584  1.00  0.00     0.019 C 
HETATM    4  C10 UNL     1      19.053 -23.085 -19.262  1.00  0.00     0.080 C 
HETATM    5  C11 UNL     1      18.332 -23.071 -20.619  1.00  0.00     0.213 C 
HETATM    6  C12 UNL     1      18.275 -24.558 -21.005  1.00  0.00     0.147 C 
ENDROOT
BRANCH   1   7
HETATM    7  O1  UNL     1      19.659 -26.436 -20.968  1.00  0.00    -0.375 OA
BRANCH   7   8
HETATM    8  C3  UNL     1      19.749 -27.348 -21.961  1.00  0.00     0.121 C 
BRANCH   8   9
HETATM    9  C2  UNL     1      19.546 -28.731 -21.405  1.00  0.00     0.027 C 
HETATM   10  C1  UNL     1      18.143 -29.265 -21.668  1.00  0.00     0.007 C 
ENDBRANCH   8   9
BRANCH   8  11
HETATM   11  C4  UNL     1      20.986 -27.261 -22.814  1.00  0.00     0.027 C 
HETATM   12  C5  UNL     1      22.235 -27.662 -22.044  1.00  0.00     0.007 C 
ENDBRANCH   8  11
ENDBRANCH   7   8
ENDBRANCH   1   7
BRANCH   6  13
HETATM   13  N2  UNL     1      17.340 -24.736 -22.093  1.00  0.00    -0.352 N 
HETATM   14  C13 UNL     1      16.307 -25.706 -22.004  1.00  0.00     0.214 C 
HETATM   15  C14 UNL     1      15.333 -25.917 -23.095  1.00  0.00     0.117 C 
HETATM   16  O4  UNL     1      16.210 -26.411 -20.966  1.00  0.00    -0.274 OA
ATOM     17  H2  UNL     1      17.424 -24.161 -22.932  1.00  0.00     0.163 HD
ENDBRANCH   6  13
BRANCH   3  18
HETATM   18  C9  UNL     1      21.532 -22.869 -18.859  1.00  0.00     0.205 C 
HETATM   19  O2  UNL     1      22.697 -23.287 -19.025  1.00  0.00    -0.644 OA
HETATM   20  O3  UNL     1      21.335 -21.816 -17.981  1.00  0.00    -0.644 OA
ENDBRANCH   3  18
BRANCH   5  21
HETATM   21  N1  UNL     1      16.986 -22.642 -20.375  1.00  0.00    -0.073 N 
ATOM     22  H13 UNL     1      16.861 -22.218 -19.456  1.00  0.00     0.274 HD
ATOM     23  H12 UNL     1      16.718 -21.829 -20.931  1.00  0.00     0.274 HD
ATOM     24  H11 UNL     1      16.383 -23.449 -20.530  1.00  0.00     0.274 HD
ENDBRANCH   5  21
TORSDOF 7
ENDMDL
