MODEL 3
REMARK VINA RESULT: -6.193881400      1.107      1.704
REMARK  7 active torsions:
REMARK  status: ('A' for Active; 'I' for Inactive)
REMARK    1  A    between atoms: C2_2  and  C3_3 
REMARK    2  A    between atoms: C3_3  and  C4_4 
REMARK    3  A    between atoms: C3_3  and  O1_6 
REMARK    4  A    between atoms: O1_6  and  C6_7 
REMARK    5  A    between atoms: C8_9  and  C9_10 
REMARK    6  A    between atoms: C11_14  and  N1_15 
REMARK    7  A    between atoms: C12_19  and  N2_20 
REMARK       I    between atoms: N2_20  and  C13_22 
ROOT
HETATM    1  C6  UNL     1      19.657 -25.196 -21.224  1.00  0.00     0.170 C 
HETATM    2  C7  UNL     1      20.655 -24.421 -20.451  1.00  0.00     0.021 C 
HETATM    3  C8  UNL     1      20.400 -23.435 -19.618  1.00  0.00     0.019 C 
HETATM    4  C10 UNL     1      19.001 -23.000 -19.378  1.00  0.00     0.080 C 
HETATM    5  C11 UNL     1      18.325 -23.104 -20.754  1.00  0.00     0.213 C 
HETATM    6  C12 UNL     1      18.278 -24.619 -21.012  1.00  0.00     0.147 C 
ENDROOT
BRANCH   1   7
HETATM    7  O1  UNL     1      19.657 -26.485 -20.768  1.00  0.00    -0.375 OA
BRANCH   7   8
HETATM    8  C3  UNL     1      20.850 -27.070 -20.518  1.00  0.00     0.121 C 
BRANCH   8   9
HETATM    9  C2  UNL     1      21.331 -27.793 -21.746  1.00  0.00     0.027 C 
HETATM   10  C1  UNL     1      22.631 -27.214 -22.293  1.00  0.00     0.007 C 
ENDBRANCH   8   9
BRANCH   8  11
HETATM   11  C4  UNL     1      20.902 -27.944 -19.294  1.00  0.00     0.027 C 
HETATM   12  C5  UNL     1      22.189 -27.744 -18.508  1.00  0.00     0.007 C 
ENDBRANCH   8  11
ENDBRANCH   7   8
ENDBRANCH   1   7
BRANCH   6  13
HETATM   13  N2  UNL     1      17.379 -24.891 -22.111  1.00  0.00    -0.352 N 
HETATM   14  C13 UNL     1      16.343 -25.851 -21.973  1.00  0.00     0.214 C 
HETATM   15  C14 UNL     1      15.405 -26.157 -23.073  1.00  0.00     0.117 C 
HETATM   16  O4  UNL     1      16.212 -26.465 -20.883  1.00  0.00    -0.274 OA
ATOM     17  H2  UNL     1      17.491 -24.389 -22.993  1.00  0.00     0.163 HD
ENDBRANCH   6  13
BRANCH   3  18
HETATM   18  C9  UNL     1      21.466 -22.747 -18.915  1.00  0.00     0.205 C 
HETATM   19  O2  UNL     1      22.636 -23.174 -19.008  1.00  0.00    -0.644 OA
HETATM   20  O3  UNL     1      21.242 -21.625 -18.134  1.00  0.00    -0.644 OA
ENDBRANCH   3  18
BRANCH   5  21
HETATM   21  N1  UNL     1      16.973 -22.657 -20.592  1.00  0.00    -0.073 N 
ATOM     22  H13 UNL     1      16.477 -23.141 -19.844  1.00  0.00     0.274 HD
ATOM     23  H12 UNL     1      16.906 -21.715 -20.204  1.00  0.00     0.274 HD
ATOM     24  H11 UNL     1      16.518 -22.749 -21.500  1.00  0.00     0.274 HD
ENDBRANCH   5  21
TORSDOF 7
ENDMDL
