MODEL 4
REMARK VINA RESULT: -6.102779752      1.099      1.366
REMARK  7 active torsions:
REMARK  status: ('A' for Active; 'I' for Inactive)
REMARK    1  A    between atoms: C2_2  and  C3_3 
REMARK    2  A    between atoms: C3_3  and  C4_4 
REMARK    3  A    between atoms: C3_3  and  O1_6 
REMARK    4  A    between atoms: O1_6  and  C6_7 
REMARK    5  A    between atoms: C8_9  and  C9_10 
REMARK    6  A    between atoms: C11_14  and  N1_15 
REMARK    7  A    between atoms: C12_19  and  N2_20 
REMARK       I    between atoms: N2_20  and  C13_22 
ROOT
HETATM    1  C6  UNL     1      19.806 -25.387 -20.936  1.00  0.00     0.170 C 
HETATM    2  C7  UNL     1      20.768 -24.507 -20.232  1.00  0.00     0.021 C 
HETATM    3  C8  UNL     1      20.474 -23.420 -19.552  1.00  0.00     0.019 C 
HETATM    4  C10 UNL     1      19.066 -22.968 -19.432  1.00  0.00     0.080 C 
HETATM    5  C11 UNL     1      18.450 -23.261 -20.809  1.00  0.00     0.213 C 
HETATM    6  C12 UNL     1      18.418 -24.798 -20.862  1.00  0.00     0.147 C 
ENDROOT
BRANCH   1   7
HETATM    7  O1  UNL     1      19.789 -26.603 -20.310  1.00  0.00    -0.375 OA
BRANCH   7   8
HETATM    8  C3  UNL     1      20.606 -27.571 -20.783  1.00  0.00     0.121 C 
BRANCH   8   9
HETATM    9  C2  UNL     1      21.760 -27.770 -19.840  1.00  0.00     0.027 C 
HETATM   10  C1  UNL     1      21.332 -27.736 -18.377  1.00  0.00     0.007 C 
ENDBRANCH   8   9
BRANCH   8  11
HETATM   11  C4  UNL     1      21.065 -27.397 -22.206  1.00  0.00     0.027 C 
HETATM   12  C5  UNL     1      22.572 -27.212 -22.297  1.00  0.00     0.007 C 
ENDBRANCH   8  11
ENDBRANCH   7   8
ENDBRANCH   1   7
BRANCH   6  13
HETATM   13  N2  UNL     1      17.568 -25.223 -21.952  1.00  0.00    -0.352 N 
HETATM   14  C13 UNL     1      16.280 -25.761 -21.692  1.00  0.00     0.214 C 
HETATM   15  C14 UNL     1      15.383 -26.206 -22.779  1.00  0.00     0.117 C 
HETATM   16  O4  UNL     1      15.883 -25.866 -20.503  1.00  0.00    -0.274 OA
ATOM     17  H2  UNL     1      17.896 -25.135 -22.914  1.00  0.00     0.163 HD
ENDBRANCH   6  13
BRANCH   3  18
HETATM   18  C9  UNL     1      21.508 -22.635 -18.903  1.00  0.00     0.205 C 
HETATM   19  O2  UNL     1      22.700 -22.994 -18.999  1.00  0.00    -0.644 OA
HETATM   20  O3  UNL     1      21.228 -21.492 -18.172  1.00  0.00    -0.644 OA
ENDBRANCH   3  18
BRANCH   5  21
HETATM   21  N1  UNL     1      17.091 -22.808 -20.767  1.00  0.00    -0.073 N 
ATOM     22  H13 UNL     1      17.008 -21.808 -20.580  1.00  0.00     0.274 HD
ATOM     23  H12 UNL     1      16.641 -22.807 -21.682  1.00  0.00     0.274 HD
ATOM     24  H11 UNL     1      16.605 -23.386 -20.081  1.00  0.00     0.274 HD
ENDBRANCH   5  21
TORSDOF 7
ENDMDL
