MODEL 17
REMARK VINA RESULT: -5.708650359      2.736      4.889
REMARK  7 active torsions:
REMARK  status: ('A' for Active; 'I' for Inactive)
REMARK    1  A    between atoms: C2_2  and  C3_3 
REMARK    2  A    between atoms: C3_3  and  C4_4 
REMARK    3  A    between atoms: C3_3  and  O1_6 
REMARK    4  A    between atoms: O1_6  and  C6_7 
REMARK    5  A    between atoms: C8_9  and  C9_10 
REMARK    6  A    between atoms: C11_14  and  N1_15 
REMARK    7  A    between atoms: C12_19  and  N2_20 
REMARK       I    between atoms: N2_20  and  C13_22 
ROOT
HETATM    1  C6  UNL     1      17.542 -25.225 -20.791  1.00  0.00     0.170 C 
HETATM    2  C7  UNL     1      16.340 -24.482 -20.348  1.00  0.00     0.021 C 
HETATM    3  C8  UNL     1      16.296 -23.560 -19.410  1.00  0.00     0.019 C 
HETATM    4  C10 UNL     1      17.529 -23.175 -18.680  1.00  0.00     0.080 C 
HETATM    5  C11 UNL     1      18.294 -24.494 -18.495  1.00  0.00     0.213 C 
HETATM    6  C12 UNL     1      18.724 -24.858 -19.926  1.00  0.00     0.147 C 
ENDROOT
BRANCH   1   7
HETATM    7  O1  UNL     1      17.828 -24.866 -22.079  1.00  0.00    -0.375 OA
BRANCH   7   8
HETATM    8  C3  UNL     1      17.689 -25.803 -23.044  1.00  0.00     0.121 C 
BRANCH   8   9
HETATM    9  C2  UNL     1      18.911 -25.816 -23.921  1.00  0.00     0.027 C 
HETATM   10  C1  UNL     1      18.599 -25.437 -25.364  1.00  0.00     0.007 C 
ENDBRANCH   8   9
BRANCH   8  11
HETATM   11  C4  UNL     1      16.420 -25.724 -23.849  1.00  0.00     0.027 C 
HETATM   12  C5  UNL     1      15.412 -26.782 -23.424  1.00  0.00     0.007 C 
ENDBRANCH   8  11
ENDBRANCH   7   8
ENDBRANCH   1   7
BRANCH   6  13
HETATM   13  N2  UNL     1      19.729 -25.897 -19.876  1.00  0.00    -0.352 N 
HETATM   14  C13 UNL     1      20.965 -25.736 -20.555  1.00  0.00     0.214 C 
HETATM   15  C14 UNL     1      22.016 -26.774 -20.528  1.00  0.00     0.117 C 
HETATM   16  O4  UNL     1      21.180 -24.679 -21.202  1.00  0.00    -0.274 OA
ATOM     17  H2  UNL     1      19.548 -26.751 -19.349  1.00  0.00     0.163 HD
ENDBRANCH   6  13
BRANCH   3  18
HETATM   18  C9  UNL     1      15.053 -22.898 -19.062  1.00  0.00     0.205 C 
HETATM   19  O2  UNL     1      15.089 -21.763 -18.542  1.00  0.00    -0.644 OA
HETATM   20  O3  UNL     1      13.813 -23.475 -19.283  1.00  0.00    -0.644 OA
ENDBRANCH   3  18
BRANCH   5  21
HETATM   21  N1  UNL     1      19.485 -24.190 -17.757  1.00  0.00    -0.073 N 
ATOM     22  H13 UNL     1      19.710 -23.195 -17.752  1.00  0.00     0.274 HD
ATOM     23  H12 UNL     1      19.371 -24.302 -16.749  1.00  0.00     0.274 HD
ATOM     24  H11 UNL     1      20.231 -24.768 -18.143  1.00  0.00     0.274 HD
ENDBRANCH   5  21
TORSDOF 7
ENDMDL
