MODEL 11
REMARK VINA RESULT: -5.867629176      1.570      4.737
REMARK  7 active torsions:
REMARK  status: ('A' for Active; 'I' for Inactive)
REMARK    1  A    between atoms: C2_2  and  C3_3 
REMARK    2  A    between atoms: C3_3  and  C4_4 
REMARK    3  A    between atoms: C3_3  and  O1_6 
REMARK    4  A    between atoms: O1_6  and  C6_7 
REMARK    5  A    between atoms: C8_9  and  C9_10 
REMARK    6  A    between atoms: C11_14  and  N1_15 
REMARK    7  A    between atoms: C12_19  and  N2_20 
REMARK       I    between atoms: N2_20  and  C13_22 
ROOT
HETATM    1  C6  UNL     1      18.451 -25.552 -20.396  1.00  0.00     0.170 C 
HETATM    2  C7  UNL     1      17.497 -26.039 -21.420  1.00  0.00     0.021 C 
HETATM    3  C8  UNL     1      17.190 -25.433 -22.547  1.00  0.00     0.019 C 
HETATM    4  C10 UNL     1      17.817 -24.134 -22.896  1.00  0.00     0.080 C 
HETATM    5  C11 UNL     1      17.905 -23.380 -21.561  1.00  0.00     0.213 C 
HETATM    6  C12 UNL     1      18.955 -24.179 -20.770  1.00  0.00     0.147 C 
ENDROOT
BRANCH   1   7
HETATM    7  O1  UNL     1      19.519 -26.404 -20.354  1.00  0.00    -0.375 OA
BRANCH   7   8
HETATM    8  C3  UNL     1      19.608 -27.357 -21.309  1.00  0.00     0.121 C 
BRANCH   8   9
HETATM    9  C2  UNL     1      19.396 -28.714 -20.696  1.00  0.00     0.027 C 
HETATM   10  C1  UNL     1      18.572 -29.635 -21.587  1.00  0.00     0.007 C 
ENDBRANCH   8   9
BRANCH   8  11
HETATM   11  C4  UNL     1      20.849 -27.312 -22.160  1.00  0.00     0.027 C 
HETATM   12  C5  UNL     1      20.590 -26.650 -23.505  1.00  0.00     0.007 C 
ENDBRANCH   8  11
ENDBRANCH   7   8
ENDBRANCH   1   7
BRANCH   6  13
HETATM   13  N2  UNL     1      19.386 -23.407 -19.627  1.00  0.00    -0.352 N 
HETATM   14  C13 UNL     1      20.767 -23.274 -19.326  1.00  0.00     0.214 C 
HETATM   15  C14 UNL     1      21.246 -22.494 -18.166  1.00  0.00     0.117 C 
HETATM   16  O4  UNL     1      21.616 -23.836 -20.065  1.00  0.00    -0.274 OA
ATOM     17  H2  UNL     1      18.692 -22.954 -19.031  1.00  0.00     0.163 HD
ENDBRANCH   6  13
BRANCH   3  18
HETATM   18  C9  UNL     1      16.237 -26.010 -23.477  1.00  0.00     0.205 C 
HETATM   19  O2  UNL     1      16.321 -25.731 -24.691  1.00  0.00    -0.644 OA
HETATM   20  O3  UNL     1      15.226 -26.867 -23.073  1.00  0.00    -0.644 OA
ENDBRANCH   3  18
BRANCH   5  21
HETATM   21  N1  UNL     1      18.472 -22.093 -21.841  1.00  0.00    -0.073 N 
ATOM     22  H13 UNL     1      19.403 -22.147 -22.255  1.00  0.00     0.274 HD
ATOM     23  H12 UNL     1      18.013 -21.614 -22.616  1.00  0.00     0.274 HD
ATOM     24  H11 UNL     1      18.450 -21.561 -20.971  1.00  0.00     0.274 HD
ENDBRANCH   5  21
TORSDOF 7
ENDMDL
