MODEL 2
REMARK VINA RESULT: -6.299201802      0.492      1.711
REMARK  7 active torsions:
REMARK  status: ('A' for Active; 'I' for Inactive)
REMARK    1  A    between atoms: C2_2  and  C3_3 
REMARK    2  A    between atoms: C3_3  and  C4_4 
REMARK    3  A    between atoms: C3_3  and  O1_6 
REMARK    4  A    between atoms: O1_6  and  C6_7 
REMARK    5  A    between atoms: C8_9  and  C9_10 
REMARK    6  A    between atoms: C11_14  and  N1_15 
REMARK    7  A    between atoms: C12_19  and  N2_20 
REMARK       I    between atoms: N2_20  and  C13_22 
ROOT
HETATM    1  C6  UNL     1      19.848 -25.393 -21.074  1.00  0.00     0.170 C 
HETATM    2  C7  UNL     1      20.798 -24.524 -20.341  1.00  0.00     0.021 C 
HETATM    3  C8  UNL     1      20.487 -23.480 -19.604  1.00  0.00     0.019 C 
HETATM    4  C10 UNL     1      19.070 -23.070 -19.443  1.00  0.00     0.080 C 
HETATM    5  C11 UNL     1      18.442 -23.311 -20.824  1.00  0.00     0.213 C 
HETATM    6  C12 UNL     1      18.446 -24.843 -20.953  1.00  0.00     0.147 C 
ENDROOT
BRANCH   1   7
HETATM    7  O1  UNL     1      19.869 -26.638 -20.509  1.00  0.00    -0.375 OA
BRANCH   7   8
HETATM    8  C3  UNL     1      20.223 -27.683 -21.291  1.00  0.00     0.121 C 
BRANCH   8   9
HETATM    9  C2  UNL     1      21.040 -27.196 -22.455  1.00  0.00     0.027 C 
HETATM   10  C1  UNL     1      22.538 -27.358 -22.225  1.00  0.00     0.007 C 
ENDBRANCH   8   9
BRANCH   8  11
HETATM   11  C4  UNL     1      19.094 -28.578 -21.730  1.00  0.00     0.027 C 
HETATM   12  C5  UNL     1      18.184 -28.953 -20.571  1.00  0.00     0.007 C 
ENDBRANCH   8  11
ENDBRANCH   7   8
ENDBRANCH   1   7
BRANCH   6  13
HETATM   13  N2  UNL     1      17.591 -25.236 -22.051  1.00  0.00    -0.352 N 
HETATM   14  C13 UNL     1      16.340 -25.858 -21.802  1.00  0.00     0.214 C 
HETATM   15  C14 UNL     1      15.439 -26.274 -22.897  1.00  0.00     0.117 C 
HETATM   16  O4  UNL     1      15.980 -26.067 -20.615  1.00  0.00    -0.274 OA
ATOM     17  H2  UNL     1      17.889 -25.064 -23.011  1.00  0.00     0.163 HD
ENDBRANCH   6  13
BRANCH   3  18
HETATM   18  C9  UNL     1      21.511 -22.702 -18.931  1.00  0.00     0.205 C 
HETATM   19  O2  UNL     1      22.702 -23.074 -18.992  1.00  0.00    -0.644 OA
HETATM   20  O3  UNL     1      21.223 -21.552 -18.214  1.00  0.00    -0.644 OA
ENDBRANCH   3  18
BRANCH   5  21
HETATM   21  N1  UNL     1      17.073 -22.894 -20.742  1.00  0.00    -0.073 N 
ATOM     22  H13 UNL     1      16.703 -22.557 -21.630  1.00  0.00     0.274 HD
ATOM     23  H12 UNL     1      16.424 -23.672 -20.618  1.00  0.00     0.274 HD
ATOM     24  H11 UNL     1      17.016 -22.202 -19.995  1.00  0.00     0.274 HD
ENDBRANCH   5  21
TORSDOF 7
ENDMDL
