MODEL 18
REMARK VINA RESULT: -5.676365434      2.186      4.862
REMARK  7 active torsions:
REMARK  status: ('A' for Active; 'I' for Inactive)
REMARK    1  A    between atoms: C2_2  and  C3_3 
REMARK    2  A    between atoms: C3_3  and  C4_4 
REMARK    3  A    between atoms: C3_3  and  O1_6 
REMARK    4  A    between atoms: O1_6  and  C6_7 
REMARK    5  A    between atoms: C8_9  and  C9_10 
REMARK    6  A    between atoms: C11_14  and  N1_15 
REMARK    7  A    between atoms: C12_19  and  N2_20 
REMARK       I    between atoms: N2_20  and  C13_22 
ROOT
HETATM    1  C6  UNL     1      19.579 -25.400 -20.928  1.00  0.00     0.170 C 
HETATM    2  C7  UNL     1      18.883 -25.766 -22.184  1.00  0.00     0.021 C 
HETATM    3  C8  UNL     1      18.049 -25.006 -22.861  1.00  0.00     0.019 C 
HETATM    4  C10 UNL     1      17.723 -23.640 -22.383  1.00  0.00     0.080 C 
HETATM    5  C11 UNL     1      17.649 -23.775 -20.855  1.00  0.00     0.213 C 
HETATM    6  C12 UNL     1      19.107 -24.047 -20.451  1.00  0.00     0.147 C 
ENDROOT
BRANCH   1   7
HETATM    7  O1  UNL     1      20.921 -25.322 -21.179  1.00  0.00    -0.375 OA
BRANCH   7   8
HETATM    8  C3  UNL     1      21.715 -26.303 -20.694  1.00  0.00     0.121 C 
BRANCH   8   9
HETATM    9  C2  UNL     1      22.307 -27.089 -21.831  1.00  0.00     0.027 C 
HETATM   10  C1  UNL     1      22.323 -26.305 -23.138  1.00  0.00     0.007 C 
ENDBRANCH   8   9
BRANCH   8  11
HETATM   11  C4  UNL     1      21.087 -27.196 -19.659  1.00  0.00     0.027 C 
HETATM   12  C5  UNL     1      22.094 -27.647 -18.612  1.00  0.00     0.007 C 
ENDBRANCH   8  11
ENDBRANCH   7   8
ENDBRANCH   1   7
BRANCH   6  13
HETATM   13  N2  UNL     1      19.252 -23.871 -19.024  1.00  0.00    -0.352 N 
HETATM   14  C13 UNL     1      19.908 -22.726 -18.502  1.00  0.00     0.214 C 
HETATM   15  C14 UNL     1      20.076 -22.511 -17.049  1.00  0.00     0.117 C 
HETATM   16  O4  UNL     1      20.364 -21.862 -19.294  1.00  0.00    -0.274 OA
ATOM     17  H2  UNL     1      18.880 -24.576 -18.387  1.00  0.00     0.163 HD
ENDBRANCH   6  13
BRANCH   3  18
HETATM   18  C9  UNL     1      17.426 -25.476 -24.084  1.00  0.00     0.205 C 
HETATM   19  O2  UNL     1      16.240 -25.865 -24.057  1.00  0.00    -0.644 OA
HETATM   20  O3  UNL     1      18.097 -25.513 -25.296  1.00  0.00    -0.644 OA
ENDBRANCH   3  18
BRANCH   5  21
HETATM   21  N1  UNL     1      17.296 -22.486 -20.336  1.00  0.00    -0.073 N 
ATOM     22  H13 UNL     1      17.878 -21.733 -20.704  1.00  0.00     0.274 HD
ATOM     23  H12 UNL     1      16.402 -22.143 -20.687  1.00  0.00     0.274 HD
ATOM     24  H11 UNL     1      17.327 -22.555 -19.318  1.00  0.00     0.274 HD
ENDBRANCH   5  21
TORSDOF 7
ENDMDL
