MODEL 1
REMARK VINA RESULT: -11.286822475      0.000      0.000
REMARK  5 active torsions:
REMARK  status: ('A' for Active; 'I' for Inactive)
REMARK       I    between atoms: N1_2  and  C2_4 
REMARK    1  A    between atoms: C2_4  and  C3_6 
REMARK    2  A    between atoms: C8_11  and  S1_12 
REMARK    3  A    between atoms: S1_12  and  C9_13 
REMARK    4  A    between atoms: C13_17  and  C14_18 
REMARK    5  A    between atoms: C15_19  and  C16_20 
ROOT
HETATM    1  C9  UNL     1      11.475 155.856  35.339  1.00  0.00     0.007 A 
HETATM    2  C10 UNL     1      10.141 156.111  35.535  1.00  0.00     0.020 A 
HETATM    3  C11 UNL     1       9.180 155.245  34.988  1.00  0.00     0.017 A 
HETATM    4  C12 UNL     1       9.518 154.132  34.249  1.00  0.00     0.020 A 
HETATM    5  C13 UNL     1       8.774 153.154  33.632  1.00  0.00     0.060 A 
HETATM    6  N3  UNL     1       9.744 152.333  33.082  1.00  0.00    -0.299 N 
ATOM      7  H3  UNL     1       9.545 151.490  32.543  1.00  0.00     0.187 HD
HETATM    8  N4  UNL     1      10.941 152.770  33.336  1.00  0.00    -0.299 N 
ATOM      9  H4  UNL     1      11.808 152.328  33.031  1.00  0.00     0.187 HD
HETATM   10  C21 UNL     1      10.856 153.912  34.074  1.00  0.00     0.061 A 
HETATM   11  C22 UNL     1      11.808 154.751  34.606  1.00  0.00     0.050 A 
ENDROOT
BRANCH   1  12
HETATM   12  S1  UNL     1      12.702 156.891  36.136  1.00  0.00    -0.089 SA
BRANCH  12  13
HETATM   13  C8  UNL     1      12.224 157.067  37.871  1.00  0.00     0.021 A 
HETATM   14  C3  UNL     1      12.436 158.330  38.453  1.00  0.00     0.049 A 
HETATM   15  C4  UNL     1      12.027 158.472  39.760  1.00  0.00     0.018 A 
HETATM   16  C5  UNL     1      11.428 157.423  40.491  1.00  0.00     0.001 A 
HETATM   17  C6  UNL     1      11.235 156.191  39.878  1.00  0.00     0.001 A 
HETATM   18  C7  UNL     1      11.640 156.043  38.577  1.00  0.00     0.020 A 
BRANCH  14  19
HETATM   19  C2  UNL     1      13.063 159.393  37.688  1.00  0.00     0.252 C 
HETATM   20  N1  UNL     1      12.460 160.616  37.298  1.00  0.00    -0.361 N 
HETATM   21  C1  UNL     1      13.208 161.620  36.536  1.00  0.00     0.149 C 
ATOM     22  H1  UNL     1      11.489 160.799  37.551  1.00  0.00     0.162 HD
HETATM   23  O1  UNL     1      14.276 159.209  37.328  1.00  0.00    -0.268 OA
ENDBRANCH  14  19
ENDBRANCH  12  13
ENDBRANCH   1  12
BRANCH   5  24
HETATM   24  C14 UNL     1       7.367 152.932  33.475  1.00  0.00     0.034 C 
HETATM   25  C15 UNL     1       6.390 153.098  34.300  1.00  0.00     0.032 C 
BRANCH  25  26
HETATM   26  C16 UNL     1       4.988 152.792  33.889  1.00  0.00     0.031 A 
HETATM   27  C17 UNL     1       4.019 153.719  34.061  1.00  0.00     0.029 A 
HETATM   28  C18 UNL     1       2.728 153.384  33.662  1.00  0.00     0.004 A 
HETATM   29  C19 UNL     1       2.453 152.158  33.116  1.00  0.00     0.017 A 
HETATM   30  C20 UNL     1       3.469 151.265  32.968  1.00  0.00     0.088 A 
HETATM   31  N2  UNL     1       4.727 151.608  33.363  1.00  0.00    -0.366 N 
ATOM     32  H2  UNL     1       5.485 150.935  33.249  1.00  0.00     0.165 HD
ENDBRANCH  25  26
ENDBRANCH   5  24
TORSDOF 5
ENDMDL
