MODEL 6
REMARK VINA RESULT: -9.624395601      4.120     10.409
REMARK  5 active torsions:
REMARK  status: ('A' for Active; 'I' for Inactive)
REMARK       I    between atoms: N1_2  and  C2_4 
REMARK    1  A    between atoms: C2_4  and  C3_6 
REMARK    2  A    between atoms: C8_11  and  S1_12 
REMARK    3  A    between atoms: S1_12  and  C9_13 
REMARK    4  A    between atoms: C13_17  and  C14_18 
REMARK    5  A    between atoms: C15_19  and  C16_20 
ROOT
HETATM    1  C9  UNL     1      12.218 157.302  38.045  1.00  0.00     0.007 A 
HETATM    2  C10 UNL     1      12.960 157.951  37.092  1.00  0.00     0.020 A 
HETATM    3  C11 UNL     1      13.177 159.334  37.203  1.00  0.00     0.017 A 
HETATM    4  C12 UNL     1      12.669 160.085  38.241  1.00  0.00     0.020 A 
HETATM    5  C13 UNL     1      12.752 161.420  38.563  1.00  0.00     0.060 A 
HETATM    6  N3  UNL     1      12.026 161.496  39.740  1.00  0.00    -0.299 N 
ATOM      7  H3  UNL     1      11.878 162.356  40.268  1.00  0.00     0.187 HD
HETATM    8  N4  UNL     1      11.556 160.336  40.089  1.00  0.00    -0.299 N 
ATOM      9  H4  UNL     1      10.993 160.153  40.919  1.00  0.00     0.187 HD
HETATM   10  C21 UNL     1      11.934 159.403  39.171  1.00  0.00     0.061 A 
HETATM   11  C22 UNL     1      11.715 158.048  39.075  1.00  0.00     0.050 A 
ENDROOT
BRANCH   1  12
HETATM   12  S1  UNL     1      12.040 155.520  37.969  1.00  0.00    -0.089 SA
BRANCH  12  13
HETATM   13  C8  UNL     1      11.269 155.116  36.383  1.00  0.00     0.021 A 
HETATM   14  C3  UNL     1      12.133 154.679  35.362  1.00  0.00     0.049 A 
HETATM   15  C4  UNL     1      11.537 154.328  34.173  1.00  0.00     0.018 A 
HETATM   16  C5  UNL     1      10.141 154.396  33.968  1.00  0.00     0.001 A 
HETATM   17  C6  UNL     1       9.323 154.832  35.004  1.00  0.00     0.001 A 
HETATM   18  C7  UNL     1       9.911 155.183  36.192  1.00  0.00     0.020 A 
BRANCH  14  19
HETATM   19  C2  UNL     1      13.567 154.626  35.588  1.00  0.00     0.252 C 
HETATM   20  N1  UNL     1      14.529 155.546  35.100  1.00  0.00    -0.361 N 
HETATM   21  C1  UNL     1      15.953 155.389  35.412  1.00  0.00     0.149 C 
ATOM     22  H1  UNL     1      14.226 156.330  34.523  1.00  0.00     0.162 HD
HETATM   23  O1  UNL     1      14.005 153.652  36.291  1.00  0.00    -0.268 OA
ENDBRANCH  14  19
ENDBRANCH  12  13
ENDBRANCH   1  12
BRANCH   5  24
HETATM   24  C14 UNL     1      13.351 162.556  37.927  1.00  0.00     0.034 C 
HETATM   25  C15 UNL     1      14.529 162.718  37.429  1.00  0.00     0.032 C 
BRANCH  25  26
HETATM   26  C16 UNL     1      14.919 164.019  36.809  1.00  0.00     0.031 A 
HETATM   27  C17 UNL     1      14.148 164.561  35.840  1.00  0.00     0.029 A 
HETATM   28  C18 UNL     1      14.555 165.775  35.294  1.00  0.00     0.004 A 
HETATM   29  C19 UNL     1      15.699 166.395  35.726  1.00  0.00     0.017 A 
HETATM   30  C20 UNL     1      16.436 165.801  36.702  1.00  0.00     0.088 A 
HETATM   31  N2  UNL     1      16.024 164.613  37.227  1.00  0.00    -0.366 N 
ATOM     32  H2  UNL     1      16.580 164.172  37.960  1.00  0.00     0.165 HD
ENDBRANCH  25  26
ENDBRANCH   5  24
TORSDOF 5
ENDMDL
