MODEL 7
REMARK VINA RESULT: -9.252762158      4.291      9.390
REMARK  5 active torsions:
REMARK  status: ('A' for Active; 'I' for Inactive)
REMARK       I    between atoms: N1_2  and  C2_4 
REMARK    1  A    between atoms: C2_4  and  C3_6 
REMARK    2  A    between atoms: C8_11  and  S1_12 
REMARK    3  A    between atoms: S1_12  and  C9_13 
REMARK    4  A    between atoms: C13_17  and  C14_18 
REMARK    5  A    between atoms: C15_19  and  C16_20 
ROOT
HETATM    1  C9  UNL     1      11.999 156.466  38.921  1.00  0.00     0.007 A 
HETATM    2  C10 UNL     1      11.175 156.337  40.010  1.00  0.00     0.020 A 
HETATM    3  C11 UNL     1      10.780 157.482  40.722  1.00  0.00     0.017 A 
HETATM    4  C12 UNL     1      11.189 158.751  40.374  1.00  0.00     0.020 A 
HETATM    5  C13 UNL     1      10.935 159.996  40.899  1.00  0.00     0.060 A 
HETATM    6  N3  UNL     1      11.649 160.834  40.058  1.00  0.00    -0.299 N 
ATOM      7  H3  UNL     1      11.685 161.849  40.156  1.00  0.00     0.187 HD
HETATM    8  N4  UNL     1      12.267 160.167  39.130  1.00  0.00    -0.299 N 
ATOM      9  H4  UNL     1      12.852 160.575  38.401  1.00  0.00     0.187 HD
HETATM   10  C21 UNL     1      12.011 158.838  39.284  1.00  0.00     0.061 A 
HETATM   11  C22 UNL     1      12.404 157.725  38.577  1.00  0.00     0.050 A 
ENDROOT
BRANCH   1  12
HETATM   12  S1  UNL     1      12.407 155.020  37.942  1.00  0.00    -0.089 SA
BRANCH  12  13
HETATM   13  C8  UNL     1      11.417 155.089  36.430  1.00  0.00     0.021 A 
HETATM   14  C3  UNL     1      12.130 155.148  35.218  1.00  0.00     0.049 A 
HETATM   15  C4  UNL     1      11.374 155.152  34.068  1.00  0.00     0.018 A 
HETATM   16  C5  UNL     1       9.963 155.102  34.083  1.00  0.00     0.001 A 
HETATM   17  C6  UNL     1       9.297 155.043  35.301  1.00  0.00     0.001 A 
HETATM   18  C7  UNL     1      10.045 155.039  36.450  1.00  0.00     0.020 A 
BRANCH  14  19
HETATM   19  C2  UNL     1      13.582 155.209  35.224  1.00  0.00     0.252 C 
HETATM   20  N1  UNL     1      14.376 156.272  35.724  1.00  0.00    -0.361 N 
HETATM   21  C1  UNL     1      15.840 156.207  35.685  1.00  0.00     0.149 C 
ATOM     22  H1  UNL     1      13.921 157.096  36.116  1.00  0.00     0.162 HD
HETATM   23  O1  UNL     1      14.204 154.209  34.727  1.00  0.00    -0.268 OA
ENDBRANCH  14  19
ENDBRANCH  12  13
ENDBRANCH   1  12
BRANCH   5  24
HETATM   24  C14 UNL     1      10.190 160.459  42.033  1.00  0.00     0.034 C 
HETATM   25  C15 UNL     1       9.539 159.809  42.935  1.00  0.00     0.032 C 
BRANCH  25  26
HETATM   26  C16 UNL     1       8.835 160.533  44.034  1.00  0.00     0.031 A 
HETATM   27  C17 UNL     1       9.389 160.588  45.267  1.00  0.00     0.029 A 
HETATM   28  C18 UNL     1       8.693 161.275  46.257  1.00  0.00     0.004 A 
HETATM   29  C19 UNL     1       7.489 161.873  45.989  1.00  0.00     0.017 A 
HETATM   30  C20 UNL     1       6.980 161.783  44.730  1.00  0.00     0.088 A 
HETATM   31  N2  UNL     1       7.673 161.108  43.772  1.00  0.00    -0.366 N 
ATOM     32  H2  UNL     1       7.287 161.044  42.830  1.00  0.00     0.165 HD
ENDBRANCH  25  26
ENDBRANCH   5  24
TORSDOF 5
ENDMDL
