MODEL 8
REMARK VINA RESULT: -9.080143674      4.420     10.032
REMARK  5 active torsions:
REMARK  status: ('A' for Active; 'I' for Inactive)
REMARK       I    between atoms: N1_2  and  C2_4 
REMARK    1  A    between atoms: C2_4  and  C3_6 
REMARK    2  A    between atoms: C8_11  and  S1_12 
REMARK    3  A    between atoms: S1_12  and  C9_13 
REMARK    4  A    between atoms: C13_17  and  C14_18 
REMARK    5  A    between atoms: C15_19  and  C16_20 
ROOT
HETATM    1  C9  UNL     1      12.134 157.152  38.901  1.00  0.00     0.007 A 
HETATM    2  C10 UNL     1      12.430 158.469  38.656  1.00  0.00     0.020 A 
HETATM    3  C11 UNL     1      11.848 159.471  39.449  1.00  0.00     0.017 A 
HETATM    4  C12 UNL     1      10.976 159.191  40.479  1.00  0.00     0.020 A 
HETATM    5  C13 UNL     1      10.301 159.982  41.379  1.00  0.00     0.060 A 
HETATM    6  N3  UNL     1       9.612 159.055  42.144  1.00  0.00    -0.299 N 
ATOM      7  H3  UNL     1       8.998 159.297  42.922  1.00  0.00     0.187 HD
HETATM    8  N4  UNL     1       9.844 157.840  41.747  1.00  0.00    -0.299 N 
ATOM      9  H4  UNL     1       9.446 156.997  42.162  1.00  0.00     0.187 HD
HETATM   10  C21 UNL     1      10.704 157.868  40.691  1.00  0.00     0.061 A 
HETATM   11  C22 UNL     1      11.268 156.876  39.922  1.00  0.00     0.050 A 
ENDROOT
BRANCH   1  12
HETATM   12  S1  UNL     1      12.967 155.868  37.968  1.00  0.00    -0.089 SA
BRANCH  12  13
HETATM   13  C8  UNL     1      11.898 155.423  36.578  1.00  0.00     0.021 A 
HETATM   14  C3  UNL     1      12.543 155.105  35.370  1.00  0.00     0.049 A 
HETATM   15  C4  UNL     1      11.728 154.721  34.329  1.00  0.00     0.018 A 
HETATM   16  C5  UNL     1      10.324 154.645  34.447  1.00  0.00     0.001 A 
HETATM   17  C6  UNL     1       9.725 154.966  35.660  1.00  0.00     0.001 A 
HETATM   18  C7  UNL     1      10.531 155.348  36.701  1.00  0.00     0.020 A 
BRANCH  14  19
HETATM   19  C2  UNL     1      13.989 155.200  35.264  1.00  0.00     0.252 C 
HETATM   20  N1  UNL     1      14.933 154.293  35.809  1.00  0.00    -0.361 N 
HETATM   21  C1  UNL     1      16.372 154.492  35.619  1.00  0.00     0.149 C 
ATOM     22  H1  UNL     1      14.604 153.488  36.343  1.00  0.00     0.162 HD
HETATM   23  O1  UNL     1      14.457 156.200  34.620  1.00  0.00    -0.268 OA
ENDBRANCH  14  19
ENDBRANCH  12  13
ENDBRANCH   1  12
BRANCH   5  24
HETATM   24  C14 UNL     1      10.200 161.399  41.570  1.00  0.00     0.034 C 
HETATM   25  C15 UNL     1      11.025 162.348  41.288  1.00  0.00     0.032 C 
BRANCH  25  26
HETATM   26  C16 UNL     1      10.681 163.769  41.589  1.00  0.00     0.031 A 
HETATM   27  C17 UNL     1      11.290 164.407  42.614  1.00  0.00     0.029 A 
HETATM   28  C18 UNL     1      10.933 165.731  42.853  1.00  0.00     0.004 A 
HETATM   29  C19 UNL     1       9.998 166.361  42.076  1.00  0.00     0.017 A 
HETATM   30  C20 UNL     1       9.417 165.669  41.060  1.00  0.00     0.088 A 
HETATM   31  N2  UNL     1       9.776 164.374  40.837  1.00  0.00    -0.366 N 
ATOM     32  H2  UNL     1       9.338 163.859  40.074  1.00  0.00     0.165 HD
ENDBRANCH  25  26
ENDBRANCH   5  24
TORSDOF 5
ENDMDL
