MODEL 7
REMARK VINA RESULT: -4.197015557      1.729      2.630
REMARK  2 active torsions:
REMARK  status: ('A' for Active; 'I' for Inactive)
REMARK    1  A    between atoms: O1_1  and  C1_3 
REMARK    2  A    between atoms: C6_9  and  O2_10 
ROOT
HETATM    1  C1  UNL     1     -16.294 -51.779 -33.804  1.00  0.00     0.099 A 
HETATM    2  C2  UNL     1     -15.692 -50.611 -34.311  1.00  0.00     0.042 A 
HETATM    3  C3  UNL     1     -15.829 -50.284 -35.633  1.00  0.00     0.045 A 
HETATM    4  C4  UNL     1     -16.556 -51.092 -36.480  1.00  0.00     0.119 A 
HETATM    5  F1  UNL     1     -16.706 -50.785 -37.808  1.00  0.00    -0.206 F 
HETATM    6  C5  UNL     1     -17.134 -52.226 -35.967  1.00  0.00     0.081 A 
HETATM    7  C6  UNL     1     -17.025 -52.607 -34.621  1.00  0.00     0.101 A 
ENDROOT
BRANCH   1   8
HETATM    8  O1  UNL     1     -16.143 -52.092 -32.465  1.00  0.00    -0.358 OA
ATOM      9  H1  UNL     1     -16.555 -52.876 -32.121  1.00  0.00     0.217 HD
ENDBRANCH   1   8
BRANCH   7  10
HETATM   10  O2  UNL     1     -17.640 -53.765 -34.194  1.00  0.00    -0.358 OA
ATOM     11  H2  UNL     1     -17.310 -54.638 -34.371  1.00  0.00     0.217 HD
ENDBRANCH   7  10
TORSDOF 2
ENDMDL
