MODEL 5
REMARK VINA RESULT: -4.213020082      4.300      4.963
REMARK  2 active torsions:
REMARK  status: ('A' for Active; 'I' for Inactive)
REMARK    1  A    between atoms: O1_1  and  C1_3 
REMARK    2  A    between atoms: C6_9  and  O2_10 
ROOT
HETATM    1  C1  UNL     1     -18.207 -50.727 -38.038  1.00  0.00     0.099 A 
HETATM    2  C2  UNL     1     -18.693 -49.908 -37.000  1.00  0.00     0.042 A 
HETATM    3  C3  UNL     1     -17.891 -49.595 -35.937  1.00  0.00     0.045 A 
HETATM    4  C4  UNL     1     -16.601 -50.076 -35.870  1.00  0.00     0.119 A 
HETATM    5  F1  UNL     1     -15.779 -49.775 -34.814  1.00  0.00    -0.206 F 
HETATM    6  C5  UNL     1     -16.146 -50.872 -36.891  1.00  0.00     0.081 A 
HETATM    7  C6  UNL     1     -16.926 -51.223 -38.003  1.00  0.00     0.101 A 
ENDROOT
BRANCH   1   8
HETATM    8  O1  UNL     1     -19.033 -51.033 -39.105  1.00  0.00    -0.358 OA
ATOM      9  H1  UNL     1     -18.682 -51.521 -39.840  1.00  0.00     0.217 HD
ENDBRANCH   1   8
BRANCH   7  10
HETATM   10  O2  UNL     1     -16.385 -52.029 -38.981  1.00  0.00    -0.358 OA
ATOM     11  H2  UNL     1     -16.092 -52.921 -38.833  1.00  0.00     0.217 HD
ENDBRANCH   7  10
TORSDOF 2
ENDMDL
