MODEL 2
REMARK VINA RESULT: -4.413897910      1.526      2.589
REMARK  2 active torsions:
REMARK  status: ('A' for Active; 'I' for Inactive)
REMARK    1  A    between atoms: O1_1  and  C1_3 
REMARK    2  A    between atoms: C6_9  and  O2_10 
ROOT
HETATM    1  C1  UNL     1     -16.106 -51.192 -33.860  1.00  0.00     0.099 A 
HETATM    2  C2  UNL     1     -15.596 -50.522 -34.990  1.00  0.00     0.042 A 
HETATM    3  C3  UNL     1     -16.448 -49.938 -35.887  1.00  0.00     0.045 A 
HETATM    4  C4  UNL     1     -17.812 -49.998 -35.695  1.00  0.00     0.119 A 
HETATM    5  F1  UNL     1     -18.685 -49.420 -36.581  1.00  0.00    -0.206 F 
HETATM    6  C5  UNL     1     -18.288 -50.655 -34.589  1.00  0.00     0.081 A 
HETATM    7  C6  UNL     1     -17.459 -51.270 -33.639  1.00  0.00     0.101 A 
ENDROOT
BRANCH   1   8
HETATM    8  O1  UNL     1     -15.227 -51.776 -32.966  1.00  0.00    -0.358 OA
ATOM      9  H1  UNL     1     -15.555 -52.095 -32.133  1.00  0.00     0.217 HD
ENDBRANCH   1   8
BRANCH   7  10
HETATM   10  O2  UNL     1     -18.027 -51.908 -32.557  1.00  0.00    -0.358 OA
ATOM     11  H2  UNL     1     -18.415 -52.774 -32.595  1.00  0.00     0.217 HD
ENDBRANCH   7  10
TORSDOF 2
ENDMDL
