MODEL 14
REMARK VINA RESULT: -4.050273293      2.276      2.956
REMARK  2 active torsions:
REMARK  status: ('A' for Active; 'I' for Inactive)
REMARK    1  A    between atoms: O1_1  and  C1_3 
REMARK    2  A    between atoms: C6_9  and  O2_10 
ROOT
HETATM    1  C1  UNL     1     -18.039 -51.444 -33.277  1.00  0.00     0.099 A 
HETATM    2  C2  UNL     1     -16.707 -51.864 -33.464  1.00  0.00     0.042 A 
HETATM    3  C3  UNL     1     -16.012 -51.477 -34.576  1.00  0.00     0.045 A 
HETATM    4  C4  UNL     1     -16.606 -50.671 -35.525  1.00  0.00     0.119 A 
HETATM    5  F1  UNL     1     -15.930 -50.270 -36.648  1.00  0.00    -0.206 F 
HETATM    6  C5  UNL     1     -17.904 -50.273 -35.324  1.00  0.00     0.081 A 
HETATM    7  C6  UNL     1     -18.660 -50.642 -34.202  1.00  0.00     0.101 A 
ENDROOT
BRANCH   1   8
HETATM    8  O1  UNL     1     -18.724 -51.848 -32.144  1.00  0.00    -0.358 OA
ATOM      9  H1  UNL     1     -18.964 -52.761 -32.047  1.00  0.00     0.217 HD
ENDBRANCH   1   8
BRANCH   7  10
HETATM   10  O2  UNL     1     -19.959 -50.193 -34.084  1.00  0.00    -0.358 OA
ATOM     11  H2  UNL     1     -20.338 -49.514 -34.630  1.00  0.00     0.217 HD
ENDBRANCH   7  10
TORSDOF 2
ENDMDL
