MODEL 20
REMARK VINA RESULT: -7.174298067      1.513      3.415
REMARK  4 active torsions:
REMARK  status: ('A' for Active; 'I' for Inactive)
REMARK    1  A    between atoms: C5_8  and  C6_9 
REMARK    2  A    between atoms: C9_12  and  C10_13 
REMARK    3  A    between atoms: C15_23  and  N5_24 
REMARK    4  A    between atoms: N5_24  and  C16_26 
ROOT
HETATM    1  C10 UNL     1      15.807  -2.415 -10.236  1.00  0.00     0.089 A 
HETATM    2  N2  UNL     1      16.492  -1.691 -11.144  1.00  0.00    -0.337 N 
ATOM      3  H2  UNL     1      16.550  -1.910 -12.139  1.00  0.00     0.167 HD
HETATM    4  C11 UNL     1      17.080  -0.651 -10.560  1.00  0.00     0.129 A 
HETATM    5  C12 UNL     1      17.871   0.354 -11.076  1.00  0.00     0.137 A 
HETATM    6  N3  UNL     1      18.378   1.335 -10.321  1.00  0.00    -0.371 N 
ATOM      7  H3  UNL     1      18.957   2.062 -10.740  1.00  0.00     0.164 HD
HETATM    8  C13 UNL     1      18.114   1.352  -9.007  1.00  0.00     0.105 A 
HETATM    9  C14 UNL     1      17.322   0.344  -8.485  1.00  0.00     0.117 A 
HETATM   10  N4  UNL     1      16.802  -0.654  -9.244  1.00  0.00    -0.290 N 
HETATM   11  C15 UNL     1      16.009  -1.743  -9.020  1.00  0.00     0.138 A 
ENDROOT
BRANCH   1  12
HETATM   12  C9  UNL     1      15.006  -3.606 -10.560  1.00  0.00    -0.005 A 
HETATM   13  C8  UNL     1      14.645  -4.028 -11.782  1.00  0.00     0.014 A 
HETATM   14  C7  UNL     1      13.957  -5.236 -11.976  1.00  0.00     0.013 A 
HETATM   15  C6  UNL     1      13.629  -6.024 -10.896  1.00  0.00    -0.021 A 
HETATM   16  C21 UNL     1      13.978  -5.619  -9.642  1.00  0.00     0.013 A 
HETATM   17  C20 UNL     1      14.646  -4.444  -9.485  1.00  0.00     0.014 A 
BRANCH  15  18
HETATM   18  C5  UNL     1      12.929  -7.303 -11.035  1.00  0.00     0.030 A 
HETATM   19  C2  UNL     1      11.618  -7.505 -11.363  1.00  0.00     0.042 A 
HETATM   20  C1  UNL     1      10.599  -6.438 -11.669  1.00  0.00     0.071 C 
HETATM   21  N1  UNL     1      11.446  -8.836 -11.356  1.00  0.00    -0.265 N 
HETATM   22  O1  UNL     1      12.568  -9.403 -11.049  1.00  0.00    -0.242 OA
ATOM     23  H1  UNL     1      10.573  -9.322 -11.561  1.00  0.00     0.194 HD
HETATM   24  C3  UNL     1      13.519  -8.549 -10.838  1.00  0.00     0.085 A 
HETATM   25  C4  UNL     1      14.950  -8.783 -10.463  1.00  0.00     0.079 C 
ENDBRANCH  15  18
ENDBRANCH   1  12
BRANCH  11  26
HETATM   26  N5  UNL     1      15.386  -2.093  -7.821  1.00  0.00    -0.366 N 
ATOM     27  H5  UNL     1      14.370  -2.025  -7.890  1.00  0.00     0.162 HD
BRANCH  26  28
HETATM   28  C16 UNL     1      15.793  -2.516  -6.537  1.00  0.00     0.021 C 
HETATM   29  C17 UNL     1      14.639  -3.408  -5.915  1.00  0.00     0.037 C 
HETATM   30  C18 UNL     1      15.841  -1.372  -5.548  1.00  0.00     0.037 C 
HETATM   31  C19 UNL     1      16.993  -3.369  -6.411  1.00  0.00     0.037 C 
ENDBRANCH  26  28
ENDBRANCH  11  26
TORSDOF 4
ENDMDL
