MODEL 6
REMARK VINA RESULT: -7.747465226      3.198      8.170
REMARK  4 active torsions:
REMARK  status: ('A' for Active; 'I' for Inactive)
REMARK    1  A    between atoms: C5_8  and  C6_9 
REMARK    2  A    between atoms: C9_12  and  C10_13 
REMARK    3  A    between atoms: C15_23  and  N5_24 
REMARK    4  A    between atoms: N5_24  and  C16_26 
ROOT
HETATM    1  C10 UNL     1      13.739  -4.790 -11.326  1.00  0.00     0.089 A 
HETATM    2  N2  UNL     1      12.689  -5.109 -12.109  1.00  0.00    -0.337 N 
ATOM      3  H2  UNL     1      12.329  -4.527 -12.866  1.00  0.00     0.167 HD
HETATM    4  C11 UNL     1      12.189  -6.290 -11.756  1.00  0.00     0.129 A 
HETATM    5  C12 UNL     1      11.132  -7.018 -12.261  1.00  0.00     0.137 A 
HETATM    6  N3  UNL     1      10.775  -8.210 -11.771  1.00  0.00    -0.371 N 
ATOM      7  H3  UNL     1       9.988  -8.719 -12.173  1.00  0.00     0.164 HD
HETATM    8  C13 UNL     1      11.464  -8.727 -10.744  1.00  0.00     0.105 A 
HETATM    9  C14 UNL     1      12.523  -7.999 -10.232  1.00  0.00     0.117 A 
HETATM   10  N4  UNL     1      12.894  -6.790 -10.725  1.00  0.00    -0.290 N 
HETATM   11  C15 UNL     1      13.865  -5.873 -10.443  1.00  0.00     0.138 A 
ENDROOT
BRANCH   1  12
HETATM   12  C9  UNL     1      14.547  -3.570 -11.481  1.00  0.00    -0.005 A 
HETATM   13  C8  UNL     1      15.005  -2.776 -10.500  1.00  0.00     0.014 A 
HETATM   14  C7  UNL     1      15.849  -1.686 -10.762  1.00  0.00     0.013 A 
HETATM   15  C6  UNL     1      16.230  -1.404 -12.054  1.00  0.00    -0.021 A 
HETATM   16  C21 UNL     1      15.778  -2.191 -13.072  1.00  0.00     0.013 A 
HETATM   17  C20 UNL     1      14.961  -3.240 -12.787  1.00  0.00     0.014 A 
BRANCH  15  18
HETATM   18  C5  UNL     1      17.125  -0.294 -12.389  1.00  0.00     0.030 A 
HETATM   19  C2  UNL     1      16.778   0.981 -12.738  1.00  0.00     0.042 A 
HETATM   20  C1  UNL     1      15.379   1.530 -12.840  1.00  0.00     0.071 C 
HETATM   21  N1  UNL     1      17.937   1.622 -12.958  1.00  0.00    -0.265 N 
HETATM   22  O1  UNL     1      18.916   0.800 -12.759  1.00  0.00    -0.242 OA
ATOM     23  H1  UNL     1      18.030   2.599 -13.237  1.00  0.00     0.194 HD
HETATM   24  C3  UNL     1      18.515  -0.381 -12.412  1.00  0.00     0.085 A 
HETATM   25  C4  UNL     1      19.313  -1.608 -12.093  1.00  0.00     0.079 C 
ENDBRANCH  15  18
ENDBRANCH   1  12
BRANCH  11  26
HETATM   26  N5  UNL     1      14.903  -6.010  -9.518  1.00  0.00    -0.366 N 
ATOM     27  H5  UNL     1      15.780  -6.267  -9.970  1.00  0.00     0.162 HD
BRANCH  26  28
HETATM   28  C16 UNL     1      15.055  -5.886  -8.120  1.00  0.00     0.021 C 
HETATM   29  C17 UNL     1      14.580  -7.239  -7.443  1.00  0.00     0.037 C 
HETATM   30  C18 UNL     1      14.073  -4.902  -7.524  1.00  0.00     0.037 C 
HETATM   31  C19 UNL     1      16.408  -5.680  -7.562  1.00  0.00     0.037 C 
ENDBRANCH  26  28
ENDBRANCH  11  26
TORSDOF 4
ENDMDL
