MODEL 3
REMARK VINA RESULT: -7.836899803      2.049      4.041
REMARK  4 active torsions:
REMARK  status: ('A' for Active; 'I' for Inactive)
REMARK    1  A    between atoms: C5_8  and  C6_9 
REMARK    2  A    between atoms: C9_12  and  C10_13 
REMARK    3  A    between atoms: C15_23  and  N5_24 
REMARK    4  A    between atoms: N5_24  and  C16_26 
ROOT
HETATM    1  C10 UNL     1      15.399  -3.019  -9.170  1.00  0.00     0.089 A 
HETATM    2  N2  UNL     1      16.029  -2.092  -9.918  1.00  0.00    -0.337 N 
ATOM      3  H2  UNL     1      16.090  -2.110 -10.936  1.00  0.00     0.167 HD
HETATM    4  C11 UNL     1      16.559  -1.151  -9.142  1.00  0.00     0.129 A 
HETATM    5  C12 UNL     1      17.282  -0.018  -9.451  1.00  0.00     0.137 A 
HETATM    6  N3  UNL     1      17.736   0.827  -8.519  1.00  0.00    -0.371 N 
ATOM      7  H3  UNL     1      18.265   1.656  -8.788  1.00  0.00     0.164 HD
HETATM    8  C13 UNL     1      17.484   0.572  -7.227  1.00  0.00     0.105 A 
HETATM    9  C14 UNL     1      16.761  -0.565  -6.912  1.00  0.00     0.117 A 
HETATM   10  N4  UNL     1      16.295  -1.427  -7.852  1.00  0.00    -0.290 N 
HETATM   11  C15 UNL     1      15.572  -2.585  -7.846  1.00  0.00     0.138 A 
ENDROOT
BRANCH   1  12
HETATM   12  C9  UNL     1      14.669  -4.172  -9.720  1.00  0.00    -0.005 A 
HETATM   13  C8  UNL     1      14.263  -4.339 -10.989  1.00  0.00     0.014 A 
HETATM   14  C7  UNL     1      13.654  -5.526 -11.422  1.00  0.00     0.013 A 
HETATM   15  C6  UNL     1      13.455  -6.562 -10.537  1.00  0.00    -0.021 A 
HETATM   16  C21 UNL     1      13.853  -6.420  -9.241  1.00  0.00     0.013 A 
HETATM   17  C20 UNL     1      14.441  -5.258  -8.851  1.00  0.00     0.014 A 
BRANCH  15  18
HETATM   18  C5  UNL     1      12.844  -7.833 -10.933  1.00  0.00     0.030 A 
HETATM   19  C2  UNL     1      11.564  -8.044 -11.364  1.00  0.00     0.042 A 
HETATM   20  C1  UNL     1      10.496  -6.997 -11.541  1.00  0.00     0.071 C 
HETATM   21  N1  UNL     1      11.476  -9.364 -11.597  1.00  0.00    -0.265 N 
HETATM   22  O1  UNL     1      12.616  -9.915 -11.328  1.00  0.00    -0.242 OA
ATOM     23  H1  UNL     1      10.645  -9.853 -11.931  1.00  0.00     0.194 HD
HETATM   24  C3  UNL     1      13.500  -9.062 -10.920  1.00  0.00     0.085 A 
HETATM   25  C4  UNL     1      14.924  -9.280 -10.510  1.00  0.00     0.079 C 
ENDBRANCH  15  18
ENDBRANCH   1  12
BRANCH  11  26
HETATM   26  N5  UNL     1      14.984  -3.199  -6.738  1.00  0.00    -0.366 N 
ATOM     27  H5  UNL     1      15.465  -4.062  -6.486  1.00  0.00     0.162 HD
BRANCH  26  28
HETATM   28  C16 UNL     1      13.897  -2.938  -5.876  1.00  0.00     0.021 C 
HETATM   29  C17 UNL     1      13.336  -4.323  -5.346  1.00  0.00     0.037 C 
HETATM   30  C18 UNL     1      12.694  -2.403  -6.620  1.00  0.00     0.037 C 
HETATM   31  C19 UNL     1      14.134  -2.168  -4.638  1.00  0.00     0.037 C 
ENDBRANCH  26  28
ENDBRANCH  11  26
TORSDOF 4
ENDMDL
