MODEL 9
REMARK VINA RESULT: -7.616654214      2.022      4.262
REMARK  4 active torsions:
REMARK  status: ('A' for Active; 'I' for Inactive)
REMARK    1  A    between atoms: C5_8  and  C6_9 
REMARK    2  A    between atoms: C9_12  and  C10_13 
REMARK    3  A    between atoms: C15_23  and  N5_24 
REMARK    4  A    between atoms: N5_24  and  C16_26 
ROOT
HETATM    1  C10 UNL     1      15.456  -2.932  -9.252  1.00  0.00     0.089 A 
HETATM    2  N2  UNL     1      16.072  -1.997 -10.003  1.00  0.00    -0.337 N 
ATOM      3  H2  UNL     1      16.115  -2.004 -11.022  1.00  0.00     0.167 HD
HETATM    4  C11 UNL     1      16.615  -1.064  -9.227  1.00  0.00     0.129 A 
HETATM    5  C12 UNL     1      17.332   0.073  -9.537  1.00  0.00     0.137 A 
HETATM    6  N3  UNL     1      17.802   0.910  -8.605  1.00  0.00    -0.371 N 
ATOM      7  H3  UNL     1      18.327   1.741  -8.875  1.00  0.00     0.164 HD
HETATM    8  C13 UNL     1      17.574   0.641  -7.312  1.00  0.00     0.105 A 
HETATM    9  C14 UNL     1      16.857  -0.499  -6.995  1.00  0.00     0.117 A 
HETATM   10  N4  UNL     1      16.375  -1.352  -7.935  1.00  0.00    -0.290 N 
HETATM   11  C15 UNL     1      15.652  -2.510  -7.928  1.00  0.00     0.138 A 
ENDROOT
BRANCH   1  12
HETATM   12  C9  UNL     1      14.716  -4.079  -9.801  1.00  0.00    -0.005 A 
HETATM   13  C8  UNL     1      14.290  -4.235 -11.065  1.00  0.00     0.014 A 
HETATM   14  C7  UNL     1      13.674  -5.419 -11.499  1.00  0.00     0.013 A 
HETATM   15  C6  UNL     1      13.489  -6.462 -10.620  1.00  0.00    -0.021 A 
HETATM   16  C21 UNL     1      13.907  -6.331  -9.329  1.00  0.00     0.013 A 
HETATM   17  C20 UNL     1      14.502  -5.173  -8.938  1.00  0.00     0.014 A 
BRANCH  15  18
HETATM   18  C5  UNL     1      12.871  -7.729 -11.017  1.00  0.00     0.030 A 
HETATM   19  C2  UNL     1      13.449  -8.967 -11.044  1.00  0.00     0.042 A 
HETATM   20  C1  UNL     1      14.865  -9.301 -10.650  1.00  0.00     0.071 C 
HETATM   21  N1  UNL     1      12.493  -9.801 -11.483  1.00  0.00    -0.265 N 
HETATM   22  O1  UNL     1      11.414  -9.123 -11.707  1.00  0.00    -0.242 OA
ATOM     23  H1  UNL     1      12.600 -10.807 -11.618  1.00  0.00     0.194 HD
HETATM   24  C3  UNL     1      11.554  -7.862 -11.452  1.00  0.00     0.085 A 
HETATM   25  C4  UNL     1      10.564  -6.744 -11.575  1.00  0.00     0.079 C 
ENDBRANCH  15  18
ENDBRANCH   1  12
BRANCH  11  26
HETATM   26  N5  UNL     1      15.084  -3.136  -6.816  1.00  0.00    -0.366 N 
ATOM     27  H5  UNL     1      15.569  -4.002  -6.582  1.00  0.00     0.162 HD
BRANCH  26  28
HETATM   28  C16 UNL     1      14.013  -2.884  -5.931  1.00  0.00     0.021 C 
HETATM   29  C17 UNL     1      13.442  -4.275  -5.429  1.00  0.00     0.037 C 
HETATM   30  C18 UNL     1      12.807  -2.314  -6.644  1.00  0.00     0.037 C 
HETATM   31  C19 UNL     1      14.278  -2.149  -4.677  1.00  0.00     0.037 C 
ENDBRANCH  26  28
ENDBRANCH  11  26
TORSDOF 4
ENDMDL
