MODEL 7
REMARK VINA RESULT: -7.673012690      4.242      6.536
REMARK  4 active torsions:
REMARK  status: ('A' for Active; 'I' for Inactive)
REMARK    1  A    between atoms: C5_8  and  C6_9 
REMARK    2  A    between atoms: C9_12  and  C10_13 
REMARK    3  A    between atoms: C15_23  and  N5_24 
REMARK    4  A    between atoms: N5_24  and  C16_26 
ROOT
HETATM    1  C10 UNL     1      15.739  -8.272  -7.850  1.00  0.00     0.089 A 
HETATM    2  N2  UNL     1      16.179  -9.362  -7.190  1.00  0.00    -0.337 N 
ATOM      3  H2  UNL     1      15.882 -10.318  -7.383  1.00  0.00     0.167 HD
HETATM    4  C11 UNL     1      17.054  -9.013  -6.251  1.00  0.00     0.129 A 
HETATM    5  C12 UNL     1      17.762  -9.771  -5.341  1.00  0.00     0.137 A 
HETATM    6  N3  UNL     1      18.615  -9.235  -4.462  1.00  0.00    -0.371 N 
ATOM      7  H3  UNL     1      19.122  -9.829  -3.807  1.00  0.00     0.164 HD
HETATM    8  C13 UNL     1      18.798  -7.907  -4.455  1.00  0.00     0.105 A 
HETATM    9  C14 UNL     1      18.088  -7.143  -5.364  1.00  0.00     0.117 A 
HETATM   10  N4  UNL     1      17.221  -7.678  -6.261  1.00  0.00    -0.290 N 
HETATM   11  C15 UNL     1      16.414  -7.197  -7.251  1.00  0.00     0.138 A 
ENDROOT
BRANCH   1  12
HETATM   12  C9  UNL     1      14.797  -8.311  -8.979  1.00  0.00    -0.005 A 
HETATM   13  C8  UNL     1      15.021  -8.823 -10.200  1.00  0.00     0.014 A 
HETATM   14  C7  UNL     1      14.012  -8.891 -11.173  1.00  0.00     0.013 A 
HETATM   15  C6  UNL     1      12.748  -8.422 -10.889  1.00  0.00    -0.021 A 
HETATM   16  C21 UNL     1      12.492  -7.893  -9.659  1.00  0.00     0.013 A 
HETATM   17  C20 UNL     1      13.490  -7.842  -8.737  1.00  0.00     0.014 A 
BRANCH  15  18
HETATM   18  C5  UNL     1      11.649  -8.483 -11.855  1.00  0.00     0.030 A 
HETATM   19  C2  UNL     1      10.926  -7.440 -12.362  1.00  0.00     0.042 A 
HETATM   20  C1  UNL     1      11.119  -5.980 -12.043  1.00  0.00     0.071 C 
HETATM   21  N1  UNL     1      10.031  -7.994 -13.195  1.00  0.00    -0.265 N 
HETATM   22  O1  UNL     1      10.195  -9.278 -13.195  1.00  0.00    -0.242 OA
ATOM     23  H1  UNL     1       9.333  -7.486 -13.740  1.00  0.00     0.194 HD
HETATM   24  C3  UNL     1      11.153  -9.660 -12.412  1.00  0.00     0.085 A 
HETATM   25  C4  UNL     1      11.663 -11.038 -12.124  1.00  0.00     0.079 C 
ENDBRANCH  15  18
ENDBRANCH   1  12
BRANCH  11  26
HETATM   26  N5  UNL     1      16.336  -5.877  -7.700  1.00  0.00    -0.366 N 
ATOM     27  H5  UNL     1      17.132  -5.631  -8.288  1.00  0.00     0.162 HD
BRANCH  26  28
HETATM   28  C16 UNL     1      15.444  -4.792  -7.553  1.00  0.00     0.021 C 
HETATM   29  C17 UNL     1      14.792  -4.487  -8.965  1.00  0.00     0.037 C 
HETATM   30  C18 UNL     1      16.167  -3.493  -7.278  1.00  0.00     0.037 C 
HETATM   31  C19 UNL     1      14.276  -4.942  -6.660  1.00  0.00     0.037 C 
ENDBRANCH  26  28
ENDBRANCH  11  26
TORSDOF 4
ENDMDL
