MODEL 5
REMARK VINA RESULT: -7.772910311      3.211      8.318
REMARK  4 active torsions:
REMARK  status: ('A' for Active; 'I' for Inactive)
REMARK    1  A    between atoms: C5_8  and  C6_9 
REMARK    2  A    between atoms: C9_12  and  C10_13 
REMARK    3  A    between atoms: C15_23  and  N5_24 
REMARK    4  A    between atoms: N5_24  and  C16_26 
ROOT
HETATM    1  C10 UNL     1      13.741  -4.804 -11.315  1.00  0.00     0.089 A 
HETATM    2  N2  UNL     1      12.682  -5.090 -12.098  1.00  0.00    -0.337 N 
ATOM      3  H2  UNL     1      12.328  -4.487 -12.841  1.00  0.00     0.167 HD
HETATM    4  C11 UNL     1      12.164  -6.269 -11.766  1.00  0.00     0.129 A 
HETATM    5  C12 UNL     1      11.093  -6.970 -12.281  1.00  0.00     0.137 A 
HETATM    6  N3  UNL     1      10.718  -8.165 -11.813  1.00  0.00    -0.371 N 
ATOM      7  H3  UNL     1       9.921  -8.652 -12.222  1.00  0.00     0.164 HD
HETATM    8  C13 UNL     1      11.404  -8.715 -10.801  1.00  0.00     0.105 A 
HETATM    9  C14 UNL     1      12.478  -8.016 -10.280  1.00  0.00     0.117 A 
HETATM   10  N4  UNL     1      12.866  -6.803 -10.750  1.00  0.00    -0.290 N 
HETATM   11  C15 UNL     1      13.854  -5.908 -10.455  1.00  0.00     0.138 A 
ENDROOT
BRANCH   1  12
HETATM   12  C9  UNL     1      14.568  -3.596 -11.449  1.00  0.00    -0.005 A 
HETATM   13  C8  UNL     1      14.993  -2.794 -10.458  1.00  0.00     0.014 A 
HETATM   14  C7  UNL     1      15.860  -1.717 -10.696  1.00  0.00     0.013 A 
HETATM   15  C6  UNL     1      16.299  -1.455 -11.974  1.00  0.00    -0.021 A 
HETATM   16  C21 UNL     1      15.882  -2.249 -13.001  1.00  0.00     0.013 A 
HETATM   17  C20 UNL     1      15.043  -3.286 -12.739  1.00  0.00     0.014 A 
BRANCH  15  18
HETATM   18  C5  UNL     1      17.220  -0.359 -12.283  1.00  0.00     0.030 A 
HETATM   19  C2  UNL     1      18.586  -0.385 -12.259  1.00  0.00     0.042 A 
HETATM   20  C1  UNL     1      19.451  -1.570 -11.917  1.00  0.00     0.071 C 
HETATM   21  N1  UNL     1      18.976   0.852 -12.606  1.00  0.00    -0.265 N 
HETATM   22  O1  UNL     1      17.927   1.577 -12.826  1.00  0.00    -0.242 OA
ATOM     23  H1  UNL     1      19.943   1.169 -12.684  1.00  0.00     0.194 HD
HETATM   24  C3  UNL     1      16.822   0.924 -12.653  1.00  0.00     0.085 A 
HETATM   25  C4  UNL     1      15.405   1.384 -12.801  1.00  0.00     0.079 C 
ENDBRANCH  15  18
ENDBRANCH   1  12
BRANCH  11  26
HETATM   26  N5  UNL     1      14.894  -6.082  -9.538  1.00  0.00    -0.366 N 
ATOM     27  H5  UNL     1      15.763  -6.350 -10.001  1.00  0.00     0.162 HD
BRANCH  26  28
HETATM   28  C16 UNL     1      15.058  -5.983  -8.140  1.00  0.00     0.021 C 
HETATM   29  C17 UNL     1      14.577  -7.344  -7.483  1.00  0.00     0.037 C 
HETATM   30  C18 UNL     1      14.087  -5.002  -7.520  1.00  0.00     0.037 C 
HETATM   31  C19 UNL     1      16.416  -5.797  -7.589  1.00  0.00     0.037 C 
ENDBRANCH  26  28
ENDBRANCH  11  26
TORSDOF 4
ENDMDL
