MODEL 3
REMARK VINA RESULT: -8.740045562      3.642      4.962
REMARK  4 active torsions:
REMARK  status: ('A' for Active; 'I' for Inactive)
REMARK    1  A    between atoms: N5_13  and  C6_14 
REMARK    2  A    between atoms: C13_32  and  O10_33 
REMARK    3  A    between atoms: C14_36  and  N6_37 
REMARK    4  A    between atoms: C20_50  and  O12_51 
ROOT
HETATM    1  C6  UNL     1      17.470 -25.567  16.180  1.00  0.00     0.262 C 
HETATM    2  O1  UNL     1      16.811 -25.189  15.016  1.00  0.00    -0.353 OA
HETATM    3  C7  UNL     1      16.080 -26.385  14.765  1.00  0.00     0.180 C 
HETATM    4  C8  UNL     1      15.016 -26.068  13.731  1.00  0.00     0.216 C 
HETATM    5  O2  UNL     1      13.854 -26.746  13.913  1.00  0.00    -0.287 OA
HETATM    6  P1  UNL     1      13.303 -27.400  12.464  1.00  0.00     0.408 P 
HETATM    7  O3  UNL     1      13.697 -26.554  11.078  1.00  0.00    -0.624 OA
HETATM    8  O4  UNL     1      12.029 -26.551  12.642  1.00  0.00    -0.624 OA
HETATM    9  O5  UNL     1      12.524 -28.797  12.379  1.00  0.00    -0.279 OA
HETATM   10  C9  UNL     1      12.759 -29.826  13.211  1.00  0.00     0.198 C 
HETATM   11  C10 UNL     1      14.035 -30.579  13.066  1.00  0.00     0.180 C 
HETATM   12  C11 UNL     1      14.532 -31.223  14.356  1.00  0.00     0.216 C 
HETATM   13  O6  UNL     1      14.212 -30.425  15.404  1.00  0.00    -0.287 OA
HETATM   14  P2  UNL     1      15.082 -29.317  15.993  1.00  0.00     0.408 P 
HETATM   15  O7  UNL     1      13.711 -28.499  16.414  1.00  0.00    -0.624 OA
HETATM   16  O8  UNL     1      15.743 -29.064  14.501  1.00  0.00    -0.624 OA
HETATM   17  O9  UNL     1      15.951 -28.129  16.471  1.00  0.00    -0.279 OA
HETATM   18  C12 UNL     1      15.555 -26.825  16.082  1.00  0.00     0.198 C 
HETATM   19  C13 UNL     1      16.291 -25.935  17.059  1.00  0.00     0.199 C 
HETATM   20  O11 UNL     1      13.805 -31.658  12.199  1.00  0.00    -0.353 OA
HETATM   21  C14 UNL     1      12.574 -31.497  11.627  1.00  0.00     0.262 C 
HETATM   22  C20 UNL     1      11.758 -30.933  12.795  1.00  0.00     0.199 C 
ENDROOT
BRANCH   1  23
HETATM   23  N5  UNL     1      18.320 -24.584  16.730  1.00  0.00    -0.297 N 
HETATM   24  C3  UNL     1      19.273 -24.827  17.667  1.00  0.00     0.142 A 
HETATM   25  N3  UNL     1      19.651 -25.973  18.290  1.00  0.00    -0.336 N 
HETATM   26  C4  UNL     1      19.916 -23.678  17.988  1.00  0.00     0.119 A 
HETATM   27  C2  UNL     1      20.633 -25.996  19.201  1.00  0.00     0.183 A 
ATOM     28  H3  UNL     1      19.174 -26.843  18.056  1.00  0.00     0.168 HD
HETATM   29  N2  UNL     1      21.262 -24.860  19.512  1.00  0.00    -0.339 N 
HETATM   30  C1  UNL     1      20.941 -23.686  18.936  1.00  0.00     0.148 A 
ATOM     31  H2  UNL     1      22.009 -24.882  20.207  1.00  0.00     0.167 HD
HETATM   32  N1  UNL     1      21.580 -22.476  19.238  1.00  0.00    -0.080 NA
HETATM   33  N4  UNL     1      19.358 -22.701  17.240  1.00  0.00    -0.346 N 
HETATM   34  C5  UNL     1      18.398 -23.273  16.489  1.00  0.00     0.188 A 
ATOM     35  H4  UNL     1      19.617 -21.714  17.244  1.00  0.00     0.167 HD
ENDBRANCH   1  23
BRANCH  19  36
HETATM   36  O10 UNL     1      16.686 -26.588  18.211  1.00  0.00    -0.388 OA
ATOM     37  H10 UNL     1      16.459 -27.511  18.195  1.00  0.00     0.210 HD
ENDBRANCH  19  36
BRANCH  22  38
HETATM   38  O12 UNL     1      10.583 -30.400  12.331  1.00  0.00    -0.388 OA
ATOM     39  H12 UNL     1       9.871 -31.028  12.380  1.00  0.00     0.210 HD
ENDBRANCH  22  38
BRANCH  21  40
HETATM   40  N6  UNL     1      12.039 -32.726  11.140  1.00  0.00    -0.297 N 
HETATM   41  C15 UNL     1      11.452 -33.650  11.956  1.00  0.00     0.188 A 
HETATM   42  N7  UNL     1      11.044 -34.696  11.242  1.00  0.00    -0.346 N 
HETATM   43  C16 UNL     1      11.369 -34.443   9.965  1.00  0.00     0.119 A 
ATOM     44  H7  UNL     1      10.573 -35.529  11.597  1.00  0.00     0.167 HD
HETATM   45  C17 UNL     1      11.171 -35.199   8.831  1.00  0.00     0.148 A 
HETATM   46  C19 UNL     1      11.987 -33.219   9.906  1.00  0.00     0.142 A 
HETATM   47  N8  UNL     1      10.534 -36.454   8.919  1.00  0.00    -0.080 NA
HETATM   48  N9  UNL     1      11.608 -34.694   7.653  1.00  0.00    -0.339 N 
HETATM   49  C18 UNL     1      12.211 -33.491   7.610  1.00  0.00     0.183 A 
ATOM     50  H9  UNL     1      11.478 -35.228   6.793  1.00  0.00     0.167 HD
HETATM   51  N10 UNL     1      12.402 -32.755   8.731  1.00  0.00    -0.336 N 
ATOM     52  H10 UNL     1      12.863 -31.846   8.674  1.00  0.00     0.168 HD
ENDBRANCH  21  40
TORSDOF 4
ENDMDL
