MODEL 1
REMARK VINA RESULT: -9.337058162      0.000      0.000
REMARK  4 active torsions:
REMARK  status: ('A' for Active; 'I' for Inactive)
REMARK    1  A    between atoms: N5_13  and  C6_14 
REMARK    2  A    between atoms: C13_32  and  O10_33 
REMARK    3  A    between atoms: C14_36  and  N6_37 
REMARK    4  A    between atoms: C20_50  and  O12_51 
ROOT
HETATM    1  C6  UNL     1      14.002 -26.220  18.817  1.00  0.00     0.262 C 
HETATM    2  O1  UNL     1      13.499 -27.451  19.223  1.00  0.00    -0.353 OA
HETATM    3  C7  UNL     1      13.525 -28.135  17.975  1.00  0.00     0.180 C 
HETATM    4  C8  UNL     1      13.347 -29.615  18.256  1.00  0.00     0.216 C 
HETATM    5  O2  UNL     1      14.050 -30.422  17.419  1.00  0.00    -0.287 OA
HETATM    6  P1  UNL     1      13.092 -31.682  16.851  1.00  0.00     0.408 P 
HETATM    7  O3  UNL     1      11.884 -32.209  17.877  1.00  0.00    -0.624 OA
HETATM    8  O4  UNL     1      14.096 -32.652  17.506  1.00  0.00    -0.624 OA
HETATM    9  O5  UNL     1      13.247 -32.300  15.381  1.00  0.00    -0.279 OA
HETATM   10  C9  UNL     1      13.621 -31.577  14.311  1.00  0.00     0.198 C 
HETATM   11  C10 UNL     1      12.658 -30.592  13.748  1.00  0.00     0.180 C 
HETATM   12  C11 UNL     1      13.314 -29.408  13.045  1.00  0.00     0.216 C 
HETATM   13  O6  UNL     1      14.466 -29.094  13.685  1.00  0.00    -0.287 OA
HETATM   14  P2  UNL     1      14.620 -28.095  14.829  1.00  0.00     0.408 P 
HETATM   15  O7  UNL     1      15.871 -29.000  15.416  1.00  0.00    -0.624 OA
HETATM   16  O8  UNL     1      13.081 -28.440  15.316  1.00  0.00    -0.624 OA
HETATM   17  O9  UNL     1      14.698 -27.166  16.064  1.00  0.00    -0.279 OA
HETATM   18  C12 UNL     1      14.816 -27.773  17.339  1.00  0.00     0.198 C 
HETATM   19  C13 UNL     1      15.325 -26.648  18.212  1.00  0.00     0.199 C 
HETATM   20  O11 UNL     1      11.920 -31.235  12.743  1.00  0.00    -0.353 OA
HETATM   21  C14 UNL     1      12.186 -32.574  12.800  1.00  0.00     0.262 C 
HETATM   22  C20 UNL     1      13.682 -32.581  13.133  1.00  0.00     0.199 C 
ENDROOT
BRANCH   1  23
HETATM   23  N5  UNL     1      14.117 -25.255  19.840  1.00  0.00    -0.297 N 
HETATM   24  C3  UNL     1      13.134 -24.953  20.727  1.00  0.00     0.142 A 
HETATM   25  N3  UNL     1      11.875 -25.442  20.877  1.00  0.00    -0.336 N 
HETATM   26  C4  UNL     1      13.554 -23.988  21.580  1.00  0.00     0.119 A 
HETATM   27  C2  UNL     1      11.050 -24.999  21.835  1.00  0.00     0.183 A 
ATOM     28  H3  UNL     1      11.548 -26.169  20.241  1.00  0.00     0.168 HD
HETATM   29  N2  UNL     1      11.472 -24.048  22.672  1.00  0.00    -0.339 N 
HETATM   30  C1  UNL     1      12.706 -23.517  22.584  1.00  0.00     0.148 A 
ATOM     31  H2  UNL     1      10.840 -23.714  23.400  1.00  0.00     0.167 HD
HETATM   32  N1  UNL     1      13.181 -22.517  23.444  1.00  0.00    -0.080 NA
HETATM   33  N4  UNL     1      14.820 -23.680  21.222  1.00  0.00    -0.346 N 
HETATM   34  C5  UNL     1      15.137 -24.458  20.170  1.00  0.00     0.188 A 
ATOM     35  H4  UNL     1      15.423 -22.987  21.666  1.00  0.00     0.167 HD
ENDBRANCH   1  23
BRANCH  19  36
HETATM   36  O10 UNL     1      15.926 -25.626  17.501  1.00  0.00    -0.388 OA
ATOM     37  H10 UNL     1      16.514 -25.955  16.831  1.00  0.00     0.210 HD
ENDBRANCH  19  36
BRANCH  22  38
HETATM   38  O12 UNL     1      14.061 -33.830  13.554  1.00  0.00    -0.388 OA
ATOM     39  H12 UNL     1      14.333 -34.376  12.826  1.00  0.00     0.210 HD
ENDBRANCH  22  38
BRANCH  21  40
HETATM   40  N6  UNL     1      11.903 -33.236  11.569  1.00  0.00    -0.297 N 
HETATM   41  C15 UNL     1      11.185 -34.395  11.504  1.00  0.00     0.188 A 
HETATM   42  N7  UNL     1      11.072 -34.792  10.239  1.00  0.00    -0.346 N 
HETATM   43  C16 UNL     1      11.720 -33.885   9.490  1.00  0.00     0.119 A 
ATOM     44  H7  UNL     1      10.586 -35.623   9.902  1.00  0.00     0.167 HD
HETATM   45  C17 UNL     1      11.904 -33.826   8.127  1.00  0.00     0.148 A 
HETATM   46  C19 UNL     1      12.235 -32.921  10.321  1.00  0.00     0.142 A 
HETATM   47  N8  UNL     1      11.365 -34.830   7.296  1.00  0.00    -0.080 NA
HETATM   48  N9  UNL     1      12.611 -32.783   7.630  1.00  0.00    -0.339 N 
HETATM   49  C18 UNL     1      13.109 -31.845   8.458  1.00  0.00     0.183 A 
ATOM     50  H9  UNL     1      12.767 -32.709   6.625  1.00  0.00     0.167 HD
HETATM   51  N10 UNL     1      12.924 -31.911   9.798  1.00  0.00    -0.336 N 
ATOM     52  H10 UNL     1      13.312 -31.189  10.405  1.00  0.00     0.168 HD
ENDBRANCH  21  40
TORSDOF 4
ENDMDL
