MODEL 2
REMARK VINA RESULT: -9.061771041      3.347      5.094
REMARK  4 active torsions:
REMARK  status: ('A' for Active; 'I' for Inactive)
REMARK    1  A    between atoms: N5_13  and  C6_14 
REMARK    2  A    between atoms: C13_32  and  O10_33 
REMARK    3  A    between atoms: C14_36  and  N6_37 
REMARK    4  A    between atoms: C20_50  and  O12_51 
ROOT
HETATM    1  C6  UNL     1      17.010 -25.470  16.581  1.00  0.00     0.262 C 
HETATM    2  O1  UNL     1      16.382 -25.089  15.401  1.00  0.00    -0.353 OA
HETATM    3  C7  UNL     1      15.700 -26.302  15.099  1.00  0.00     0.180 C 
HETATM    4  C8  UNL     1      14.666 -25.997  14.032  1.00  0.00     0.216 C 
HETATM    5  O2  UNL     1      13.520 -26.715  14.156  1.00  0.00    -0.287 OA
HETATM    6  P1  UNL     1      13.045 -27.355  12.675  1.00  0.00     0.408 P 
HETATM    7  O3  UNL     1      13.462 -26.468  11.323  1.00  0.00    -0.624 OA
HETATM    8  O4  UNL     1      11.738 -26.551  12.822  1.00  0.00    -0.624 OA
HETATM    9  O5  UNL     1      12.315 -28.774  12.533  1.00  0.00    -0.279 OA
HETATM   10  C9  UNL     1      12.553 -29.813  13.352  1.00  0.00     0.198 C 
HETATM   11  C10 UNL     1      13.857 -30.522  13.240  1.00  0.00     0.180 C 
HETATM   12  C11 UNL     1      14.326 -31.177  14.535  1.00  0.00     0.216 C 
HETATM   13  O6  UNL     1      13.942 -30.411  15.586  1.00  0.00    -0.287 OA
HETATM   14  P2  UNL     1      14.753 -29.290  16.229  1.00  0.00     0.408 P 
HETATM   15  O7  UNL     1      13.341 -28.524  16.615  1.00  0.00    -0.624 OA
HETATM   16  O8  UNL     1      15.460 -28.984  14.769  1.00  0.00    -0.624 OA
HETATM   17  O9  UNL     1      15.565 -28.085  16.763  1.00  0.00    -0.279 OA
HETATM   18  C12 UNL     1      15.142 -26.787  16.386  1.00  0.00     0.198 C 
HETATM   19  C13 UNL     1      15.812 -25.894  17.408  1.00  0.00     0.199 C 
HETATM   20  O11 UNL     1      13.694 -31.588  12.344  1.00  0.00    -0.353 OA
HETATM   21  C14 UNL     1      12.480 -31.455  11.730  1.00  0.00     0.262 C 
HETATM   22  C20 UNL     1      11.604 -30.942  12.877  1.00  0.00     0.199 C 
ENDROOT
BRANCH   1  23
HETATM   23  N5  UNL     1      17.806 -24.473  17.183  1.00  0.00    -0.297 N 
HETATM   24  C3  UNL     1      18.949 -23.973  16.646  1.00  0.00     0.142 A 
HETATM   25  N3  UNL     1      19.599 -24.257  15.487  1.00  0.00    -0.336 N 
HETATM   26  C4  UNL     1      19.477 -23.032  17.465  1.00  0.00     0.119 A 
HETATM   27  C2  UNL     1      20.734 -23.637  15.139  1.00  0.00     0.183 A 
ATOM     28  H3  UNL     1      19.210 -24.963  14.863  1.00  0.00     0.168 HD
HETATM   29  N2  UNL     1      21.249 -22.710  15.952  1.00  0.00    -0.339 N 
HETATM   30  C1  UNL     1      20.660 -22.377  17.116  1.00  0.00     0.148 A 
ATOM     31  H2  UNL     1      22.114 -22.241  15.682  1.00  0.00     0.167 HD
HETATM   32  N1  UNL     1      21.172 -21.411  17.992  1.00  0.00    -0.080 NA
HETATM   33  N4  UNL     1      18.653 -22.941  18.532  1.00  0.00    -0.346 N 
HETATM   34  C5  UNL     1      17.652 -23.820  18.338  1.00  0.00     0.188 A 
ATOM     35  H4  UNL     1      18.768 -22.321  19.334  1.00  0.00     0.167 HD
ENDBRANCH   1  23
BRANCH  19  36
HETATM   36  O10 UNL     1      16.185 -26.559  18.561  1.00  0.00    -0.388 OA
ATOM     37  H10 UNL     1      15.554 -27.225  18.809  1.00  0.00     0.210 HD
ENDBRANCH  19  36
BRANCH  22  38
HETATM   38  O12 UNL     1      10.430 -30.437  12.379  1.00  0.00    -0.388 OA
ATOM     39  H12 UNL     1      10.475 -30.312  11.438  1.00  0.00     0.210 HD
ENDBRANCH  22  38
BRANCH  21  40
HETATM   40  N6  UNL     1      12.004 -32.689  11.198  1.00  0.00    -0.297 N 
HETATM   41  C15 UNL     1      11.431 -33.654  11.975  1.00  0.00     0.188 A 
HETATM   42  N7  UNL     1      11.080 -34.696  11.225  1.00  0.00    -0.346 N 
HETATM   43  C16 UNL     1      11.429 -34.399   9.963  1.00  0.00     0.119 A 
ATOM     44  H7  UNL     1      10.631 -35.554  11.546  1.00  0.00     0.167 HD
HETATM   45  C17 UNL     1      11.289 -35.132   8.806  1.00  0.00     0.148 A 
HETATM   46  C19 UNL     1      12.003 -33.152   9.951  1.00  0.00     0.142 A 
HETATM   47  N8  UNL     1      10.697 -36.412   8.846  1.00  0.00    -0.080 NA
HETATM   48  N9  UNL     1      11.737 -34.582   7.653  1.00  0.00    -0.339 N 
HETATM   49  C18 UNL     1      12.297 -33.357   7.656  1.00  0.00     0.183 A 
ATOM     50  H9  UNL     1      11.650 -35.098   6.777  1.00  0.00     0.167 HD
HETATM   51  N10 UNL     1      12.431 -32.643   8.800  1.00  0.00    -0.336 N 
ATOM     52  H10 UNL     1      12.860 -31.718   8.778  1.00  0.00     0.168 HD
ENDBRANCH  21  40
TORSDOF 4
ENDMDL
