MODEL 4
REMARK VINA RESULT: -5.887477939      3.795      5.867
REMARK  5 active torsions:
REMARK  status: ('A' for Active; 'I' for Inactive)
REMARK    1  A    between atoms: S1_2  and  C2_3 
REMARK    2  A    between atoms: C2_3  and  C3_4 
REMARK    3  A    between atoms: N1_6  and  C5_7 
REMARK    4  A    between atoms: C5_7  and  C6_8 
REMARK    5  A    between atoms: C13_22  and  O1_23 
ROOT
HETATM    1  C6  UNL     1       9.564  -8.303  16.394  1.00  0.00     0.014 A 
HETATM    2  C7  UNL     1      10.554  -9.009  17.034  1.00  0.00     0.099 A 
HETATM    3  N2  UNL     1      10.595  -8.685  18.351  1.00  0.00    -0.361 N 
ATOM      4  H2  UNL     1      11.239  -9.069  19.043  1.00  0.00     0.165 HD
HETATM    5  C8  UNL     1       9.633  -7.762  18.584  1.00  0.00     0.101 A 
HETATM    6  C9  UNL     1       9.227  -7.087  19.727  1.00  0.00     0.146 A 
HETATM    7  N3  UNL     1       9.911  -7.367  20.937  1.00  0.00    -0.080 NA
HETATM    8  N4  UNL     1       8.215  -6.204  19.651  1.00  0.00    -0.339 N 
ATOM      9  H4  UNL     1       7.922  -5.710  20.494  1.00  0.00     0.167 HD
HETATM   10  C10 UNL     1       7.581  -5.956  18.494  1.00  0.00     0.182 A 
HETATM   11  N5  UNL     1       7.979  -6.615  17.388  1.00  0.00    -0.350 N 
ATOM     12  H5  UNL     1       7.498  -6.427  16.509  1.00  0.00     0.166 HD
HETATM   13  C11 UNL     1       8.986  -7.512  17.395  1.00  0.00     0.072 A 
ENDROOT
BRANCH   1  14
HETATM   14  C5  UNL     1       9.128  -8.301  14.983  1.00  0.00     0.315 C 
BRANCH  14  15
HETATM   15  N1  UNL     1       8.777  -9.610  14.573  1.00  0.00     0.095 N 
HETATM   16  C4  UNL     1       8.547  -9.762  13.165  1.00  0.00     0.280 C 
HETATM   17  C3  UNL     1       7.703 -11.018  13.037  1.00  0.00     0.054 C 
HETATM   18  C13 UNL     1       7.385 -11.400  14.462  1.00  0.00     0.152 C 
HETATM   19  C12 UNL     1       7.480 -10.038  15.126  1.00  0.00     0.304 C 
BRANCH  17  20
HETATM   20  C2  UNL     1       6.434 -10.748  12.263  1.00  0.00     0.082 C 
BRANCH  20  21
HETATM   21  S1  UNL     1       5.102 -11.878  12.627  1.00  0.00    -0.173 SA
HETATM   22  C1  UNL     1       3.649 -11.125  13.346  1.00  0.00     0.089 C 
ENDBRANCH  20  21
ENDBRANCH  17  20
BRANCH  18  23
HETATM   23  O1  UNL     1       8.362 -12.267  14.897  1.00  0.00    -0.393 OA
ATOM     24  H1  UNL     1       8.183 -12.480  15.805  1.00  0.00     0.210 HD
ENDBRANCH  18  23
ENDBRANCH  14  15
ENDBRANCH   1  14
TORSDOF 5
ENDMDL
