MODEL 1
REMARK VINA RESULT: -8.065779409      0.000      0.000
REMARK  5 active torsions:
REMARK  status: ('A' for Active; 'I' for Inactive)
REMARK    1  A    between atoms: S1_2  and  C2_3 
REMARK    2  A    between atoms: C2_3  and  C3_4 
REMARK    3  A    between atoms: N1_6  and  C5_7 
REMARK    4  A    between atoms: C5_7  and  C6_8 
REMARK    5  A    between atoms: C13_22  and  O1_23 
ROOT
HETATM    1  C6  UNL     1      11.536  -7.699  20.946  1.00  0.00     0.014 A 
HETATM    2  C7  UNL     1      11.558  -8.978  21.446  1.00  0.00     0.099 A 
HETATM    3  N2  UNL     1      12.777  -9.542  21.259  1.00  0.00    -0.361 N 
ATOM      4  H2  UNL     1      13.053 -10.483  21.540  1.00  0.00     0.165 HD
HETATM    5  C8  UNL     1      13.565  -8.636  20.633  1.00  0.00     0.101 A 
HETATM    6  C9  UNL     1      14.884  -8.667  20.201  1.00  0.00     0.146 A 
HETATM    7  N3  UNL     1      15.623  -9.856  20.425  1.00  0.00    -0.080 NA
HETATM    8  N4  UNL     1      15.408  -7.588  19.595  1.00  0.00    -0.339 N 
ATOM      9  H4  UNL     1      16.378  -7.617  19.278  1.00  0.00     0.167 HD
HETATM   10  C10 UNL     1      14.688  -6.472  19.394  1.00  0.00     0.182 A 
HETATM   11  N5  UNL     1      13.409  -6.447  19.816  1.00  0.00    -0.350 N 
ATOM     12  H5  UNL     1      12.861  -5.601  19.665  1.00  0.00     0.166 HD
HETATM   13  C11 UNL     1      12.822  -7.495  20.431  1.00  0.00     0.072 A 
ENDROOT
BRANCH   1  14
HETATM   14  C5  UNL     1      10.459  -6.688  20.907  1.00  0.00     0.315 C 
BRANCH  14  15
HETATM   15  N1  UNL     1       9.639  -6.883  19.770  1.00  0.00     0.095 N 
HETATM   16  C4  UNL     1       9.805  -8.149  19.115  1.00  0.00     0.280 C 
HETATM   17  C3  UNL     1       9.277  -7.935  17.707  1.00  0.00     0.054 C 
HETATM   18  C13 UNL     1       8.987  -6.455  17.638  1.00  0.00     0.152 C 
HETATM   19  C12 UNL     1       9.968  -5.947  18.679  1.00  0.00     0.304 C 
BRANCH  17  20
HETATM   20  C2  UNL     1      10.307  -8.324  16.672  1.00  0.00     0.082 C 
BRANCH  20  21
HETATM   21  S1  UNL     1       9.624  -8.702  15.068  1.00  0.00    -0.173 SA
HETATM   22  C1  UNL     1       8.351  -9.958  15.067  1.00  0.00     0.089 C 
ENDBRANCH  20  21
ENDBRANCH  17  20
BRANCH  18  23
HETATM   23  O1  UNL     1       7.676  -6.262  18.010  1.00  0.00    -0.393 OA
ATOM     24  H1  UNL     1       7.271  -5.689  17.370  1.00  0.00     0.210 HD
ENDBRANCH  18  23
ENDBRANCH  14  15
ENDBRANCH   1  14
TORSDOF 5
ENDMDL
