MODEL 5
REMARK VINA RESULT: -5.776125045      0.953      1.942
REMARK  5 active torsions:
REMARK  status: ('A' for Active; 'I' for Inactive)
REMARK    1  A    between atoms: S1_2  and  C2_3 
REMARK    2  A    between atoms: C2_3  and  C3_4 
REMARK    3  A    between atoms: N1_6  and  C5_7 
REMARK    4  A    between atoms: C5_7  and  C6_8 
REMARK    5  A    between atoms: C13_22  and  O1_23 
ROOT
HETATM    1  C6  UNL     1      11.459  -6.967  20.282  1.00  0.00     0.014 A 
HETATM    2  C7  UNL     1      12.203  -6.094  19.527  1.00  0.00     0.099 A 
HETATM    3  N2  UNL     1      13.471  -6.553  19.376  1.00  0.00    -0.361 N 
ATOM      4  H2  UNL     1      14.219  -6.091  18.858  1.00  0.00     0.165 HD
HETATM    5  C8  UNL     1      13.568  -7.733  20.033  1.00  0.00     0.101 A 
HETATM    6  C9  UNL     1      14.610  -8.633  20.212  1.00  0.00     0.146 A 
HETATM    7  N3  UNL     1      15.859  -8.323  19.617  1.00  0.00    -0.080 NA
HETATM    8  N4  UNL     1      14.404  -9.749  20.933  1.00  0.00    -0.339 N 
ATOM      9  H4  UNL     1      15.174 -10.406  21.063  1.00  0.00     0.167 HD
HETATM   10  C10 UNL     1      13.212 -10.022  21.486  1.00  0.00     0.182 A 
HETATM   11  N5  UNL     1      12.204  -9.145  21.308  1.00  0.00    -0.350 N 
ATOM     12  H5  UNL     1      11.298  -9.351  21.728  1.00  0.00     0.166 HD
HETATM   13  C11 UNL     1      12.343  -8.008  20.597  1.00  0.00     0.072 A 
ENDROOT
BRANCH   1  14
HETATM   14  C5  UNL     1      10.049  -6.918  20.720  1.00  0.00     0.315 C 
BRANCH  14  15
HETATM   15  N1  UNL     1       9.187  -6.851  19.599  1.00  0.00     0.095 N 
HETATM   16  C4  UNL     1       9.160  -8.032  18.784  1.00  0.00     0.280 C 
HETATM   17  C3  UNL     1       8.638  -7.567  17.436  1.00  0.00     0.054 C 
HETATM   18  C13 UNL     1       8.557  -6.065  17.564  1.00  0.00     0.152 C 
HETATM   19  C12 UNL     1       9.621  -5.835  18.623  1.00  0.00     0.304 C 
BRANCH  17  20
HETATM   20  C2  UNL     1       9.582  -7.955  16.322  1.00  0.00     0.082 C 
BRANCH  20  21
HETATM   21  S1  UNL     1       9.165  -9.490  15.512  1.00  0.00    -0.173 SA
HETATM   22  C1  UNL     1       8.851  -9.356  13.758  1.00  0.00     0.089 C 
ENDBRANCH  20  21
ENDBRANCH  17  20
BRANCH  18  23
HETATM   23  O1  UNL     1       7.294  -5.745  18.008  1.00  0.00    -0.393 OA
ATOM     24  H1  UNL     1       7.365  -5.458  18.911  1.00  0.00     0.210 HD
ENDBRANCH  18  23
ENDBRANCH  14  15
ENDBRANCH   1  14
TORSDOF 5
ENDMDL
