MODEL 3
REMARK VINA RESULT: -6.162559040      3.139      5.482
REMARK  5 active torsions:
REMARK  status: ('A' for Active; 'I' for Inactive)
REMARK    1  A    between atoms: S1_2  and  C2_3 
REMARK    2  A    between atoms: C2_3  and  C3_4 
REMARK    3  A    between atoms: N1_6  and  C5_7 
REMARK    4  A    between atoms: C5_7  and  C6_8 
REMARK    5  A    between atoms: C13_22  and  O1_23 
ROOT
HETATM    1  C6  UNL     1       9.326  -7.880  16.775  1.00  0.00     0.014 A 
HETATM    2  C7  UNL     1       8.334  -6.933  16.848  1.00  0.00     0.099 A 
HETATM    3  N2  UNL     1       8.230  -6.447  18.111  1.00  0.00    -0.361 N 
ATOM      4  H2  UNL     1       7.571  -5.735  18.427  1.00  0.00     0.165 HD
HETATM    5  C8  UNL     1       9.154  -7.074  18.877  1.00  0.00     0.101 A 
HETATM    6  C9  UNL     1       9.493  -6.977  20.219  1.00  0.00     0.146 A 
HETATM    7  N3  UNL     1       8.770  -6.055  21.017  1.00  0.00    -0.080 NA
HETATM    8  N4  UNL     1      10.480  -7.747  20.710  1.00  0.00    -0.339 N 
ATOM      9  H4  UNL     1      10.724  -7.673  21.698  1.00  0.00     0.167 HD
HETATM   10  C10 UNL     1      11.152  -8.613  19.934  1.00  0.00     0.182 A 
HETATM   11  N5  UNL     1      10.818  -8.702  18.632  1.00  0.00    -0.350 N 
ATOM     12  H5  UNL     1      11.328  -9.359  18.041  1.00  0.00     0.166 HD
HETATM   13  C11 UNL     1       9.840  -7.959  18.076  1.00  0.00     0.072 A 
ENDROOT
BRANCH   1  14
HETATM   14  C5  UNL     1       9.818  -8.688  15.641  1.00  0.00     0.315 C 
BRANCH  14  15
HETATM   15  N1  UNL     1       8.732  -9.248  14.926  1.00  0.00     0.095 N 
HETATM   16  C4  UNL     1       8.161 -10.424  15.517  1.00  0.00     0.280 C 
HETATM   17  C3  UNL     1       7.434 -11.122  14.380  1.00  0.00     0.054 C 
HETATM   18  C13 UNL     1       7.804 -10.323  13.154  1.00  0.00     0.152 C 
HETATM   19  C12 UNL     1       9.139  -9.757  13.604  1.00  0.00     0.304 C 
BRANCH  17  20
HETATM   20  C2  UNL     1       7.891 -12.555  14.238  1.00  0.00     0.082 C 
BRANCH  20  21
HETATM   21  S1  UNL     1       6.728 -13.758  14.858  1.00  0.00    -0.173 SA
HETATM   22  C1  UNL     1       7.458 -15.282  15.441  1.00  0.00     0.089 C 
ENDBRANCH  20  21
ENDBRANCH  17  20
BRANCH  18  23
HETATM   23  O1  UNL     1       6.849  -9.346  12.981  1.00  0.00    -0.393 OA
ATOM     24  H1  UNL     1       6.663  -9.280  12.052  1.00  0.00     0.210 HD
ENDBRANCH  18  23
ENDBRANCH  14  15
ENDBRANCH   1  14
TORSDOF 5
ENDMDL
