MODEL 6
REMARK VINA RESULT: -5.755982875      5.861      8.950
REMARK  5 active torsions:
REMARK  status: ('A' for Active; 'I' for Inactive)
REMARK    1  A    between atoms: S1_2  and  C2_3 
REMARK    2  A    between atoms: C2_3  and  C3_4 
REMARK    3  A    between atoms: N1_6  and  C5_7 
REMARK    4  A    between atoms: C5_7  and  C6_8 
REMARK    5  A    between atoms: C13_22  and  O1_23 
ROOT
HETATM    1  C6  UNL     1       7.671 -11.664  13.666  1.00  0.00     0.014 A 
HETATM    2  C7  UNL     1       7.822 -12.501  14.745  1.00  0.00     0.099 A 
HETATM    3  N2  UNL     1       7.666 -13.795  14.369  1.00  0.00    -0.361 N 
ATOM      4  H2  UNL     1       7.730 -14.609  14.981  1.00  0.00     0.165 HD
HETATM    5  C8  UNL     1       7.411 -13.817  13.040  1.00  0.00     0.101 A 
HETATM    6  C9  UNL     1       7.172 -14.845  12.139  1.00  0.00     0.146 A 
HETATM    7  N3  UNL     1       7.182 -16.173  12.636  1.00  0.00    -0.080 NA
HETATM    8  N4  UNL     1       6.944 -14.554  10.847  1.00  0.00    -0.339 N 
ATOM      9  H4  UNL     1       6.768 -15.314  10.189  1.00  0.00     0.167 HD
HETATM   10  C10 UNL     1       6.941 -13.288  10.398  1.00  0.00     0.182 A 
HETATM   11  N5  UNL     1       7.174 -12.294  11.277  1.00  0.00    -0.350 N 
ATOM     12  H5  UNL     1       7.172 -11.332  10.938  1.00  0.00     0.166 HD
HETATM   13  C11 UNL     1       7.409 -12.517  12.587  1.00  0.00     0.072 A 
ENDROOT
BRANCH   1  14
HETATM   14  C5  UNL     1       7.747 -10.192  13.558  1.00  0.00     0.315 C 
BRANCH  14  15
HETATM   15  N1  UNL     1       8.772  -9.688  14.394  1.00  0.00     0.095 N 
HETATM   16  C4  UNL     1       8.399  -9.506  15.767  1.00  0.00     0.280 C 
HETATM   17  C3  UNL     1       9.402  -8.508  16.319  1.00  0.00     0.054 C 
HETATM   18  C13 UNL     1      10.199  -8.074  15.112  1.00  0.00     0.152 C 
HETATM   19  C12 UNL     1       9.174  -8.320  14.020  1.00  0.00     0.304 C 
BRANCH  17  20
HETATM   20  C2  UNL     1       8.705  -7.325  16.949  1.00  0.00     0.082 C 
BRANCH  20  21
HETATM   21  S1  UNL     1       9.025  -7.133  18.694  1.00  0.00    -0.173 SA
HETATM   22  C1  UNL     1      10.114  -5.781  19.117  1.00  0.00     0.089 C 
ENDBRANCH  20  21
ENDBRANCH  17  20
BRANCH  18  23
HETATM   23  O1  UNL     1      11.292  -8.904  15.005  1.00  0.00    -0.393 OA
ATOM     24  H1  UNL     1      11.872  -8.542  14.347  1.00  0.00     0.210 HD
ENDBRANCH  18  23
ENDBRANCH  14  15
ENDBRANCH   1  14
TORSDOF 5
ENDMDL
