MODEL 5
REMARK VINA RESULT: -5.422450901      3.748      6.736
REMARK  5 active torsions:
REMARK  status: ('A' for Active; 'I' for Inactive)
REMARK    1  A    between atoms: S1_2  and  C2_3 
REMARK    2  A    between atoms: C2_3  and  C3_4 
REMARK    3  A    between atoms: N1_6  and  C5_7 
REMARK    4  A    between atoms: C5_7  and  C6_8 
REMARK    5  A    between atoms: C13_22  and  O1_23 
ROOT
HETATM    1  C6  UNL     1      12.987  44.882 -36.706  1.00  0.00     0.014 A 
HETATM    2  C7  UNL     1      12.029  44.352 -37.537  1.00  0.00     0.099 A 
HETATM    3  N2  UNL     1      12.605  43.768 -38.617  1.00  0.00    -0.361 N 
ATOM      4  H2  UNL     1      12.113  43.302 -39.380  1.00  0.00     0.165 HD
HETATM    5  C8  UNL     1      13.947  43.910 -38.504  1.00  0.00     0.101 A 
HETATM    6  C9  UNL     1      15.011  43.515 -39.303  1.00  0.00     0.146 A 
HETATM    7  N3  UNL     1      14.713  42.813 -40.498  1.00  0.00    -0.080 NA
HETATM    8  N4  UNL     1      16.267  43.805 -38.923  1.00  0.00    -0.339 N 
ATOM      9  H4  UNL     1      17.045  43.513 -39.515  1.00  0.00     0.167 HD
HETATM   10  C10 UNL     1      16.525  44.470 -37.785  1.00  0.00     0.182 A 
HETATM   11  N5  UNL     1      15.488  44.851 -37.014  1.00  0.00    -0.350 N 
ATOM     12  H5  UNL     1      15.682  45.357 -36.150  1.00  0.00     0.166 HD
HETATM   13  C11 UNL     1      14.204  44.592 -37.336  1.00  0.00     0.072 A 
ENDROOT
BRANCH   1  14
HETATM   14  C5  UNL     1      12.870  45.607 -35.425  1.00  0.00     0.315 C 
BRANCH  14  15
HETATM   15  N1  UNL     1      11.510  45.847 -35.116  1.00  0.00     0.095 N 
HETATM   16  C4  UNL     1      10.910  46.936 -35.833  1.00  0.00     0.280 C 
HETATM   17  C3  UNL     1       9.706  47.339 -34.999  1.00  0.00     0.054 C 
HETATM   18  C13 UNL     1       9.823  46.506 -33.746  1.00  0.00     0.152 C 
HETATM   19  C12 UNL     1      11.324  46.283 -33.720  1.00  0.00     0.304 C 
BRANCH  17  20
HETATM   20  C2  UNL     1       9.742  48.812 -34.664  1.00  0.00     0.082 C 
BRANCH  20  21
HETATM   21  S1  UNL     1       9.060  49.867 -35.931  1.00  0.00    -0.173 SA
HETATM   22  C1  UNL     1       7.798  49.109 -36.945  1.00  0.00     0.089 C 
ENDBRANCH  20  21
ENDBRANCH  17  20
BRANCH  18  23
HETATM   23  O1  UNL     1       9.120  45.339 -33.946  1.00  0.00    -0.393 OA
ATOM     24  H1  UNL     1       8.501  45.244 -33.232  1.00  0.00     0.210 HD
ENDBRANCH  18  23
ENDBRANCH  14  15
ENDBRANCH   1  14
TORSDOF 5
ENDMDL
