MODEL 4
REMARK VINA RESULT: -5.594587960      3.162      5.398
REMARK  5 active torsions:
REMARK  status: ('A' for Active; 'I' for Inactive)
REMARK    1  A    between atoms: S1_2  and  C2_3 
REMARK    2  A    between atoms: C2_3  and  C3_4 
REMARK    3  A    between atoms: N1_6  and  C5_7 
REMARK    4  A    between atoms: C5_7  and  C6_8 
REMARK    5  A    between atoms: C13_22  and  O1_23 
ROOT
HETATM    1  C6  UNL     1      12.055  45.010 -36.318  1.00  0.00     0.014 A 
HETATM    2  C7  UNL     1      11.703  43.848 -35.677  1.00  0.00     0.099 A 
HETATM    3  N2  UNL     1      11.172  44.117 -34.458  1.00  0.00    -0.361 N 
ATOM      4  H2  UNL     1      10.832  43.429 -33.786  1.00  0.00     0.165 HD
HETATM    5  C8  UNL     1      11.172  45.461 -34.290  1.00  0.00     0.101 A 
HETATM    6  C9  UNL     1      10.754  46.285 -33.254  1.00  0.00     0.146 A 
HETATM    7  N3  UNL     1      10.202  45.669 -32.103  1.00  0.00    -0.080 NA
HETATM    8  N4  UNL     1      10.884  47.618 -33.375  1.00  0.00    -0.339 N 
ATOM      9  H4  UNL     1      10.576  48.218 -32.610  1.00  0.00     0.167 HD
HETATM   10  C10 UNL     1      11.408  48.179 -34.477  1.00  0.00     0.182 A 
HETATM   11  N5  UNL     1      11.812  47.374 -35.479  1.00  0.00    -0.350 N 
ATOM     12  H5  UNL     1      12.211  47.799 -36.316  1.00  0.00     0.166 HD
HETATM   13  C11 UNL     1      11.711  46.030 -35.422  1.00  0.00     0.072 A 
ENDROOT
BRANCH   1  14
HETATM   14  C5  UNL     1      12.662  45.244 -37.645  1.00  0.00     0.315 C 
BRANCH  14  15
HETATM   15  N1  UNL     1      13.706  44.319 -37.880  1.00  0.00     0.095 N 
HETATM   16  C4  UNL     1      14.967  44.666 -37.288  1.00  0.00     0.280 C 
HETATM   17  C3  UNL     1      16.001  43.881 -38.076  1.00  0.00     0.054 C 
HETATM   18  C13 UNL     1      15.213  43.246 -39.197  1.00  0.00     0.152 C 
HETATM   19  C12 UNL     1      14.069  44.237 -39.306  1.00  0.00     0.304 C 
BRANCH  17  20
HETATM   20  C2  UNL     1      17.073  44.790 -38.629  1.00  0.00     0.082 C 
BRANCH  20  21
HETATM   21  S1  UNL     1      18.222  43.981 -39.728  1.00  0.00    -0.173 SA
HETATM   22  C1  UNL     1      18.815  42.392 -39.164  1.00  0.00     0.089 C 
ENDBRANCH  20  21
ENDBRANCH  17  20
BRANCH  18  23
HETATM   23  O1  UNL     1      14.797  42.005 -38.772  1.00  0.00    -0.393 OA
ATOM     24  H1  UNL     1      15.442  41.367 -39.052  1.00  0.00     0.210 HD
ENDBRANCH  18  23
ENDBRANCH  14  15
ENDBRANCH   1  14
TORSDOF 5
ENDMDL
