MODEL 1
REMARK VINA RESULT: -7.990813310      0.000      0.000
REMARK  5 active torsions:
REMARK  status: ('A' for Active; 'I' for Inactive)
REMARK    1  A    between atoms: S1_2  and  C2_3 
REMARK    2  A    between atoms: C2_3  and  C3_4 
REMARK    3  A    between atoms: N1_6  and  C5_7 
REMARK    4  A    between atoms: C5_7  and  C6_8 
REMARK    5  A    between atoms: C13_22  and  O1_23 
ROOT
HETATM    1  C6  UNL     1      10.238  48.495 -34.112  1.00  0.00     0.014 A 
HETATM    2  C7  UNL     1      11.203  49.468 -34.023  1.00  0.00     0.099 A 
HETATM    3  N2  UNL     1      11.016  50.414 -34.977  1.00  0.00    -0.361 N 
ATOM      4  H2  UNL     1      11.595  51.241 -35.124  1.00  0.00     0.165 HD
HETATM    5  C8  UNL     1       9.925  50.068 -35.700  1.00  0.00     0.101 A 
HETATM    6  C9  UNL     1       9.280  50.656 -36.780  1.00  0.00     0.146 A 
HETATM    7  N3  UNL     1       9.813  51.868 -37.286  1.00  0.00    -0.080 NA
HETATM    8  N4  UNL     1       8.190  50.066 -37.302  1.00  0.00    -0.339 N 
ATOM      9  H4  UNL     1       7.722  50.502 -38.096  1.00  0.00     0.167 HD
HETATM   10  C10 UNL     1       7.703  48.918 -36.804  1.00  0.00     0.182 A 
HETATM   11  N5  UNL     1       8.333  48.352 -35.756  1.00  0.00    -0.350 N 
ATOM     12  H5  UNL     1       7.964  47.481 -35.377  1.00  0.00     0.166 HD
HETATM   13  C11 UNL     1       9.430  48.891 -35.186  1.00  0.00     0.072 A 
ENDROOT
BRANCH   1  14
HETATM   14  C5  UNL     1      10.011  47.274 -33.313  1.00  0.00     0.315 C 
BRANCH  14  15
HETATM   15  N1  UNL     1      10.820  46.215 -33.790  1.00  0.00     0.095 N 
HETATM   16  C4  UNL     1      11.907  46.618 -34.636  1.00  0.00     0.280 C 
HETATM   17  C3  UNL     1      12.275  45.372 -35.423  1.00  0.00     0.054 C 
HETATM   18  C13 UNL     1      11.214  44.366 -35.048  1.00  0.00     0.152 C 
HETATM   19  C12 UNL     1      10.079  45.306 -34.683  1.00  0.00     0.304 C 
BRANCH  17  20
HETATM   20  C2  UNL     1      12.252  45.638 -36.910  1.00  0.00     0.082 C 
BRANCH  20  21
HETATM   21  S1  UNL     1      13.061  44.386 -37.890  1.00  0.00    -0.173 SA
HETATM   22  C1  UNL     1      14.846  44.398 -37.805  1.00  0.00     0.089 C 
ENDBRANCH  20  21
ENDBRANCH  17  20
BRANCH  18  23
HETATM   23  O1  UNL     1      11.673  43.650 -33.965  1.00  0.00    -0.393 OA
ATOM     24  H1  UNL     1      11.410  42.744 -34.080  1.00  0.00     0.210 HD
ENDBRANCH  18  23
ENDBRANCH  14  15
ENDBRANCH   1  14
TORSDOF 5
ENDMDL
