MODEL 7
REMARK VINA RESULT: -5.299747274      0.926      1.928
REMARK  5 active torsions:
REMARK  status: ('A' for Active; 'I' for Inactive)
REMARK    1  A    between atoms: S1_2  and  C2_3 
REMARK    2  A    between atoms: C2_3  and  C3_4 
REMARK    3  A    between atoms: N1_6  and  C5_7 
REMARK    4  A    between atoms: C5_7  and  C6_8 
REMARK    5  A    between atoms: C13_22  and  O1_23 
ROOT
HETATM    1  C6  UNL     1       9.941  47.658 -34.423  1.00  0.00     0.014 A 
HETATM    2  C7  UNL     1       8.920  47.138 -35.181  1.00  0.00     0.099 A 
HETATM    3  N2  UNL     1       8.500  48.043 -36.101  1.00  0.00    -0.361 N 
ATOM      4  H2  UNL     1       7.756  47.902 -36.784  1.00  0.00     0.165 HD
HETATM    5  C8  UNL     1       9.244  49.165 -35.953  1.00  0.00     0.101 A 
HETATM    6  C9  UNL     1       9.253  50.387 -36.610  1.00  0.00     0.146 A 
HETATM    7  N3  UNL     1       8.323  50.577 -37.663  1.00  0.00    -0.080 NA
HETATM    8  N4  UNL     1      10.128  51.335 -36.233  1.00  0.00    -0.339 N 
ATOM      9  H4  UNL     1      10.129  52.233 -36.718  1.00  0.00     0.167 HD
HETATM   10  C10 UNL     1      11.001  51.133 -35.233  1.00  0.00     0.182 A 
HETATM   11  N5  UNL     1      10.988  49.944 -34.599  1.00  0.00    -0.350 N 
ATOM     12  H5  UNL     1      11.650  49.788 -33.839  1.00  0.00     0.166 HD
HETATM   13  C11 UNL     1      10.136  48.950 -34.927  1.00  0.00     0.072 A 
ENDROOT
BRANCH   1  14
HETATM   14  C5  UNL     1      10.721  47.076 -33.312  1.00  0.00     0.315 C 
BRANCH  14  15
HETATM   15  N1  UNL     1      11.216  45.800 -33.671  1.00  0.00     0.095 N 
HETATM   16  C4  UNL     1      12.272  45.812 -34.643  1.00  0.00     0.280 C 
HETATM   17  C3  UNL     1      12.266  44.419 -35.248  1.00  0.00     0.054 C 
HETATM   18  C13 UNL     1      11.050  43.756 -34.648  1.00  0.00     0.152 C 
HETATM   19  C12 UNL     1      10.201  44.981 -34.358  1.00  0.00     0.304 C 
BRANCH  17  20
HETATM   20  C2  UNL     1      12.150  44.478 -36.754  1.00  0.00     0.082 C 
BRANCH  20  21
HETATM   21  S1  UNL     1      13.515  45.297 -37.560  1.00  0.00    -0.173 SA
HETATM   22  C1  UNL     1      14.978  44.292 -37.771  1.00  0.00     0.089 C 
ENDBRANCH  20  21
ENDBRANCH  17  20
BRANCH  18  23
HETATM   23  O1  UNL     1      11.445  43.106 -33.500  1.00  0.00    -0.393 OA
ATOM     24  H1  UNL     1      11.264  43.677 -32.763  1.00  0.00     0.210 HD
ENDBRANCH  18  23
ENDBRANCH  14  15
ENDBRANCH   1  14
TORSDOF 5
ENDMDL
