MODEL 6
REMARK VINA RESULT: -5.371475525      7.161     10.924
REMARK  5 active torsions:
REMARK  status: ('A' for Active; 'I' for Inactive)
REMARK    1  A    between atoms: S1_2  and  C2_3 
REMARK    2  A    between atoms: C2_3  and  C3_4 
REMARK    3  A    between atoms: N1_6  and  C5_7 
REMARK    4  A    between atoms: C5_7  and  C6_8 
REMARK    5  A    between atoms: C13_22  and  O1_23 
ROOT
HETATM    1  C6  UNL     1      18.745  40.527 -36.927  1.00  0.00     0.014 A 
HETATM    2  C7  UNL     1      19.900  40.635 -36.191  1.00  0.00     0.099 A 
HETATM    3  N2  UNL     1      19.767  40.001 -34.999  1.00  0.00    -0.361 N 
ATOM      4  H2  UNL     1      20.480  39.935 -34.272  1.00  0.00     0.165 HD
HETATM    5  C8  UNL     1      18.522  39.472 -34.944  1.00  0.00     0.101 A 
HETATM    6  C9  UNL     1      17.851  38.732 -33.980  1.00  0.00     0.146 A 
HETATM    7  N3  UNL     1      18.543  38.427 -32.782  1.00  0.00    -0.080 NA
HETATM    8  N4  UNL     1      16.587  38.336 -34.212  1.00  0.00    -0.339 N 
ATOM      9  H4  UNL     1      16.098  37.793 -33.499  1.00  0.00     0.167 HD
HETATM   10  C10 UNL     1      15.951  38.636 -35.356  1.00  0.00     0.182 A 
HETATM   11  N5  UNL     1      16.608  39.354 -36.287  1.00  0.00    -0.350 N 
ATOM     12  H5  UNL     1      16.127  39.583 -37.156  1.00  0.00     0.166 HD
HETATM   13  C11 UNL     1      17.876  39.783 -36.119  1.00  0.00     0.072 A 
ENDROOT
BRANCH   1  14
HETATM   14  C5  UNL     1      18.395  41.038 -38.268  1.00  0.00     0.315 C 
BRANCH  14  15
HETATM   15  N1  UNL     1      17.895  42.360 -38.177  1.00  0.00     0.095 N 
HETATM   16  C4  UNL     1      16.508  42.459 -37.825  1.00  0.00     0.280 C 
HETATM   17  C3  UNL     1      16.080  43.838 -38.297  1.00  0.00     0.054 C 
HETATM   18  C13 UNL     1      17.279  44.363 -39.050  1.00  0.00     0.152 C 
HETATM   19  C12 UNL     1      17.914  43.052 -39.478  1.00  0.00     0.304 C 
BRANCH  17  20
HETATM   20  C2  UNL     1      14.876  43.754 -39.207  1.00  0.00     0.082 C 
BRANCH  20  21
HETATM   21  S1  UNL     1      13.347  44.269 -38.445  1.00  0.00    -0.173 SA
HETATM   22  C1  UNL     1      13.509  44.900 -36.781  1.00  0.00     0.089 C 
ENDBRANCH  20  21
ENDBRANCH  17  20
BRANCH  18  23
HETATM   23  O1  UNL     1      18.063  45.063 -38.161  1.00  0.00    -0.393 OA
ATOM     24  H1  UNL     1      17.544  45.778 -37.813  1.00  0.00     0.210 HD
ENDBRANCH  18  23
ENDBRANCH  14  15
ENDBRANCH   1  14
TORSDOF 5
ENDMDL
