MODEL 3
REMARK VINA RESULT: -6.517339368      4.088      8.204
REMARK  10 active torsions:
REMARK  status: ('A' for Active; 'I' for Inactive)
REMARK    1  A    between atoms: C4_9  and  C5_10 
REMARK    2  A    between atoms: C5_10  and  N4_11 
REMARK    3  A    between atoms: C7_13  and  C8_14 
REMARK    4  A    between atoms: C8_14  and  S1_15 
REMARK    5  A    between atoms: S1_15  and  C9_16 
REMARK    6  A    between atoms: C9_16  and  C10_17 
REMARK    7  A    between atoms: C10_17  and  C11_18 
REMARK    8  A    between atoms: C11_18  and  C12_19 
REMARK    9  A    between atoms: C12_19  and  O1_20 
REMARK   10  A    between atoms: C13_22  and  O2_23 
ROOT
HETATM    1  N4  UNL     1     -36.587 -45.723  12.511  1.00  0.00    -0.289 NA
HETATM    2  C6  UNL     1     -35.970 -46.845  11.885  1.00  0.00     0.102 C 
HETATM    3  C7  UNL     1     -35.048 -46.216  10.864  1.00  0.00     0.038 C 
HETATM    4  C13 UNL     1     -34.791 -44.811  11.496  1.00  0.00     0.137 C 
HETATM    5  C14 UNL     1     -35.340 -44.963  12.888  1.00  0.00     0.127 C 
ENDROOT
BRANCH   1   6
HETATM    6  C5  UNL     1     -37.341 -45.975  13.674  1.00  0.00     0.074 C 
BRANCH   6   7
HETATM    7  C4  UNL     1     -37.967 -44.809  14.287  1.00  0.00     0.019 A 
HETATM    8  C3  UNL     1     -38.000 -44.463  15.650  1.00  0.00     0.076 A 
HETATM    9  N3  UNL     1     -37.413 -45.011  16.729  1.00  0.00    -0.350 N 
HETATM   10  C16 UNL     1     -38.764 -43.356  15.846  1.00  0.00     0.101 A 
HETATM   11  C2  UNL     1     -37.586 -44.496  17.937  1.00  0.00     0.182 A 
ATOM     12  H3  UNL     1     -36.825 -45.837  16.615  1.00  0.00     0.166 HD
HETATM   13  N2  UNL     1     -38.344 -43.397  18.140  1.00  0.00    -0.339 N 
HETATM   14  C1  UNL     1     -38.953 -42.777  17.116  1.00  0.00     0.146 A 
ATOM     15  H2  UNL     1     -38.455 -43.031  19.086  1.00  0.00     0.167 HD
HETATM   16  N1  UNL     1     -39.731 -41.615  17.243  1.00  0.00    -0.080 NA
HETATM   17  N5  UNL     1     -39.223 -42.998  14.611  1.00  0.00    -0.360 N 
HETATM   18  C15 UNL     1     -38.769 -43.833  13.680  1.00  0.00     0.103 A 
ATOM     19  H5  UNL     1     -39.831 -42.200  14.428  1.00  0.00     0.165 HD
ENDBRANCH   6   7
ENDBRANCH   1   6
BRANCH   3  20
HETATM   20  C8  UNL     1     -33.730 -46.949  10.917  1.00  0.00     0.082 C 
BRANCH  20  21
HETATM   21  S1  UNL     1     -34.014 -48.731  11.182  1.00  0.00    -0.169 SA
BRANCH  21  22
HETATM   22  C9  UNL     1     -34.754 -49.333   9.617  1.00  0.00     0.074 C 
BRANCH  22  23
HETATM   23  C10 UNL     1     -35.755 -50.440   9.955  1.00  0.00     0.012 C 
BRANCH  23  24
HETATM   24  C11 UNL     1     -36.824 -50.496   8.906  1.00  0.00     0.027 C 
BRANCH  24  25
HETATM   25  C12 UNL     1     -36.785 -49.152   8.169  1.00  0.00     0.164 C 
BRANCH  25  26
HETATM   26  O1  UNL     1     -37.828 -49.119   7.194  1.00  0.00    -0.401 OA
ATOM     27  H1  UNL     1     -37.634 -49.745   6.506  1.00  0.00     0.209 HD
ENDBRANCH  25  26
ENDBRANCH  24  25
ENDBRANCH  23  24
ENDBRANCH  22  23
ENDBRANCH  21  22
ENDBRANCH  20  21
ENDBRANCH   3  20
BRANCH   4  28
HETATM   28  O2  UNL     1     -35.449 -43.814  10.839  1.00  0.00    -0.394 OA
ATOM     29  H2  UNL     1     -35.880 -44.121  10.049  1.00  0.00     0.210 HD
ENDBRANCH   4  28
TORSDOF 10
ENDMDL
