MODEL 5
REMARK VINA RESULT: -6.390553879      5.706     10.643
REMARK  10 active torsions:
REMARK  status: ('A' for Active; 'I' for Inactive)
REMARK    1  A    between atoms: C4_9  and  C5_10 
REMARK    2  A    between atoms: C5_10  and  N4_11 
REMARK    3  A    between atoms: C7_13  and  C8_14 
REMARK    4  A    between atoms: C8_14  and  S1_15 
REMARK    5  A    between atoms: S1_15  and  C9_16 
REMARK    6  A    between atoms: C9_16  and  C10_17 
REMARK    7  A    between atoms: C10_17  and  C11_18 
REMARK    8  A    between atoms: C11_18  and  C12_19 
REMARK    9  A    between atoms: C12_19  and  O1_20 
REMARK   10  A    between atoms: C13_22  and  O2_23 
ROOT
HETATM    1  N4  UNL     1     -38.177 -42.624  17.527  1.00  0.00    -0.289 NA
HETATM    2  C6  UNL     1     -37.758 -42.691  16.166  1.00  0.00     0.102 C 
HETATM    3  C7  UNL     1     -37.832 -44.168  15.847  1.00  0.00     0.038 C 
HETATM    4  C13 UNL     1     -38.902 -44.658  16.874  1.00  0.00     0.137 C 
HETATM    5  C14 UNL     1     -39.481 -43.372  17.396  1.00  0.00     0.127 C 
ENDROOT
BRANCH   1   6
HETATM    6  C5  UNL     1     -38.434 -41.342  18.052  1.00  0.00     0.074 C 
BRANCH   6   7
HETATM    7  C4  UNL     1     -37.321 -40.713  18.754  1.00  0.00     0.019 A 
HETATM    8  C3  UNL     1     -36.270 -39.956  18.205  1.00  0.00     0.076 A 
HETATM    9  N3  UNL     1     -36.039 -39.519  16.955  1.00  0.00    -0.350 N 
HETATM   10  C16 UNL     1     -35.369 -39.619  19.165  1.00  0.00     0.101 A 
HETATM   11  C2  UNL     1     -34.963 -38.800  16.670  1.00  0.00     0.182 A 
ATOM     12  H3  UNL     1     -36.701 -39.746  16.213  1.00  0.00     0.166 HD
HETATM   13  N2  UNL     1     -34.062 -38.461  17.617  1.00  0.00    -0.339 N 
HETATM   14  C1  UNL     1     -34.224 -38.842  18.895  1.00  0.00     0.146 A 
ATOM     15  H2  UNL     1     -33.245 -37.907  17.359  1.00  0.00     0.167 HD
HETATM   16  N1  UNL     1     -33.349 -38.505  19.940  1.00  0.00    -0.080 NA
HETATM   17  N5  UNL     1     -35.838 -40.164  20.324  1.00  0.00    -0.360 N 
HETATM   18  C15 UNL     1     -36.982 -40.809  20.112  1.00  0.00     0.103 A 
ATOM     19  H5  UNL     1     -35.376 -40.088  21.230  1.00  0.00     0.165 HD
ENDBRANCH   6   7
ENDBRANCH   1   6
BRANCH   3  20
HETATM   20  C8  UNL     1     -38.460 -44.316  14.483  1.00  0.00     0.082 C 
BRANCH  20  21
HETATM   21  S1  UNL     1     -37.530 -45.534  13.494  1.00  0.00    -0.169 SA
BRANCH  21  22
HETATM   22  C9  UNL     1     -36.398 -44.537  12.452  1.00  0.00     0.074 C 
BRANCH  22  23
HETATM   23  C10 UNL     1     -35.129 -45.354  12.205  1.00  0.00     0.012 C 
BRANCH  23  24
HETATM   24  C11 UNL     1     -34.090 -44.494  11.550  1.00  0.00     0.027 C 
BRANCH  24  25
HETATM   25  C12 UNL     1     -33.141 -45.443  10.809  1.00  0.00     0.164 C 
BRANCH  25  26
HETATM   26  O1  UNL     1     -31.902 -44.775  10.567  1.00  0.00    -0.401 OA
ATOM     27  H1  UNL     1     -31.367 -45.306   9.988  1.00  0.00     0.209 HD
ENDBRANCH  25  26
ENDBRANCH  24  25
ENDBRANCH  23  24
ENDBRANCH  22  23
ENDBRANCH  21  22
ENDBRANCH  20  21
ENDBRANCH   3  20
BRANCH   4  28
HETATM   28  O2  UNL     1     -38.354 -45.375  17.898  1.00  0.00    -0.394 OA
ATOM     29  H2  UNL     1     -37.607 -45.892  17.621  1.00  0.00     0.210 HD
ENDBRANCH   4  28
TORSDOF 10
ENDMDL
