MODEL 2
REMARK VINA RESULT: -6.734023458      3.705      7.580
REMARK  10 active torsions:
REMARK  status: ('A' for Active; 'I' for Inactive)
REMARK    1  A    between atoms: C4_9  and  C5_10 
REMARK    2  A    between atoms: C5_10  and  N4_11 
REMARK    3  A    between atoms: C7_13  and  C8_14 
REMARK    4  A    between atoms: C8_14  and  S1_15 
REMARK    5  A    between atoms: S1_15  and  C9_16 
REMARK    6  A    between atoms: C9_16  and  C10_17 
REMARK    7  A    between atoms: C10_17  and  C11_18 
REMARK    8  A    between atoms: C11_18  and  C12_19 
REMARK    9  A    between atoms: C12_19  and  O1_20 
REMARK   10  A    between atoms: C13_22  and  O2_23 
ROOT
HETATM    1  N4  UNL     1     -35.136 -45.896  11.877  1.00  0.00    -0.289 NA
HETATM    2  C6  UNL     1     -35.440 -47.144  11.260  1.00  0.00     0.102 C 
HETATM    3  C7  UNL     1     -34.578 -47.143  10.017  1.00  0.00     0.038 C 
HETATM    4  C13 UNL     1     -33.423 -46.179  10.437  1.00  0.00     0.137 C 
HETATM    5  C14 UNL     1     -33.634 -46.027  11.918  1.00  0.00     0.127 C 
ENDROOT
BRANCH   1   6
HETATM    6  C5  UNL     1     -35.616 -45.698  13.187  1.00  0.00     0.074 C 
BRANCH   6   7
HETATM    7  C4  UNL     1     -36.889 -44.992  13.293  1.00  0.00     0.019 A 
HETATM    8  C3  UNL     1     -37.586 -44.641  14.463  1.00  0.00     0.076 A 
HETATM    9  N3  UNL     1     -37.265 -44.749  15.765  1.00  0.00    -0.350 N 
HETATM   10  C16 UNL     1     -38.785 -44.079  14.157  1.00  0.00     0.101 A 
HETATM   11  C2  UNL     1     -38.096 -44.335  16.711  1.00  0.00     0.182 A 
ATOM     12  H3  UNL     1     -36.368 -45.158  16.028  1.00  0.00     0.166 HD
HETATM   13  N2  UNL     1     -39.289 -43.775  16.415  1.00  0.00    -0.339 N 
HETATM   14  C1  UNL     1     -39.681 -43.614  15.141  1.00  0.00     0.146 A 
ATOM     15  H2  UNL     1     -39.901 -43.470  17.171  1.00  0.00     0.167 HD
HETATM   16  N1  UNL     1     -40.891 -43.016  14.753  1.00  0.00    -0.080 NA
HETATM   17  N5  UNL     1     -38.857 -44.075  12.794  1.00  0.00    -0.360 N 
HETATM   18  C15 UNL     1     -37.758 -44.604  12.264  1.00  0.00     0.103 A 
ATOM     19  H5  UNL     1     -39.645 -43.716  12.256  1.00  0.00     0.165 HD
ENDBRANCH   6   7
ENDBRANCH   1   6
BRANCH   3  20
HETATM   20  C8  UNL     1     -33.957 -48.511   9.883  1.00  0.00     0.082 C 
BRANCH  20  21
HETATM   21  S1  UNL     1     -34.574 -49.611  11.199  1.00  0.00    -0.169 SA
BRANCH  21  22
HETATM   22  C9  UNL     1     -35.776 -50.720  10.370  1.00  0.00     0.074 C 
BRANCH  22  23
HETATM   23  C10 UNL     1     -35.820 -50.353   8.886  1.00  0.00     0.012 C 
BRANCH  23  24
HETATM   24  C11 UNL     1     -37.236 -50.085   8.471  1.00  0.00     0.027 C 
BRANCH  24  25
HETATM   25  C12 UNL     1     -37.279 -48.635   7.975  1.00  0.00     0.164 C 
BRANCH  25  26
HETATM   26  O1  UNL     1     -37.336 -48.627   6.548  1.00  0.00    -0.401 OA
ATOM     27  H1  UNL     1     -36.596 -48.138   6.208  1.00  0.00     0.209 HD
ENDBRANCH  25  26
ENDBRANCH  24  25
ENDBRANCH  23  24
ENDBRANCH  22  23
ENDBRANCH  21  22
ENDBRANCH  20  21
ENDBRANCH   3  20
BRANCH   4  28
HETATM   28  O2  UNL     1     -33.507 -44.963   9.824  1.00  0.00    -0.394 OA
ATOM     29  H2  UNL     1     -33.111 -44.269  10.337  1.00  0.00     0.210 HD
ENDBRANCH   4  28
TORSDOF 10
ENDMDL
