MODEL 1
REMARK VINA RESULT: -8.542518614      0.000      0.000
REMARK  10 active torsions:
REMARK  status: ('A' for Active; 'I' for Inactive)
REMARK    1  A    between atoms: C4_9  and  C5_10 
REMARK    2  A    between atoms: C5_10  and  N4_11 
REMARK    3  A    between atoms: C7_13  and  C8_14 
REMARK    4  A    between atoms: C8_14  and  S1_15 
REMARK    5  A    between atoms: S1_15  and  C9_16 
REMARK    6  A    between atoms: C9_16  and  C10_17 
REMARK    7  A    between atoms: C10_17  and  C11_18 
REMARK    8  A    between atoms: C11_18  and  C12_19 
REMARK    9  A    between atoms: C12_19  and  O1_20 
REMARK   10  A    between atoms: C13_22  and  O2_23 
ROOT
HETATM    1  N4  UNL     1     -33.890 -46.231  10.973  1.00  0.00    -0.289 NA
HETATM    2  C6  UNL     1     -34.978 -46.518  11.849  1.00  0.00     0.102 C 
HETATM    3  C7  UNL     1     -35.449 -45.148  12.284  1.00  0.00     0.038 C 
HETATM    4  C13 UNL     1     -34.977 -44.259  11.090  1.00  0.00     0.137 C 
HETATM    5  C14 UNL     1     -34.595 -45.272  10.046  1.00  0.00     0.127 C 
ENDROOT
BRANCH   1   6
HETATM    6  C5  UNL     1     -33.379 -47.306  10.218  1.00  0.00     0.074 C 
BRANCH   6   7
HETATM    7  C4  UNL     1     -34.144 -48.546  10.287  1.00  0.00     0.019 A 
HETATM    8  C3  UNL     1     -35.238 -48.931   9.491  1.00  0.00     0.076 A 
HETATM    9  N3  UNL     1     -35.815 -48.355   8.422  1.00  0.00    -0.350 N 
HETATM   10  C16 UNL     1     -35.749 -50.115   9.918  1.00  0.00     0.101 A 
HETATM   11  C2  UNL     1     -36.852 -48.917   7.819  1.00  0.00     0.182 A 
ATOM     12  H3  UNL     1     -35.449 -47.470   8.070  1.00  0.00     0.166 HD
HETATM   13  N2  UNL     1     -37.366 -50.094   8.238  1.00  0.00    -0.339 N 
HETATM   14  C1  UNL     1     -36.841 -50.745   9.288  1.00  0.00     0.146 A 
ATOM     15  H2  UNL     1     -38.167 -50.495   7.748  1.00  0.00     0.167 HD
HETATM   16  N1  UNL     1     -37.300 -51.984   9.764  1.00  0.00    -0.080 NA
HETATM   17  N5  UNL     1     -34.987 -50.485  10.989  1.00  0.00    -0.360 N 
HETATM   18  C15 UNL     1     -34.038 -49.583  11.224  1.00  0.00     0.103 A 
ATOM     19  H5  UNL     1     -35.126 -51.336  11.533  1.00  0.00     0.165 HD
ENDBRANCH   6   7
ENDBRANCH   1   6
BRANCH   3  20
HETATM   20  C8  UNL     1     -36.957 -45.142  12.243  1.00  0.00     0.082 C 
BRANCH  20  21
HETATM   21  S1  UNL     1     -37.630 -45.158  13.938  1.00  0.00    -0.169 SA
BRANCH  21  22
HETATM   22  C9  UNL     1     -39.041 -43.988  13.902  1.00  0.00     0.074 C 
BRANCH  22  23
HETATM   23  C10 UNL     1     -39.393 -43.618  15.344  1.00  0.00     0.012 C 
BRANCH  23  24
HETATM   24  C11 UNL     1     -38.554 -44.419  16.294  1.00  0.00     0.027 C 
BRANCH  24  25
HETATM   25  C12 UNL     1     -39.235 -44.327  17.664  1.00  0.00     0.164 C 
BRANCH  25  26
HETATM   26  O1  UNL     1     -40.349 -43.437  17.577  1.00  0.00    -0.401 OA
ATOM     27  H1  UNL     1     -40.684 -43.269  18.450  1.00  0.00     0.209 HD
ENDBRANCH  25  26
ENDBRANCH  24  25
ENDBRANCH  23  24
ENDBRANCH  22  23
ENDBRANCH  21  22
ENDBRANCH  20  21
ENDBRANCH   3  20
BRANCH   4  28
HETATM   28  O2  UNL     1     -33.900 -43.484  11.408  1.00  0.00    -0.394 OA
ATOM     29  H2  UNL     1     -33.103 -43.992  11.508  1.00  0.00     0.210 HD
ENDBRANCH   4  28
TORSDOF 10
ENDMDL
