MODEL 7
REMARK VINA RESULT: -6.942965999      2.293      2.668
REMARK  12 active torsions:
REMARK  status: ('A' for Active; 'I' for Inactive)
REMARK    1  A    between atoms: C4_9  and  C5_10 
REMARK    2  A    between atoms: C5_10  and  N4_11 
REMARK    3  A    between atoms: C7_13  and  C8_14 
REMARK    4  A    between atoms: C8_14  and  C9_15 
REMARK    5  A    between atoms: C9_15  and  S1_16 
REMARK    6  A    between atoms: S1_16  and  C10_17 
REMARK    7  A    between atoms: C10_17  and  C11_18 
REMARK    8  A    between atoms: C11_18  and  O1_19 
REMARK    9  A    between atoms: O1_19  and  C12_20 
REMARK   10  A    between atoms: C12_20  and  C13_21 
REMARK   11  A    between atoms: C13_21  and  O2_22 
REMARK   12  A    between atoms: C14_24  and  O3_25 
ROOT
HETATM    1  N4  UNL     1      36.932  73.486  25.358  1.00  0.00    -0.289 NA
HETATM    2  C6  UNL     1      38.194  73.159  24.757  1.00  0.00     0.102 C 
HETATM    3  C7  UNL     1      37.979  73.366  23.290  1.00  0.00     0.030 C 
HETATM    4  C14 UNL     1      36.852  74.335  23.208  1.00  0.00     0.136 C 
HETATM    5  C15 UNL     1      36.193  74.372  24.562  1.00  0.00     0.127 C 
ENDROOT
BRANCH   1   6
HETATM    6  C5  UNL     1      37.035  73.821  26.747  1.00  0.00     0.074 C 
BRANCH   6   7
HETATM    7  C4  UNL     1      38.167  74.621  27.168  1.00  0.00     0.019 A 
HETATM    8  C3  UNL     1      38.199  76.001  27.086  1.00  0.00     0.076 A 
HETATM    9  N3  UNL     1      37.316  76.930  26.650  1.00  0.00    -0.350 N 
HETATM   10  C17 UNL     1      39.401  76.431  27.564  1.00  0.00     0.101 A 
HETATM   11  C2  UNL     1      37.585  78.254  26.672  1.00  0.00     0.182 A 
ATOM     12  H3  UNL     1      36.413  76.618  26.291  1.00  0.00     0.166 HD
HETATM   13  N2  UNL     1      38.753  78.696  27.133  1.00  0.00    -0.339 N 
HETATM   14  C1  UNL     1      39.655  77.809  27.575  1.00  0.00     0.146 A 
ATOM     15  H2  UNL     1      38.958  79.696  27.149  1.00  0.00     0.167 HD
HETATM   16  N1  UNL     1      40.888  78.286  28.064  1.00  0.00    -0.080 NA
HETATM   17  N5  UNL     1      40.126  75.366  27.942  1.00  0.00    -0.360 N 
HETATM   18  C16 UNL     1      39.382  74.272  27.703  1.00  0.00     0.103 A 
ATOM     19  H5  UNL     1      41.066  75.383  28.337  1.00  0.00     0.165 HD
ENDBRANCH   6   7
ENDBRANCH   1   6
BRANCH   3  20
HETATM   20  C8  UNL     1      39.235  73.883  22.612  1.00  0.00     0.018 C 
BRANCH  20  21
HETATM   21  C9  UNL     1      39.160  73.797  21.134  1.00  0.00     0.074 C 
BRANCH  21  22
HETATM   22  S1  UNL     1      38.947  72.192  20.414  1.00  0.00    -0.167 SA
BRANCH  22  23
HETATM   23  C10 UNL     1      38.890  72.082  18.644  1.00  0.00     0.100 C 
BRANCH  23  24
HETATM   24  C11 UNL     1      38.978  70.659  18.165  1.00  0.00     0.178 C 
BRANCH  24  25
HETATM   25  O1  UNL     1      37.688  70.114  18.211  1.00  0.00    -0.388 OA
BRANCH  25  26
HETATM   26  C12 UNL     1      37.659  68.818  18.670  1.00  0.00     0.193 C 
BRANCH  26  27
HETATM   27  C13 UNL     1      36.288  68.188  18.580  1.00  0.00     0.190 C 
BRANCH  27  28
HETATM   28  O2  UNL     1      35.472  69.021  17.829  1.00  0.00    -0.399 OA
ATOM     29  H2  UNL     1      35.442  68.689  16.940  1.00  0.00     0.209 HD
ENDBRANCH  27  28
ENDBRANCH  26  27
ENDBRANCH  25  26
ENDBRANCH  24  25
ENDBRANCH  23  24
ENDBRANCH  22  23
ENDBRANCH  21  22
ENDBRANCH  20  21
ENDBRANCH   3  20
BRANCH   4  30
HETATM   30  O3  UNL     1      35.942  73.814  22.258  1.00  0.00    -0.394 OA
ATOM     31  H3  UNL     1      36.401  73.122  21.797  1.00  0.00     0.210 HD
ENDBRANCH   4  30
TORSDOF 12
ENDMDL
