MODEL 4
REMARK VINA RESULT: -7.118287340      4.398      8.858
REMARK  12 active torsions:
REMARK  status: ('A' for Active; 'I' for Inactive)
REMARK    1  A    between atoms: C4_9  and  C5_10 
REMARK    2  A    between atoms: C5_10  and  N4_11 
REMARK    3  A    between atoms: C7_13  and  C8_14 
REMARK    4  A    between atoms: C8_14  and  C9_15 
REMARK    5  A    between atoms: C9_15  and  S1_16 
REMARK    6  A    between atoms: S1_16  and  C10_17 
REMARK    7  A    between atoms: C10_17  and  C11_18 
REMARK    8  A    between atoms: C11_18  and  O1_19 
REMARK    9  A    between atoms: O1_19  and  C12_20 
REMARK   10  A    between atoms: C12_20  and  C13_21 
REMARK   11  A    between atoms: C13_21  and  O2_22 
REMARK   12  A    between atoms: C14_24  and  O3_25 
ROOT
HETATM    1  N4  UNL     1      38.104  73.984  22.652  1.00  0.00    -0.289 NA
HETATM    2  C6  UNL     1      38.273  74.020  24.077  1.00  0.00     0.102 C 
HETATM    3  C7  UNL     1      36.895  73.819  24.627  1.00  0.00     0.030 C 
HETATM    4  C14 UNL     1      36.158  73.109  23.547  1.00  0.00     0.136 C 
HETATM    5  C15 UNL     1      36.967  73.251  22.284  1.00  0.00     0.127 C 
ENDROOT
BRANCH   1   6
HETATM    6  C5  UNL     1      39.310  73.677  21.944  1.00  0.00     0.074 C 
BRANCH   6   7
HETATM    7  C4  UNL     1      39.233  73.543  20.503  1.00  0.00     0.019 A 
HETATM    8  C3  UNL     1      39.533  72.375  19.827  1.00  0.00     0.076 A 
HETATM    9  N3  UNL     1      39.942  71.146  20.225  1.00  0.00    -0.350 N 
HETATM   10  C17 UNL     1      39.355  72.593  18.494  1.00  0.00     0.101 A 
HETATM   11  C2  UNL     1      40.176  70.142  19.352  1.00  0.00     0.182 A 
ATOM     12  H3  UNL     1      40.077  70.973  21.221  1.00  0.00     0.166 HD
HETATM   13  N2  UNL     1      40.010  70.333  18.045  1.00  0.00    -0.339 N 
HETATM   14  C1  UNL     1      39.606  71.534  17.609  1.00  0.00     0.146 A 
ATOM     15  H2  UNL     1      40.188  69.576  17.385  1.00  0.00     0.167 HD
HETATM   16  N1  UNL     1      39.430  71.728  16.225  1.00  0.00    -0.080 NA
HETATM   17  N5  UNL     1      38.953  73.861  18.309  1.00  0.00    -0.360 N 
HETATM   18  C16 UNL     1      38.879  74.436  19.522  1.00  0.00     0.103 A 
ATOM     19  H5  UNL     1      38.744  74.305  17.415  1.00  0.00     0.165 HD
ENDBRANCH   6   7
ENDBRANCH   1   6
BRANCH   3  20
HETATM   20  C8  UNL     1      36.923  73.029  25.923  1.00  0.00     0.018 C 
BRANCH  20  21
HETATM   21  C9  UNL     1      37.333  73.854  27.083  1.00  0.00     0.074 C 
BRANCH  21  22
HETATM   22  S1  UNL     1      39.055  73.886  27.502  1.00  0.00    -0.167 SA
BRANCH  22  23
HETATM   23  C10 UNL     1      39.792  75.462  27.848  1.00  0.00     0.100 C 
BRANCH  23  24
HETATM   24  C11 UNL     1      38.870  76.601  27.512  1.00  0.00     0.178 C 
BRANCH  24  25
HETATM   25  O1  UNL     1      39.599  77.791  27.639  1.00  0.00    -0.388 OA
BRANCH  25  26
HETATM   26  C12 UNL     1      38.919  78.900  27.194  1.00  0.00     0.193 C 
BRANCH  26  27
HETATM   27  C13 UNL     1      37.589  78.565  26.560  1.00  0.00     0.190 C 
BRANCH  27  28
HETATM   28  O2  UNL     1      36.723  79.627  26.770  1.00  0.00    -0.399 OA
ATOM     29  H2  UNL     1      37.122  80.414  26.417  1.00  0.00     0.209 HD
ENDBRANCH  27  28
ENDBRANCH  26  27
ENDBRANCH  25  26
ENDBRANCH  24  25
ENDBRANCH  23  24
ENDBRANCH  22  23
ENDBRANCH  21  22
ENDBRANCH  20  21
ENDBRANCH   3  20
BRANCH   4  30
HETATM   30  O3  UNL     1      34.924  73.782  23.392  1.00  0.00    -0.394 OA
ATOM     31  H3  UNL     1      34.409  73.264  22.785  1.00  0.00     0.210 HD
ENDBRANCH   4  30
TORSDOF 12
ENDMDL
