MODEL 1
REMARK VINA RESULT: -7.712580445      0.000      0.000
REMARK  12 active torsions:
REMARK  status: ('A' for Active; 'I' for Inactive)
REMARK    1  A    between atoms: C4_9  and  C5_10 
REMARK    2  A    between atoms: C5_10  and  N4_11 
REMARK    3  A    between atoms: C7_13  and  C8_14 
REMARK    4  A    between atoms: C8_14  and  C9_15 
REMARK    5  A    between atoms: C9_15  and  S1_16 
REMARK    6  A    between atoms: S1_16  and  C10_17 
REMARK    7  A    between atoms: C10_17  and  C11_18 
REMARK    8  A    between atoms: C11_18  and  O1_19 
REMARK    9  A    between atoms: O1_19  and  C12_20 
REMARK   10  A    between atoms: C12_20  and  C13_21 
REMARK   11  A    between atoms: C13_21  and  O2_22 
REMARK   12  A    between atoms: C14_24  and  O3_25 
ROOT
HETATM    1  N4  UNL     1      36.864  73.420  25.699  1.00  0.00    -0.289 NA
HETATM    2  C6  UNL     1      37.851  73.910  24.779  1.00  0.00     0.102 C 
HETATM    3  C7  UNL     1      37.265  73.659  23.424  1.00  0.00     0.030 C 
HETATM    4  C14 UNL     1      35.796  73.604  23.655  1.00  0.00     0.136 C 
HETATM    5  C15 UNL     1      35.580  73.435  25.136  1.00  0.00     0.127 C 
ENDROOT
BRANCH   1   6
HETATM    6  C5  UNL     1      36.984  73.977  27.013  1.00  0.00     0.074 C 
BRANCH   6   7
HETATM    7  C4  UNL     1      38.162  74.769  27.306  1.00  0.00     0.019 A 
HETATM    8  C3  UNL     1      38.207  76.146  27.185  1.00  0.00     0.076 A 
HETATM    9  N3  UNL     1      37.300  77.078  26.809  1.00  0.00    -0.350 N 
HETATM   10  C17 UNL     1      39.454  76.567  27.538  1.00  0.00     0.101 A 
HETATM   11  C2  UNL     1      37.589  78.397  26.771  1.00  0.00     0.182 A 
ATOM     12  H3  UNL     1      36.364  76.773  26.543  1.00  0.00     0.166 HD
HETATM   13  N2  UNL     1      38.801  78.831  27.110  1.00  0.00    -0.339 N 
HETATM   14  C1  UNL     1      39.728  77.941  27.490  1.00  0.00     0.146 A 
ATOM     15  H2  UNL     1      39.021  79.827  27.081  1.00  0.00     0.167 HD
HETATM   16  N1  UNL     1      41.007  78.408  27.850  1.00  0.00    -0.080 NA
HETATM   17  N5  UNL     1      40.195  75.499  27.875  1.00  0.00    -0.360 N 
HETATM   18  C16 UNL     1      39.417  74.413  27.735  1.00  0.00     0.103 A 
ATOM     19  H5  UNL     1      41.168  75.511  28.181  1.00  0.00     0.165 HD
ENDBRANCH   6   7
ENDBRANCH   1   6
BRANCH   3  20
HETATM   20  C8  UNL     1      37.655  74.747  22.440  1.00  0.00     0.018 C 
BRANCH  20  21
HETATM   21  C9  UNL     1      37.927  74.215  21.084  1.00  0.00     0.074 C 
BRANCH  21  22
HETATM   22  S1  UNL     1      38.956  72.778  20.956  1.00  0.00    -0.167 SA
BRANCH  22  23
HETATM   23  C10 UNL     1      40.138  72.724  19.634  1.00  0.00     0.100 C 
BRANCH  23  24
HETATM   24  C11 UNL     1      39.631  73.411  18.396  1.00  0.00     0.178 C 
BRANCH  24  25
HETATM   25  O1  UNL     1      40.475  73.057  17.336  1.00  0.00    -0.388 OA
BRANCH  25  26
HETATM   26  C12 UNL     1      41.313  72.007  17.631  1.00  0.00     0.193 C 
BRANCH  26  27
HETATM   27  C13 UNL     1      42.459  71.872  16.656  1.00  0.00     0.190 C 
BRANCH  27  28
HETATM   28  O2  UNL     1      42.174  72.636  15.535  1.00  0.00    -0.399 OA
ATOM     29  H2  UNL     1      42.473  72.165  14.766  1.00  0.00     0.209 HD
ENDBRANCH  27  28
ENDBRANCH  26  27
ENDBRANCH  25  26
ENDBRANCH  24  25
ENDBRANCH  23  24
ENDBRANCH  22  23
ENDBRANCH  21  22
ENDBRANCH  20  21
ENDBRANCH   3  20
BRANCH   4  30
HETATM   30  O3  UNL     1      35.326  72.454  22.979  1.00  0.00    -0.394 OA
ATOM     31  H3  UNL     1      34.958  72.756  22.157  1.00  0.00     0.210 HD
ENDBRANCH   4  30
TORSDOF 12
ENDMDL
