MODEL 3
REMARK VINA RESULT: -7.154789342      3.441      5.845
REMARK  12 active torsions:
REMARK  status: ('A' for Active; 'I' for Inactive)
REMARK    1  A    between atoms: C4_9  and  C5_10 
REMARK    2  A    between atoms: C5_10  and  N4_11 
REMARK    3  A    between atoms: C7_13  and  C8_14 
REMARK    4  A    between atoms: C8_14  and  C9_15 
REMARK    5  A    between atoms: C9_15  and  S1_16 
REMARK    6  A    between atoms: S1_16  and  C10_17 
REMARK    7  A    between atoms: C10_17  and  C11_18 
REMARK    8  A    between atoms: C11_18  and  O1_19 
REMARK    9  A    between atoms: O1_19  and  C12_20 
REMARK   10  A    between atoms: C12_20  and  C13_21 
REMARK   11  A    between atoms: C13_21  and  O2_22 
REMARK   12  A    between atoms: C14_24  and  O3_25 
ROOT
HETATM    1  N4  UNL     1      38.653  73.525  21.122  1.00  0.00    -0.289 NA
HETATM    2  C6  UNL     1      39.466  72.389  20.789  1.00  0.00     0.102 C 
HETATM    3  C7  UNL     1      39.596  72.441  19.298  1.00  0.00     0.030 C 
HETATM    4  C14 UNL     1      39.371  73.870  18.950  1.00  0.00     0.136 C 
HETATM    5  C15 UNL     1      38.747  74.532  20.151  1.00  0.00     0.127 C 
ENDROOT
BRANCH   1   6
HETATM    6  C5  UNL     1      38.794  73.945  22.484  1.00  0.00     0.074 C 
BRANCH   6   7
HETATM    7  C4  UNL     1      37.619  73.899  23.330  1.00  0.00     0.019 A 
HETATM    8  C3  UNL     1      37.669  73.966  24.711  1.00  0.00     0.076 A 
HETATM    9  N3  UNL     1      38.682  74.078  25.602  1.00  0.00    -0.350 N 
HETATM   10  C17 UNL     1      36.395  73.898  25.190  1.00  0.00     0.101 A 
HETATM   11  C2  UNL     1      38.472  74.124  26.936  1.00  0.00     0.182 A 
ATOM     12  H3  UNL     1      39.639  74.130  25.253  1.00  0.00     0.166 HD
HETATM   13  N2  UNL     1      37.236  74.058  27.426  1.00  0.00    -0.339 N 
HETATM   14  C1  UNL     1      36.205  73.947  26.578  1.00  0.00     0.146 A 
ATOM     15  H2  UNL     1      37.077  74.092  28.434  1.00  0.00     0.167 HD
HETATM   16  N1  UNL     1      34.900  73.881  27.104  1.00  0.00    -0.080 NA
HETATM   17  N5  UNL     1      35.545  73.790  24.155  1.00  0.00    -0.360 N 
HETATM   18  C16 UNL     1      36.283  73.791  23.032  1.00  0.00     0.103 A 
ATOM     19  H5  UNL     1      34.530  73.720  24.212  1.00  0.00     0.165 HD
ENDBRANCH   6   7
ENDBRANCH   1   6
BRANCH   3  20
HETATM   20  C8  UNL     1      40.954  71.941  18.841  1.00  0.00     0.018 C 
BRANCH  20  21
HETATM   21  C9  UNL     1      40.866  70.682  18.067  1.00  0.00     0.074 C 
BRANCH  21  22
HETATM   22  S1  UNL     1      39.252  70.022  17.751  1.00  0.00    -0.167 SA
BRANCH  22  23
HETATM   23  C10 UNL     1      38.682  68.699  18.787  1.00  0.00     0.100 C 
BRANCH  23  24
HETATM   24  C11 UNL     1      37.562  67.925  18.149  1.00  0.00     0.178 C 
BRANCH  24  25
HETATM   25  O1  UNL     1      36.424  68.083  18.951  1.00  0.00    -0.388 OA
BRANCH  25  26
HETATM   26  C12 UNL     1      35.399  68.749  18.321  1.00  0.00     0.193 C 
BRANCH  26  27
HETATM   27  C13 UNL     1      34.032  68.324  18.803  1.00  0.00     0.190 C 
BRANCH  27  28
HETATM   28  O2  UNL     1      34.009  66.940  18.890  1.00  0.00    -0.399 OA
ATOM     29  H2  UNL     1      33.269  66.685  19.428  1.00  0.00     0.209 HD
ENDBRANCH  27  28
ENDBRANCH  26  27
ENDBRANCH  25  26
ENDBRANCH  24  25
ENDBRANCH  23  24
ENDBRANCH  22  23
ENDBRANCH  21  22
ENDBRANCH  20  21
ENDBRANCH   3  20
BRANCH   4  30
HETATM   30  O3  UNL     1      38.449  73.882  17.877  1.00  0.00    -0.394 OA
ATOM     31  H3  UNL     1      38.242  72.974  17.690  1.00  0.00     0.210 HD
ENDBRANCH   4  30
TORSDOF 12
ENDMDL
