MODEL 14
REMARK VINA RESULT: -6.617986634      1.824      2.160
REMARK  12 active torsions:
REMARK  status: ('A' for Active; 'I' for Inactive)
REMARK    1  A    between atoms: C4_9  and  C5_10 
REMARK    2  A    between atoms: C5_10  and  N4_11 
REMARK    3  A    between atoms: C7_13  and  C8_14 
REMARK    4  A    between atoms: C8_14  and  C9_15 
REMARK    5  A    between atoms: C9_15  and  S1_16 
REMARK    6  A    between atoms: S1_16  and  C10_17 
REMARK    7  A    between atoms: C10_17  and  C11_18 
REMARK    8  A    between atoms: C11_18  and  O1_19 
REMARK    9  A    between atoms: O1_19  and  C12_20 
REMARK   10  A    between atoms: C12_20  and  C13_21 
REMARK   11  A    between atoms: C13_21  and  O2_22 
REMARK   12  A    between atoms: C14_24  and  O3_25 
ROOT
HETATM    1  N4  UNL     1      37.433  73.286  24.902  1.00  0.00    -0.289 NA
HETATM    2  C6  UNL     1      38.540  73.897  24.221  1.00  0.00     0.102 C 
HETATM    3  C7  UNL     1      38.282  73.636  22.769  1.00  0.00     0.030 C 
HETATM    4  C14 UNL     1      36.810  73.436  22.679  1.00  0.00     0.136 C 
HETATM    5  C15 UNL     1      36.302  73.200  24.078  1.00  0.00     0.127 C 
ENDROOT
BRANCH   1   6
HETATM    6  C5  UNL     1      37.217  73.809  26.218  1.00  0.00     0.074 C 
BRANCH   6   7
HETATM    7  C4  UNL     1      38.282  74.587  26.819  1.00  0.00     0.019 A 
HETATM    8  C3  UNL     1      38.282  75.969  26.873  1.00  0.00     0.076 A 
HETATM    9  N3  UNL     1      37.417  76.918  26.445  1.00  0.00    -0.350 N 
HETATM   10  C17 UNL     1      39.421  76.373  27.502  1.00  0.00     0.101 A 
HETATM   11  C2  UNL     1      37.645  78.239  26.619  1.00  0.00     0.182 A 
ATOM     12  H3  UNL     1      36.561  76.625  25.974  1.00  0.00     0.166 HD
HETATM   13  N2  UNL     1      38.751  78.656  27.230  1.00  0.00    -0.339 N 
HETATM   14  C1  UNL     1      39.634  77.749  27.669  1.00  0.00     0.146 A 
ATOM     15  H2  UNL     1      38.925  79.653  27.361  1.00  0.00     0.167 HD
HETATM   16  N1  UNL     1      40.801  78.199  28.317  1.00  0.00    -0.080 NA
HETATM   17  N5  UNL     1      40.138  75.290  27.844  1.00  0.00    -0.360 N 
HETATM   18  C16 UNL     1      39.451  74.211  27.432  1.00  0.00     0.103 A 
ATOM     19  H5  UNL     1      41.037  75.288  28.327  1.00  0.00     0.165 HD
ENDBRANCH   6   7
ENDBRANCH   1   6
BRANCH   3  20
HETATM   20  C8  UNL     1      38.762  74.787  21.904  1.00  0.00     0.018 C 
BRANCH  20  21
HETATM   21  C9  UNL     1      38.700  74.475  20.457  1.00  0.00     0.074 C 
BRANCH  21  22
HETATM   22  S1  UNL     1      39.722  73.158  19.856  1.00  0.00    -0.167 SA
BRANCH  22  23
HETATM   23  C10 UNL     1      39.681  72.808  18.117  1.00  0.00     0.100 C 
BRANCH  23  24
HETATM   24  C11 UNL     1      39.861  71.343  17.832  1.00  0.00     0.178 C 
BRANCH  24  25
HETATM   25  O1  UNL     1      38.608  70.818  17.491  1.00  0.00    -0.388 OA
BRANCH  25  26
HETATM   26  C12 UNL     1      38.092  69.972  18.445  1.00  0.00     0.193 C 
BRANCH  26  27
HETATM   27  C13 UNL     1      39.155  69.186  19.177  1.00  0.00     0.190 C 
BRANCH  27  28
HETATM   28  O2  UNL     1      38.671  67.907  19.410  1.00  0.00    -0.399 OA
ATOM     29  H2  UNL     1      39.377  67.380  19.766  1.00  0.00     0.209 HD
ENDBRANCH  27  28
ENDBRANCH  26  27
ENDBRANCH  25  26
ENDBRANCH  24  25
ENDBRANCH  23  24
ENDBRANCH  22  23
ENDBRANCH  21  22
ENDBRANCH  20  21
ENDBRANCH   3  20
BRANCH   4  30
HETATM   30  O3  UNL     1      36.609  72.270  21.904  1.00  0.00    -0.394 OA
ATOM     31  H3  UNL     1      35.685  72.061  21.967  1.00  0.00     0.210 HD
ENDBRANCH   4  30
TORSDOF 12
ENDMDL
