MODEL 2
REMARK VINA RESULT: -7.558953081      1.875      2.236
REMARK  12 active torsions:
REMARK  status: ('A' for Active; 'I' for Inactive)
REMARK    1  A    between atoms: C4_9  and  C5_10 
REMARK    2  A    between atoms: C5_10  and  N4_11 
REMARK    3  A    between atoms: C7_13  and  C8_14 
REMARK    4  A    between atoms: C8_14  and  C9_15 
REMARK    5  A    between atoms: C9_15  and  S1_16 
REMARK    6  A    between atoms: S1_16  and  C10_17 
REMARK    7  A    between atoms: C10_17  and  C11_18 
REMARK    8  A    between atoms: C11_18  and  O1_19 
REMARK    9  A    between atoms: O1_19  and  C12_20 
REMARK   10  A    between atoms: C12_20  and  C13_21 
REMARK   11  A    between atoms: C13_21  and  O2_22 
REMARK   12  A    between atoms: C14_24  and  O3_25 
ROOT
HETATM    1  N4  UNL     1      36.808  73.385  25.791  1.00  0.00    -0.289 NA
HETATM    2  C6  UNL     1      37.913  73.666  24.919  1.00  0.00     0.102 C 
HETATM    3  C7  UNL     1      37.380  73.421  23.541  1.00  0.00     0.030 C 
HETATM    4  C14 UNL     1      35.908  73.599  23.671  1.00  0.00     0.136 C 
HETATM    5  C15 UNL     1      35.578  73.556  25.140  1.00  0.00     0.127 C 
ENDROOT
BRANCH   1   6
HETATM    6  C5  UNL     1      36.931  73.998  27.080  1.00  0.00     0.074 C 
BRANCH   6   7
HETATM    7  C4  UNL     1      38.127  74.770  27.349  1.00  0.00     0.019 A 
HETATM    8  C3  UNL     1      38.195  76.145  27.217  1.00  0.00     0.076 A 
HETATM    9  N3  UNL     1      37.300  77.091  26.844  1.00  0.00    -0.350 N 
HETATM   10  C17 UNL     1      39.454  76.546  27.548  1.00  0.00     0.101 A 
HETATM   11  C2  UNL     1      37.613  78.404  26.791  1.00  0.00     0.182 A 
ATOM     12  H3  UNL     1      36.355  76.801  26.595  1.00  0.00     0.166 HD
HETATM   13  N2  UNL     1      38.837  78.818  27.110  1.00  0.00    -0.339 N 
HETATM   14  C1  UNL     1      39.753  77.914  27.484  1.00  0.00     0.146 A 
ATOM     15  H2  UNL     1      39.075  79.810  27.069  1.00  0.00     0.167 HD
HETATM   16  N1  UNL     1      41.046  78.361  27.823  1.00  0.00    -0.080 NA
HETATM   17  N5  UNL     1      40.181  75.468  27.884  1.00  0.00    -0.360 N 
HETATM   18  C16 UNL     1      39.381  74.395  27.765  1.00  0.00     0.103 A 
ATOM     19  H5  UNL     1      41.158  75.464  28.176  1.00  0.00     0.165 HD
ENDBRANCH   6   7
ENDBRANCH   1   6
BRANCH   3  20
HETATM   20  C8  UNL     1      37.990  74.376  22.532  1.00  0.00     0.018 C 
BRANCH  20  21
HETATM   21  C9  UNL     1      39.248  73.856  21.946  1.00  0.00     0.074 C 
BRANCH  21  22
HETATM   22  S1  UNL     1      39.184  73.222  20.292  1.00  0.00    -0.167 SA
BRANCH  22  23
HETATM   23  C10 UNL     1      40.576  72.288  19.711  1.00  0.00     0.100 C 
BRANCH  23  24
HETATM   24  C11 UNL     1      40.214  70.856  19.425  1.00  0.00     0.178 C 
BRANCH  24  25
HETATM   25  O1  UNL     1      38.817  70.775  19.358  1.00  0.00    -0.388 OA
BRANCH  25  26
HETATM   26  C12 UNL     1      38.364  70.009  18.309  1.00  0.00     0.193 C 
BRANCH  26  27
HETATM   27  C13 UNL     1      37.321  68.998  18.722  1.00  0.00     0.190 C 
BRANCH  27  28
HETATM   28  O2  UNL     1      37.970  67.866  19.191  1.00  0.00    -0.399 OA
ATOM     29  H2  UNL     1      37.358  67.367  19.720  1.00  0.00     0.209 HD
ENDBRANCH  27  28
ENDBRANCH  26  27
ENDBRANCH  25  26
ENDBRANCH  24  25
ENDBRANCH  23  24
ENDBRANCH  22  23
ENDBRANCH  21  22
ENDBRANCH  20  21
ENDBRANCH   3  20
BRANCH   4  30
HETATM   30  O3  UNL     1      35.311  72.492  23.024  1.00  0.00    -0.394 OA
ATOM     31  H3  UNL     1      34.641  72.165  23.612  1.00  0.00     0.210 HD
ENDBRANCH   4  30
TORSDOF 12
ENDMDL
