MODEL 5
REMARK VINA RESULT: -6.978954115      5.302     10.272
REMARK  12 active torsions:
REMARK  status: ('A' for Active; 'I' for Inactive)
REMARK    1  A    between atoms: C4_9  and  C5_10 
REMARK    2  A    between atoms: C5_10  and  N4_11 
REMARK    3  A    between atoms: C7_13  and  C8_14 
REMARK    4  A    between atoms: C8_14  and  C9_15 
REMARK    5  A    between atoms: C9_15  and  S1_16 
REMARK    6  A    between atoms: S1_16  and  C10_17 
REMARK    7  A    between atoms: C10_17  and  C11_18 
REMARK    8  A    between atoms: C11_18  and  O1_19 
REMARK    9  A    between atoms: O1_19  and  C12_20 
REMARK   10  A    between atoms: C12_20  and  C13_21 
REMARK   11  A    between atoms: C13_21  and  O2_22 
REMARK   12  A    between atoms: C14_24  and  O3_25 
ROOT
HETATM    1  N4  UNL     1      39.579  71.982  19.444  1.00  0.00    -0.289 NA
HETATM    2  C6  UNL     1      39.230  72.531  20.723  1.00  0.00     0.102 C 
HETATM    3  C7  UNL     1      38.929  73.972  20.448  1.00  0.00     0.030 C 
HETATM    4  C14 UNL     1      38.552  74.009  19.009  1.00  0.00     0.136 C 
HETATM    5  C15 UNL     1      39.002  72.710  18.393  1.00  0.00     0.127 C 
ENDROOT
BRANCH   1   6
HETATM    6  C5  UNL     1      39.437  70.558  19.378  1.00  0.00     0.074 C 
BRANCH   6   7
HETATM    7  C4  UNL     1      38.991  69.981  18.126  1.00  0.00     0.019 A 
HETATM    8  C3  UNL     1      37.748  69.399  17.953  1.00  0.00     0.076 A 
HETATM    9  N3  UNL     1      36.689  69.201  18.774  1.00  0.00    -0.350 N 
HETATM   10  C17 UNL     1      37.655  68.962  16.666  1.00  0.00     0.101 A 
HETATM   11  C2  UNL     1      35.556  68.592  18.361  1.00  0.00     0.182 A 
ATOM     12  H3  UNL     1      36.749  69.525  19.739  1.00  0.00     0.166 HD
HETATM   13  N2  UNL     1      35.443  68.156  17.109  1.00  0.00    -0.339 N 
HETATM   14  C1  UNL     1      36.468  68.333  16.264  1.00  0.00     0.146 A 
ATOM     15  H2  UNL     1      34.588  67.695  16.796  1.00  0.00     0.167 HD
HETATM   16  N1  UNL     1      36.340  67.871  14.939  1.00  0.00    -0.080 NA
HETATM   17  N5  UNL     1      38.798  69.250  16.024  1.00  0.00    -0.360 N 
HETATM   18  C16 UNL     1      39.606  69.865  16.904  1.00  0.00     0.103 A 
ATOM     19  H5  UNL     1      39.014  69.041  15.049  1.00  0.00     0.165 HD
ENDBRANCH   6   7
ENDBRANCH   1   6
BRANCH   3  20
HETATM   20  C8  UNL     1      37.823  74.491  21.349  1.00  0.00     0.018 C 
BRANCH  20  21
HETATM   21  C9  UNL     1      37.278  73.441  22.241  1.00  0.00     0.074 C 
BRANCH  21  22
HETATM   22  S1  UNL     1      37.469  73.667  23.988  1.00  0.00    -0.167 SA
BRANCH  22  23
HETATM   23  C10 UNL     1      35.998  73.740  24.978  1.00  0.00     0.100 C 
BRANCH  23  24
HETATM   24  C11 UNL     1      36.093  74.789  26.052  1.00  0.00     0.178 C 
BRANCH  24  25
HETATM   25  O1  UNL     1      36.706  74.202  27.167  1.00  0.00    -0.388 OA
BRANCH  25  26
HETATM   26  C12 UNL     1      37.857  74.845  27.560  1.00  0.00     0.193 C 
BRANCH  26  27
HETATM   27  C13 UNL     1      39.072  73.947  27.546  1.00  0.00     0.190 C 
BRANCH  27  28
HETATM   28  O2  UNL     1      40.131  74.635  28.117  1.00  0.00    -0.399 OA
ATOM     29  H2  UNL     1      40.001  74.660  29.058  1.00  0.00     0.209 HD
ENDBRANCH  27  28
ENDBRANCH  26  27
ENDBRANCH  25  26
ENDBRANCH  24  25
ENDBRANCH  23  24
ENDBRANCH  22  23
ENDBRANCH  21  22
ENDBRANCH  20  21
ENDBRANCH   3  20
BRANCH   4  30
HETATM   30  O3  UNL     1      39.277  75.077  18.431  1.00  0.00    -0.394 OA
ATOM     31  H3  UNL     1      38.670  75.803  18.352  1.00  0.00     0.210 HD
ENDBRANCH   4  30
TORSDOF 12
ENDMDL
