MODEL 7
REMARK VINA RESULT: -11.093173216      5.065      9.373
REMARK  6 active torsions:
REMARK  status: ('A' for Active; 'I' for Inactive)
REMARK    1  A    between atoms: C3_3  and  C4_4 
REMARK       I    between atoms: C4_4  and  N1_6 
REMARK    2  A    between atoms: N1_6  and  C5_8 
REMARK    3  A    between atoms: C12_19  and  C13_20 
REMARK    4  A    between atoms: C17_25  and  C18_26 
REMARK       I    between atoms: C18_26  and  N4_28 
REMARK    5  A    between atoms: N4_28  and  C19_30 
REMARK    6  A    between atoms: C19_30  and  C20_31 
ROOT
HETATM    1  C1  UNL     1       0.106  17.827 -38.433  1.00  0.00     0.069 C 
HETATM    2  C2  UNL     1       0.731  18.102 -39.780  1.00  0.00     0.028 C 
HETATM    3  C3  UNL     1       1.939  17.568 -40.060  1.00  0.00     0.082 C 
HETATM    4  C12 UNL     1       2.326  17.708 -41.460  1.00  0.00     0.064 C 
HETATM    5  N6  UNL     1       2.048  19.007 -41.981  1.00  0.00    -0.307 N 
ATOM      6  H6  UNL     1       2.749  19.519 -42.515  1.00  0.00     0.170 HD
HETATM    7  C26 UNL     1       0.769  19.566 -41.736  1.00  0.00     0.325 C 
HETATM    8  O3  UNL     1       0.229  20.443 -42.485  1.00  0.00    -0.247 OA
HETATM    9  N7  UNL     1       0.093  19.096 -40.590  1.00  0.00    -0.312 N 
ATOM     10  H7  UNL     1      -0.829  19.456 -40.345  1.00  0.00     0.170 HD
ENDROOT
BRANCH   4  11
HETATM   11  C13 UNL     1       3.544  17.131 -41.993  1.00  0.00    -0.007 A 
HETATM   12  C14 UNL     1       4.568  17.927 -42.520  1.00  0.00     0.017 A 
HETATM   13  C15 UNL     1       5.736  17.380 -42.975  1.00  0.00     0.044 A 
HETATM   14  C16 UNL     1       5.904  15.998 -42.908  1.00  0.00     0.132 A 
HETATM   15  F1  UNL     1       7.058  15.510 -43.367  1.00  0.00    -0.205 F 
HETATM   16  C17 UNL     1       4.950  15.167 -42.408  1.00  0.00     0.071 A 
HETATM   17  C25 UNL     1       3.770  15.770 -41.954  1.00  0.00     0.034 A 
BRANCH  16  18
HETATM   18  C18 UNL     1       5.052  13.719 -42.300  1.00  0.00     0.255 C 
HETATM   19  O2  UNL     1       5.129  13.032 -43.380  1.00  0.00    -0.268 OA
HETATM   20  N4  UNL     1       5.077  12.964 -41.106  1.00  0.00    -0.351 N 
ATOM     21  H4  UNL     1       5.016  13.453 -40.213  1.00  0.00     0.163 HD
BRANCH  20  22
HETATM   22  C19 UNL     1       5.186  11.509 -41.105  1.00  0.00     0.179 C 
BRANCH  22  23
HETATM   23  C20 UNL     1       6.594  11.046 -41.005  1.00  0.00     0.026 A 
HETATM   24  C21 UNL     1       6.881   9.851 -40.402  1.00  0.00     0.027 A 
HETATM   25  C22 UNL     1       8.181   9.407 -40.307  1.00  0.00     0.003 A 
HETATM   26  C23 UNL     1       9.206  10.162 -40.818  1.00  0.00     0.017 A 
HETATM   27  C24 UNL     1       8.868  11.355 -41.416  1.00  0.00     0.088 A 
HETATM   28  N5  UNL     1       7.600  11.776 -41.501  1.00  0.00    -0.368 N 
ATOM     29  H5  UNL     1       7.397  12.669 -41.952  1.00  0.00     0.165 HD
ENDBRANCH  22  23
ENDBRANCH  20  22
ENDBRANCH  16  18
ENDBRANCH   4  11
BRANCH   3  30
HETATM   30  C4  UNL     1       2.581  16.773 -39.023  1.00  0.00     0.260 C 
HETATM   31  O1  UNL     1       3.501  17.299 -38.283  1.00  0.00    -0.267 OA
HETATM   32  N1  UNL     1       2.341  15.423 -38.679  1.00  0.00    -0.323 N 
ATOM     33  H1  UNL     1       1.640  14.927 -39.230  1.00  0.00     0.169 HD
BRANCH  32  34
HETATM   34  C5  UNL     1       2.977  14.689 -37.644  1.00  0.00     0.035 A 
HETATM   35  C6  UNL     1       4.237  14.174 -37.871  1.00  0.00     0.032 A 
HETATM   36  C7  UNL     1       4.921  13.426 -36.937  1.00  0.00     0.034 A 
HETATM   37  C8  UNL     1       4.330  13.178 -35.724  1.00  0.00     0.059 A 
HETATM   38  N2  UNL     1       4.749  12.488 -34.629  1.00  0.00    -0.300 N 
HETATM   39  C10 UNL     1       3.074  13.683 -35.478  1.00  0.00     0.011 A 
HETATM   40  N3  UNL     1       3.783  12.561 -33.727  1.00  0.00    -0.311 N 
ATOM     41  H2  UNL     1       5.641  12.004 -34.522  1.00  0.00     0.187 HD
HETATM   42  C9  UNL     1       2.752  13.276 -34.203  1.00  0.00     0.120 A 
ATOM     43  H3  UNL     1       3.818  12.135 -32.801  1.00  0.00     0.186 HD
HETATM   44  C11 UNL     1       2.392  14.445 -36.449  1.00  0.00     0.044 A 
ENDBRANCH  32  34
ENDBRANCH   3  30
TORSDOF 6
ENDMDL
