MODEL 8
REMARK VINA RESULT: -11.037608276      5.092      9.405
REMARK  6 active torsions:
REMARK  status: ('A' for Active; 'I' for Inactive)
REMARK    1  A    between atoms: C3_3  and  C4_4 
REMARK       I    between atoms: C4_4  and  N1_6 
REMARK    2  A    between atoms: N1_6  and  C5_8 
REMARK    3  A    between atoms: C12_19  and  C13_20 
REMARK    4  A    between atoms: C17_25  and  C18_26 
REMARK       I    between atoms: C18_26  and  N4_28 
REMARK    5  A    between atoms: N4_28  and  C19_30 
REMARK    6  A    between atoms: C19_30  and  C20_31 
ROOT
HETATM    1  C1  UNL     1      -0.012  16.639 -37.639  1.00  0.00     0.069 C 
HETATM    2  C2  UNL     1       0.612  17.186 -38.901  1.00  0.00     0.028 C 
HETATM    3  C3  UNL     1       1.735  16.608 -39.378  1.00  0.00     0.082 C 
HETATM    4  C12 UNL     1       2.103  17.068 -40.713  1.00  0.00     0.064 C 
HETATM    5  N6  UNL     1       1.980  18.481 -40.862  1.00  0.00    -0.307 N 
ATOM      6  H6  UNL     1       2.729  19.031 -41.283  1.00  0.00     0.170 HD
HETATM    7  C26 UNL     1       0.790  19.100 -40.410  1.00  0.00     0.325 C 
HETATM    8  O3  UNL     1       0.348  20.202 -40.873  1.00  0.00    -0.247 OA
HETATM    9  N7  UNL     1       0.086  18.427 -39.389  1.00  0.00    -0.312 N 
ATOM     10  H7  UNL     1      -0.777  18.814 -39.007  1.00  0.00     0.170 HD
ENDROOT
BRANCH   4  11
HETATM   11  C13 UNL     1       3.225  16.514 -41.445  1.00  0.00    -0.007 A 
HETATM   12  C14 UNL     1       4.075  17.320 -42.211  1.00  0.00     0.017 A 
HETATM   13  C15 UNL     1       5.162  16.800 -42.859  1.00  0.00     0.044 A 
HETATM   14  C16 UNL     1       5.423  15.435 -42.748  1.00  0.00     0.132 A 
HETATM   15  F1  UNL     1       6.491  14.973 -43.400  1.00  0.00    -0.205 F 
HETATM   16  C17 UNL     1       4.637  14.596 -42.020  1.00  0.00     0.071 A 
HETATM   17  C25 UNL     1       3.536  15.172 -41.375  1.00  0.00     0.034 A 
BRANCH  16  18
HETATM   18  C18 UNL     1       4.845  13.165 -41.852  1.00  0.00     0.255 C 
HETATM   19  O2  UNL     1       4.697  12.404 -42.873  1.00  0.00    -0.268 OA
HETATM   20  N4  UNL     1       5.204  12.501 -40.657  1.00  0.00    -0.351 N 
ATOM     21  H4  UNL     1       5.335  13.052 -39.808  1.00  0.00     0.163 HD
BRANCH  20  22
HETATM   22  C19 UNL     1       5.393  11.056 -40.594  1.00  0.00     0.179 C 
BRANCH  22  23
HETATM   23  C20 UNL     1       6.825  10.668 -40.675  1.00  0.00     0.026 A 
HETATM   24  C21 UNL     1       7.737  11.526 -41.227  1.00  0.00     0.027 A 
HETATM   25  C22 UNL     1       9.069  11.182 -41.304  1.00  0.00     0.003 A 
HETATM   26  C23 UNL     1       9.495   9.969 -40.824  1.00  0.00     0.017 A 
HETATM   27  C24 UNL     1       8.541   9.141 -40.277  1.00  0.00     0.088 A 
HETATM   28  N5  UNL     1       7.249   9.488 -40.209  1.00  0.00    -0.368 N 
ATOM     29  H5  UNL     1       6.578   8.840 -39.796  1.00  0.00     0.165 HD
ENDBRANCH  22  23
ENDBRANCH  20  22
ENDBRANCH  16  18
ENDBRANCH   4  11
BRANCH   3  30
HETATM   30  C4  UNL     1       2.294  15.498 -38.621  1.00  0.00     0.260 C 
HETATM   31  O1  UNL     1       1.867  14.295 -38.826  1.00  0.00    -0.267 OA
HETATM   32  N1  UNL     1       3.296  15.533 -37.625  1.00  0.00    -0.323 N 
ATOM     33  H1  UNL     1       3.675  16.450 -37.387  1.00  0.00     0.169 HD
BRANCH  32  34
HETATM   34  C5  UNL     1       3.829  14.421 -36.922  1.00  0.00     0.035 A 
HETATM   35  C6  UNL     1       4.959  13.800 -37.415  1.00  0.00     0.032 A 
HETATM   36  C7  UNL     1       5.531  12.700 -36.815  1.00  0.00     0.034 A 
HETATM   37  C8  UNL     1       4.958  12.190 -35.678  1.00  0.00     0.059 A 
HETATM   38  N2  UNL     1       5.290  11.137 -34.882  1.00  0.00    -0.300 N 
HETATM   39  C10 UNL     1       3.831  12.795 -35.170  1.00  0.00     0.011 A 
HETATM   40  N3  UNL     1       4.396  11.087 -33.908  1.00  0.00    -0.311 N 
ATOM     41  H2  UNL     1       6.079  10.504 -35.012  1.00  0.00     0.187 HD
HETATM   42  C9  UNL     1       3.497  12.073 -34.046  1.00  0.00     0.120 A 
ATOM     43  H3  UNL     1       4.391  10.396 -33.157  1.00  0.00     0.186 HD
HETATM   44  C11 UNL     1       3.262  13.921 -35.799  1.00  0.00     0.044 A 
ENDBRANCH  32  34
ENDBRANCH   3  30
TORSDOF 6
ENDMDL
