MODEL 6
REMARK VINA RESULT: -11.322286255      3.345      7.832
REMARK  6 active torsions:
REMARK  status: ('A' for Active; 'I' for Inactive)
REMARK    1  A    between atoms: C3_3  and  C4_4 
REMARK       I    between atoms: C4_4  and  N1_6 
REMARK    2  A    between atoms: N1_6  and  C5_8 
REMARK    3  A    between atoms: C12_19  and  C13_20 
REMARK    4  A    between atoms: C17_25  and  C18_26 
REMARK       I    between atoms: C18_26  and  N4_28 
REMARK    5  A    between atoms: N4_28  and  C19_30 
REMARK    6  A    between atoms: C19_30  and  C20_31 
ROOT
HETATM    1  C1  UNL     1      -2.872  23.648 -40.885  1.00  0.00     0.069 C 
HETATM    2  C2  UNL     1      -2.898  24.266 -39.506  1.00  0.00     0.028 C 
HETATM    3  C3  UNL     1      -2.428  23.551 -38.462  1.00  0.00     0.082 C 
HETATM    4  C12 UNL     1      -2.290  24.333 -37.238  1.00  0.00     0.064 C 
HETATM    5  N6  UNL     1      -3.409  25.184 -36.998  1.00  0.00    -0.307 N 
ATOM      6  H6  UNL     1      -3.852  25.222 -36.081  1.00  0.00     0.170 HD
HETATM    7  C26 UNL     1      -3.888  25.977 -38.070  1.00  0.00     0.325 C 
HETATM    8  O3  UNL     1      -4.523  27.069 -37.909  1.00  0.00    -0.247 OA
HETATM    9  N7  UNL     1      -3.624  25.493 -39.369  1.00  0.00    -0.312 N 
ATOM     10  H7  UNL     1      -3.943  26.005 -40.191  1.00  0.00     0.170 HD
ENDROOT
BRANCH   4  11
HETATM   11  C13 UNL     1      -1.723  23.783 -36.022  1.00  0.00    -0.007 A 
HETATM   12  C14 UNL     1      -2.397  23.853 -34.797  1.00  0.00     0.017 A 
HETATM   13  C15 UNL     1      -1.881  23.287 -33.664  1.00  0.00     0.044 A 
HETATM   14  C16 UNL     1      -0.656  22.627 -33.738  1.00  0.00     0.132 A 
HETATM   15  F1  UNL     1      -0.190  22.095 -32.606  1.00  0.00    -0.205 F 
HETATM   16  C17 UNL     1       0.052  22.523 -34.896  1.00  0.00     0.071 A 
HETATM   17  C25 UNL     1      -0.515  23.116 -36.031  1.00  0.00     0.034 A 
BRANCH  16  18
HETATM   18  C18 UNL     1       1.331  21.848 -35.055  1.00  0.00     0.255 C 
HETATM   19  O2  UNL     1       2.404  22.537 -34.923  1.00  0.00    -0.268 OA
HETATM   20  N4  UNL     1       1.530  20.479 -35.347  1.00  0.00    -0.351 N 
ATOM     21  H4  UNL     1       0.715  19.878 -35.466  1.00  0.00     0.163 HD
BRANCH  20  22
HETATM   22  C19 UNL     1       2.861  19.896 -35.483  1.00  0.00     0.179 C 
BRANCH  22  23
HETATM   23  C20 UNL     1       2.817  18.485 -35.943  1.00  0.00     0.026 A 
HETATM   24  C21 UNL     1       3.582  18.087 -37.007  1.00  0.00     0.027 A 
HETATM   25  C22 UNL     1       3.555  16.780 -37.441  1.00  0.00     0.003 A 
HETATM   26  C23 UNL     1       2.757  15.860 -36.809  1.00  0.00     0.017 A 
HETATM   27  C24 UNL     1       2.007  16.307 -35.745  1.00  0.00     0.088 A 
HETATM   28  N5  UNL     1       2.042  17.581 -35.333  1.00  0.00    -0.368 N 
ATOM     29  H5  UNL     1       1.467  17.867 -34.540  1.00  0.00     0.165 HD
ENDBRANCH  22  23
ENDBRANCH  20  22
ENDBRANCH  16  18
ENDBRANCH   4  11
BRANCH   3  30
HETATM   30  C4  UNL     1      -1.946  22.204 -38.731  1.00  0.00     0.260 C 
HETATM   31  O1  UNL     1      -2.774  21.212 -38.743  1.00  0.00    -0.267 OA
HETATM   32  N1  UNL     1      -0.623  21.783 -38.994  1.00  0.00    -0.323 N 
ATOM     33  H1  UNL     1       0.099  22.504 -38.984  1.00  0.00     0.169 HD
BRANCH  32  34
HETATM   34  C5  UNL     1      -0.196  20.457 -39.271  1.00  0.00     0.035 A 
HETATM   35  C6  UNL     1      -0.255  19.515 -38.264  1.00  0.00     0.032 A 
HETATM   36  C7  UNL     1       0.161  18.212 -38.433  1.00  0.00     0.034 A 
HETATM   37  C8  UNL     1       0.658  17.826 -39.651  1.00  0.00     0.059 A 
HETATM   38  N2  UNL     1       1.135  16.636 -40.107  1.00  0.00    -0.300 N 
HETATM   39  C10 UNL     1       0.724  18.751 -40.668  1.00  0.00     0.011 A 
HETATM   40  N3  UNL     1       1.488  16.813 -41.370  1.00  0.00    -0.311 N 
ATOM     41  H2  UNL     1       1.207  15.768 -39.575  1.00  0.00     0.187 HD
HETATM   42  C9  UNL     1       1.255  18.080 -41.747  1.00  0.00     0.120 A 
ATOM     43  H3  UNL     1       1.881  16.090 -41.972  1.00  0.00     0.186 HD
HETATM   44  C11 UNL     1       0.293  20.080 -40.474  1.00  0.00     0.044 A 
ENDBRANCH  32  34
ENDBRANCH   3  30
TORSDOF 6
ENDMDL
