MODEL 2
REMARK VINA RESULT: -12.114165802      1.013      1.438
REMARK  6 active torsions:
REMARK  status: ('A' for Active; 'I' for Inactive)
REMARK    1  A    between atoms: C3_3  and  C4_4 
REMARK       I    between atoms: C4_4  and  N1_6 
REMARK    2  A    between atoms: N1_6  and  C5_8 
REMARK    3  A    between atoms: C12_19  and  C13_20 
REMARK    4  A    between atoms: C17_25  and  C18_26 
REMARK       I    between atoms: C18_26  and  N4_28 
REMARK    5  A    between atoms: N4_28  and  C19_30 
REMARK    6  A    between atoms: C19_30  and  C20_31 
ROOT
HETATM    1  C1  UNL     1       2.042  15.132 -39.918  1.00  0.00     0.069 C 
HETATM    2  C2  UNL     1       1.769  16.597 -39.670  1.00  0.00     0.028 C 
HETATM    3  C3  UNL     1       2.003  17.104 -38.441  1.00  0.00     0.082 C 
HETATM    4  C12 UNL     1       1.928  18.560 -38.390  1.00  0.00     0.064 C 
HETATM    5  N6  UNL     1       0.812  19.080 -39.111  1.00  0.00    -0.307 N 
ATOM      6  H6  UNL     1       0.201  19.783 -38.696  1.00  0.00     0.170 HD
HETATM    7  C26 UNL     1       0.577  18.593 -40.420  1.00  0.00     0.325 C 
HETATM    8  O3  UNL     1      -0.041  19.254 -41.317  1.00  0.00    -0.247 OA
HETATM    9  N7  UNL     1       1.071  17.302 -40.703  1.00  0.00    -0.312 N 
ATOM     10  H7  UNL     1       0.935  16.881 -41.622  1.00  0.00     0.170 HD
ENDROOT
BRANCH   4  11
HETATM   11  C13 UNL     1       2.229  19.314 -37.188  1.00  0.00    -0.007 A 
HETATM   12  C14 UNL     1       3.446  19.169 -36.513  1.00  0.00     0.017 A 
HETATM   13  C15 UNL     1       3.744  19.920 -35.409  1.00  0.00     0.044 A 
HETATM   14  C16 UNL     1       2.812  20.850 -34.954  1.00  0.00     0.132 A 
HETATM   15  F1  UNL     1       3.145  21.556 -33.872  1.00  0.00    -0.205 F 
HETATM   16  C17 UNL     1       1.610  21.041 -35.564  1.00  0.00     0.071 A 
HETATM   17  C25 UNL     1       1.347  20.251 -36.689  1.00  0.00     0.034 A 
BRANCH  16  18
HETATM   18  C18 UNL     1       0.588  21.993 -35.153  1.00  0.00     0.255 C 
HETATM   19  O2  UNL     1       0.672  23.199 -35.579  1.00  0.00    -0.268 OA
HETATM   20  N4  UNL     1      -0.519  21.729 -34.315  1.00  0.00    -0.351 N 
ATOM     21  H4  UNL     1      -0.641  20.788 -33.942  1.00  0.00     0.163 HD
BRANCH  20  22
HETATM   22  C19 UNL     1      -1.494  22.756 -33.965  1.00  0.00     0.179 C 
BRANCH  22  23
HETATM   23  C20 UNL     1      -1.284  23.295 -32.597  1.00  0.00     0.026 A 
HETATM   24  C21 UNL     1      -0.365  22.713 -31.766  1.00  0.00     0.027 A 
HETATM   25  C22 UNL     1      -0.155  23.205 -30.496  1.00  0.00     0.003 A 
HETATM   26  C23 UNL     1      -0.869  24.288 -30.051  1.00  0.00     0.017 A 
HETATM   27  C24 UNL     1      -1.781  24.839 -30.923  1.00  0.00     0.088 A 
HETATM   28  N5  UNL     1      -1.976  24.351 -32.154  1.00  0.00    -0.368 N 
ATOM     29  H5  UNL     1      -2.664  24.792 -32.766  1.00  0.00     0.165 HD
ENDBRANCH  22  23
ENDBRANCH  20  22
ENDBRANCH  16  18
ENDBRANCH   4  11
BRANCH   3  30
HETATM   30  C4  UNL     1       2.483  16.190 -37.415  1.00  0.00     0.260 C 
HETATM   31  O1  UNL     1       3.745  15.922 -37.327  1.00  0.00    -0.267 OA
HETATM   32  N1  UNL     1       1.734  15.499 -36.437  1.00  0.00    -0.323 N 
ATOM     33  H1  UNL     1       0.723  15.639 -36.448  1.00  0.00     0.169 HD
BRANCH  32  34
HETATM   34  C5  UNL     1       2.245  14.628 -35.438  1.00  0.00     0.035 A 
HETATM   35  C6  UNL     1       2.456  15.123 -34.167  1.00  0.00     0.032 A 
HETATM   36  C7  UNL     1       2.973  14.360 -33.143  1.00  0.00     0.034 A 
HETATM   37  C8  UNL     1       3.296  13.050 -33.388  1.00  0.00     0.059 A 
HETATM   38  N2  UNL     1       3.812  12.073 -32.593  1.00  0.00    -0.300 N 
HETATM   39  C10 UNL     1       3.093  12.538 -34.649  1.00  0.00     0.011 A 
HETATM   40  N3  UNL     1       3.928  10.985 -33.337  1.00  0.00    -0.311 N 
ATOM     41  H2  UNL     1       4.064  12.163 -31.609  1.00  0.00     0.187 HD
HETATM   42  C9  UNL     1       3.503  11.225 -34.586  1.00  0.00     0.120 A 
ATOM     43  H3  UNL     1       4.288  10.090 -33.006  1.00  0.00     0.186 HD
HETATM   44  C11 UNL     1       2.563  13.335 -35.683  1.00  0.00     0.044 A 
ENDBRANCH  32  34
ENDBRANCH   3  30
TORSDOF 6
ENDMDL
