MODEL 1
REMARK VINA RESULT: -12.298475419      0.000      0.000
REMARK  6 active torsions:
REMARK  status: ('A' for Active; 'I' for Inactive)
REMARK    1  A    between atoms: C3_3  and  C4_4 
REMARK       I    between atoms: C4_4  and  N1_6 
REMARK    2  A    between atoms: N1_6  and  C5_8 
REMARK    3  A    between atoms: C12_19  and  C13_20 
REMARK    4  A    between atoms: C17_25  and  C18_26 
REMARK       I    between atoms: C18_26  and  N4_28 
REMARK    5  A    between atoms: N4_28  and  C19_30 
REMARK    6  A    between atoms: C19_30  and  C20_31 
ROOT
HETATM    1  C1  UNL     1       1.839  14.886 -40.120  1.00  0.00     0.069 C 
HETATM    2  C2  UNL     1       1.752  16.375 -39.880  1.00  0.00     0.028 C 
HETATM    3  C3  UNL     1       1.956  16.847 -38.631  1.00  0.00     0.082 C 
HETATM    4  C12 UNL     1       2.078  18.300 -38.573  1.00  0.00     0.064 C 
HETATM    5  N6  UNL     1       1.105  18.968 -39.374  1.00  0.00    -0.307 N 
ATOM      6  H6  UNL     1       0.565  19.748 -39.001  1.00  0.00     0.170 HD
HETATM    7  C26 UNL     1       0.908  18.516 -40.702  1.00  0.00     0.325 C 
HETATM    8  O3  UNL     1       0.459  19.254 -41.638  1.00  0.00    -0.247 OA
HETATM    9  N7  UNL     1       1.241  17.169 -40.957  1.00  0.00    -0.312 N 
ATOM     10  H7  UNL     1       1.120  16.769 -41.888  1.00  0.00     0.170 HD
ENDROOT
BRANCH   4  11
HETATM   11  C13 UNL     1       2.385  19.007 -37.344  1.00  0.00    -0.007 A 
HETATM   12  C14 UNL     1       3.576  18.785 -36.644  1.00  0.00     0.017 A 
HETATM   13  C15 UNL     1       3.883  19.492 -35.514  1.00  0.00     0.044 A 
HETATM   14  C16 UNL     1       2.985  20.453 -35.056  1.00  0.00     0.132 A 
HETATM   15  F1  UNL     1       3.325  21.114 -33.947  1.00  0.00    -0.205 F 
HETATM   16  C17 UNL     1       1.809  20.719 -35.688  1.00  0.00     0.071 A 
HETATM   17  C25 UNL     1       1.536  19.972 -36.841  1.00  0.00     0.034 A 
BRANCH  16  18
HETATM   18  C18 UNL     1       0.824  21.708 -35.276  1.00  0.00     0.255 C 
HETATM   19  O2  UNL     1       1.015  22.932 -35.606  1.00  0.00    -0.268 OA
HETATM   20  N4  UNL     1      -0.353  21.464 -34.533  1.00  0.00    -0.351 N 
ATOM     21  H4  UNL     1      -0.560  20.510 -34.238  1.00  0.00     0.163 HD
BRANCH  20  22
HETATM   22  C19 UNL     1      -1.283  22.529 -34.173  1.00  0.00     0.179 C 
BRANCH  22  23
HETATM   23  C20 UNL     1      -1.158  22.933 -32.749  1.00  0.00     0.026 A 
HETATM   24  C21 UNL     1      -1.753  24.085 -32.309  1.00  0.00     0.027 A 
HETATM   25  C22 UNL     1      -1.650  24.469 -30.990  1.00  0.00     0.003 A 
HETATM   26  C23 UNL     1      -0.946  23.696 -30.100  1.00  0.00     0.017 A 
HETATM   27  C24 UNL     1      -0.367  22.547 -30.590  1.00  0.00     0.088 A 
HETATM   28  N5  UNL     1      -0.474  22.185 -31.875  1.00  0.00    -0.368 N 
ATOM     29  H5  UNL     1      -0.026  21.325 -32.192  1.00  0.00     0.165 HD
ENDBRANCH  22  23
ENDBRANCH  20  22
ENDBRANCH  16  18
ENDBRANCH   4  11
BRANCH   3  30
HETATM   30  C4  UNL     1       2.224  15.877 -37.580  1.00  0.00     0.260 C 
HETATM   31  O1  UNL     1       1.359  15.690 -36.637  1.00  0.00    -0.267 OA
HETATM   32  N1  UNL     1       3.361  15.054 -37.415  1.00  0.00    -0.323 N 
ATOM     33  H1  UNL     1       4.104  15.153 -38.108  1.00  0.00     0.169 HD
BRANCH  32  34
HETATM   34  C5  UNL     1       3.575  14.104 -36.383  1.00  0.00     0.035 A 
HETATM   35  C6  UNL     1       4.746  13.373 -36.383  1.00  0.00     0.032 A 
HETATM   36  C7  UNL     1       5.029  12.411 -35.437  1.00  0.00     0.034 A 
HETATM   37  C8  UNL     1       4.111  12.161 -34.449  1.00  0.00     0.059 A 
HETATM   38  N2  UNL     1       4.110  11.292 -33.402  1.00  0.00    -0.300 N 
HETATM   39  C10 UNL     1       2.938  12.880 -34.431  1.00  0.00     0.011 A 
HETATM   40  N3  UNL     1       2.971  11.463 -32.752  1.00  0.00    -0.311 N 
ATOM     41  H2  UNL     1       4.850  10.631 -33.163  1.00  0.00     0.187 HD
HETATM   42  C9  UNL     1       2.234  12.415 -33.343  1.00  0.00     0.120 A 
ATOM     43  H3  UNL     1       2.693  10.945 -31.919  1.00  0.00     0.186 HD
HETATM   44  C11 UNL     1       2.668  13.860 -35.409  1.00  0.00     0.044 A 
ENDBRANCH  32  34
ENDBRANCH   3  30
TORSDOF 6
ENDMDL
