MODEL 1
REMARK VINA RESULT: -8.233418337      0.000      0.000
REMARK  11 active torsions:
REMARK  status: ('A' for Active; 'I' for Inactive)
REMARK    1  A    between atoms: N1_1  and  C1_4 
REMARK    2  A    between atoms: N2_7  and  C4_8 
REMARK    3  A    between atoms: C5_10  and  C6_11 
REMARK    4  A    between atoms: C6_11  and  O2_12 
REMARK    5  A    between atoms: O2_12  and  P1_13 
REMARK    6  A    between atoms: P1_13  and  O5_16 
REMARK    7  A    between atoms: O5_16  and  P2_17 
REMARK    8  A    between atoms: P2_17  and  O8_20 
REMARK    9  A    between atoms: O8_20  and  P3_21 
REMARK   10  A    between atoms: C7_25  and  O12_26 
REMARK   11  A    between atoms: C8_28  and  O13_29 
ROOT
HETATM    1  C4  UNL     1      25.001  34.899 -20.064  1.00  0.00     0.263 C 
HETATM    2  O1  UNL     1      24.188  34.576 -21.169  1.00  0.00    -0.353 OA
HETATM    3  C5  UNL     1      23.150  35.454 -21.005  1.00  0.00     0.180 C 
HETATM    4  C7  UNL     1      23.848  36.786 -20.837  1.00  0.00     0.182 C 
HETATM    5  C8  UNL     1      25.124  36.412 -20.136  1.00  0.00     0.198 C 
ENDROOT
BRANCH   3   6
HETATM    6  C6  UNL     1      22.214  35.509 -22.194  1.00  0.00     0.216 C 
BRANCH   6   7
HETATM    7  O2  UNL     1      21.773  34.254 -22.409  1.00  0.00    -0.287 OA
BRANCH   7   8
HETATM    8  P1  UNL     1      20.277  33.811 -21.888  1.00  0.00     0.417 P 
HETATM    9  O3  UNL     1      20.149  33.124 -20.346  1.00  0.00    -0.624 OA
HETATM   10  O4  UNL     1      20.396  32.407 -22.462  1.00  0.00    -0.624 OA
BRANCH   8  11
HETATM   11  O5  UNL     1      18.915  34.202 -22.676  1.00  0.00    -0.180 OA
BRANCH  11  12
HETATM   12  P2  UNL     1      17.971  35.409 -22.094  1.00  0.00     0.428 P 
HETATM   13  O6  UNL     1      17.763  36.778 -22.939  1.00  0.00    -0.624 OA
HETATM   14  O7  UNL     1      17.073  35.172 -20.680  1.00  0.00    -0.624 OA
BRANCH  12  15
HETATM   15  O8  UNL     1      19.082  35.976 -21.226  1.00  0.00    -0.173 OA
BRANCH  15  16
HETATM   16  P3  UNL     1      19.210  37.529 -20.752  1.00  0.00     0.431 P 
HETATM   17  O9  UNL     1      18.071  38.246 -19.810  1.00  0.00    -0.616 OA
HETATM   18  O10 UNL     1      20.129  37.194 -19.593  1.00  0.00    -0.616 OA
HETATM   19  O11 UNL     1      20.387  38.548 -21.405  1.00  0.00    -0.616 OA
ENDBRANCH  15  16
ENDBRANCH  12  15
ENDBRANCH  11  12
ENDBRANCH   8  11
ENDBRANCH   7   8
ENDBRANCH   6   7
ENDBRANCH   3   6
BRANCH   4  20
HETATM   20  O12 UNL     1      23.082  37.676 -20.081  1.00  0.00    -0.390 OA
ATOM     21  H12 UNL     1      23.268  38.579 -20.310  1.00  0.00     0.210 HD
ENDBRANCH   4  20
BRANCH   1  22
HETATM   22  N2  UNL     1      26.267  34.244 -20.094  1.00  0.00    -0.280 N 
HETATM   23  C3  UNL     1      26.765  33.783 -21.253  1.00  0.00     0.102 A 
HETATM   24  C2  UNL     1      28.006  33.134 -21.304  1.00  0.00     0.065 A 
HETATM   25  C1  UNL     1      28.732  32.965 -20.143  1.00  0.00     0.103 A 
HETATM   26  N3  UNL     1      28.200  33.440 -19.003  1.00  0.00    -0.295 N 
HETATM   27  C9  UNL     1      26.991  34.066 -18.983  1.00  0.00     0.330 A 
ATOM     28  H3  UNL     1      28.715  33.328 -18.130  1.00  0.00     0.172 HD
HETATM   29  O14 UNL     1      26.563  34.479 -17.892  1.00  0.00    -0.246 OA
BRANCH  25  30
HETATM   30  N1  UNL     1      29.895  32.365 -20.144  1.00  0.00    -0.385 N 
ATOM     31  H12 UNL     1      30.426  32.253 -21.007  1.00  0.00     0.157 HD
ATOM     32  H11 UNL     1      30.305  31.994 -19.287  1.00  0.00     0.157 HD
ENDBRANCH  25  30
ENDBRANCH   1  22
BRANCH   5  33
HETATM   33  O13 UNL     1      25.202  36.992 -18.885  1.00  0.00    -0.388 OA
ATOM     34  H13 UNL     1      24.594  37.715 -18.784  1.00  0.00     0.210 HD
ENDBRANCH   5  33
TORSDOF 11
ENDMDL
