MODEL 3
REMARK VINA RESULT: -8.119307645      1.309      3.108
REMARK  11 active torsions:
REMARK  status: ('A' for Active; 'I' for Inactive)
REMARK    1  A    between atoms: N1_1  and  C1_4 
REMARK    2  A    between atoms: N2_7  and  C4_8 
REMARK    3  A    between atoms: C5_10  and  C6_11 
REMARK    4  A    between atoms: C6_11  and  O2_12 
REMARK    5  A    between atoms: O2_12  and  P1_13 
REMARK    6  A    between atoms: P1_13  and  O5_16 
REMARK    7  A    between atoms: O5_16  and  P2_17 
REMARK    8  A    between atoms: P2_17  and  O8_20 
REMARK    9  A    between atoms: O8_20  and  P3_21 
REMARK   10  A    between atoms: C7_25  and  O12_26 
REMARK   11  A    between atoms: C8_28  and  O13_29 
ROOT
HETATM    1  C4  UNL     1      25.020  35.422 -20.670  1.00  0.00     0.263 C 
HETATM    2  O1  UNL     1      24.622  35.961 -21.910  1.00  0.00    -0.353 OA
HETATM    3  C5  UNL     1      23.601  36.789 -21.527  1.00  0.00     0.180 C 
HETATM    4  C7  UNL     1      24.218  37.608 -20.415  1.00  0.00     0.182 C 
HETATM    5  C8  UNL     1      25.180  36.643 -19.780  1.00  0.00     0.198 C 
ENDROOT
BRANCH   3   6
HETATM    6  C6  UNL     1      23.120  37.702 -22.635  1.00  0.00     0.216 C 
BRANCH   6   7
HETATM    7  O2  UNL     1      22.035  37.123 -23.184  1.00  0.00    -0.287 OA
BRANCH   7   8
HETATM    8  P1  UNL     1      20.544  37.410 -22.552  1.00  0.00     0.417 P 
HETATM    9  O3  UNL     1      19.588  38.596 -23.291  1.00  0.00    -0.624 OA
HETATM   10  O4  UNL     1      21.058  38.475 -21.595  1.00  0.00    -0.624 OA
BRANCH   8  11
HETATM   11  O5  UNL     1      19.869  36.470 -21.416  1.00  0.00    -0.180 OA
BRANCH  11  12
HETATM   12  P2  UNL     1      18.725  35.382 -21.852  1.00  0.00     0.428 P 
HETATM   13  O6  UNL     1      17.354  35.233 -20.998  1.00  0.00    -0.624 OA
HETATM   14  O7  UNL     1      18.892  34.513 -23.295  1.00  0.00    -0.624 OA
BRANCH  12  15
HETATM   15  O8  UNL     1      19.426  34.233 -21.146  1.00  0.00    -0.173 OA
BRANCH  15  16
HETATM   16  P3  UNL     1      20.623  33.327 -21.779  1.00  0.00     0.431 P 
HETATM   17  O9  UNL     1      22.084  33.968 -22.169  1.00  0.00    -0.616 OA
HETATM   18  O10 UNL     1      21.075  32.816 -20.424  1.00  0.00    -0.616 OA
HETATM   19  O11 UNL     1      20.342  31.743 -22.295  1.00  0.00    -0.616 OA
ENDBRANCH  15  16
ENDBRANCH  12  15
ENDBRANCH  11  12
ENDBRANCH   8  11
ENDBRANCH   7   8
ENDBRANCH   6   7
ENDBRANCH   3   6
BRANCH   4  20
HETATM   20  O12 UNL     1      23.254  38.054 -19.509  1.00  0.00    -0.390 OA
ATOM     21  H12 UNL     1      22.717  38.744 -19.882  1.00  0.00     0.210 HD
ENDBRANCH   4  20
BRANCH   1  22
HETATM   22  N2  UNL     1      26.214  34.648 -20.756  1.00  0.00    -0.280 N 
HETATM   23  C3  UNL     1      27.084  34.852 -21.760  1.00  0.00     0.102 A 
HETATM   24  C2  UNL     1      28.261  34.100 -21.865  1.00  0.00     0.065 A 
HETATM   25  C1  UNL     1      28.535  33.132 -20.922  1.00  0.00     0.103 A 
HETATM   26  N3  UNL     1      27.640  32.957 -19.933  1.00  0.00    -0.295 N 
HETATM   27  C9  UNL     1      26.504  33.702 -19.856  1.00  0.00     0.330 A 
ATOM     28  H3  UNL     1      27.818  32.247 -19.222  1.00  0.00     0.172 HD
HETATM   29  O14 UNL     1      25.723  33.484 -18.914  1.00  0.00    -0.246 OA
BRANCH  25  30
HETATM   30  N1  UNL     1      29.623  32.406 -20.980  1.00  0.00    -0.385 N 
ATOM     31  H12 UNL     1      29.857  31.880 -21.822  1.00  0.00     0.157 HD
ATOM     32  H11 UNL     1      30.267  32.343 -20.192  1.00  0.00     0.157 HD
ENDBRANCH  25  30
ENDBRANCH   1  22
BRANCH   5  33
HETATM   33  O13 UNL     1      24.839  36.383 -18.467  1.00  0.00    -0.388 OA
ATOM     34  H13 UNL     1      23.936  36.609 -18.277  1.00  0.00     0.210 HD
ENDBRANCH   5  33
TORSDOF 11
ENDMDL
