MODEL 2
REMARK VINA RESULT: -8.137466620      1.387      3.234
REMARK  11 active torsions:
REMARK  status: ('A' for Active; 'I' for Inactive)
REMARK    1  A    between atoms: N1_1  and  C1_4 
REMARK    2  A    between atoms: N2_7  and  C4_8 
REMARK    3  A    between atoms: C5_10  and  C6_11 
REMARK    4  A    between atoms: C6_11  and  O2_12 
REMARK    5  A    between atoms: O2_12  and  P1_13 
REMARK    6  A    between atoms: P1_13  and  O5_16 
REMARK    7  A    between atoms: O5_16  and  P2_17 
REMARK    8  A    between atoms: P2_17  and  O8_20 
REMARK    9  A    between atoms: O8_20  and  P3_21 
REMARK   10  A    between atoms: C7_25  and  O12_26 
REMARK   11  A    between atoms: C8_28  and  O13_29 
ROOT
HETATM    1  C4  UNL     1      25.996  36.280 -20.575  1.00  0.00     0.263 C 
HETATM    2  O1  UNL     1      24.673  35.999 -20.177  1.00  0.00    -0.353 OA
HETATM    3  C5  UNL     1      24.059  37.198 -20.420  1.00  0.00     0.180 C 
HETATM    4  C7  UNL     1      24.458  37.508 -21.846  1.00  0.00     0.182 C 
HETATM    5  C8  UNL     1      25.833  36.909 -21.948  1.00  0.00     0.198 C 
ENDROOT
BRANCH   3   6
HETATM    6  C6  UNL     1      22.550  37.134 -20.309  1.00  0.00     0.216 C 
BRANCH   6   7
HETATM    7  O2  UNL     1      22.048  37.514 -21.500  1.00  0.00    -0.287 OA
BRANCH   7   8
HETATM    8  P1  UNL     1      20.443  37.330 -21.809  1.00  0.00     0.417 P 
HETATM    9  O3  UNL     1      19.842  37.958 -23.262  1.00  0.00    -0.624 OA
HETATM   10  O4  UNL     1      20.072  38.642 -21.134  1.00  0.00    -0.624 OA
BRANCH   8  11
HETATM   11  O5  UNL     1      19.471  36.394 -20.911  1.00  0.00    -0.180 OA
BRANCH  11  12
HETATM   12  P2  UNL     1      18.541  35.264 -21.648  1.00  0.00     0.428 P 
HETATM   13  O6  UNL     1      17.123  34.810 -21.005  1.00  0.00    -0.624 OA
HETATM   14  O7  UNL     1      18.977  34.676 -23.174  1.00  0.00    -0.624 OA
BRANCH  12  15
HETATM   15  O8  UNL     1      19.318  34.106 -21.043  1.00  0.00    -0.173 OA
BRANCH  15  16
HETATM   16  P3  UNL     1      20.571  33.340 -21.750  1.00  0.00     0.431 P 
HETATM   17  O9  UNL     1      21.958  34.127 -22.145  1.00  0.00    -0.616 OA
HETATM   18  O10 UNL     1      21.106  32.810 -20.433  1.00  0.00    -0.616 OA
HETATM   19  O11 UNL     1      20.415  31.764 -22.334  1.00  0.00    -0.616 OA
ENDBRANCH  15  16
ENDBRANCH  12  15
ENDBRANCH  11  12
ENDBRANCH   8  11
ENDBRANCH   7   8
ENDBRANCH   6   7
ENDBRANCH   3   6
BRANCH   4  20
HETATM   20  O12 UNL     1      24.470  38.882 -22.090  1.00  0.00    -0.390 OA
ATOM     21  H12 UNL     1      24.790  39.080 -22.962  1.00  0.00     0.210 HD
ENDBRANCH   4  20
BRANCH   1  22
HETATM   22  N2  UNL     1      26.829  35.124 -20.597  1.00  0.00    -0.280 N 
HETATM   23  C3  UNL     1      27.075  34.486 -21.754  1.00  0.00     0.102 A 
HETATM   24  C2  UNL     1      27.889  33.347 -21.797  1.00  0.00     0.065 A 
HETATM   25  C1  UNL     1      28.450  32.868 -20.631  1.00  0.00     0.103 A 
HETATM   26  N3  UNL     1      28.180  33.533 -19.494  1.00  0.00    -0.295 N 
HETATM   27  C9  UNL     1      27.385  34.638 -19.481  1.00  0.00     0.330 A 
ATOM     28  H3  UNL     1      28.581  33.200 -18.617  1.00  0.00     0.172 HD
HETATM   29  O14 UNL     1      27.179  35.200 -18.392  1.00  0.00    -0.246 OA
BRANCH  25  30
HETATM   30  N1  UNL     1      29.216  31.807 -20.624  1.00  0.00    -0.385 N 
ATOM     31  H12 UNL     1      29.157  31.113 -21.369  1.00  0.00     0.157 HD
ATOM     32  H11 UNL     1      29.893  31.642 -19.880  1.00  0.00     0.157 HD
ENDBRANCH  25  30
ENDBRANCH   1  22
BRANCH   5  33
HETATM   33  O13 UNL     1      26.787  37.876 -22.199  1.00  0.00    -0.388 OA
ATOM     34  H13 UNL     1      26.723  38.610 -21.598  1.00  0.00     0.210 HD
ENDBRANCH   5  33
TORSDOF 11
ENDMDL
