MODEL 2
REMARK VINA RESULT: -8.987202762      3.470      9.120
REMARK  6 active torsions:
REMARK  status: ('A' for Active; 'I' for Inactive)
REMARK    1  A    between atoms: N1_2  and  C2_4 
REMARK    2  A    between atoms: C4_10  and  C5_11 
REMARK    3  A    between atoms: C9_15  and  C10_16 
REMARK    4  A    between atoms: C10_16  and  N4_17 
REMARK       I    between atoms: N4_17  and  C11_19 
REMARK    5  A    between atoms: C11_19  and  C12_21 
REMARK    6  A    between atoms: C12_21  and  O2_22 
ROOT
HETATM    1  C2  UNL     1       6.129   5.608   5.153  1.00  0.00     0.132 A 
HETATM    2  N2  UNL     1       6.876   5.170   4.120  1.00  0.00    -0.326 N 
ATOM      3  H2  UNL     1       6.845   5.683   3.239  1.00  0.00     0.169 HD
HETATM    4  C3  UNL     1       7.658   4.082   4.211  1.00  0.00     0.120 A 
HETATM    5  N3  UNL     1       8.449   3.519   3.293  1.00  0.00    -0.340 N 
ATOM      6  H3  UNL     1       8.568   3.870   2.342  1.00  0.00     0.167 HD
HETATM    7  C4  UNL     1       9.068   2.431   3.783  1.00  0.00     0.061 A 
HETATM    8  C14 UNL     1       8.644   2.298   5.088  1.00  0.00     0.049 A 
HETATM    9  C15 UNL     1       7.763   3.319   5.370  1.00  0.00     0.040 A 
HETATM   10  C16 UNL     1       7.011   3.741   6.444  1.00  0.00     0.080 A 
HETATM   11  C17 UNL     1       6.212   4.865   6.323  1.00  0.00     0.105 A 
HETATM   12  N6  UNL     1       5.619   5.017   7.504  1.00  0.00    -0.347 N 
ATOM     13  H6  UNL     1       4.962   5.758   7.746  1.00  0.00     0.167 HD
HETATM   14  C18 UNL     1       6.030   4.023   8.336  1.00  0.00     0.183 A 
HETATM   15  N7  UNL     1       6.895   3.228   7.678  1.00  0.00    -0.345 N 
HETATM   16  C19 UNL     1       7.564   2.059   8.200  1.00  0.00     0.157 C 
ENDROOT
BRANCH   7  17
HETATM   17  C5  UNL     1      10.009   1.547   3.064  1.00  0.00     0.059 A 
HETATM   18  C6  UNL     1      11.240   2.080   2.695  1.00  0.00     0.032 A 
HETATM   19  C7  UNL     1      12.169   1.332   2.014  1.00  0.00     0.004 A 
HETATM   20  C8  UNL     1      11.816   0.009   1.712  1.00  0.00     0.027 A 
HETATM   21  C9  UNL     1      10.609  -0.501   2.077  1.00  0.00     0.027 A 
HETATM   22  N5  UNL     1       9.709   0.293   2.760  1.00  0.00    -0.356 N 
ATOM     23  H5  UNL     1       8.804  -0.090   3.035  1.00  0.00     0.166 HD
BRANCH  21  24
HETATM   24  C10 UNL     1      10.197  -1.898   1.767  1.00  0.00     0.179 C 
BRANCH  24  25
HETATM   25  N4  UNL     1       9.468  -2.575   2.781  1.00  0.00    -0.354 N 
HETATM   26  C11 UNL     1       9.105  -3.954   2.788  1.00  0.00     0.241 C 
HETATM   27  O1  UNL     1       9.441  -4.643   1.799  1.00  0.00    -0.271 OA
ATOM     28  H4  UNL     1       9.174  -2.019   3.584  1.00  0.00     0.162 HD
BRANCH  26  29
HETATM   29  C12 UNL     1       8.360  -4.552   3.917  1.00  0.00     0.269 C 
BRANCH  29  30
HETATM   30  O2  UNL     1       7.270  -3.822   4.269  1.00  0.00    -0.387 OA
HETATM   31  C13 UNL     1       6.197  -4.539   4.750  1.00  0.00     0.202 C 
ENDBRANCH  29  30
ENDBRANCH  26  29
ENDBRANCH  24  25
ENDBRANCH  21  24
ENDBRANCH   7  17
BRANCH   1  32
HETATM   32  N1  UNL     1       5.301   6.755   5.054  1.00  0.00    -0.379 N 
HETATM   33  C1  UNL     1       4.593   6.996   3.826  1.00  0.00     0.147 C 
ATOM     34  H1  UNL     1       5.210   7.398   5.840  1.00  0.00     0.160 HD
ENDBRANCH   1  32
TORSDOF 6
ENDMDL
