MODEL 1
REMARK VINA RESULT: -9.013788334      0.000      0.000
REMARK  6 active torsions:
REMARK  status: ('A' for Active; 'I' for Inactive)
REMARK    1  A    between atoms: N1_2  and  C2_4 
REMARK    2  A    between atoms: C4_10  and  C5_11 
REMARK    3  A    between atoms: C9_15  and  C10_16 
REMARK    4  A    between atoms: C10_16  and  N4_17 
REMARK       I    between atoms: N4_17  and  C11_19 
REMARK    5  A    between atoms: C11_19  and  C12_21 
REMARK    6  A    between atoms: C12_21  and  O2_22 
ROOT
HETATM    1  C2  UNL     1      13.175  -3.271  -0.720  1.00  0.00     0.132 A 
HETATM    2  N2  UNL     1      13.111  -1.967  -0.387  1.00  0.00    -0.326 N 
ATOM      3  H2  UNL     1      13.785  -1.321  -0.797  1.00  0.00     0.169 HD
HETATM    4  C3  UNL     1      12.190  -1.489   0.467  1.00  0.00     0.120 A 
HETATM    5  N3  UNL     1      11.993  -0.242   0.901  1.00  0.00    -0.340 N 
ATOM      6  H3  UNL     1      12.555   0.562   0.617  1.00  0.00     0.167 HD
HETATM    7  C4  UNL     1      10.960  -0.180   1.759  1.00  0.00     0.061 A 
HETATM    8  C14 UNL     1      10.475  -1.465   1.875  1.00  0.00     0.049 A 
HETATM    9  C15 UNL     1      11.232  -2.294   1.076  1.00  0.00     0.040 A 
HETATM   10  C16 UNL     1      11.272  -3.634   0.755  1.00  0.00     0.080 A 
HETATM   11  C17 UNL     1      12.231  -4.100  -0.128  1.00  0.00     0.105 A 
HETATM   12  N6  UNL     1      12.019  -5.408  -0.235  1.00  0.00    -0.347 N 
ATOM     13  H6  UNL     1      12.560  -6.050  -0.814  1.00  0.00     0.167 HD
HETATM   14  C18 UNL     1      10.965  -5.752   0.552  1.00  0.00     0.183 A 
HETATM   15  N7  UNL     1      10.499  -4.649   1.169  1.00  0.00    -0.345 N 
HETATM   16  C19 UNL     1       9.389  -4.576   2.091  1.00  0.00     0.157 C 
ENDROOT
BRANCH   7  17
HETATM   17  C5  UNL     1      10.451   1.024   2.449  1.00  0.00     0.059 A 
HETATM   18  C6  UNL     1      11.170   2.205   2.300  1.00  0.00     0.032 A 
HETATM   19  C7  UNL     1      10.773   3.367   2.915  1.00  0.00     0.004 A 
HETATM   20  C8  UNL     1       9.611   3.303   3.697  1.00  0.00     0.027 A 
HETATM   21  C9  UNL     1       8.916   2.142   3.836  1.00  0.00     0.027 A 
HETATM   22  N5  UNL     1       9.357   1.000   3.196  1.00  0.00    -0.356 N 
ATOM     23  H5  UNL     1       8.835   0.130   3.300  1.00  0.00     0.166 HD
BRANCH  21  24
HETATM   24  C10 UNL     1       7.683   2.035   4.664  1.00  0.00     0.179 C 
BRANCH  24  25
HETATM   25  N4  UNL     1       7.700   2.730   5.903  1.00  0.00    -0.354 N 
HETATM   26  C11 UNL     1       6.908   2.434   7.052  1.00  0.00     0.241 C 
HETATM   27  O1  UNL     1       6.102   1.482   6.966  1.00  0.00    -0.271 OA
ATOM     28  H4  UNL     1       8.341   3.519   5.979  1.00  0.00     0.162 HD
BRANCH  26  29
HETATM   29  C12 UNL     1       7.031   3.219   8.299  1.00  0.00     0.269 C 
BRANCH  29  30
HETATM   30  O2  UNL     1       6.759   4.538   8.115  1.00  0.00    -0.387 OA
HETATM   31  C13 UNL     1       5.436   4.852   7.898  1.00  0.00     0.202 C 
ENDBRANCH  29  30
ENDBRANCH  26  29
ENDBRANCH  24  25
ENDBRANCH  21  24
ENDBRANCH   7  17
BRANCH   1  32
HETATM   32  N1  UNL     1      14.149  -3.774  -1.620  1.00  0.00    -0.379 N 
HETATM   33  C1  UNL     1      13.899  -3.683  -3.034  1.00  0.00     0.147 C 
ATOM     34  H1  UNL     1      15.011  -4.192  -1.272  1.00  0.00     0.160 HD
ENDBRANCH   1  32
TORSDOF 6
ENDMDL
