MODEL 3
REMARK VINA RESULT: -8.956017213      1.467      1.604
REMARK  6 active torsions:
REMARK  status: ('A' for Active; 'I' for Inactive)
REMARK    1  A    between atoms: N1_2  and  C2_4 
REMARK    2  A    between atoms: C4_10  and  C5_11 
REMARK    3  A    between atoms: C9_15  and  C10_16 
REMARK    4  A    between atoms: C10_16  and  N4_17 
REMARK       I    between atoms: N4_17  and  C11_19 
REMARK    5  A    between atoms: C11_19  and  C12_21 
REMARK    6  A    between atoms: C12_21  and  O2_22 
ROOT
HETATM    1  C2  UNL     1      13.217  -3.346  -0.813  1.00  0.00     0.132 A 
HETATM    2  N2  UNL     1      13.170  -2.051  -0.443  1.00  0.00    -0.326 N 
ATOM      3  H2  UNL     1      13.845  -1.400  -0.844  1.00  0.00     0.169 HD
HETATM    4  C3  UNL     1      12.265  -1.587   0.434  1.00  0.00     0.120 A 
HETATM    5  N3  UNL     1      12.086  -0.350   0.904  1.00  0.00    -0.340 N 
ATOM      6  H3  UNL     1      12.652   0.456   0.635  1.00  0.00     0.167 HD
HETATM    7  C4  UNL     1      11.064  -0.301   1.776  1.00  0.00     0.061 A 
HETATM    8  C14 UNL     1      10.567  -1.584   1.864  1.00  0.00     0.049 A 
HETATM    9  C15 UNL     1      11.306  -2.399   1.034  1.00  0.00     0.040 A 
HETATM   10  C16 UNL     1      11.328  -3.729   0.676  1.00  0.00     0.080 A 
HETATM   11  C17 UNL     1      12.272  -4.181  -0.230  1.00  0.00     0.105 A 
HETATM   12  N6  UNL     1      12.046  -5.484  -0.370  1.00  0.00    -0.347 N 
ATOM     13  H6  UNL     1      12.573  -6.115  -0.973  1.00  0.00     0.167 HD
HETATM   14  C18 UNL     1      10.997  -5.838   0.420  1.00  0.00     0.183 A 
HETATM   15  N7  UNL     1      10.550  -4.748   1.072  1.00  0.00    -0.345 N 
HETATM   16  C19 UNL     1       9.453  -4.689   2.010  1.00  0.00     0.157 C 
ENDROOT
BRANCH   7  17
HETATM   17  C5  UNL     1      10.575   0.889   2.504  1.00  0.00     0.059 A 
HETATM   18  C6  UNL     1      11.382   2.022   2.503  1.00  0.00     0.032 A 
HETATM   19  C7  UNL     1      11.009   3.167   3.164  1.00  0.00     0.004 A 
HETATM   20  C8  UNL     1       9.779   3.136   3.836  1.00  0.00     0.027 A 
HETATM   21  C9  UNL     1       8.999   2.022   3.830  1.00  0.00     0.027 A 
HETATM   22  N5  UNL     1       9.419   0.896   3.151  1.00  0.00    -0.356 N 
ATOM     23  H5  UNL     1       8.833   0.061   3.147  1.00  0.00     0.166 HD
BRANCH  21  24
HETATM   24  C10 UNL     1       7.691   1.951   4.539  1.00  0.00     0.179 C 
BRANCH  24  25
HETATM   25  N4  UNL     1       6.871   3.109   4.457  1.00  0.00    -0.354 N 
HETATM   26  C11 UNL     1       6.653   4.069   5.489  1.00  0.00     0.241 C 
HETATM   27  O1  UNL     1       7.220   3.872   6.587  1.00  0.00    -0.271 OA
ATOM     28  H4  UNL     1       6.391   3.270   3.572  1.00  0.00     0.162 HD
BRANCH  26  29
HETATM   29  C12 UNL     1       5.792   5.252   5.276  1.00  0.00     0.269 C 
BRANCH  29  30
HETATM   30  O2  UNL     1       4.819   5.030   4.353  1.00  0.00    -0.387 OA
HETATM   31  C13 UNL     1       4.886   5.802   3.215  1.00  0.00     0.202 C 
ENDBRANCH  29  30
ENDBRANCH  26  29
ENDBRANCH  24  25
ENDBRANCH  21  24
ENDBRANCH   7  17
BRANCH   1  32
HETATM   32  N1  UNL     1      14.175  -3.834  -1.738  1.00  0.00    -0.379 N 
HETATM   33  C1  UNL     1      13.910  -3.701  -3.145  1.00  0.00     0.147 C 
ATOM     34  H1  UNL     1      15.036  -4.271  -1.411  1.00  0.00     0.160 HD
ENDBRANCH   1  32
TORSDOF 6
ENDMDL
