MODEL 8
REMARK VINA RESULT: -4.504154002      1.563      2.302
REMARK  6 active torsions:
REMARK  status: ('A' for Active; 'I' for Inactive)
REMARK    1  A    between atoms: O1_1  and  C1_3 
REMARK    2  A    between atoms: C1_3  and  C2_4 
REMARK    3  A    between atoms: C3_6  and  O3_7 
REMARK    4  A    between atoms: C4_9  and  O4_10 
REMARK    5  A    between atoms: C5_12  and  O5_13 
REMARK    6  A    between atoms: C6_15  and  O6_16 
ROOT
HETATM    1  C2  UNL     1     -21.023 -39.107  25.796  1.00  0.00     0.179 C 
HETATM    2  O2  UNL     1     -21.870 -40.124  25.661  1.00  0.00    -0.349 OA
HETATM    3  C3  UNL     1     -23.186 -39.965  25.562  1.00  0.00     0.288 C 
HETATM    4  C4  UNL     1     -23.727 -38.634  25.206  1.00  0.00     0.204 C 
HETATM    5  C5  UNL     1     -22.638 -37.842  24.503  1.00  0.00     0.183 C 
HETATM    6  C6  UNL     1     -21.530 -37.731  25.550  1.00  0.00     0.180 C 
ENDROOT
BRANCH   1   7
HETATM    7  C1  UNL     1     -20.408 -39.177  27.204  1.00  0.00     0.198 C 
BRANCH   7   8
HETATM    8  O1  UNL     1     -19.340 -38.261  27.285  1.00  0.00    -0.398 OA
ATOM      9  H1  UNL     1     -19.556 -37.589  27.922  1.00  0.00     0.209 HD
ENDBRANCH   7   8
ENDBRANCH   1   7
BRANCH   6  10
HETATM   10  O6  UNL     1     -20.527 -36.873  25.154  1.00  0.00    -0.390 OA
ATOM     11  H6  UNL     1     -20.866 -36.026  24.889  1.00  0.00     0.210 HD
ENDBRANCH   6  10
BRANCH   3  12
HETATM   12  O3  UNL     1     -23.695 -40.899  24.628  1.00  0.00    -0.369 OA
ATOM     13  H3  UNL     1     -24.340 -40.469  24.079  1.00  0.00     0.212 HD
ENDBRANCH   3  12
BRANCH   5  14
HETATM   14  O5  UNL     1     -23.062 -36.615  24.059  1.00  0.00    -0.390 OA
ATOM     15  H5  UNL     1     -22.866 -36.460  23.143  1.00  0.00     0.210 HD
ENDBRANCH   5  14
BRANCH   4  16
HETATM   16  O4  UNL     1     -23.988 -37.932  26.406  1.00  0.00    -0.388 OA
ATOM     17  H4  UNL     1     -24.844 -37.525  26.329  1.00  0.00     0.210 HD
ENDBRANCH   4  16
TORSDOF 6
ENDMDL
