MODEL 13
REMARK VINA RESULT: -4.304461611      1.526      3.132
REMARK  6 active torsions:
REMARK  status: ('A' for Active; 'I' for Inactive)
REMARK    1  A    between atoms: O1_1  and  C1_3 
REMARK    2  A    between atoms: C1_3  and  C2_4 
REMARK    3  A    between atoms: C3_6  and  O3_7 
REMARK    4  A    between atoms: C4_9  and  O4_10 
REMARK    5  A    between atoms: C5_12  and  O5_13 
REMARK    6  A    between atoms: C6_15  and  O6_16 
ROOT
HETATM    1  C2  UNL     1     -20.398 -38.446  25.673  1.00  0.00     0.179 C 
HETATM    2  O2  UNL     1     -19.869 -39.184  24.700  1.00  0.00    -0.349 OA
HETATM    3  C3  UNL     1     -20.601 -39.889  23.843  1.00  0.00     0.288 C 
HETATM    4  C4  UNL     1     -22.039 -39.575  23.693  1.00  0.00     0.204 C 
HETATM    5  C5  UNL     1     -22.274 -38.149  24.164  1.00  0.00     0.183 C 
HETATM    6  C6  UNL     1     -21.860 -38.176  25.635  1.00  0.00     0.180 C 
ENDROOT
BRANCH   1   7
HETATM    7  C1  UNL     1     -20.036 -39.094  27.019  1.00  0.00     0.198 C 
BRANCH   7   8
HETATM    8  O1  UNL     1     -19.616 -38.091  27.915  1.00  0.00    -0.398 OA
ATOM      9  H1  UNL     1     -19.681 -38.422  28.803  1.00  0.00     0.209 HD
ENDBRANCH   7   8
ENDBRANCH   1   7
BRANCH   6  10
HETATM   10  O6  UNL     1     -22.186 -37.005  26.286  1.00  0.00    -0.390 OA
ATOM     11  H6  UNL     1     -21.902 -37.010  27.193  1.00  0.00     0.210 HD
ENDBRANCH   6  10
BRANCH   3  12
HETATM   12  O3  UNL     1     -20.009 -39.815  22.560  1.00  0.00    -0.369 OA
ATOM     13  H3  UNL     1     -20.112 -38.934  22.221  1.00  0.00     0.212 HD
ENDBRANCH   3  12
BRANCH   5  14
HETATM   14  O5  UNL     1     -23.568 -37.730  23.993  1.00  0.00    -0.390 OA
ATOM     15  H5  UNL     1     -24.121 -37.905  24.745  1.00  0.00     0.210 HD
ENDBRANCH   5  14
BRANCH   4  16
HETATM   16  O4  UNL     1     -22.763 -40.392  24.593  1.00  0.00    -0.388 OA
ATOM     17  H4  UNL     1     -23.017 -39.858  25.336  1.00  0.00     0.210 HD
ENDBRANCH   4  16
TORSDOF 6
ENDMDL
