MODEL 9
REMARK VINA RESULT: -8.194592606      2.311      3.131
REMARK  7 active torsions:
REMARK  status: ('A' for Active; 'I' for Inactive)
REMARK    1  A    between atoms: O1_2  and  C2_3 
REMARK    2  A    between atoms: C2_3  and  C3_4 
REMARK    3  A    between atoms: C3_4  and  O2_5 
REMARK    4  A    between atoms: O2_5  and  C4_6 
REMARK    5  A    between atoms: C8_12  and  C9_13 
REMARK    6  A    between atoms: N2_15  and  C11_16 
REMARK    7  A    between atoms: C14_19  and  O3_20 
ROOT
HETATM    1  C4  UNL     1      -9.869   0.676  -7.041  1.00  0.00     0.069 A 
HETATM    2  C5  UNL     1     -10.952  -0.013  -7.543  1.00  0.00     0.039 A 
HETATM    3  C6  UNL     1     -11.963  -0.487  -6.730  1.00  0.00     0.033 A 
HETATM    4  C7  UNL     1     -11.918  -0.283  -5.368  1.00  0.00     0.043 A 
HETATM    5  N1  UNL     1     -12.931  -0.762  -4.585  1.00  0.00    -0.354 N 
ATOM      6  H1  UNL     1     -13.707  -1.264  -5.017  1.00  0.00     0.166 HD
HETATM    7  C8  UNL     1     -12.918  -0.580  -3.257  1.00  0.00     0.062 A 
HETATM    8  C17 UNL     1     -11.853   0.100  -2.727  1.00  0.00     0.033 A 
HETATM    9  C18 UNL     1     -10.816   0.599  -3.472  1.00  0.00     0.016 A 
HETATM   10  C19 UNL     1     -10.841   0.402  -4.859  1.00  0.00    -0.007 A 
HETATM   11  C20 UNL     1      -9.828   0.882  -5.649  1.00  0.00     0.050 A 
ENDROOT
BRANCH   7  12
HETATM   12  C9  UNL     1     -13.992  -1.084  -2.391  1.00  0.00     0.090 A 
HETATM   13  C10 UNL     1     -13.945  -1.205  -1.024  1.00  0.00     0.147 A 
HETATM   14  N2  UNL     1     -15.124  -1.704  -0.604  1.00  0.00    -0.249 N 
HETATM   15  N3  UNL     1     -15.892  -1.891  -1.682  1.00  0.00    -0.015 NA
HETATM   16  N4  UNL     1     -15.207  -1.515  -2.773  1.00  0.00    -0.280 N 
ATOM     17  H4  UNL     1     -15.551  -1.551  -3.733  1.00  0.00     0.184 HD
BRANCH  14  18
HETATM   18  C11 UNL     1     -15.546  -2.003   0.725  1.00  0.00     0.054 A 
HETATM   19  C12 UNL     1     -16.891  -1.954   1.004  1.00  0.00     0.034 A 
HETATM   20  C13 UNL     1     -17.334  -2.238   2.284  1.00  0.00     0.039 A 
HETATM   21  C14 UNL     1     -16.413  -2.567   3.261  1.00  0.00     0.065 A 
HETATM   22  C15 UNL     1     -15.063  -2.617   2.984  1.00  0.00     0.039 A 
HETATM   23  C16 UNL     1     -14.622  -2.336   1.720  1.00  0.00     0.034 A 
BRANCH  21  24
HETATM   24  O3  UNL     1     -16.852  -2.857   4.564  1.00  0.00    -0.361 OA
ATOM     25  H3  UNL     1     -16.999  -2.149   5.180  1.00  0.00     0.217 HD
ENDBRANCH  21  24
ENDBRANCH  14  18
ENDBRANCH   7  12
BRANCH   1  26
HETATM   26  O2  UNL     1      -8.829   1.186  -7.744  1.00  0.00    -0.349 OA
BRANCH  26  27
HETATM   27  C3  UNL     1      -8.861   1.822  -8.955  1.00  0.00     0.201 C 
BRANCH  27  28
HETATM   28  C2  UNL     1      -9.589   3.121  -9.050  1.00  0.00     0.193 C 
BRANCH  28  29
HETATM   29  O1  UNL     1     -10.664   3.017  -9.898  1.00  0.00    -0.394 OA
HETATM   30  C1  UNL     1     -10.589   1.953 -10.751  1.00  0.00     0.201 C 
ENDBRANCH  28  29
ENDBRANCH  27  28
ENDBRANCH  26  27
ENDBRANCH   1  26
TORSDOF 7
ENDMDL
