MODEL 8
REMARK VINA RESULT: -8.269391275      1.679      2.283
REMARK  7 active torsions:
REMARK  status: ('A' for Active; 'I' for Inactive)
REMARK    1  A    between atoms: O1_2  and  C2_3 
REMARK    2  A    between atoms: C2_3  and  C3_4 
REMARK    3  A    between atoms: C3_4  and  O2_5 
REMARK    4  A    between atoms: O2_5  and  C4_6 
REMARK    5  A    between atoms: C8_12  and  C9_13 
REMARK    6  A    between atoms: N2_15  and  C11_16 
REMARK    7  A    between atoms: C14_19  and  O3_20 
ROOT
HETATM    1  C4  UNL     1      -9.933   0.763  -7.014  1.00  0.00     0.069 A 
HETATM    2  C5  UNL     1     -11.002   0.052  -7.515  1.00  0.00     0.039 A 
HETATM    3  C6  UNL     1     -11.999  -0.448  -6.702  1.00  0.00     0.033 A 
HETATM    4  C7  UNL     1     -11.955  -0.251  -5.339  1.00  0.00     0.043 A 
HETATM    5  N1  UNL     1     -12.955  -0.757  -4.556  1.00  0.00    -0.354 N 
ATOM      6  H1  UNL     1     -13.720  -1.274  -4.989  1.00  0.00     0.166 HD
HETATM    7  C8  UNL     1     -12.942  -0.582  -3.228  1.00  0.00     0.062 A 
HETATM    8  C17 UNL     1     -11.892   0.120  -2.697  1.00  0.00     0.033 A 
HETATM    9  C18 UNL     1     -10.868   0.646  -3.442  1.00  0.00     0.016 A 
HETATM   10  C19 UNL     1     -10.893   0.456  -4.830  1.00  0.00    -0.007 A 
HETATM   11  C20 UNL     1      -9.893   0.962  -5.620  1.00  0.00     0.050 A 
ENDROOT
BRANCH   7  12
HETATM   12  C9  UNL     1     -14.002  -1.114  -2.361  1.00  0.00     0.090 A 
HETATM   13  C10 UNL     1     -13.965  -1.201  -0.991  1.00  0.00     0.147 A 
HETATM   14  N2  UNL     1     -15.125  -1.744  -0.571  1.00  0.00    -0.249 N 
HETATM   15  N3  UNL     1     -15.870  -1.992  -1.653  1.00  0.00    -0.015 NA
HETATM   16  N4  UNL     1     -15.191  -1.611  -2.746  1.00  0.00    -0.280 N 
ATOM     17  H4  UNL     1     -15.521  -1.685  -3.708  1.00  0.00     0.184 HD
BRANCH  14  18
HETATM   18  C11 UNL     1     -15.548  -2.031   0.759  1.00  0.00     0.054 A 
HETATM   19  C12 UNL     1     -16.895  -1.999   1.031  1.00  0.00     0.034 A 
HETATM   20  C13 UNL     1     -17.340  -2.272   2.313  1.00  0.00     0.039 A 
HETATM   21  C14 UNL     1     -16.418  -2.572   3.299  1.00  0.00     0.065 A 
HETATM   22  C15 UNL     1     -15.067  -2.604   3.030  1.00  0.00     0.039 A 
HETATM   23  C16 UNL     1     -14.624  -2.334   1.763  1.00  0.00     0.034 A 
BRANCH  21  24
HETATM   24  O3  UNL     1     -16.859  -2.851   4.604  1.00  0.00    -0.361 OA
ATOM     25  H3  UNL     1     -16.573  -3.645   5.038  1.00  0.00     0.217 HD
ENDBRANCH  21  24
ENDBRANCH  14  18
ENDBRANCH   7  12
BRANCH   1  26
HETATM   26  O2  UNL     1      -8.907   1.300  -7.716  1.00  0.00    -0.349 OA
BRANCH  26  27
HETATM   27  C3  UNL     1      -8.741   2.602  -8.103  1.00  0.00     0.201 C 
BRANCH  27  28
HETATM   28  C2  UNL     1      -7.742   3.434  -7.368  1.00  0.00     0.193 C 
BRANCH  28  29
HETATM   29  O1  UNL     1      -8.330   4.076  -6.307  1.00  0.00    -0.394 OA
HETATM   30  C1  UNL     1      -9.536   4.641  -6.607  1.00  0.00     0.201 C 
ENDBRANCH  28  29
ENDBRANCH  27  28
ENDBRANCH  26  27
ENDBRANCH   1  26
TORSDOF 7
ENDMDL
