MODEL 5
REMARK VINA RESULT: -8.538845133      1.752      2.076
REMARK  7 active torsions:
REMARK  status: ('A' for Active; 'I' for Inactive)
REMARK    1  A    between atoms: O1_2  and  C2_3 
REMARK    2  A    between atoms: C2_3  and  C3_4 
REMARK    3  A    between atoms: C3_4  and  O2_5 
REMARK    4  A    between atoms: O2_5  and  C4_6 
REMARK    5  A    between atoms: C8_12  and  C9_13 
REMARK    6  A    between atoms: N2_15  and  C11_16 
REMARK    7  A    between atoms: C14_19  and  O3_20 
ROOT
HETATM    1  C4  UNL     1      -9.815   0.767  -6.971  1.00  0.00     0.069 A 
HETATM    2  C5  UNL     1     -10.882   0.064  -7.489  1.00  0.00     0.039 A 
HETATM    3  C6  UNL     1     -11.897  -0.426  -6.692  1.00  0.00     0.033 A 
HETATM    4  C7  UNL     1     -11.874  -0.224  -5.329  1.00  0.00     0.043 A 
HETATM    5  N1  UNL     1     -12.892  -0.719  -4.562  1.00  0.00    -0.354 N 
ATOM      6  H1  UNL     1     -13.654  -1.231  -5.006  1.00  0.00     0.166 HD
HETATM    7  C8  UNL     1     -12.901  -0.540  -3.234  1.00  0.00     0.062 A 
HETATM    8  C17 UNL     1     -11.854   0.154  -2.688  1.00  0.00     0.033 A 
HETATM    9  C18 UNL     1     -10.814   0.669  -3.416  1.00  0.00     0.016 A 
HETATM   10  C19 UNL     1     -10.815   0.476  -4.803  1.00  0.00    -0.007 A 
HETATM   11  C20 UNL     1      -9.798   0.971  -5.578  1.00  0.00     0.050 A 
ENDROOT
BRANCH   7  12
HETATM   12  C9  UNL     1     -13.980  -1.061  -2.385  1.00  0.00     0.090 A 
HETATM   13  C10 UNL     1     -13.964  -1.153  -1.014  1.00  0.00     0.147 A 
HETATM   14  N2  UNL     1     -15.137  -1.681  -0.613  1.00  0.00    -0.249 N 
HETATM   15  N3  UNL     1     -15.870  -1.915  -1.706  1.00  0.00    -0.015 NA
HETATM   16  N4  UNL     1     -15.171  -1.539  -2.788  1.00  0.00    -0.280 N 
ATOM     17  H4  UNL     1     -15.488  -1.605  -3.755  1.00  0.00     0.184 HD
BRANCH  14  18
HETATM   18  C11 UNL     1     -15.583  -1.967   0.710  1.00  0.00     0.054 A 
HETATM   19  C12 UNL     1     -14.640  -2.296   1.655  1.00  0.00     0.034 A 
HETATM   20  C13 UNL     1     -15.040  -2.579   2.949  1.00  0.00     0.039 A 
HETATM   21  C14 UNL     1     -16.384  -2.525   3.269  1.00  0.00     0.065 A 
HETATM   22  C15 UNL     1     -17.332  -2.195   2.324  1.00  0.00     0.039 A 
HETATM   23  C16 UNL     1     -16.939  -1.916   1.043  1.00  0.00     0.034 A 
BRANCH  21  24
HETATM   24  O3  UNL     1     -16.800  -2.810   4.581  1.00  0.00    -0.361 OA
ATOM     25  H3  UNL     1     -17.593  -2.413   4.920  1.00  0.00     0.217 HD
ENDBRANCH  21  24
ENDBRANCH  14  18
ENDBRANCH   7  12
BRANCH   1  26
HETATM   26  O2  UNL     1      -8.773   1.293  -7.658  1.00  0.00    -0.349 OA
BRANCH  26  27
HETATM   27  C3  UNL     1      -7.439   1.044  -7.485  1.00  0.00     0.201 C 
BRANCH  27  28
HETATM   28  C2  UNL     1      -6.548   2.187  -7.130  1.00  0.00     0.193 C 
BRANCH  28  29
HETATM   29  O1  UNL     1      -6.582   2.430  -5.779  1.00  0.00    -0.394 OA
HETATM   30  C1  UNL     1      -7.175   3.615  -5.450  1.00  0.00     0.201 C 
ENDBRANCH  28  29
ENDBRANCH  27  28
ENDBRANCH  26  27
ENDBRANCH   1  26
TORSDOF 7
ENDMDL
