MODEL 4
REMARK VINA RESULT: -8.662913736      2.365      2.702
REMARK  7 active torsions:
REMARK  status: ('A' for Active; 'I' for Inactive)
REMARK    1  A    between atoms: O1_2  and  C2_3 
REMARK    2  A    between atoms: C2_3  and  C3_4 
REMARK    3  A    between atoms: C3_4  and  O2_5 
REMARK    4  A    between atoms: O2_5  and  C4_6 
REMARK    5  A    between atoms: C8_12  and  C9_13 
REMARK    6  A    between atoms: N2_15  and  C11_16 
REMARK    7  A    between atoms: C14_19  and  O3_20 
ROOT
HETATM    1  C4  UNL     1      -9.828   0.733  -6.984  1.00  0.00     0.069 A 
HETATM    2  C5  UNL     1     -10.894   0.026  -7.498  1.00  0.00     0.039 A 
HETATM    3  C6  UNL     1     -11.911  -0.455  -6.698  1.00  0.00     0.033 A 
HETATM    4  C7  UNL     1     -11.891  -0.241  -5.337  1.00  0.00     0.043 A 
HETATM    5  N1  UNL     1     -12.911  -0.727  -4.567  1.00  0.00    -0.354 N 
ATOM      6  H1  UNL     1     -13.673  -1.242  -5.008  1.00  0.00     0.166 HD
HETATM    7  C8  UNL     1     -12.922  -0.535  -3.241  1.00  0.00     0.062 A 
HETATM    8  C17 UNL     1     -11.875   0.162  -2.699  1.00  0.00     0.033 A 
HETATM    9  C18 UNL     1     -10.832   0.669  -3.430  1.00  0.00     0.016 A 
HETATM   10  C19 UNL     1     -10.832   0.463  -4.815  1.00  0.00    -0.007 A 
HETATM   11  C20 UNL     1      -9.812   0.949  -5.593  1.00  0.00     0.050 A 
ENDROOT
BRANCH   7  12
HETATM   12  C9  UNL     1     -14.004  -1.047  -2.388  1.00  0.00     0.090 A 
HETATM   13  C10 UNL     1     -13.970  -1.176  -1.021  1.00  0.00     0.147 A 
HETATM   14  N2  UNL     1     -15.152  -1.681  -0.616  1.00  0.00    -0.249 N 
HETATM   15  N3  UNL     1     -15.908  -1.863  -1.703  1.00  0.00    -0.015 NA
HETATM   16  N4  UNL     1     -15.213  -1.479  -2.785  1.00  0.00    -0.280 N 
ATOM     17  H4  UNL     1     -15.547  -1.510  -3.749  1.00  0.00     0.184 HD
BRANCH  14  18
HETATM   18  C11 UNL     1     -15.586  -1.988   0.706  1.00  0.00     0.054 A 
HETATM   19  C12 UNL     1     -14.634  -2.321   1.640  1.00  0.00     0.034 A 
HETATM   20  C13 UNL     1     -15.022  -2.625   2.933  1.00  0.00     0.039 A 
HETATM   21  C14 UNL     1     -16.365  -2.588   3.263  1.00  0.00     0.065 A 
HETATM   22  C15 UNL     1     -17.322  -2.255   2.329  1.00  0.00     0.039 A 
HETATM   23  C16 UNL     1     -16.941  -1.955   1.049  1.00  0.00     0.034 A 
BRANCH  21  24
HETATM   24  O3  UNL     1     -16.770  -2.896   4.573  1.00  0.00    -0.361 OA
ATOM     25  H3  UNL     1     -17.611  -3.311   4.721  1.00  0.00     0.217 HD
ENDBRANCH  21  24
ENDBRANCH  14  18
ENDBRANCH   7  12
BRANCH   1  26
HETATM   26  O2  UNL     1      -8.783   1.251  -7.674  1.00  0.00    -0.349 OA
BRANCH  26  27
HETATM   27  C3  UNL     1      -7.469   0.875  -7.621  1.00  0.00     0.201 C 
BRANCH  27  28
HETATM   28  C2  UNL     1      -7.145  -0.576  -7.753  1.00  0.00     0.193 C 
BRANCH  28  29
HETATM   29  O1  UNL     1      -5.910  -0.850  -7.218  1.00  0.00    -0.394 OA
HETATM   30  C1  UNL     1      -5.232   0.261  -6.806  1.00  0.00     0.201 C 
ENDBRANCH  28  29
ENDBRANCH  27  28
ENDBRANCH  26  27
ENDBRANCH   1  26
TORSDOF 7
ENDMDL
