MODEL 2
REMARK VINA RESULT: -8.702584700      2.634      3.156
REMARK  7 active torsions:
REMARK  status: ('A' for Active; 'I' for Inactive)
REMARK    1  A    between atoms: O1_2  and  C2_3 
REMARK    2  A    between atoms: C2_3  and  C3_4 
REMARK    3  A    between atoms: C3_4  and  O2_5 
REMARK    4  A    between atoms: O2_5  and  C4_6 
REMARK    5  A    between atoms: C8_12  and  C9_13 
REMARK    6  A    between atoms: N2_15  and  C11_16 
REMARK    7  A    between atoms: C14_19  and  O3_20 
ROOT
HETATM    1  C4  UNL     1      -9.889   0.673  -7.023  1.00  0.00     0.069 A 
HETATM    2  C5  UNL     1     -10.959  -0.042  -7.519  1.00  0.00     0.039 A 
HETATM    3  C6  UNL     1     -11.964  -0.520  -6.704  1.00  0.00     0.033 A 
HETATM    4  C7  UNL     1     -11.929  -0.296  -5.345  1.00  0.00     0.043 A 
HETATM    5  N1  UNL     1     -12.938  -0.781  -4.559  1.00  0.00    -0.354 N 
ATOM      6  H1  UNL     1     -13.703  -1.302  -4.987  1.00  0.00     0.166 HD
HETATM    7  C8  UNL     1     -12.935  -0.579  -3.234  1.00  0.00     0.062 A 
HETATM    8  C17 UNL     1     -11.884   0.127  -2.710  1.00  0.00     0.033 A 
HETATM    9  C18 UNL     1     -10.852   0.633  -3.458  1.00  0.00     0.016 A 
HETATM   10  C19 UNL     1     -10.867   0.415  -4.841  1.00  0.00    -0.007 A 
HETATM   11  C20 UNL     1      -9.858   0.900  -5.634  1.00  0.00     0.050 A 
ENDROOT
BRANCH   7  12
HETATM   12  C9  UNL     1     -14.004  -1.088  -2.366  1.00  0.00     0.090 A 
HETATM   13  C10 UNL     1     -13.953  -1.208  -0.998  1.00  0.00     0.147 A 
HETATM   14  N2  UNL     1     -15.128  -1.713  -0.575  1.00  0.00    -0.249 N 
HETATM   15  N3  UNL     1     -15.897  -1.906  -1.652  1.00  0.00    -0.015 NA
HETATM   16  N4  UNL     1     -15.217  -1.527  -2.745  1.00  0.00    -0.280 N 
ATOM     17  H4  UNL     1     -15.562  -1.566  -3.704  1.00  0.00     0.184 HD
BRANCH  14  18
HETATM   18  C11 UNL     1     -15.546  -2.013   0.754  1.00  0.00     0.054 A 
HETATM   19  C12 UNL     1     -16.891  -1.978   1.034  1.00  0.00     0.034 A 
HETATM   20  C13 UNL     1     -17.330  -2.264   2.315  1.00  0.00     0.039 A 
HETATM   21  C14 UNL     1     -16.404  -2.580   3.293  1.00  0.00     0.065 A 
HETATM   22  C15 UNL     1     -15.055  -2.615   3.015  1.00  0.00     0.039 A 
HETATM   23  C16 UNL     1     -14.618  -2.333   1.749  1.00  0.00     0.034 A 
BRANCH  21  24
HETATM   24  O3  UNL     1     -16.840  -2.871   4.597  1.00  0.00    -0.361 OA
ATOM     25  H3  UNL     1     -16.219  -3.192   5.240  1.00  0.00     0.217 HD
ENDBRANCH  21  24
ENDBRANCH  14  18
ENDBRANCH   7  12
BRANCH   1  26
HETATM   26  O2  UNL     1      -8.855   1.190  -7.729  1.00  0.00    -0.349 OA
BRANCH  26  27
HETATM   27  C3  UNL     1      -7.847   0.516  -8.364  1.00  0.00     0.201 C 
BRANCH  27  28
HETATM   28  C2  UNL     1      -6.755  -0.067  -7.531  1.00  0.00     0.193 C 
BRANCH  28  29
HETATM   29  O1  UNL     1      -6.666  -1.423  -7.725  1.00  0.00    -0.394 OA
HETATM   30  C1  UNL     1      -6.641  -1.788  -9.041  1.00  0.00     0.201 C 
ENDBRANCH  28  29
ENDBRANCH  27  28
ENDBRANCH  26  27
ENDBRANCH   1  26
TORSDOF 7
ENDMDL
