MODEL 6
REMARK VINA RESULT: -7.987631770      6.041      8.495
REMARK  10 active torsions:
REMARK  status: ('A' for Active; 'I' for Inactive)
REMARK    1  A    between atoms: N5_13  and  C6_14 
REMARK    2  A    between atoms: C7_16  and  C8_17 
REMARK    3  A    between atoms: C8_17  and  O2_18 
REMARK    4  A    between atoms: O2_18  and  P1_19 
REMARK    5  A    between atoms: P1_19  and  O5_22 
REMARK    6  A    between atoms: O5_22  and  P2_23 
REMARK    7  A    between atoms: P2_23  and  O8_26 
REMARK    8  A    between atoms: O8_26  and  P3_27 
REMARK    9  A    between atoms: C9_31  and  O12_32 
REMARK   10  A    between atoms: C10_34  and  O13_35 
ROOT
HETATM    1  C6  UNL     1      36.683  59.472  16.212  1.00  0.00     0.159 C 
HETATM    2  O1  UNL     1      36.118  60.566  16.890  1.00  0.00    -0.326 OA
HETATM    3  C7  UNL     1      37.192  61.238  17.305  1.00  0.00     0.186 C 
HETATM    4  C9  UNL     1      38.502  60.671  16.742  1.00  0.00     0.186 C 
HETATM    5  C10 UNL     1      37.839  60.052  15.478  1.00  0.00     0.224 C 
ENDROOT
BRANCH   3   6
HETATM    6  C8  UNL     1      37.366  62.703  17.288  1.00  0.00     0.216 C 
BRANCH   6   7
HETATM    7  O2  UNL     1      38.266  63.073  18.318  1.00  0.00    -0.287 OA
BRANCH   7   8
HETATM    8  P1  UNL     1      37.156  63.494  19.597  1.00  0.00     0.417 P 
HETATM    9  O3  UNL     1      37.164  62.460  20.603  1.00  0.00    -0.624 OA
HETATM   10  O4  UNL     1      37.935  64.970  20.210  1.00  0.00    -0.624 OA
BRANCH   8  11
HETATM   11  O5  UNL     1      35.678  64.004  19.007  1.00  0.00    -0.180 OA
BRANCH  11  12
HETATM   12  P2  UNL     1      34.487  63.740  20.245  1.00  0.00     0.428 P 
HETATM   13  O6  UNL     1      35.044  64.360  21.492  1.00  0.00    -0.624 OA
HETATM   14  O7  UNL     1      34.109  62.133  20.445  1.00  0.00    -0.624 OA
BRANCH  12  15
HETATM   15  O8  UNL     1      33.107  64.635  19.771  1.00  0.00    -0.173 OA
BRANCH  15  16
HETATM   16  P3  UNL     1      32.200  63.734  18.687  1.00  0.00     0.431 P 
HETATM   17  O9  UNL     1      33.035  62.937  17.747  1.00  0.00    -0.616 OA
HETATM   18  O10 UNL     1      31.231  62.673  19.597  1.00  0.00    -0.616 OA
HETATM   19  O11 UNL     1      31.226  64.822  17.822  1.00  0.00    -0.616 OA
ENDBRANCH  15  16
ENDBRANCH  12  15
ENDBRANCH  11  12
ENDBRANCH   8  11
ENDBRANCH   7   8
ENDBRANCH   6   7
ENDBRANCH   3   6
BRANCH   4  20
HETATM   20  O12 UNL     1      38.948  59.699  17.580  1.00  0.00    -0.390 OA
ATOM     21  H12 UNL     1      39.878  59.574  17.431  1.00  0.00     0.210 HD
ENDBRANCH   4  20
BRANCH   1  22
HETATM   22  N5  UNL     1      35.839  58.555  15.621  1.00  0.00    -0.273 N 
HETATM   23  C3  UNL     1      35.995  57.221  15.598  1.00  0.00     0.146 A 
HETATM   24  N3  UNL     1      37.031  56.477  15.952  1.00  0.00    -0.336 N 
HETATM   25  C4  UNL     1      34.879  56.615  15.125  1.00  0.00     0.120 A 
HETATM   26  C2  UNL     1      36.959  55.140  15.837  1.00  0.00     0.183 A 
ATOM     27  H3  UNL     1      37.880  56.916  16.308  1.00  0.00     0.168 HD
HETATM   28  N2  UNL     1      35.856  54.519  15.381  1.00  0.00    -0.339 N 
HETATM   29  C1  UNL     1      34.803  55.250  15.018  1.00  0.00     0.148 A 
ATOM     30  H2  UNL     1      35.827  53.501  15.312  1.00  0.00     0.167 HD
HETATM   31  N1  UNL     1      33.603  54.586  14.677  1.00  0.00    -0.080 NA
HETATM   32  N4  UNL     1      34.016  57.606  14.830  1.00  0.00    -0.346 N 
HETATM   33  C5  UNL     1      34.605  58.779  15.129  1.00  0.00     0.192 A 
ATOM     34  H4  UNL     1      33.078  57.489  14.447  1.00  0.00     0.167 HD
ENDBRANCH   1  22
BRANCH   5  35
HETATM   35  O13 UNL     1      38.813  59.158  15.055  1.00  0.00    -0.385 OA
ATOM     36  H13 UNL     1      38.523  58.452  14.489  1.00  0.00     0.210 HD
ENDBRANCH   5  35
TORSDOF 10
ENDMDL
