MODEL 1
REMARK VINA RESULT: -8.329349556      0.000      0.000
REMARK  10 active torsions:
REMARK  status: ('A' for Active; 'I' for Inactive)
REMARK    1  A    between atoms: N5_13  and  C6_14 
REMARK    2  A    between atoms: C7_16  and  C8_17 
REMARK    3  A    between atoms: C8_17  and  O2_18 
REMARK    4  A    between atoms: O2_18  and  P1_19 
REMARK    5  A    between atoms: P1_19  and  O5_22 
REMARK    6  A    between atoms: O5_22  and  P2_23 
REMARK    7  A    between atoms: P2_23  and  O8_26 
REMARK    8  A    between atoms: O8_26  and  P3_27 
REMARK    9  A    between atoms: C9_31  and  O12_32 
REMARK   10  A    between atoms: C10_34  and  O13_35 
ROOT
HETATM    1  C6  UNL     1      39.530  65.222  18.274  1.00  0.00     0.159 C 
HETATM    2  O1  UNL     1      38.312  65.626  18.846  1.00  0.00    -0.326 OA
HETATM    3  C7  UNL     1      37.538  64.553  18.673  1.00  0.00     0.186 C 
HETATM    4  C9  UNL     1      38.311  63.345  18.127  1.00  0.00     0.186 C 
HETATM    5  C10 UNL     1      39.684  63.806  18.698  1.00  0.00     0.224 C 
ENDROOT
BRANCH   3   6
HETATM    6  C8  UNL     1      36.588  63.995  19.653  1.00  0.00     0.216 C 
BRANCH   6   7
HETATM    7  O2  UNL     1      35.521  63.371  18.959  1.00  0.00    -0.287 OA
BRANCH   7   8
HETATM    8  P1  UNL     1      34.235  63.508  20.132  1.00  0.00     0.417 P 
HETATM    9  O3  UNL     1      33.828  62.191  20.557  1.00  0.00    -0.624 OA
HETATM   10  O4  UNL     1      35.096  64.350  21.439  1.00  0.00    -0.624 OA
BRANCH   8  11
HETATM   11  O5  UNL     1      33.048  64.578  19.643  1.00  0.00    -0.180 OA
BRANCH  11  12
HETATM   12  P2  UNL     1      31.920  63.709  18.647  1.00  0.00     0.428 P 
HETATM   13  O6  UNL     1      31.143  62.828  19.579  1.00  0.00    -0.624 OA
HETATM   14  O7  UNL     1      32.660  62.854  17.428  1.00  0.00    -0.624 OA
BRANCH  12  15
HETATM   15  O8  UNL     1      30.853  64.884  18.006  1.00  0.00    -0.173 OA
BRANCH  15  16
HETATM   16  P3  UNL     1      29.317  64.647  18.632  1.00  0.00     0.431 P 
HETATM   17  O9  UNL     1      28.841  63.242  18.498  1.00  0.00    -0.616 OA
HETATM   18  O10 UNL     1      29.374  65.052  20.282  1.00  0.00    -0.616 OA
HETATM   19  O11 UNL     1      28.270  65.697  17.806  1.00  0.00    -0.616 OA
ENDBRANCH  15  16
ENDBRANCH  12  15
ENDBRANCH  11  12
ENDBRANCH   8  11
ENDBRANCH   7   8
ENDBRANCH   6   7
ENDBRANCH   3   6
BRANCH   4  20
HETATM   20  O12 UNL     1      38.307  63.405  16.770  1.00  0.00    -0.390 OA
ATOM     21  H12 UNL     1      38.761  62.643  16.432  1.00  0.00     0.210 HD
ENDBRANCH   4  20
BRANCH   1  22
HETATM   22  N5  UNL     1      40.592  66.102  18.295  1.00  0.00    -0.273 N 
HETATM   23  C3  UNL     1      40.906  66.955  19.283  1.00  0.00     0.146 A 
HETATM   24  N3  UNL     1      40.221  67.300  20.362  1.00  0.00    -0.336 N 
HETATM   25  C4  UNL     1      42.124  67.511  19.070  1.00  0.00     0.120 A 
HETATM   26  C2  UNL     1      40.743  68.189  21.224  1.00  0.00     0.183 A 
ATOM     27  H3  UNL     1      39.302  66.894  20.538  1.00  0.00     0.168 HD
HETATM   28  N2  UNL     1      41.955  68.743  21.036  1.00  0.00    -0.339 N 
HETATM   29  C1  UNL     1      42.659  68.410  19.956  1.00  0.00     0.148 A 
ATOM     30  H2  UNL     1      42.329  69.410  21.711  1.00  0.00     0.167 HD
HETATM   31  N1  UNL     1      43.985  68.884  19.839  1.00  0.00    -0.080 NA
HETATM   32  N4  UNL     1      42.566  66.997  17.905  1.00  0.00    -0.346 N 
HETATM   33  C5  UNL     1      41.631  66.148  17.439  1.00  0.00     0.192 A 
ATOM     34  H4  UNL     1      43.454  67.214  17.455  1.00  0.00     0.167 HD
ENDBRANCH   1  22
BRANCH   5  35
HETATM   35  O13 UNL     1      40.571  63.032  17.961  1.00  0.00    -0.385 OA
ATOM     36  H13 UNL     1      40.271  62.166  17.713  1.00  0.00     0.210 HD
ENDBRANCH   5  35
TORSDOF 10
ENDMDL
