MODEL 2
REMARK VINA RESULT: -8.143398769      1.584      2.535
REMARK  10 active torsions:
REMARK  status: ('A' for Active; 'I' for Inactive)
REMARK    1  A    between atoms: N5_13  and  C6_14 
REMARK    2  A    between atoms: C7_16  and  C8_17 
REMARK    3  A    between atoms: C8_17  and  O2_18 
REMARK    4  A    between atoms: O2_18  and  P1_19 
REMARK    5  A    between atoms: P1_19  and  O5_22 
REMARK    6  A    between atoms: O5_22  and  P2_23 
REMARK    7  A    between atoms: P2_23  and  O8_26 
REMARK    8  A    between atoms: O8_26  and  P3_27 
REMARK    9  A    between atoms: C9_31  and  O12_32 
REMARK   10  A    between atoms: C10_34  and  O13_35 
ROOT
HETATM    1  C6  UNL     1      40.658  64.594  16.732  1.00  0.00     0.159 C 
HETATM    2  O1  UNL     1      39.338  65.007  16.982  1.00  0.00    -0.326 OA
HETATM    3  C7  UNL     1      38.623  63.954  16.586  1.00  0.00     0.186 C 
HETATM    4  C9  UNL     1      39.495  62.745  16.225  1.00  0.00     0.186 C 
HETATM    5  C10 UNL     1      40.680  63.165  17.143  1.00  0.00     0.224 C 
ENDROOT
BRANCH   3   6
HETATM    6  C8  UNL     1      37.445  63.391  17.273  1.00  0.00     0.216 C 
BRANCH   6   7
HETATM    7  O2  UNL     1      37.879  62.624  18.383  1.00  0.00    -0.287 OA
BRANCH   7   8
HETATM    8  P1  UNL     1      37.015  63.402  19.684  1.00  0.00     0.417 P 
HETATM    9  O3  UNL     1      36.931  62.505  20.811  1.00  0.00    -0.624 OA
HETATM   10  O4  UNL     1      38.124  64.746  20.034  1.00  0.00    -0.624 OA
BRANCH   8  11
HETATM   11  O5  UNL     1      35.608  64.134  19.158  1.00  0.00    -0.180 OA
BRANCH  11  12
HETATM   12  P2  UNL     1      34.369  63.823  20.336  1.00  0.00     0.428 P 
HETATM   13  O6  UNL     1      34.861  64.422  21.620  1.00  0.00    -0.624 OA
HETATM   14  O7  UNL     1      34.009  62.206  20.482  1.00  0.00    -0.624 OA
BRANCH  12  15
HETATM   15  O8  UNL     1      32.996  64.708  19.823  1.00  0.00    -0.173 OA
BRANCH  15  16
HETATM   16  P3  UNL     1      32.154  63.819  18.677  1.00  0.00     0.431 P 
HETATM   17  O9  UNL     1      33.042  63.166  17.676  1.00  0.00    -0.616 OA
HETATM   18  O10 UNL     1      31.284  62.618  19.507  1.00  0.00    -0.616 OA
HETATM   19  O11 UNL     1      31.086  64.886  17.900  1.00  0.00    -0.616 OA
ENDBRANCH  15  16
ENDBRANCH  12  15
ENDBRANCH  11  12
ENDBRANCH   8  11
ENDBRANCH   7   8
ENDBRANCH   6   7
ENDBRANCH   3   6
BRANCH   4  20
HETATM   20  O12 UNL     1      39.842  62.837  14.915  1.00  0.00    -0.390 OA
ATOM     21  H12 UNL     1      39.547  62.053  14.468  1.00  0.00     0.210 HD
ENDBRANCH   4  20
BRANCH   1  22
HETATM   22  N5  UNL     1      41.690  65.452  17.051  1.00  0.00    -0.273 N 
HETATM   23  C3  UNL     1      41.736  66.297  18.094  1.00  0.00     0.146 A 
HETATM   24  N3  UNL     1      40.787  66.654  18.945  1.00  0.00    -0.336 N 
HETATM   25  C4  UNL     1      42.975  66.829  18.227  1.00  0.00     0.120 A 
HETATM   26  C2  UNL     1      41.068  67.531  19.924  1.00  0.00     0.183 A 
ATOM     27  H3  UNL     1      39.847  66.266  18.859  1.00  0.00     0.168 HD
HETATM   28  N2  UNL     1      42.295  68.062  20.080  1.00  0.00    -0.339 N 
HETATM   29  C1  UNL     1      43.263  67.717  19.232  1.00  0.00     0.148 A 
ATOM     30  H2  UNL     1      42.481  68.719  20.837  1.00  0.00     0.167 HD
HETATM   31  N1  UNL     1      44.578  68.164  19.488  1.00  0.00    -0.080 NA
HETATM   32  N4  UNL     1      43.711  66.310  17.225  1.00  0.00    -0.346 N 
HETATM   33  C5  UNL     1      42.924  65.480  16.514  1.00  0.00     0.192 A 
ATOM     34  H4  UNL     1      44.693  66.510  17.037  1.00  0.00     0.167 HD
ENDBRANCH   1  22
BRANCH   5  35
HETATM   35  O13 UNL     1      41.717  62.393  16.639  1.00  0.00    -0.385 OA
ATOM     36  H13 UNL     1      41.980  62.570  15.743  1.00  0.00     0.210 HD
ENDBRANCH   5  35
TORSDOF 10
ENDMDL
