MODEL 14
REMARK VINA RESULT: -7.724649507      3.568      5.506
REMARK  10 active torsions:
REMARK  status: ('A' for Active; 'I' for Inactive)
REMARK    1  A    between atoms: N5_13  and  C6_14 
REMARK    2  A    between atoms: C7_16  and  C8_17 
REMARK    3  A    between atoms: C8_17  and  O2_18 
REMARK    4  A    between atoms: O2_18  and  P1_19 
REMARK    5  A    between atoms: P1_19  and  O5_22 
REMARK    6  A    between atoms: O5_22  and  P2_23 
REMARK    7  A    between atoms: P2_23  and  O8_26 
REMARK    8  A    between atoms: O8_26  and  P3_27 
REMARK    9  A    between atoms: C9_31  and  O12_32 
REMARK   10  A    between atoms: C10_34  and  O13_35 
ROOT
HETATM    1  C6  UNL     1      40.898  63.423  17.023  1.00  0.00     0.159 C 
HETATM    2  O1  UNL     1      40.543  63.592  18.372  1.00  0.00    -0.326 OA
HETATM    3  C7  UNL     1      40.153  64.867  18.414  1.00  0.00     0.186 C 
HETATM    4  C9  UNL     1      40.084  65.512  17.024  1.00  0.00     0.186 C 
HETATM    5  C10 UNL     1      39.854  64.169  16.273  1.00  0.00     0.224 C 
ENDROOT
BRANCH   3   6
HETATM    6  C8  UNL     1      38.991  65.400  19.148  1.00  0.00     0.216 C 
BRANCH   6   7
HETATM    7  O2  UNL     1      38.677  64.525  20.218  1.00  0.00    -0.287 OA
BRANCH   7   8
HETATM    8  P1  UNL     1      37.223  63.770  19.616  1.00  0.00     0.417 P 
HETATM    9  O3  UNL     1      36.963  64.227  18.272  1.00  0.00    -0.624 OA
HETATM   10  O4  UNL     1      37.736  62.069  19.611  1.00  0.00    -0.624 OA
BRANCH   8  11
HETATM   11  O5  UNL     1      35.973  63.837  20.723  1.00  0.00    -0.180 OA
BRANCH  11  12
HETATM   12  P2  UNL     1      34.582  63.080  20.007  1.00  0.00     0.428 P 
HETATM   13  O6  UNL     1      33.955  62.259  21.094  1.00  0.00    -0.624 OA
HETATM   14  O7  UNL     1      34.958  62.179  18.662  1.00  0.00    -0.624 OA
BRANCH  12  15
HETATM   15  O8  UNL     1      33.506  64.351  19.607  1.00  0.00    -0.173 OA
BRANCH  15  16
HETATM   16  P3  UNL     1      32.239  63.744  18.693  1.00  0.00     0.431 P 
HETATM   17  O9  UNL     1      32.688  62.849  17.592  1.00  0.00    -0.616 OA
HETATM   18  O10 UNL     1      31.235  62.861  19.743  1.00  0.00    -0.616 OA
HETATM   19  O11 UNL     1      31.397  65.074  18.057  1.00  0.00    -0.616 OA
ENDBRANCH  15  16
ENDBRANCH  12  15
ENDBRANCH  11  12
ENDBRANCH   8  11
ENDBRANCH   7   8
ENDBRANCH   6   7
ENDBRANCH   3   6
BRANCH   4  20
HETATM   20  O12 UNL     1      41.304  66.031  16.727  1.00  0.00    -0.390 OA
ATOM     21  H12 UNL     1      41.773  65.409  16.184  1.00  0.00     0.210 HD
ENDBRANCH   4  20
BRANCH   1  22
HETATM   22  N5  UNL     1      41.340  62.184  16.608  1.00  0.00    -0.273 N 
HETATM   23  C3  UNL     1      40.825  60.993  16.953  1.00  0.00     0.146 A 
HETATM   24  N3  UNL     1      39.927  60.687  17.877  1.00  0.00    -0.336 N 
HETATM   25  C4  UNL     1      41.360  60.001  16.200  1.00  0.00     0.120 A 
HETATM   26  C2  UNL     1      39.561  59.405  18.049  1.00  0.00     0.183 A 
ATOM     27  H3  UNL     1      39.516  61.419  18.455  1.00  0.00     0.168 HD
HETATM   28  N2  UNL     1      40.072  58.408  17.303  1.00  0.00    -0.339 N 
HETATM   29  C1  UNL     1      40.978  58.695  16.370  1.00  0.00     0.148 A 
ATOM     30  H2  UNL     1      39.769  57.445  17.451  1.00  0.00     0.167 HD
HETATM   31  N1  UNL     1      41.401  57.667  15.498  1.00  0.00    -0.080 NA
HETATM   32  N4  UNL     1      42.243  60.598  15.376  1.00  0.00    -0.346 N 
HETATM   33  C5  UNL     1      42.230  61.920  15.632  1.00  0.00     0.192 A 
ATOM     34  H4  UNL     1      42.823  60.129  14.680  1.00  0.00     0.167 HD
ENDBRANCH   1  22
BRANCH   5  35
HETATM   35  O13 UNL     1      40.165  64.519  14.965  1.00  0.00    -0.385 OA
ATOM     36  H13 UNL     1      41.019  64.252  14.647  1.00  0.00     0.210 HD
ENDBRANCH   5  35
TORSDOF 10
ENDMDL
