MODEL 7
REMARK VINA RESULT: -5.132367718      5.253      8.885
REMARK  5 active torsions:
REMARK  status: ('A' for Active; 'I' for Inactive)
REMARK    1  A    between atoms: S1_2  and  C2_3 
REMARK    2  A    between atoms: C2_3  and  C3_4 
REMARK    3  A    between atoms: N1_6  and  C5_7 
REMARK    4  A    between atoms: C5_7  and  C6_8 
REMARK    5  A    between atoms: C13_22  and  O1_23 
ROOT
HETATM    1  C6  UNL     1       7.414 -10.702  13.712  1.00  0.00     0.014 A 
HETATM    2  C7  UNL     1       6.209 -10.311  13.167  1.00  0.00     0.099 A 
HETATM    3  N2  UNL     1       5.402 -11.377  13.233  1.00  0.00    -0.361 N 
ATOM      4  H2  UNL     1       4.437 -11.386  12.902  1.00  0.00     0.165 HD
HETATM    5  C8  UNL     1       6.021 -12.440  13.792  1.00  0.00     0.101 A 
HETATM    6  C9  UNL     1       5.657 -13.732  14.084  1.00  0.00     0.146 A 
HETATM    7  N3  UNL     1       4.356 -14.200  13.785  1.00  0.00    -0.080 NA
HETATM    8  N4  UNL     1       6.525 -14.573  14.658  1.00  0.00    -0.339 N 
ATOM      9  H4  UNL     1       6.230 -15.527  14.865  1.00  0.00     0.167 HD
HETATM   10  C10 UNL     1       7.781 -14.191  14.970  1.00  0.00     0.182 A 
HETATM   11  N5  UNL     1       8.123 -12.923  14.678  1.00  0.00    -0.350 N 
ATOM     12  H5  UNL     1       9.068 -12.615  14.906  1.00  0.00     0.166 HD
HETATM   13  C11 UNL     1       7.291 -12.036  14.102  1.00  0.00     0.072 A 
ENDROOT
BRANCH   1  14
HETATM   14  C5  UNL     1       8.646  -9.958  13.898  1.00  0.00     0.315 C 
BRANCH  14  15
HETATM   15  N1  UNL     1       8.642  -8.940  14.886  1.00  0.00     0.095 N 
HETATM   16  C4  UNL     1       8.997  -9.320  16.196  1.00  0.00     0.280 C 
HETATM   17  C3  UNL     1       9.918  -8.231  16.688  1.00  0.00     0.054 C 
HETATM   18  C13 UNL     1      10.658  -7.837  15.443  1.00  0.00     0.152 C 
HETATM   19  C12 UNL     1       9.543  -7.893  14.420  1.00  0.00     0.304 C 
BRANCH  17  20
HETATM   20  C2  UNL     1       9.073  -7.062  17.132  1.00  0.00     0.082 C 
BRANCH  20  21
HETATM   21  S1  UNL     1       9.078  -6.830  18.915  1.00  0.00    -0.173 SA
HETATM   22  C1  UNL     1      10.136  -5.487  19.452  1.00  0.00     0.089 C 
ENDBRANCH  20  21
ENDBRANCH  17  20
BRANCH  18  23
HETATM   23  O1  UNL     1      11.625  -8.811  15.191  1.00  0.00    -0.393 OA
ATOM     24  H1  UNL     1      11.627  -9.419  15.922  1.00  0.00     0.210 HD
ENDBRANCH  18  23
ENDBRANCH  14  15
ENDBRANCH   1  14
TORSDOF 5
ENDMDL
