MODEL 1
REMARK VINA RESULT: -7.973120378      0.000      0.000
REMARK  5 active torsions:
REMARK  status: ('A' for Active; 'I' for Inactive)
REMARK    1  A    between atoms: S1_2  and  C2_3 
REMARK    2  A    between atoms: C2_3  and  C3_4 
REMARK    3  A    between atoms: N1_6  and  C5_7 
REMARK    4  A    between atoms: C5_7  and  C6_8 
REMARK    5  A    between atoms: C13_22  and  O1_23 
ROOT
HETATM    1  C6  UNL     1      11.958  -7.725  20.808  1.00  0.00     0.014 A 
HETATM    2  C7  UNL     1      12.060  -8.914  21.499  1.00  0.00     0.099 A 
HETATM    3  N2  UNL     1      13.357  -9.247  21.485  1.00  0.00    -0.361 N 
ATOM      4  H2  UNL     1      13.736 -10.086  21.923  1.00  0.00     0.165 HD
HETATM    5  C8  UNL     1      14.101  -8.336  20.820  1.00  0.00     0.101 A 
HETATM    6  C9  UNL     1      15.436  -8.203  20.522  1.00  0.00     0.146 A 
HETATM    7  N3  UNL     1      16.370  -9.177  20.950  1.00  0.00    -0.080 NA
HETATM    8  N4  UNL     1      15.878  -7.152  19.824  1.00  0.00    -0.339 N 
ATOM      9  H4  UNL     1      16.874  -7.077  19.616  1.00  0.00     0.167 HD
HETATM   10  C10 UNL     1      15.041  -6.188  19.387  1.00  0.00     0.182 A 
HETATM   11  N5  UNL     1      13.737  -6.331  19.686  1.00  0.00    -0.350 N 
ATOM     12  H5  UNL     1      13.089  -5.613  19.364  1.00  0.00     0.166 HD
HETATM   13  C11 UNL     1      13.238  -7.367  20.385  1.00  0.00     0.072 A 
ENDROOT
BRANCH   1  14
HETATM   14  C5  UNL     1      10.795  -6.908  20.512  1.00  0.00     0.315 C 
BRANCH  14  15
HETATM   15  N1  UNL     1      10.397  -6.820  19.153  1.00  0.00     0.095 N 
HETATM   16  C4  UNL     1       9.615  -7.878  18.648  1.00  0.00     0.280 C 
HETATM   17  C3  UNL     1       8.528  -7.214  17.837  1.00  0.00     0.054 C 
HETATM   18  C13 UNL     1       8.265  -5.954  18.609  1.00  0.00     0.152 C 
HETATM   19  C12 UNL     1       9.674  -5.563  19.004  1.00  0.00     0.304 C 
BRANCH  17  20
HETATM   20  C2  UNL     1       9.102  -6.840  16.493  1.00  0.00     0.082 C 
BRANCH  20  21
HETATM   21  S1  UNL     1       9.792  -8.247  15.610  1.00  0.00    -0.173 SA
HETATM   22  C1  UNL     1       8.647  -9.618  15.458  1.00  0.00     0.089 C 
ENDBRANCH  20  21
ENDBRANCH  17  20
BRANCH  18  23
HETATM   23  O1  UNL     1       7.499  -6.286  19.728  1.00  0.00    -0.393 OA
ATOM     24  H1  UNL     1       7.300  -5.482  20.195  1.00  0.00     0.210 HD
ENDBRANCH  18  23
ENDBRANCH  14  15
ENDBRANCH   1  14
TORSDOF 5
ENDMDL
