MODEL 2
REMARK VINA RESULT: -6.152190680      1.469      1.785
REMARK  5 active torsions:
REMARK  status: ('A' for Active; 'I' for Inactive)
REMARK    1  A    between atoms: S1_2  and  C2_3 
REMARK    2  A    between atoms: C2_3  and  C3_4 
REMARK    3  A    between atoms: N1_6  and  C5_7 
REMARK    4  A    between atoms: C5_7  and  C6_8 
REMARK    5  A    between atoms: C13_22  and  O1_23 
ROOT
HETATM    1  C6  UNL     1      11.630  -7.750  20.672  1.00  0.00     0.014 A 
HETATM    2  C7  UNL     1      11.750  -8.885  21.447  1.00  0.00     0.099 A 
HETATM    3  N2  UNL     1      13.057  -9.169  21.498  1.00  0.00    -0.361 N 
ATOM      4  H2  UNL     1      13.451  -9.962  22.005  1.00  0.00     0.165 HD
HETATM    5  C8  UNL     1      13.791  -8.278  20.796  1.00  0.00     0.101 A 
HETATM    6  C9  UNL     1      15.130  -8.116  20.533  1.00  0.00     0.146 A 
HETATM    7  N3  UNL     1      16.083  -9.022  21.056  1.00  0.00    -0.080 NA
HETATM    8  N4  UNL     1      15.559  -7.099  19.778  1.00  0.00    -0.339 N 
ATOM      9  H4  UNL     1      16.558  -7.001  19.597  1.00  0.00     0.167 HD
HETATM   10  C10 UNL     1      14.704  -6.199  19.249  1.00  0.00     0.182 A 
HETATM   11  N5  UNL     1      13.397  -6.370  19.515  1.00  0.00    -0.350 N 
ATOM     12  H5  UNL     1      12.735  -5.700  19.123  1.00  0.00     0.166 HD
HETATM   13  C11 UNL     1      12.910  -7.375  20.267  1.00  0.00     0.072 A 
ENDROOT
BRANCH   1  14
HETATM   14  C5  UNL     1      10.450  -7.000  20.284  1.00  0.00     0.315 C 
BRANCH  14  15
HETATM   15  N1  UNL     1       9.661  -7.536  19.233  1.00  0.00     0.095 N 
HETATM   16  C4  UNL     1       9.231  -6.638  18.236  1.00  0.00     0.280 C 
HETATM   17  C3  UNL     1       9.444  -7.364  16.931  1.00  0.00     0.054 C 
HETATM   18  C13 UNL     1      10.686  -8.163  17.198  1.00  0.00     0.152 C 
HETATM   19  C12 UNL     1      10.438  -8.607  18.624  1.00  0.00     0.304 C 
BRANCH  17  20
HETATM   20  C2  UNL     1       8.295  -8.322  16.729  1.00  0.00     0.082 C 
BRANCH  20  21
HETATM   21  S1  UNL     1       8.683  -9.649  15.579  1.00  0.00    -0.173 SA
HETATM   22  C1  UNL     1       9.078  -9.065  13.931  1.00  0.00     0.089 C 
ENDBRANCH  20  21
ENDBRANCH  17  20
BRANCH  18  23
HETATM   23  O1  UNL     1      11.780  -7.298  17.120  1.00  0.00    -0.393 OA
ATOM     24  H1  UNL     1      12.565  -7.800  17.305  1.00  0.00     0.210 HD
ENDBRANCH  18  23
ENDBRANCH  14  15
ENDBRANCH   1  14
TORSDOF 5
ENDMDL
