MODEL 4
REMARK VINA RESULT: -5.736160778      4.072      6.022
REMARK  5 active torsions:
REMARK  status: ('A' for Active; 'I' for Inactive)
REMARK    1  A    between atoms: S1_2  and  C2_3 
REMARK    2  A    between atoms: C2_3  and  C3_4 
REMARK    3  A    between atoms: N1_6  and  C5_7 
REMARK    4  A    between atoms: C5_7  and  C6_8 
REMARK    5  A    between atoms: C13_22  and  O1_23 
ROOT
HETATM    1  C6  UNL     1       9.498  -8.340  16.806  1.00  0.00     0.014 A 
HETATM    2  C7  UNL     1      10.525  -8.996  17.450  1.00  0.00     0.099 A 
HETATM    3  N2  UNL     1      10.613  -8.451  18.670  1.00  0.00    -0.361 N 
ATOM      4  H2  UNL     1      11.289  -8.738  19.378  1.00  0.00     0.165 HD
HETATM    5  C8  UNL     1       9.696  -7.475  18.850  1.00  0.00     0.101 A 
HETATM    6  C9  UNL     1       9.369  -6.627  19.881  1.00  0.00     0.146 A 
HETATM    7  N3  UNL     1      10.076  -6.676  21.106  1.00  0.00    -0.080 NA
HETATM    8  N4  UNL     1       8.377  -5.741  19.747  1.00  0.00    -0.339 N 
ATOM      9  H4  UNL     1       8.155  -5.123  20.527  1.00  0.00     0.167 HD
HETATM   10  C10 UNL     1       7.663  -5.642  18.606  1.00  0.00     0.182 A 
HETATM   11  N5  UNL     1       7.995  -6.478  17.605  1.00  0.00    -0.350 N 
ATOM     12  H5  UNL     1       7.467  -6.419  16.735  1.00  0.00     0.166 HD
HETATM   13  C11 UNL     1       8.983  -7.388  17.686  1.00  0.00     0.072 A 
ENDROOT
BRANCH   1  14
HETATM   14  C5  UNL     1       8.965  -8.517  15.467  1.00  0.00     0.315 C 
BRANCH  14  15
HETATM   15  N1  UNL     1       8.866  -9.847  14.983  1.00  0.00     0.095 N 
HETATM   16  C4  UNL     1       7.725 -10.581  15.364  1.00  0.00     0.280 C 
HETATM   17  C3  UNL     1       7.273 -11.288  14.109  1.00  0.00     0.054 C 
HETATM   18  C13 UNL     1       7.606 -10.295  13.034  1.00  0.00     0.152 C 
HETATM   19  C12 UNL     1       8.939  -9.775  13.529  1.00  0.00     0.304 C 
BRANCH  17  20
HETATM   20  C2  UNL     1       8.138 -12.509  13.916  1.00  0.00     0.082 C 
BRANCH  20  21
HETATM   21  S1  UNL     1       7.560 -13.932  14.852  1.00  0.00    -0.173 SA
HETATM   22  C1  UNL     1       7.691 -15.474  13.949  1.00  0.00     0.089 C 
ENDBRANCH  20  21
ENDBRANCH  17  20
BRANCH  18  23
HETATM   23  O1  UNL     1       6.632  -9.294  13.055  1.00  0.00    -0.393 OA
ATOM     24  H1  UNL     1       6.986  -8.551  13.531  1.00  0.00     0.210 HD
ENDBRANCH  18  23
ENDBRANCH  14  15
ENDBRANCH   1  14
TORSDOF 5
ENDMDL
