MODEL 5
REMARK VINA RESULT: -5.659059259      3.301      5.382
REMARK  5 active torsions:
REMARK  status: ('A' for Active; 'I' for Inactive)
REMARK    1  A    between atoms: S1_2  and  C2_3 
REMARK    2  A    between atoms: C2_3  and  C3_4 
REMARK    3  A    between atoms: N1_6  and  C5_7 
REMARK    4  A    between atoms: C5_7  and  C6_8 
REMARK    5  A    between atoms: C13_22  and  O1_23 
ROOT
HETATM    1  C6  UNL     1       9.693  -7.712  17.161  1.00  0.00     0.014 A 
HETATM    2  C7  UNL     1       9.093  -6.491  16.933  1.00  0.00     0.099 A 
HETATM    3  N2  UNL     1       9.300  -5.759  18.035  1.00  0.00    -0.361 N 
ATOM      4  H2  UNL     1       8.968  -4.802  18.156  1.00  0.00     0.165 HD
HETATM    5  C8  UNL     1      10.003  -6.441  18.965  1.00  0.00     0.101 A 
HETATM    6  C9  UNL     1      10.468  -6.163  20.228  1.00  0.00     0.146 A 
HETATM    7  N3  UNL     1      10.228  -4.902  20.823  1.00  0.00    -0.080 NA
HETATM    8  N4  UNL     1      11.156  -7.078  20.919  1.00  0.00    -0.339 N 
ATOM      9  H4  UNL     1      11.489  -6.847  21.854  1.00  0.00     0.167 HD
HETATM   10  C10 UNL     1      11.420  -8.300  20.411  1.00  0.00     0.182 A 
HETATM   11  N5  UNL     1      10.958  -8.558  19.173  1.00  0.00    -0.350 N 
ATOM     12  H5  UNL     1      11.147  -9.476  18.772  1.00  0.00     0.166 HD
HETATM   13  C11 UNL     1      10.261  -7.675  18.434  1.00  0.00     0.072 A 
ENDROOT
BRANCH   1  14
HETATM   14  C5  UNL     1       9.783  -8.886  16.313  1.00  0.00     0.315 C 
BRANCH  14  15
HETATM   15  N1  UNL     1       8.872  -8.970  15.228  1.00  0.00     0.095 N 
HETATM   16  C4  UNL     1       9.380  -9.451  14.005  1.00  0.00     0.280 C 
HETATM   17  C3  UNL     1       8.332 -10.408  13.490  1.00  0.00     0.054 C 
HETATM   18  C13 UNL     1       7.799 -11.022  14.752  1.00  0.00     0.152 C 
HETATM   19  C12 UNL     1       7.768  -9.815  15.666  1.00  0.00     0.304 C 
BRANCH  17  20
HETATM   20  C2  UNL     1       7.229  -9.601  12.850  1.00  0.00     0.082 C 
BRANCH  20  21
HETATM   21  S1  UNL     1       5.626 -10.411  12.941  1.00  0.00    -0.173 SA
HETATM   22  C1  UNL     1       4.273  -9.365  12.403  1.00  0.00     0.089 C 
ENDBRANCH  20  21
ENDBRANCH  17  20
BRANCH  18  23
HETATM   23  O1  UNL     1       8.726 -11.968  15.195  1.00  0.00    -0.393 OA
ATOM     24  H1  UNL     1       8.413 -12.828  14.938  1.00  0.00     0.210 HD
ENDBRANCH  18  23
ENDBRANCH  14  15
ENDBRANCH   1  14
TORSDOF 5
ENDMDL
