MODEL 7
REMARK VINA RESULT: -8.049018846      3.642      5.905
REMARK  6 active torsions:
REMARK  status: ('A' for Active; 'I' for Inactive)
REMARK    1  A    between atoms: C2_2  and  S1_4 
REMARK    2  A    between atoms: S1_4  and  N1_7 
REMARK    3  A    between atoms: N1_7  and  C4_9 
REMARK    4  A    between atoms: C7_13  and  O4_14 
REMARK    5  A    between atoms: O4_14  and  C8_15 
REMARK    6  A    between atoms: C11_18  and  C12_19 
ROOT
HETATM    1  C12 UNL     1      62.444  25.684  42.438  1.00  0.00     0.016 A 
HETATM    2  C13 UNL     1      63.359  25.199  43.336  1.00  0.00     0.022 A 
HETATM    3  C14 UNL     1      63.377  23.875  43.540  1.00  0.00     0.031 A 
HETATM    4  C15 UNL     1      62.480  23.117  42.833  1.00  0.00     0.086 A 
HETATM    5  C16 UNL     1      62.310  21.668  42.883  1.00  0.00     0.107 C 
HETATM    6  N2  UNL     1      62.160  20.522  42.908  1.00  0.00    -0.191 NA
HETATM    7  S2  UNL     1      61.642  24.281  41.910  1.00  0.00    -0.079 SA
ENDROOT
BRANCH   1   8
HETATM    8  C11 UNL     1      62.253  27.099  42.066  1.00  0.00    -0.019 A 
HETATM    9  C10 UNL     1      63.009  28.101  42.585  1.00  0.00     0.015 A 
HETATM   10  C9  UNL     1      62.787  29.399  42.202  1.00  0.00     0.037 A 
HETATM   11  C8  UNL     1      61.798  29.768  41.280  1.00  0.00     0.069 A 
HETATM   12  C18 UNL     1      61.057  28.719  40.782  1.00  0.00     0.037 A 
HETATM   13  C17 UNL     1      61.277  27.409  41.164  1.00  0.00     0.015 A 
BRANCH  11  14
HETATM   14  O4  UNL     1      61.639  31.081  40.951  1.00  0.00    -0.342 OA
BRANCH  14  15
HETATM   15  C7  UNL     1      62.538  32.078  41.305  1.00  0.00     0.178 C 
HETATM   16  C4  UNL     1      62.962  32.889  40.072  1.00  0.00     0.148 C 
HETATM   17  C5  UNL     1      61.779  33.815  39.909  1.00  0.00     0.196 C 
HETATM   18  O3  UNL     1      60.976  33.674  41.012  1.00  0.00    -0.386 OA
HETATM   19  C6  UNL     1      61.762  33.176  42.051  1.00  0.00     0.202 C 
BRANCH  16  20
HETATM   20  N1  UNL     1      63.175  32.055  38.932  1.00  0.00    -0.310 N 
ATOM     21  H1  UNL     1      62.739  31.148  38.767  1.00  0.00     0.172 HD
BRANCH  20  22
HETATM   22  S1  UNL     1      64.296  32.841  37.879  1.00  0.00     0.230 S 
HETATM   23  O1  UNL     1      64.952  34.007  38.544  1.00  0.00    -0.206 OA
HETATM   24  O2  UNL     1      65.401  31.870  37.516  1.00  0.00    -0.206 OA
BRANCH  22  25
HETATM   25  C2  UNL     1      63.517  33.317  36.353  1.00  0.00     0.121 C 
HETATM   26  C1  UNL     1      62.137  32.766  36.206  1.00  0.00     0.027 C 
HETATM   27  C3  UNL     1      63.484  34.840  36.330  1.00  0.00     0.027 C 
ENDBRANCH  22  25
ENDBRANCH  20  22
ENDBRANCH  16  20
ENDBRANCH  14  15
ENDBRANCH  11  14
ENDBRANCH   1   8
TORSDOF 6
ENDMDL
