MODEL 16
REMARK VINA RESULT: -7.419647305      1.271      1.974
REMARK  6 active torsions:
REMARK  status: ('A' for Active; 'I' for Inactive)
REMARK    1  A    between atoms: C2_2  and  S1_4 
REMARK    2  A    between atoms: S1_4  and  N1_7 
REMARK    3  A    between atoms: N1_7  and  C4_9 
REMARK    4  A    between atoms: C7_13  and  O4_14 
REMARK    5  A    between atoms: O4_14  and  C8_15 
REMARK    6  A    between atoms: C11_18  and  C12_19 
ROOT
HETATM    1  C12 UNL     1      61.987  24.574  41.994  1.00  0.00     0.016 A 
HETATM    2  C13 UNL     1      61.834  23.807  43.120  1.00  0.00     0.022 A 
HETATM    3  C14 UNL     1      61.806  22.478  42.959  1.00  0.00     0.031 A 
HETATM    4  C15 UNL     1      61.935  21.995  41.683  1.00  0.00     0.086 A 
HETATM    5  C16 UNL     1      61.935  20.599  41.258  1.00  0.00     0.107 C 
HETATM    6  N2  UNL     1      61.939  19.499  40.902  1.00  0.00    -0.191 NA
HETATM    7  S2  UNL     1      62.088  23.416  40.752  1.00  0.00    -0.079 SA
ENDROOT
BRANCH   1   8
HETATM    8  C11 UNL     1      62.043  26.047  41.943  1.00  0.00    -0.019 A 
HETATM    9  C10 UNL     1      63.157  26.749  42.276  1.00  0.00     0.015 A 
HETATM   10  C9  UNL     1      63.151  28.119  42.210  1.00  0.00     0.037 A 
HETATM   11  C8  UNL     1      62.032  28.863  41.808  1.00  0.00     0.069 A 
HETATM   12  C18 UNL     1      60.928  28.108  41.480  1.00  0.00     0.037 A 
HETATM   13  C17 UNL     1      60.929  26.727  41.545  1.00  0.00     0.015 A 
BRANCH  11  14
HETATM   14  O4  UNL     1      62.107  30.223  41.768  1.00  0.00    -0.342 OA
BRANCH  14  15
HETATM   15  C7  UNL     1      60.997  31.056  41.754  1.00  0.00     0.178 C 
HETATM   16  C4  UNL     1      60.777  31.692  43.134  1.00  0.00     0.148 C 
HETATM   17  C5  UNL     1      61.795  32.810  43.106  1.00  0.00     0.196 C 
HETATM   18  O3  UNL     1      62.298  32.892  41.833  1.00  0.00    -0.386 OA
HETATM   19  C6  UNL     1      61.363  32.326  40.967  1.00  0.00     0.202 C 
BRANCH  16  20
HETATM   20  N1  UNL     1      61.005  30.761  44.193  1.00  0.00    -0.310 N 
ATOM     21  H1  UNL     1      61.911  30.389  44.475  1.00  0.00     0.172 HD
BRANCH  20  22
HETATM   22  S1  UNL     1      59.486  30.371  44.916  1.00  0.00     0.230 S 
HETATM   23  O1  UNL     1      58.383  31.222  44.375  1.00  0.00    -0.206 OA
HETATM   24  O2  UNL     1      59.131  28.937  44.582  1.00  0.00    -0.206 OA
BRANCH  22  25
HETATM   25  C2  UNL     1      59.575  30.472  46.689  1.00  0.00     0.121 C 
HETATM   26  C1  UNL     1      59.890  31.846  47.179  1.00  0.00     0.027 C 
HETATM   27  C3  UNL     1      58.223  30.016  47.226  1.00  0.00     0.027 C 
ENDBRANCH  22  25
ENDBRANCH  20  22
ENDBRANCH  16  20
ENDBRANCH  14  15
ENDBRANCH  11  14
ENDBRANCH   1   8
TORSDOF 6
ENDMDL
