MODEL 2
REMARK VINA RESULT: -8.584479678      4.058      8.914
REMARK  6 active torsions:
REMARK  status: ('A' for Active; 'I' for Inactive)
REMARK    1  A    between atoms: C2_2  and  S1_4 
REMARK    2  A    between atoms: S1_4  and  N1_7 
REMARK    3  A    between atoms: N1_7  and  C4_9 
REMARK    4  A    between atoms: C7_13  and  O4_14 
REMARK    5  A    between atoms: O4_14  and  C8_15 
REMARK    6  A    between atoms: C11_18  and  C12_19 
ROOT
HETATM    1  C12 UNL     1      62.004  30.650  41.769  1.00  0.00     0.016 A 
HETATM    2  C13 UNL     1      61.636  31.593  42.692  1.00  0.00     0.022 A 
HETATM    3  C14 UNL     1      61.789  32.879  42.351  1.00  0.00     0.031 A 
HETATM    4  C15 UNL     1      62.298  33.144  41.108  1.00  0.00     0.086 A 
HETATM    5  C16 UNL     1      62.554  34.453  40.514  1.00  0.00     0.107 C 
HETATM    6  N2  UNL     1      62.763  35.481  40.026  1.00  0.00    -0.191 NA
HETATM    7  S2  UNL     1      62.548  31.587  40.459  1.00  0.00    -0.079 SA
ENDROOT
BRANCH   1   8
HETATM    8  C11 UNL     1      61.921  29.186  41.936  1.00  0.00    -0.019 A 
HETATM    9  C10 UNL     1      62.992  28.428  42.285  1.00  0.00     0.015 A 
HETATM   10  C9  UNL     1      62.856  27.071  42.426  1.00  0.00     0.037 A 
HETATM   11  C8  UNL     1      61.643  26.396  42.226  1.00  0.00     0.069 A 
HETATM   12  C18 UNL     1      60.587  27.206  41.873  1.00  0.00     0.037 A 
HETATM   13  C17 UNL     1      60.718  28.574  41.730  1.00  0.00     0.015 A 
BRANCH  11  14
HETATM   14  O4  UNL     1      61.590  25.044  42.386  1.00  0.00    -0.342 OA
BRANCH  14  15
HETATM   15  C7  UNL     1      62.551  24.170  41.894  1.00  0.00     0.178 C 
HETATM   16  C4  UNL     1      62.651  22.919  42.778  1.00  0.00     0.148 C 
HETATM   17  C5  UNL     1      61.467  22.118  42.287  1.00  0.00     0.196 C 
HETATM   18  O3  UNL     1      60.969  22.740  41.171  1.00  0.00    -0.386 OA
HETATM   19  C6  UNL     1      61.992  23.513  40.621  1.00  0.00     0.202 C 
BRANCH  16  20
HETATM   20  N1  UNL     1      62.566  23.240  44.168  1.00  0.00    -0.310 N 
ATOM     21  H1  UNL     1      61.707  23.409  44.689  1.00  0.00     0.172 HD
BRANCH  20  22
HETATM   22  S1  UNL     1      64.166  23.293  44.818  1.00  0.00     0.230 S 
HETATM   23  O1  UNL     1      65.088  22.372  44.086  1.00  0.00    -0.206 OA
HETATM   24  O2  UNL     1      64.724  24.691  44.648  1.00  0.00    -0.206 OA
BRANCH  22  25
HETATM   25  C2  UNL     1      64.161  22.956  46.563  1.00  0.00     0.121 C 
HETATM   26  C1  UNL     1      64.030  21.502  46.876  1.00  0.00     0.027 C 
HETATM   27  C3  UNL     1      65.470  23.501  47.122  1.00  0.00     0.027 C 
ENDBRANCH  22  25
ENDBRANCH  20  22
ENDBRANCH  16  20
ENDBRANCH  14  15
ENDBRANCH  11  14
ENDBRANCH   1   8
TORSDOF 6
ENDMDL
