MODEL 4
REMARK VINA RESULT: -8.340576622      1.228      1.413
REMARK  6 active torsions:
REMARK  status: ('A' for Active; 'I' for Inactive)
REMARK    1  A    between atoms: C2_2  and  S1_4 
REMARK    2  A    between atoms: S1_4  and  N1_7 
REMARK    3  A    between atoms: N1_7  and  C4_9 
REMARK    4  A    between atoms: C7_13  and  O4_14 
REMARK    5  A    between atoms: O4_14  and  C8_15 
REMARK    6  A    between atoms: C11_18  and  C12_19 
ROOT
HETATM    1  C12 UNL     1      62.106  23.278  42.025  1.00  0.00     0.016 A 
HETATM    2  C13 UNL     1      62.628  22.386  42.925  1.00  0.00     0.022 A 
HETATM    3  C14 UNL     1      62.530  21.084  42.627  1.00  0.00     0.031 A 
HETATM    4  C15 UNL     1      61.918  20.753  41.447  1.00  0.00     0.086 A 
HETATM    5  C16 UNL     1      61.694  19.414  40.909  1.00  0.00     0.107 C 
HETATM    6  N2  UNL     1      61.508  18.363  40.465  1.00  0.00    -0.191 NA
HETATM    7  S2  UNL     1      61.498  22.272  40.796  1.00  0.00    -0.079 SA
ENDROOT
BRANCH   1   8
HETATM    8  C11 UNL     1      62.105  24.748  42.154  1.00  0.00    -0.019 A 
HETATM    9  C10 UNL     1      60.961  25.478  42.201  1.00  0.00     0.015 A 
HETATM   10  C9  UNL     1      61.021  26.842  42.321  1.00  0.00     0.037 A 
HETATM   11  C8  UNL     1      62.227  27.553  42.400  1.00  0.00     0.069 A 
HETATM   12  C18 UNL     1      63.359  26.771  42.349  1.00  0.00     0.037 A 
HETATM   13  C17 UNL     1      63.304  25.396  42.228  1.00  0.00     0.015 A 
BRANCH  11  14
HETATM   14  O4  UNL     1      62.202  28.911  42.519  1.00  0.00    -0.342 OA
BRANCH  14  15
HETATM   15  C7  UNL     1      61.076  29.686  42.273  1.00  0.00     0.178 C 
HETATM   16  C4  UNL     1      60.810  30.644  43.443  1.00  0.00     0.148 C 
HETATM   17  C5  UNL     1      61.806  31.743  43.153  1.00  0.00     0.196 C 
HETATM   18  O3  UNL     1      62.341  31.515  41.911  1.00  0.00    -0.386 OA
HETATM   19  C6  UNL     1      61.438  30.725  41.198  1.00  0.00     0.202 C 
BRANCH  16  20
HETATM   20  N1  UNL     1      61.029  30.015  44.707  1.00  0.00    -0.310 N 
ATOM     21  H1  UNL     1      61.935  29.865  45.149  1.00  0.00     0.172 HD
BRANCH  20  22
HETATM   22  S1  UNL     1      59.499  29.553  45.361  1.00  0.00     0.230 S 
HETATM   23  O1  UNL     1      58.850  28.483  44.543  1.00  0.00    -0.206 OA
HETATM   24  O2  UNL     1      59.706  28.973  46.746  1.00  0.00    -0.206 OA
BRANCH  22  25
HETATM   25  C2  UNL     1      58.431  30.960  45.554  1.00  0.00     0.121 C 
HETATM   26  C1  UNL     1      57.133  30.622  46.209  1.00  0.00     0.027 C 
HETATM   27  C3  UNL     1      59.193  31.983  46.388  1.00  0.00     0.027 C 
ENDBRANCH  22  25
ENDBRANCH  20  22
ENDBRANCH  16  20
ENDBRANCH  14  15
ENDBRANCH  11  14
ENDBRANCH   1   8
TORSDOF 6
ENDMDL
