MODEL 3
REMARK VINA RESULT: -8.583889439      0.721      1.009
REMARK  6 active torsions:
REMARK  status: ('A' for Active; 'I' for Inactive)
REMARK    1  A    between atoms: C2_2  and  S1_4 
REMARK    2  A    between atoms: S1_4  and  N1_7 
REMARK    3  A    between atoms: N1_7  and  C4_9 
REMARK    4  A    between atoms: C7_13  and  O4_14 
REMARK    5  A    between atoms: O4_14  and  C8_15 
REMARK    6  A    between atoms: C11_18  and  C12_19 
ROOT
HETATM    1  C12 UNL     1      61.886  22.929  41.757  1.00  0.00     0.016 A 
HETATM    2  C13 UNL     1      62.247  21.986  42.684  1.00  0.00     0.022 A 
HETATM    3  C14 UNL     1      62.090  20.700  42.344  1.00  0.00     0.031 A 
HETATM    4  C15 UNL     1      61.584  20.435  41.100  1.00  0.00     0.086 A 
HETATM    5  C16 UNL     1      61.325  19.126  40.507  1.00  0.00     0.107 C 
HETATM    6  N2  UNL     1      61.114  18.098  40.020  1.00  0.00    -0.191 NA
HETATM    7  S2  UNL     1      61.342  21.992  40.447  1.00  0.00    -0.079 SA
ENDROOT
BRANCH   1   8
HETATM    8  C11 UNL     1      61.975  24.393  41.922  1.00  0.00    -0.019 A 
HETATM    9  C10 UNL     1      60.885  25.171  42.147  1.00  0.00     0.015 A 
HETATM   10  C9  UNL     1      61.027  26.527  42.292  1.00  0.00     0.037 A 
HETATM   11  C8  UNL     1      62.265  27.181  42.220  1.00  0.00     0.069 A 
HETATM   12  C18 UNL     1      63.340  26.351  41.991  1.00  0.00     0.037 A 
HETATM   13  C17 UNL     1      63.202  24.984  41.844  1.00  0.00     0.015 A 
BRANCH  11  14
HETATM   14  O4  UNL     1      62.323  28.533  42.376  1.00  0.00    -0.342 OA
BRANCH  14  15
HETATM   15  C7  UNL     1      61.350  29.406  41.906  1.00  0.00     0.178 C 
HETATM   16  C4  UNL     1      61.179  30.594  42.862  1.00  0.00     0.148 C 
HETATM   17  C5  UNL     1      62.352  31.461  42.465  1.00  0.00     0.196 C 
HETATM   18  O3  UNL     1      62.908  30.928  41.331  1.00  0.00    -0.386 OA
HETATM   19  C6  UNL     1      61.930  30.160  40.697  1.00  0.00     0.202 C 
BRANCH  16  20
HETATM   20  N1  UNL     1      61.227  30.189  44.232  1.00  0.00    -0.310 N 
ATOM     21  H1  UNL     1      62.065  29.912  44.742  1.00  0.00     0.172 HD
BRANCH  20  22
HETATM   22  S1  UNL     1      59.627  30.246  44.877  1.00  0.00     0.230 S 
HETATM   23  O1  UNL     1      58.755  31.186  44.109  1.00  0.00    -0.206 OA
HETATM   24  O2  UNL     1      58.994  28.874  44.758  1.00  0.00    -0.206 OA
BRANCH  22  25
HETATM   25  C2  UNL     1      59.647  30.647  46.608  1.00  0.00     0.121 C 
HETATM   26  C1  UNL     1      59.720  32.116  46.866  1.00  0.00     0.027 C 
HETATM   27  C3  UNL     1      58.372  30.068  47.212  1.00  0.00     0.027 C 
ENDBRANCH  22  25
ENDBRANCH  20  22
ENDBRANCH  16  20
ENDBRANCH  14  15
ENDBRANCH  11  14
ENDBRANCH   1   8
TORSDOF 6
ENDMDL
