MODEL 5
REMARK VINA RESULT: -8.339157435      4.085      8.897
REMARK  6 active torsions:
REMARK  status: ('A' for Active; 'I' for Inactive)
REMARK    1  A    between atoms: C2_2  and  S1_4 
REMARK    2  A    between atoms: S1_4  and  N1_7 
REMARK    3  A    between atoms: N1_7  and  C4_9 
REMARK    4  A    between atoms: C7_13  and  O4_14 
REMARK    5  A    between atoms: O4_14  and  C8_15 
REMARK    6  A    between atoms: C11_18  and  C12_19 
ROOT
HETATM    1  C12 UNL     1      61.480  29.441  42.285  1.00  0.00     0.016 A 
HETATM    2  C13 UNL     1      60.768  30.259  43.123  1.00  0.00     0.022 A 
HETATM    3  C14 UNL     1      60.845  31.578  42.907  1.00  0.00     0.031 A 
HETATM    4  C15 UNL     1      61.628  32.001  41.865  1.00  0.00     0.086 A 
HETATM    5  C16 UNL     1      61.868  33.375  41.435  1.00  0.00     0.107 C 
HETATM    6  N2  UNL     1      62.069  34.456  41.079  1.00  0.00    -0.191 NA
HETATM    7  S2  UNL     1      62.232  30.539  41.225  1.00  0.00    -0.079 SA
ENDROOT
BRANCH   1   8
HETATM    8  C11 UNL     1      61.538  27.969  42.344  1.00  0.00    -0.019 A 
HETATM    9  C10 UNL     1      62.709  27.282  42.377  1.00  0.00     0.015 A 
HETATM   10  C9  UNL     1      62.702  25.912  42.432  1.00  0.00     0.037 A 
HETATM   11  C8  UNL     1      61.524  25.152  42.455  1.00  0.00     0.069 A 
HETATM   12  C18 UNL     1      60.363  25.891  42.420  1.00  0.00     0.037 A 
HETATM   13  C17 UNL     1      60.365  27.272  42.365  1.00  0.00     0.015 A 
BRANCH  11  14
HETATM   14  O4  UNL     1      61.602  23.792  42.510  1.00  0.00    -0.342 OA
BRANCH  14  15
HETATM   15  C7  UNL     1      62.715  23.066  42.109  1.00  0.00     0.178 C 
HETATM   16  C4  UNL     1      63.180  22.123  43.228  1.00  0.00     0.148 C 
HETATM   17  C5  UNL     1      62.202  20.981  43.073  1.00  0.00     0.196 C 
HETATM   18  O3  UNL     1      61.494  21.184  41.916  1.00  0.00    -0.386 OA
HETATM   19  C6  UNL     1      62.255  22.011  41.090  1.00  0.00     0.202 C 
BRANCH  16  20
HETATM   20  N1  UNL     1      63.109  22.744  44.513  1.00  0.00    -0.310 N 
ATOM     21  H1  UNL     1      62.386  23.393  44.822  1.00  0.00     0.172 HD
BRANCH  20  22
HETATM   22  S1  UNL     1      64.454  22.210  45.455  1.00  0.00     0.230 S 
HETATM   23  O1  UNL     1      64.167  20.912  46.140  1.00  0.00    -0.206 OA
HETATM   24  O2  UNL     1      65.635  21.964  44.539  1.00  0.00    -0.206 OA
BRANCH  22  25
HETATM   25  C2  UNL     1      64.961  23.457  46.615  1.00  0.00     0.121 C 
HETATM   26  C1  UNL     1      66.337  23.973  46.351  1.00  0.00     0.027 C 
HETATM   27  C3  UNL     1      63.945  24.589  46.520  1.00  0.00     0.027 C 
ENDBRANCH  22  25
ENDBRANCH  20  22
ENDBRANCH  16  20
ENDBRANCH  14  15
ENDBRANCH  11  14
ENDBRANCH   1   8
TORSDOF 6
ENDMDL
