MODEL 6
REMARK VINA RESULT: -8.292103775      1.010      1.404
REMARK  6 active torsions:
REMARK  status: ('A' for Active; 'I' for Inactive)
REMARK    1  A    between atoms: C2_2  and  S1_4 
REMARK    2  A    between atoms: S1_4  and  N1_7 
REMARK    3  A    between atoms: N1_7  and  C4_9 
REMARK    4  A    between atoms: C7_13  and  O4_14 
REMARK    5  A    between atoms: O4_14  and  C8_15 
REMARK    6  A    between atoms: C11_18  and  C12_19 
ROOT
HETATM    1  C12 UNL     1      62.083  23.487  42.136  1.00  0.00     0.016 A 
HETATM    2  C13 UNL     1      62.784  22.612  42.925  1.00  0.00     0.022 A 
HETATM    3  C14 UNL     1      62.762  21.319  42.577  1.00  0.00     0.031 A 
HETATM    4  C15 UNL     1      62.042  20.979  41.462  1.00  0.00     0.086 A 
HETATM    5  C16 UNL     1      61.870  19.648  40.888  1.00  0.00     0.107 C 
HETATM    6  N2  UNL     1      61.723  18.601  40.419  1.00  0.00    -0.191 NA
HETATM    7  S2  UNL     1      61.420  22.478  40.939  1.00  0.00    -0.079 SA
ENDROOT
BRANCH   1   8
HETATM    8  C11 UNL     1      61.973  24.945  42.336  1.00  0.00    -0.019 A 
HETATM    9  C10 UNL     1      63.056  25.742  42.522  1.00  0.00     0.015 A 
HETATM   10  C9  UNL     1      62.893  27.092  42.703  1.00  0.00     0.037 A 
HETATM   11  C8  UNL     1      61.639  27.719  42.708  1.00  0.00     0.069 A 
HETATM   12  C18 UNL     1      60.572  26.871  42.515  1.00  0.00     0.037 A 
HETATM   13  C17 UNL     1      60.730  25.510  42.333  1.00  0.00     0.015 A 
BRANCH  11  14
HETATM   14  O4  UNL     1      61.561  29.067  42.894  1.00  0.00    -0.342 OA
BRANCH  14  15
HETATM   15  C7  UNL     1      60.399  29.805  42.712  1.00  0.00     0.178 C 
HETATM   16  C4  UNL     1      60.254  30.869  43.809  1.00  0.00     0.148 C 
HETATM   17  C5  UNL     1      61.187  31.944  43.299  1.00  0.00     0.196 C 
HETATM   18  O3  UNL     1      61.575  31.600  42.029  1.00  0.00    -0.386 OA
HETATM   19  C6  UNL     1      60.610  30.738  41.508  1.00  0.00     0.202 C 
BRANCH  16  20
HETATM   20  N1  UNL     1      60.634  30.368  45.092  1.00  0.00    -0.310 N 
ATOM     21  H1  UNL     1      61.383  29.701  45.273  1.00  0.00     0.172 HD
BRANCH  20  22
HETATM   22  S1  UNL     1      59.610  31.083  46.285  1.00  0.00     0.230 S 
HETATM   23  O1  UNL     1      60.374  31.461  47.513  1.00  0.00    -0.206 OA
HETATM   24  O2  UNL     1      59.021  32.364  45.730  1.00  0.00    -0.206 OA
BRANCH  22  25
HETATM   25  C2  UNL     1      58.240  30.021  46.674  1.00  0.00     0.121 C 
HETATM   26  C1  UNL     1      56.943  30.515  46.123  1.00  0.00     0.027 C 
HETATM   27  C3  UNL     1      58.568  28.647  46.102  1.00  0.00     0.027 C 
ENDBRANCH  22  25
ENDBRANCH  20  22
ENDBRANCH  16  20
ENDBRANCH  14  15
ENDBRANCH  11  14
ENDBRANCH   1   8
TORSDOF 6
ENDMDL
