MODEL 1
REMARK VINA RESULT: -8.638398007      0.000      0.000
REMARK  6 active torsions:
REMARK  status: ('A' for Active; 'I' for Inactive)
REMARK    1  A    between atoms: C2_2  and  S1_4 
REMARK    2  A    between atoms: S1_4  and  N1_7 
REMARK    3  A    between atoms: N1_7  and  C4_9 
REMARK    4  A    between atoms: C7_13  and  O4_14 
REMARK    5  A    between atoms: O4_14  and  C8_15 
REMARK    6  A    between atoms: C11_18  and  C12_19 
ROOT
HETATM    1  C12 UNL     1      61.906  23.002  41.906  1.00  0.00     0.016 A 
HETATM    2  C13 UNL     1      62.293  22.051  42.814  1.00  0.00     0.022 A 
HETATM    3  C14 UNL     1      62.171  20.768  42.450  1.00  0.00     0.031 A 
HETATM    4  C15 UNL     1      61.670  20.513  41.201  1.00  0.00     0.086 A 
HETATM    5  C16 UNL     1      61.446  19.209  40.583  1.00  0.00     0.107 C 
HETATM    6  N2  UNL     1      61.263  18.186  40.076  1.00  0.00    -0.191 NA
HETATM    7  S2  UNL     1      61.386  22.075  40.578  1.00  0.00    -0.079 SA
ENDROOT
BRANCH   1   8
HETATM    8  C11 UNL     1      61.954  24.463  42.099  1.00  0.00    -0.019 A 
HETATM    9  C10 UNL     1      60.836  25.219  42.252  1.00  0.00     0.015 A 
HETATM   10  C9  UNL     1      60.942  26.575  42.429  1.00  0.00     0.037 A 
HETATM   11  C8  UNL     1      62.170  27.250  42.461  1.00  0.00     0.069 A 
HETATM   12  C18 UNL     1      63.274  26.443  42.302  1.00  0.00     0.037 A 
HETATM   13  C17 UNL     1      63.173  25.076  42.124  1.00  0.00     0.015 A 
BRANCH  11  14
HETATM   14  O4  UNL     1      62.191  28.601  42.641  1.00  0.00    -0.342 OA
BRANCH  14  15
HETATM   15  C7  UNL     1      61.253  29.467  42.094  1.00  0.00     0.178 C 
HETATM   16  C4  UNL     1      61.046  30.687  43.001  1.00  0.00     0.148 C 
HETATM   17  C5  UNL     1      62.247  31.530  42.637  1.00  0.00     0.196 C 
HETATM   18  O3  UNL     1      62.854  30.955  41.550  1.00  0.00    -0.386 OA
HETATM   19  C6  UNL     1      61.902  30.176  40.893  1.00  0.00     0.202 C 
BRANCH  16  20
HETATM   20  N1  UNL     1      61.020  30.327  44.384  1.00  0.00    -0.310 N 
ATOM     21  H1  UNL     1      61.666  29.686  44.844  1.00  0.00     0.172 HD
BRANCH  20  22
HETATM   22  S1  UNL     1      59.710  31.157  45.142  1.00  0.00     0.230 S 
HETATM   23  O1  UNL     1      60.084  32.557  45.510  1.00  0.00    -0.206 OA
HETATM   24  O2  UNL     1      58.555  31.258  44.167  1.00  0.00    -0.206 OA
BRANCH  22  25
HETATM   25  C2  UNL     1      59.108  30.255  46.550  1.00  0.00     0.121 C 
HETATM   26  C1  UNL     1      57.621  30.118  46.563  1.00  0.00     0.027 C 
HETATM   27  C3  UNL     1      59.765  28.881  46.510  1.00  0.00     0.027 C 
ENDBRANCH  22  25
ENDBRANCH  20  22
ENDBRANCH  16  20
ENDBRANCH  14  15
ENDBRANCH  11  14
ENDBRANCH   1   8
TORSDOF 6
ENDMDL
