MODEL 7
REMARK VINA RESULT: -7.132529836      1.604      2.338
REMARK  8 active torsions:
REMARK  status: ('A' for Active; 'I' for Inactive)
REMARK    1  A    between atoms: O1_1  and  C1_3 
REMARK    2  A    between atoms: C1_3  and  C2_4 
REMARK    3  A    between atoms: C3_6  and  O3_7 
REMARK    4  A    between atoms: O3_7  and  C4_8 
REMARK    5  A    between atoms: C7_11  and  C8_12 
REMARK    6  A    between atoms: C16_20  and  O4_21 
REMARK    7  A    between atoms: C17_23  and  O5_24 
REMARK    8  A    between atoms: C18_26  and  O6_27 
ROOT
HETATM    1  C2  UNL     1     -21.597  -6.044 -12.488  1.00  0.00     0.179 C 
HETATM    2  O2  UNL     1     -20.936  -6.273 -13.669  1.00  0.00    -0.348 OA
HETATM    3  C3  UNL     1     -19.547  -6.128 -13.570  1.00  0.00     0.298 C 
HETATM    4  C16 UNL     1     -19.106  -7.360 -12.758  1.00  0.00     0.205 C 
HETATM    5  C17 UNL     1     -19.620  -7.119 -11.360  1.00  0.00     0.183 C 
HETATM    6  C18 UNL     1     -21.067  -6.755 -11.303  1.00  0.00     0.180 C 
ENDROOT
BRANCH   3   7
HETATM    7  O3  UNL     1     -18.970  -6.091 -14.817  1.00  0.00    -0.318 OA
BRANCH   7   8
HETATM    8  C4  UNL     1     -19.589  -5.657 -15.948  1.00  0.00     0.072 A 
HETATM    9  C5  UNL     1     -19.930  -4.371 -16.241  1.00  0.00     0.038 A 
HETATM   10  C6  UNL     1     -20.566  -4.038 -17.438  1.00  0.00     0.015 A 
HETATM   11  C7  UNL     1     -20.877  -4.990 -18.376  1.00  0.00    -0.026 A 
HETATM   12  C14 UNL     1     -20.536  -6.289 -18.087  1.00  0.00     0.015 A 
HETATM   13  C15 UNL     1     -19.906  -6.635 -16.907  1.00  0.00     0.038 A 
BRANCH  11  14
HETATM   14  C8  UNL     1     -21.551  -4.617 -19.638  1.00  0.00    -0.026 A 
HETATM   15  C9  UNL     1     -22.161  -5.550 -20.426  1.00  0.00     0.012 A 
HETATM   16  C10 UNL     1     -22.773  -5.147 -21.588  1.00  0.00     0.001 A 
HETATM   17  C11 UNL     1     -22.789  -3.812 -21.985  1.00  0.00     0.000 A 
HETATM   18  C12 UNL     1     -22.163  -2.882 -21.169  1.00  0.00     0.001 A 
HETATM   19  C13 UNL     1     -21.562  -3.299 -20.022  1.00  0.00     0.012 A 
ENDBRANCH  11  14
ENDBRANCH   7   8
ENDBRANCH   3   7
BRANCH   4  20
HETATM   20  O4  UNL     1     -17.720  -7.441 -12.703  1.00  0.00    -0.388 OA
ATOM     21  H4  UNL     1     -17.441  -7.880 -11.908  1.00  0.00     0.210 HD
ENDBRANCH   4  20
BRANCH   1  22
HETATM   22  C1  UNL     1     -21.728  -4.549 -12.299  1.00  0.00     0.198 C 
BRANCH  22  23
HETATM   23  O1  UNL     1     -22.393  -4.206 -11.135  1.00  0.00    -0.398 OA
ATOM     24  H1  UNL     1     -23.322  -4.057 -11.268  1.00  0.00     0.209 HD
ENDBRANCH  22  23
ENDBRANCH   1  22
BRANCH   5  25
HETATM   25  O5  UNL     1     -18.796  -6.173 -10.717  1.00  0.00    -0.390 OA
ATOM     26  H5  UNL     1     -19.100  -6.045  -9.827  1.00  0.00     0.210 HD
ENDBRANCH   5  25
BRANCH   6  27
HETATM   27  O6  UNL     1     -21.785  -7.954 -11.084  1.00  0.00    -0.390 OA
ATOM     28  H6  UNL     1     -21.239  -8.707 -11.277  1.00  0.00     0.210 HD
ENDBRANCH   6  27
TORSDOF 8
ENDMDL
