MODEL 11
REMARK VINA RESULT: -6.741379595      1.795      2.327
REMARK  8 active torsions:
REMARK  status: ('A' for Active; 'I' for Inactive)
REMARK    1  A    between atoms: O1_1  and  C1_3 
REMARK    2  A    between atoms: C1_3  and  C2_4 
REMARK    3  A    between atoms: C3_6  and  O3_7 
REMARK    4  A    between atoms: O3_7  and  C4_8 
REMARK    5  A    between atoms: C7_11  and  C8_12 
REMARK    6  A    between atoms: C16_20  and  O4_21 
REMARK    7  A    between atoms: C17_23  and  O5_24 
REMARK    8  A    between atoms: C18_26  and  O6_27 
ROOT
HETATM    1  C2  UNL     1     -20.808  -7.435 -11.840  1.00  0.00     0.179 C 
HETATM    2  O2  UNL     1     -20.571  -8.000 -13.068  1.00  0.00    -0.348 OA
HETATM    3  C3  UNL     1     -19.842  -7.174 -13.933  1.00  0.00     0.298 C 
HETATM    4  C16 UNL     1     -18.420  -7.187 -13.340  1.00  0.00     0.205 C 
HETATM    5  C17 UNL     1     -18.520  -6.405 -12.053  1.00  0.00     0.183 C 
HETATM    6  C18 UNL     1     -19.629  -6.853 -11.159  1.00  0.00     0.180 C 
ENDROOT
BRANCH   3   7
HETATM    7  O3  UNL     1     -19.876  -7.663 -15.217  1.00  0.00    -0.318 OA
BRANCH   7   8
HETATM    8  C4  UNL     1     -20.234  -6.943 -16.315  1.00  0.00     0.072 A 
HETATM    9  C5  UNL     1     -20.241  -7.383 -17.603  1.00  0.00     0.038 A 
HETATM   10  C6  UNL     1     -20.629  -6.554 -18.657  1.00  0.00     0.015 A 
HETATM   11  C7  UNL     1     -21.023  -5.256 -18.443  1.00  0.00    -0.026 A 
HETATM   12  C14 UNL     1     -21.018  -4.806 -17.145  1.00  0.00     0.015 A 
HETATM   13  C15 UNL     1     -20.637  -5.614 -16.092  1.00  0.00     0.038 A 
BRANCH  11  14
HETATM   14  C8  UNL     1     -21.430  -4.394 -19.572  1.00  0.00    -0.026 A 
HETATM   15  C9  UNL     1     -21.909  -4.919 -20.738  1.00  0.00     0.012 A 
HETATM   16  C10 UNL     1     -22.275  -4.071 -21.754  1.00  0.00     0.001 A 
HETATM   17  C11 UNL     1     -22.171  -2.687 -21.630  1.00  0.00     0.000 A 
HETATM   18  C12 UNL     1     -21.682  -2.175 -20.437  1.00  0.00     0.001 A 
HETATM   19  C13 UNL     1     -21.325  -3.031 -19.442  1.00  0.00     0.012 A 
ENDBRANCH  11  14
ENDBRANCH   7   8
ENDBRANCH   3   7
BRANCH   4  20
HETATM   20  O4  UNL     1     -17.532  -6.527 -14.181  1.00  0.00    -0.388 OA
ATOM     21  H4  UNL     1     -16.643  -6.603 -13.855  1.00  0.00     0.210 HD
ENDBRANCH   4  20
BRANCH   1  22
HETATM   22  C1  UNL     1     -21.973  -6.478 -11.973  1.00  0.00     0.198 C 
BRANCH  22  23
HETATM   23  O1  UNL     1     -21.933  -5.445 -11.053  1.00  0.00    -0.398 OA
ATOM     24  H1  UNL     1     -22.785  -5.056 -10.894  1.00  0.00     0.209 HD
ENDBRANCH  22  23
ENDBRANCH   1  22
BRANCH   5  25
HETATM   25  O5  UNL     1     -18.583  -5.028 -12.348  1.00  0.00    -0.390 OA
ATOM     26  H5  UNL     1     -17.935  -4.567 -11.828  1.00  0.00     0.210 HD
ENDBRANCH   5  25
BRANCH   6  27
HETATM   27  O6  UNL     1     -19.074  -7.785 -10.250  1.00  0.00    -0.390 OA
ATOM     28  H6  UNL     1     -18.878  -7.364  -9.422  1.00  0.00     0.210 HD
ENDBRANCH   6  27
TORSDOF 8
ENDMDL
