MODEL 14
REMARK VINA RESULT: -6.211098938      2.835     10.888
REMARK  10 active torsions:
REMARK  status: ('A' for Active; 'I' for Inactive)
REMARK    1  A    between atoms: C1_2  and  C2_4 
REMARK    2  A    between atoms: C5_7  and  C6_8 
REMARK       I    between atoms: C6_8  and  N1_10 
REMARK    3  A    between atoms: N1_10  and  C7_12 
REMARK    4  A    between atoms: C10_15  and  O4_16 
REMARK    5  A    between atoms: O4_16  and  C11_17 
REMARK    6  A    between atoms: C12_19  and  C13_20 
REMARK    7  A    between atoms: C13_20  and  O6_21 
REMARK    8  A    between atoms: C14_23  and  O7_24 
REMARK    9  A    between atoms: C15_26  and  O8_27 
REMARK   10  A    between atoms: C16_29  and  O9_30 
ROOT
HETATM    1  C7  UNL     1      -6.922  50.487 -12.086  1.00  0.00     0.036 A 
HETATM    2  C8  UNL     1      -6.718  51.493 -13.043  1.00  0.00     0.032 A 
HETATM    3  C9  UNL     1      -7.723  52.020 -13.778  1.00  0.00     0.041 A 
HETATM    4  C10 UNL     1      -9.073  51.595 -13.646  1.00  0.00     0.094 A 
HETATM    5  C17 UNL     1      -9.274  50.614 -12.714  1.00  0.00     0.069 A 
HETATM    6 CL1  UNL     1     -10.883  49.978 -12.425  1.00  0.00    -0.081 Cl
HETATM    7  C18 UNL     1      -8.217  50.082 -11.959  1.00  0.00     0.056 A 
ENDROOT
BRANCH   4   8
HETATM    8  O4  UNL     1      -9.958  52.207 -14.442  1.00  0.00    -0.316 OA
BRANCH   8   9
HETATM    9  C11 UNL     1     -10.892  53.153 -14.287  1.00  0.00     0.298 C 
HETATM   10  O5  UNL     1     -10.737  53.867 -13.048  1.00  0.00    -0.348 OA
HETATM   11  C12 UNL     1     -11.955  54.443 -12.734  1.00  0.00     0.179 C 
HETATM   12  C14 UNL     1     -12.759  54.837 -13.926  1.00  0.00     0.180 C 
HETATM   13  C15 UNL     1     -11.821  55.297 -15.018  1.00  0.00     0.183 C 
HETATM   14  C16 UNL     1     -10.757  54.280 -15.328  1.00  0.00     0.205 C 
BRANCH  11  15
HETATM   15  C13 UNL     1     -12.709  53.569 -11.758  1.00  0.00     0.198 C 
BRANCH  15  16
HETATM   16  O6  UNL     1     -11.843  53.201 -10.722  1.00  0.00    -0.398 OA
ATOM     17  H6  UNL     1     -11.739  52.257 -10.732  1.00  0.00     0.209 HD
ENDBRANCH  15  16
ENDBRANCH  11  15
BRANCH  12  18
HETATM   18  O7  UNL     1     -13.524  55.964 -13.569  1.00  0.00    -0.390 OA
ATOM     19  H7  UNL     1     -14.149  55.688 -12.910  1.00  0.00     0.210 HD
ENDBRANCH  12  18
BRANCH  13  20
HETATM   20  O8  UNL     1     -12.520  55.655 -16.169  1.00  0.00    -0.390 OA
ATOM     21  H8  UNL     1     -13.245  56.234 -15.967  1.00  0.00     0.210 HD
ENDBRANCH  13  20
BRANCH  14  22
HETATM   22  O9  UNL     1     -10.800  53.798 -16.613  1.00  0.00    -0.388 OA
ATOM     23  H9  UNL     1     -11.675  53.521 -16.858  1.00  0.00     0.210 HD
ENDBRANCH  14  22
ENDBRANCH   8   9
ENDBRANCH   4   8
BRANCH   1  24
HETATM   24  N1  UNL     1      -5.805  50.008 -11.363  1.00  0.00    -0.323 N 
HETATM   25  C6  UNL     1      -5.173  48.769 -11.544  1.00  0.00     0.256 C 
HETATM   26  O3  UNL     1      -5.591  47.969 -12.420  1.00  0.00    -0.267 OA
ATOM     27  H1  UNL     1      -5.424  50.621 -10.642  1.00  0.00     0.169 HD
BRANCH  25  28
HETATM   28  C5  UNL     1      -4.014  48.403 -10.707  1.00  0.00     0.032 A 
HETATM   29  C4  UNL     1      -4.125  48.571  -9.321  1.00  0.00     0.018 A 
HETATM   30  C3  UNL     1      -3.083  48.257  -8.472  1.00  0.00     0.019 A 
HETATM   31  C2  UNL     1      -1.887  47.765  -8.947  1.00  0.00     0.040 A 
HETATM   32  C20 UNL     1      -1.776  47.599 -10.308  1.00  0.00     0.019 A 
HETATM   33  C19 UNL     1      -2.831  47.915 -11.174  1.00  0.00     0.018 A 
BRANCH  31  34
HETATM   34  C1  UNL     1      -0.773  47.426  -8.072  1.00  0.00     0.209 C 
HETATM   35  O1  UNL     1      -0.953  46.654  -7.102  1.00  0.00    -0.644 OA
HETATM   36  O2  UNL     1       0.500  47.935  -8.278  1.00  0.00    -0.644 OA
ENDBRANCH  31  34
ENDBRANCH  25  28
ENDBRANCH   1  24
TORSDOF 10
ENDMDL
