MODEL 5
REMARK VINA RESULT: -6.675544460      1.044      1.189
REMARK  10 active torsions:
REMARK  status: ('A' for Active; 'I' for Inactive)
REMARK    1  A    between atoms: C1_2  and  C2_4 
REMARK    2  A    between atoms: C5_7  and  C6_8 
REMARK       I    between atoms: C6_8  and  N1_10 
REMARK    3  A    between atoms: N1_10  and  C7_12 
REMARK    4  A    between atoms: C10_15  and  O4_16 
REMARK    5  A    between atoms: O4_16  and  C11_17 
REMARK    6  A    between atoms: C12_19  and  C13_20 
REMARK    7  A    between atoms: C13_20  and  O6_21 
REMARK    8  A    between atoms: C14_23  and  O7_24 
REMARK    9  A    between atoms: C15_26  and  O8_27 
REMARK   10  A    between atoms: C16_29  and  O9_30 
ROOT
HETATM    1  C7  UNL     1      -7.806  49.037 -12.065  1.00  0.00     0.036 A 
HETATM    2  C8  UNL     1      -6.806  50.014 -11.953  1.00  0.00     0.032 A 
HETATM    3  C9  UNL     1      -5.532  49.722 -11.604  1.00  0.00     0.041 A 
HETATM    4  C10 UNL     1      -5.101  48.398 -11.319  1.00  0.00     0.094 A 
HETATM    5  C17 UNL     1      -6.075  47.444 -11.429  1.00  0.00     0.069 A 
HETATM    6 CL1  UNL     1      -5.709  45.757 -11.113  1.00  0.00    -0.081 Cl
HETATM    7  C18 UNL     1      -7.391  47.768 -11.794  1.00  0.00     0.056 A 
ENDROOT
BRANCH   4   8
HETATM    8  O4  UNL     1      -3.811  48.263 -10.987  1.00  0.00    -0.316 OA
BRANCH   8   9
HETATM    9  C11 UNL     1      -3.122  48.160  -9.845  1.00  0.00     0.298 C 
HETATM   10  O5  UNL     1      -3.952  47.735  -8.750  1.00  0.00    -0.348 OA
HETATM   11  C12 UNL     1      -3.333  48.118  -7.574  1.00  0.00     0.179 C 
HETATM   12  C14 UNL     1      -1.844  48.120  -7.650  1.00  0.00     0.180 C 
HETATM   13  C15 UNL     1      -1.400  46.993  -8.553  1.00  0.00     0.183 C 
HETATM   14  C16 UNL     1      -2.064  47.041  -9.902  1.00  0.00     0.205 C 
BRANCH  11  15
HETATM   15  C13 UNL     1      -3.915  49.423  -7.080  1.00  0.00     0.198 C 
BRANCH  15  16
HETATM   16  O6  UNL     1      -2.902  50.387  -7.053  1.00  0.00    -0.398 OA
ATOM     17  H6  UNL     1      -2.971  50.924  -7.833  1.00  0.00     0.209 HD
ENDBRANCH  15  16
ENDBRANCH  11  15
BRANCH  12  18
HETATM   18  O7  UNL     1      -1.353  47.809  -6.368  1.00  0.00    -0.390 OA
ATOM     19  H7  UNL     1      -1.090  46.896  -6.376  1.00  0.00     0.210 HD
ENDBRANCH  12  18
BRANCH  13  20
HETATM   20  O8  UNL     1      -0.013  46.962  -8.682  1.00  0.00    -0.390 OA
ATOM     21  H8  UNL     1       0.283  46.133  -9.037  1.00  0.00     0.210 HD
ENDBRANCH  13  20
BRANCH  14  22
HETATM   22  O9  UNL     1      -1.195  47.212 -10.950  1.00  0.00    -0.388 OA
ATOM     23  H9  UNL     1      -1.170  46.452 -11.517  1.00  0.00     0.210 HD
ENDBRANCH  14  22
ENDBRANCH   8   9
ENDBRANCH   4   8
BRANCH   1  24
HETATM   24  N1  UNL     1      -9.107  49.444 -12.445  1.00  0.00    -0.323 N 
HETATM   25  C6  UNL     1      -9.609  49.490 -13.753  1.00  0.00     0.256 C 
HETATM   26  O3  UNL     1      -8.884  49.144 -14.721  1.00  0.00    -0.267 OA
ATOM     27  H1  UNL     1      -9.738  49.731 -11.696  1.00  0.00     0.169 HD
BRANCH  25  28
HETATM   28  C5  UNL     1     -10.992  49.944 -13.997  1.00  0.00     0.032 A 
HETATM   29  C4  UNL     1     -11.828  50.128 -12.888  1.00  0.00     0.018 A 
HETATM   30  C3  UNL     1     -13.136  50.545 -13.035  1.00  0.00     0.019 A 
HETATM   31  C2  UNL     1     -13.680  50.798 -14.276  1.00  0.00     0.040 A 
HETATM   32  C20 UNL     1     -12.860  50.618 -15.365  1.00  0.00     0.019 A 
HETATM   33  C19 UNL     1     -11.531  50.196 -15.223  1.00  0.00     0.018 A 
BRANCH  31  34
HETATM   34  C1  UNL     1     -15.057  51.239 -14.456  1.00  0.00     0.209 C 
HETATM   35  O1  UNL     1     -15.742  50.776 -15.397  1.00  0.00    -0.644 OA
HETATM   36  O2  UNL     1     -15.644  52.167 -13.610  1.00  0.00    -0.644 OA
ENDBRANCH  31  34
ENDBRANCH  25  28
ENDBRANCH   1  24
TORSDOF 10
ENDMDL
