MODEL 9
REMARK VINA RESULT: -6.455433868      2.318     10.711
REMARK  10 active torsions:
REMARK  status: ('A' for Active; 'I' for Inactive)
REMARK    1  A    between atoms: C1_2  and  C2_4 
REMARK    2  A    between atoms: C5_7  and  C6_8 
REMARK       I    between atoms: C6_8  and  N1_10 
REMARK    3  A    between atoms: N1_10  and  C7_12 
REMARK    4  A    between atoms: C10_15  and  O4_16 
REMARK    5  A    between atoms: O4_16  and  C11_17 
REMARK    6  A    between atoms: C12_19  and  C13_20 
REMARK    7  A    between atoms: C13_20  and  O6_21 
REMARK    8  A    between atoms: C14_23  and  O7_24 
REMARK    9  A    between atoms: C15_26  and  O8_27 
REMARK   10  A    between atoms: C16_29  and  O9_30 
ROOT
HETATM    1  C7  UNL     1      -7.007  48.799 -11.889  1.00  0.00     0.036 A 
HETATM    2  C8  UNL     1      -7.569  50.084 -11.886  1.00  0.00     0.032 A 
HETATM    3  C9  UNL     1      -8.829  50.334 -12.311  1.00  0.00     0.041 A 
HETATM    4  C10 UNL     1      -9.690  49.313 -12.797  1.00  0.00     0.094 A 
HETATM    5  C17 UNL     1      -9.143  48.059 -12.800  1.00  0.00     0.069 A 
HETATM    6 CL1  UNL     1     -10.073  46.684 -13.368  1.00  0.00    -0.081 Cl
HETATM    7  C18 UNL     1      -7.834  47.821 -12.354  1.00  0.00     0.056 A 
ENDROOT
BRANCH   4   8
HETATM    8  O4  UNL     1     -10.908  49.711 -13.182  1.00  0.00    -0.316 OA
BRANCH   8   9
HETATM    9  C11 UNL     1     -11.970  50.261 -12.582  1.00  0.00     0.298 C 
HETATM   10  O5  UNL     1     -12.461  51.408 -13.298  1.00  0.00    -0.348 OA
HETATM   11  C12 UNL     1     -13.189  52.182 -12.414  1.00  0.00     0.179 C 
HETATM   12  C14 UNL     1     -13.884  51.395 -11.356  1.00  0.00     0.180 C 
HETATM   13  C15 UNL     1     -14.325  50.074 -11.941  1.00  0.00     0.183 C 
HETATM   14  C16 UNL     1     -13.194  49.326 -12.592  1.00  0.00     0.205 C 
BRANCH  11  15
HETATM   15  C13 UNL     1     -12.329  53.300 -11.870  1.00  0.00     0.198 C 
BRANCH  15  16
HETATM   16  O6  UNL     1     -12.104  53.073 -10.508  1.00  0.00    -0.398 OA
ATOM     17  H6  UNL     1     -11.169  52.995 -10.362  1.00  0.00     0.209 HD
ENDBRANCH  15  16
ENDBRANCH  11  15
BRANCH  12  18
HETATM   18  O7  UNL     1     -15.064  52.086 -11.018  1.00  0.00    -0.390 OA
ATOM     19  H7  UNL     1     -15.111  52.858 -11.569  1.00  0.00     0.210 HD
ENDBRANCH  12  18
BRANCH  13  20
HETATM   20  O8  UNL     1     -14.962  49.283 -10.986  1.00  0.00    -0.390 OA
ATOM     21  H8  UNL     1     -15.240  48.453 -11.354  1.00  0.00     0.210 HD
ENDBRANCH  13  20
BRANCH  14  22
HETATM   22  O9  UNL     1     -12.916  48.113 -12.011  1.00  0.00    -0.388 OA
ATOM     23  H9  UNL     1     -13.583  47.466 -12.207  1.00  0.00     0.210 HD
ENDBRANCH  14  22
ENDBRANCH   8   9
ENDBRANCH   4   8
BRANCH   1  24
HETATM   24  N1  UNL     1      -5.683  48.642 -11.417  1.00  0.00    -0.323 N 
HETATM   25  C6  UNL     1      -5.219  47.613 -10.585  1.00  0.00     0.256 C 
HETATM   26  O3  UNL     1      -6.007  46.714 -10.192  1.00  0.00    -0.267 OA
ATOM     27  H1  UNL     1      -5.001  49.342 -11.710  1.00  0.00     0.169 HD
BRANCH  25  28
HETATM   28  C5  UNL     1      -3.803  47.582 -10.169  1.00  0.00     0.032 A 
HETATM   29  C4  UNL     1      -3.517  47.698  -8.803  1.00  0.00     0.018 A 
HETATM   30  C3  UNL     1      -2.218  47.684  -8.335  1.00  0.00     0.019 A 
HETATM   31  C2  UNL     1      -1.144  47.556  -9.189  1.00  0.00     0.040 A 
HETATM   32  C20 UNL     1      -1.424  47.441 -10.531  1.00  0.00     0.019 A 
HETATM   33  C19 UNL     1      -2.740  47.454 -11.011  1.00  0.00     0.018 A 
BRANCH  31  34
HETATM   34  C1  UNL     1       0.235  47.538  -8.721  1.00  0.00     0.209 C 
HETATM   35  O1  UNL     1       0.578  46.739  -7.820  1.00  0.00    -0.644 OA
HETATM   36  O2  UNL     1       1.197  48.387  -9.247  1.00  0.00    -0.644 OA
ENDBRANCH  31  34
ENDBRANCH  25  28
ENDBRANCH   1  24
TORSDOF 10
ENDMDL
