MODEL 17
REMARK VINA RESULT: -6.151379969      2.634     10.951
REMARK  10 active torsions:
REMARK  status: ('A' for Active; 'I' for Inactive)
REMARK    1  A    between atoms: C1_2  and  C2_4 
REMARK    2  A    between atoms: C5_7  and  C6_8 
REMARK       I    between atoms: C6_8  and  N1_10 
REMARK    3  A    between atoms: N1_10  and  C7_12 
REMARK    4  A    between atoms: C10_15  and  O4_16 
REMARK    5  A    between atoms: O4_16  and  C11_17 
REMARK    6  A    between atoms: C12_19  and  C13_20 
REMARK    7  A    between atoms: C13_20  and  O6_21 
REMARK    8  A    between atoms: C14_23  and  O7_24 
REMARK    9  A    between atoms: C15_26  and  O8_27 
REMARK   10  A    between atoms: C16_29  and  O9_30 
ROOT
HETATM    1  C7  UNL     1      -6.894  50.714 -12.387  1.00  0.00     0.036 A 
HETATM    2  C8  UNL     1      -8.215  50.471 -11.981  1.00  0.00     0.032 A 
HETATM    3  C9  UNL     1      -9.288  50.892 -12.689  1.00  0.00     0.041 A 
HETATM    4  C10 UNL     1      -9.166  51.620 -13.903  1.00  0.00     0.094 A 
HETATM    5  C17 UNL     1      -7.879  51.859 -14.299  1.00  0.00     0.069 A 
HETATM    6 CL1  UNL     1      -7.553  52.745 -15.779  1.00  0.00    -0.081 Cl
HETATM    7  C18 UNL     1      -6.779  51.412 -13.552  1.00  0.00     0.056 A 
ENDROOT
BRANCH   4   8
HETATM    8  O4  UNL     1     -10.317  51.971 -14.491  1.00  0.00    -0.316 OA
BRANCH   8   9
HETATM    9  C11 UNL     1     -11.473  52.508 -14.088  1.00  0.00     0.298 C 
HETATM   10  O5  UNL     1     -11.608  53.878 -14.507  1.00  0.00    -0.348 OA
HETATM   11  C12 UNL     1     -12.531  54.487 -13.677  1.00  0.00     0.179 C 
HETATM   12  C14 UNL     1     -13.598  53.569 -13.186  1.00  0.00     0.180 C 
HETATM   13  C15 UNL     1     -13.915  52.565 -14.269  1.00  0.00     0.183 C 
HETATM   14  C16 UNL     1     -12.690  51.844 -14.761  1.00  0.00     0.205 C 
BRANCH  11  15
HETATM   15  C13 UNL     1     -11.822  55.237 -12.572  1.00  0.00     0.198 C 
BRANCH  15  16
HETATM   16  O6  UNL     1     -12.193  54.683 -11.342  1.00  0.00    -0.398 OA
ATOM     17  H6  UNL     1     -11.424  54.630 -10.787  1.00  0.00     0.209 HD
ENDBRANCH  15  16
ENDBRANCH  11  15
BRANCH  12  18
HETATM   18  O7  UNL     1     -14.767  54.333 -13.008  1.00  0.00    -0.390 OA
ATOM     19  H7  UNL     1     -15.507  53.775 -13.213  1.00  0.00     0.210 HD
ENDBRANCH  12  18
BRANCH  13  20
HETATM   20  O8  UNL     1     -14.892  51.662 -13.854  1.00  0.00    -0.390 OA
ATOM     21  H8  UNL     1     -15.209  51.137 -14.580  1.00  0.00     0.210 HD
ENDBRANCH  13  20
BRANCH  14  22
HETATM   22  O9  UNL     1     -12.714  50.488 -14.550  1.00  0.00    -0.388 OA
ATOM     23  H9  UNL     1     -12.724  50.274 -13.625  1.00  0.00     0.210 HD
ENDBRANCH  14  22
ENDBRANCH   8   9
ENDBRANCH   4   8
BRANCH   1  24
HETATM   24  N1  UNL     1      -5.840  50.224 -11.580  1.00  0.00    -0.323 N 
HETATM   25  C6  UNL     1      -5.307  48.928 -11.617  1.00  0.00     0.256 C 
HETATM   26  O3  UNL     1      -5.763  48.079 -12.424  1.00  0.00    -0.267 OA
ATOM     27  H1  UNL     1      -5.431  50.875 -10.909  1.00  0.00     0.169 HD
BRANCH  25  28
HETATM   28  C5  UNL     1      -4.205  48.558 -10.706  1.00  0.00     0.032 A 
HETATM   29  C4  UNL     1      -4.400  48.741  -9.331  1.00  0.00     0.018 A 
HETATM   30  C3  UNL     1      -3.416  48.425  -8.416  1.00  0.00     0.019 A 
HETATM   31  C2  UNL     1      -2.198  47.914  -8.812  1.00  0.00     0.040 A 
HETATM   32  C20 UNL     1      -2.006  47.733 -10.162  1.00  0.00     0.019 A 
HETATM   33  C19 UNL     1      -3.002  48.052 -11.095  1.00  0.00     0.018 A 
BRANCH  31  34
HETATM   34  C1  UNL     1      -1.144  47.572  -7.867  1.00  0.00     0.209 C 
HETATM   35  O1  UNL     1      -1.422  46.937  -6.824  1.00  0.00    -0.644 OA
HETATM   36  O2  UNL     1       0.178  47.930  -8.085  1.00  0.00    -0.644 OA
ENDBRANCH  31  34
ENDBRANCH  25  28
ENDBRANCH   1  24
TORSDOF 10
ENDMDL
