MODEL 11
REMARK VINA RESULT: -6.423298897      2.359      2.519
REMARK  10 active torsions:
REMARK  status: ('A' for Active; 'I' for Inactive)
REMARK    1  A    between atoms: C1_2  and  C2_4 
REMARK    2  A    between atoms: C5_7  and  C6_8 
REMARK       I    between atoms: C6_8  and  N1_10 
REMARK    3  A    between atoms: N1_10  and  C7_12 
REMARK    4  A    between atoms: C10_15  and  O4_16 
REMARK    5  A    between atoms: O4_16  and  C11_17 
REMARK    6  A    between atoms: C12_19  and  C13_20 
REMARK    7  A    between atoms: C13_20  and  O6_21 
REMARK    8  A    between atoms: C14_23  and  O7_24 
REMARK    9  A    between atoms: C15_26  and  O8_27 
REMARK   10  A    between atoms: C16_29  and  O9_30 
ROOT
HETATM    1  C7  UNL     1      -6.975  48.178 -12.728  1.00  0.00     0.036 A 
HETATM    2  C8  UNL     1      -6.640  49.093 -11.718  1.00  0.00     0.032 A 
HETATM    3  C9  UNL     1      -5.402  49.168 -11.178  1.00  0.00     0.041 A 
HETATM    4  C10 UNL     1      -4.335  48.323 -11.589  1.00  0.00     0.094 A 
HETATM    5  C17 UNL     1      -4.661  47.431 -12.573  1.00  0.00     0.069 A 
HETATM    6 CL1  UNL     1      -3.458  46.315 -13.195  1.00  0.00    -0.081 Cl
HETATM    7  C18 UNL     1      -5.951  47.370 -13.121  1.00  0.00     0.056 A 
ENDROOT
BRANCH   4   8
HETATM    8  O4  UNL     1      -3.167  48.513 -10.964  1.00  0.00    -0.316 OA
BRANCH   8   9
HETATM    9  C11 UNL     1      -2.689  48.283  -9.736  1.00  0.00     0.298 C 
HETATM   10  O5  UNL     1      -3.714  47.830  -8.833  1.00  0.00    -0.348 OA
HETATM   11  C12 UNL     1      -3.287  48.085  -7.543  1.00  0.00     0.179 C 
HETATM   12  C14 UNL     1      -1.809  48.000  -7.370  1.00  0.00     0.180 C 
HETATM   13  C15 UNL     1      -1.272  46.918  -8.278  1.00  0.00     0.183 C 
HETATM   14  C16 UNL     1      -1.693  47.108  -9.710  1.00  0.00     0.205 C 
BRANCH  11  15
HETATM   15  C13 UNL     1      -3.881  49.384  -7.045  1.00  0.00     0.198 C 
BRANCH  15  16
HETATM   16  O6  UNL     1      -2.859  50.332  -6.935  1.00  0.00    -0.398 OA
ATOM     17  H6  UNL     1      -3.044  51.051  -7.528  1.00  0.00     0.209 HD
ENDBRANCH  15  16
ENDBRANCH  11  15
BRANCH  12  18
HETATM   18  O7  UNL     1      -1.560  47.564  -6.054  1.00  0.00    -0.390 OA
ATOM     19  H7  UNL     1      -2.334  47.103  -5.754  1.00  0.00     0.210 HD
ENDBRANCH  12  18
BRANCH  13  20
HETATM   20  O8  UNL     1       0.113  46.811  -8.176  1.00  0.00    -0.390 OA
ATOM     21  H8  UNL     1       0.550  47.524  -8.625  1.00  0.00     0.210 HD
ENDBRANCH  13  20
BRANCH  14  22
HETATM   22  O9  UNL     1      -0.650  47.302 -10.580  1.00  0.00    -0.388 OA
ATOM     23  H9  UNL     1       0.107  47.676 -10.146  1.00  0.00     0.210 HD
ENDBRANCH  14  22
ENDBRANCH   8   9
ENDBRANCH   4   8
BRANCH   1  24
HETATM   24  N1  UNL     1      -8.297  48.185 -13.232  1.00  0.00    -0.323 N 
HETATM   25  C6  UNL     1      -9.336  47.332 -12.834  1.00  0.00     0.256 C 
HETATM   26  O3  UNL     1      -9.136  46.463 -11.947  1.00  0.00    -0.267 OA
ATOM     27  H1  UNL     1      -8.514  48.875 -13.951  1.00  0.00     0.169 HD
BRANCH  25  28
HETATM   28  C5  UNL     1     -10.669  47.454 -13.455  1.00  0.00     0.032 A 
HETATM   29  C4  UNL     1     -11.774  47.629 -12.612  1.00  0.00     0.018 A 
HETATM   30  C3  UNL     1     -13.054  47.744 -13.116  1.00  0.00     0.019 A 
HETATM   31  C2  UNL     1     -13.305  47.693 -14.471  1.00  0.00     0.040 A 
HETATM   32  C20 UNL     1     -12.220  47.522 -15.300  1.00  0.00     0.019 A 
HETATM   33  C19 UNL     1     -10.919  47.405 -14.794  1.00  0.00     0.018 A 
BRANCH  31  34
HETATM   34  C1  UNL     1     -14.645  47.814 -15.028  1.00  0.00     0.209 C 
HETATM   35  O1  UNL     1     -15.300  48.867 -14.858  1.00  0.00    -0.644 OA
HETATM   36  O2  UNL     1     -15.231  46.786 -15.752  1.00  0.00    -0.644 OA
ENDBRANCH  31  34
ENDBRANCH  25  28
ENDBRANCH   1  24
TORSDOF 10
ENDMDL
