MODEL 2
REMARK VINA RESULT: -8.023927633      0.969      1.141
REMARK  9 active torsions:
REMARK  status: ('A' for Active; 'I' for Inactive)
REMARK    1  A    between atoms: N1_2  and  C1_4 
REMARK    2  A    between atoms: N2_11  and  C8_12 
REMARK    3  A    between atoms: C11_15  and  O3_16 
REMARK    4  A    between atoms: O3_16  and  C12_17 
REMARK    5  A    between atoms: C13_19  and  C14_20 
REMARK    6  A    between atoms: C14_20  and  O5_21 
REMARK    7  A    between atoms: C15_23  and  O6_24 
REMARK    8  A    between atoms: C16_26  and  O7_27 
REMARK    9  A    between atoms: C17_29  and  O8_30 
ROOT
HETATM    1  C8  UNL     1     -31.634  -8.816 -11.556  1.00  0.00     0.039 A 
HETATM    2  C9  UNL     1     -31.212 -10.082 -11.218  1.00  0.00     0.033 A 
HETATM    3  C10 UNL     1     -30.003 -10.250 -10.619  1.00  0.00     0.039 A 
HETATM    4  C11 UNL     1     -29.209  -9.132 -10.356  1.00  0.00     0.072 A 
HETATM    5  C18 UNL     1     -29.631  -7.886 -10.693  1.00  0.00     0.039 A 
HETATM    6  C19 UNL     1     -30.863  -7.704 -11.306  1.00  0.00     0.033 A 
ENDROOT
BRANCH   4   7
HETATM    7  O3  UNL     1     -28.017  -9.362  -9.757  1.00  0.00    -0.318 OA
BRANCH   7   8
HETATM    8  C12 UNL     1     -26.840  -8.683 -10.032  1.00  0.00     0.298 C 
HETATM    9  O4  UNL     1     -26.919  -7.464  -9.303  1.00  0.00    -0.348 OA
HETATM   10  C13 UNL     1     -27.038  -7.870  -7.957  1.00  0.00     0.179 C 
HETATM   11  C15 UNL     1     -25.623  -8.050  -7.451  1.00  0.00     0.180 C 
HETATM   12  C16 UNL     1     -24.806  -8.597  -8.626  1.00  0.00     0.183 C 
HETATM   13  C17 UNL     1     -25.707  -9.528  -9.419  1.00  0.00     0.205 C 
BRANCH  10  14
HETATM   14  C14 UNL     1     -27.778  -6.789  -7.234  1.00  0.00     0.198 C 
BRANCH  14  15
HETATM   15  O5  UNL     1     -26.993  -5.619  -7.216  1.00  0.00    -0.398 OA
ATOM     16  H5  UNL     1     -27.064  -5.206  -6.363  1.00  0.00     0.209 HD
ENDBRANCH  14  15
ENDBRANCH  10  14
BRANCH  11  17
HETATM   17  O6  UNL     1     -25.558  -9.010  -6.438  1.00  0.00    -0.390 OA
ATOM     18  H6  UNL     1     -25.779  -8.640  -5.591  1.00  0.00     0.210 HD
ENDBRANCH  11  17
BRANCH  12  19
HETATM   19  O7  UNL     1     -24.420  -7.575  -9.491  1.00  0.00    -0.390 OA
ATOM     20  H7  UNL     1     -25.152  -7.007  -9.701  1.00  0.00     0.210 HD
ENDBRANCH  12  19
BRANCH  13  21
HETATM   21  O8  UNL     1     -25.018 -10.093 -10.476  1.00  0.00    -0.388 OA
ATOM     22  H8  UNL     1     -24.527 -10.824 -10.120  1.00  0.00     0.210 HD
ENDBRANCH  13  21
ENDBRANCH   7   8
ENDBRANCH   4   7
BRANCH   1  23
HETATM   23  N2  UNL     1     -32.893  -8.619 -12.184  1.00  0.00    -0.322 N 
HETATM   24  C4  UNL     1     -34.045  -9.120 -11.733  1.00  0.00     0.049 A 
HETATM   25  C3  UNL     1     -34.387  -9.909 -10.635  1.00  0.00     0.033 A 
HETATM   26  C5  UNL     1     -35.028  -8.711 -12.605  1.00  0.00    -0.005 A 
HETATM   27  C2  UNL     1     -35.697 -10.279 -10.423  1.00  0.00     0.038 A 
HETATM   28  C1  UNL     1     -36.697  -9.881 -11.284  1.00  0.00     0.103 A 
HETATM   29  C20 UNL     1     -36.332  -9.105 -12.356  1.00  0.00     0.049 A 
HETATM   30  C6  UNL     1     -34.412  -7.955 -13.581  1.00  0.00     0.031 A 
HETATM   31  C7  UNL     1     -33.062  -7.901 -13.309  1.00  0.00     0.098 A 
BRANCH  28  32
HETATM   32  N1  UNL     1     -38.054 -10.271 -11.052  1.00  0.00    -0.116 N 
HETATM   33  O1  UNL     1     -38.372 -11.454 -11.209  1.00  0.00    -0.532 OA
HETATM   34  O2  UNL     1     -38.984  -9.331 -10.662  1.00  0.00    -0.532 OA
ENDBRANCH  28  32
ENDBRANCH   1  23
TORSDOF 9
ENDMDL
