MODEL 3
REMARK VINA RESULT: -7.877877123      3.059      3.769
REMARK  9 active torsions:
REMARK  status: ('A' for Active; 'I' for Inactive)
REMARK    1  A    between atoms: N1_2  and  C1_4 
REMARK    2  A    between atoms: N2_11  and  C8_12 
REMARK    3  A    between atoms: C11_15  and  O3_16 
REMARK    4  A    between atoms: O3_16  and  C12_17 
REMARK    5  A    between atoms: C13_19  and  C14_20 
REMARK    6  A    between atoms: C14_20  and  O5_21 
REMARK    7  A    between atoms: C15_23  and  O6_24 
REMARK    8  A    between atoms: C16_26  and  O7_27 
REMARK    9  A    between atoms: C17_29  and  O8_30 
ROOT
HETATM    1  C8  UNL     1     -30.750  -7.621 -12.696  1.00  0.00     0.039 A 
HETATM    2  C9  UNL     1     -29.463  -7.656 -13.183  1.00  0.00     0.033 A 
HETATM    3  C10 UNL     1     -28.463  -8.147 -12.404  1.00  0.00     0.039 A 
HETATM    4  C11 UNL     1     -28.760  -8.610 -11.121  1.00  0.00     0.072 A 
HETATM    5  C18 UNL     1     -30.032  -8.574 -10.647  1.00  0.00     0.039 A 
HETATM    6  C19 UNL     1     -31.060  -8.073 -11.434  1.00  0.00     0.033 A 
ENDROOT
BRANCH   4   7
HETATM    7  O3  UNL     1     -27.723  -9.088 -10.393  1.00  0.00    -0.318 OA
BRANCH   7   8
HETATM    8  C12 UNL     1     -26.446  -8.550 -10.371  1.00  0.00     0.298 C 
HETATM    9  O4  UNL     1     -26.561  -7.313  -9.677  1.00  0.00    -0.348 OA
HETATM   10  C13 UNL     1     -27.047  -7.672  -8.402  1.00  0.00     0.179 C 
HETATM   11  C15 UNL     1     -25.826  -7.997  -7.569  1.00  0.00     0.180 C 
HETATM   12  C16 UNL     1     -24.816  -8.658  -8.512  1.00  0.00     0.183 C 
HETATM   13  C17 UNL     1     -25.598  -9.501  -9.504  1.00  0.00     0.205 C 
BRANCH  10  14
HETATM   14  C14 UNL     1     -27.814  -6.501  -7.875  1.00  0.00     0.198 C 
BRANCH  14  15
HETATM   15  O5  UNL     1     -27.011  -5.795  -6.956  1.00  0.00    -0.398 OA
ATOM     16  H5  UNL     1     -27.449  -5.767  -6.114  1.00  0.00     0.209 HD
ENDBRANCH  14  15
ENDBRANCH  10  14
BRANCH  11  17
HETATM   17  O6  UNL     1     -26.117  -8.934  -6.575  1.00  0.00    -0.390 OA
ATOM     18  H6  UNL     1     -26.055  -9.824  -6.903  1.00  0.00     0.210 HD
ENDBRANCH  11  17
BRANCH  12  19
HETATM   19  O7  UNL     1     -24.119  -7.704  -9.253  1.00  0.00    -0.390 OA
ATOM     20  H7  UNL     1     -24.139  -7.909 -10.181  1.00  0.00     0.210 HD
ENDBRANCH  12  19
BRANCH  13  21
HETATM   21  O8  UNL     1     -24.742 -10.163 -10.365  1.00  0.00    -0.388 OA
ATOM     22  H8  UNL     1     -24.384 -10.897  -9.880  1.00  0.00     0.210 HD
ENDBRANCH  13  21
ENDBRANCH   7   8
ENDBRANCH   4   7
BRANCH   1  23
HETATM   23  N2  UNL     1     -31.809  -7.111 -13.494  1.00  0.00    -0.322 N 
HETATM   24  C4  UNL     1     -32.109  -5.815 -13.607  1.00  0.00     0.049 A 
HETATM   25  C3  UNL     1     -31.568  -4.652 -13.061  1.00  0.00     0.033 A 
HETATM   26  C5  UNL     1     -33.185  -5.727 -14.460  1.00  0.00    -0.005 A 
HETATM   27  C2  UNL     1     -32.105  -3.420 -13.371  1.00  0.00     0.038 A 
HETATM   28  C1  UNL     1     -33.183  -3.310 -14.223  1.00  0.00     0.103 A 
HETATM   29  C20 UNL     1     -33.695  -4.471 -14.745  1.00  0.00     0.049 A 
HETATM   30  C6  UNL     1     -33.505  -7.013 -14.841  1.00  0.00     0.031 A 
HETATM   31  C7  UNL     1     -32.631  -7.884 -14.226  1.00  0.00     0.098 A 
BRANCH  28  32
HETATM   32  N1  UNL     1     -33.731  -2.026 -14.537  1.00  0.00    -0.116 N 
HETATM   33  O1  UNL     1     -34.209  -1.837 -15.660  1.00  0.00    -0.532 OA
HETATM   34  O2  UNL     1     -33.718  -1.021 -13.592  1.00  0.00    -0.532 OA
ENDBRANCH  28  32
ENDBRANCH   1  23
TORSDOF 9
ENDMDL
