MODEL 1
REMARK VINA RESULT: -8.126941846      0.000      0.000
REMARK  9 active torsions:
REMARK  status: ('A' for Active; 'I' for Inactive)
REMARK    1  A    between atoms: N1_2  and  C1_4 
REMARK    2  A    between atoms: N2_11  and  C8_12 
REMARK    3  A    between atoms: C11_15  and  O3_16 
REMARK    4  A    between atoms: O3_16  and  C12_17 
REMARK    5  A    between atoms: C13_19  and  C14_20 
REMARK    6  A    between atoms: C14_20  and  O5_21 
REMARK    7  A    between atoms: C15_23  and  O6_24 
REMARK    8  A    between atoms: C16_26  and  O7_27 
REMARK    9  A    between atoms: C17_29  and  O8_30 
ROOT
HETATM    1  C8  UNL     1     -31.371  -7.985 -12.101  1.00  0.00     0.039 A 
HETATM    2  C9  UNL     1     -31.153  -9.287 -11.714  1.00  0.00     0.033 A 
HETATM    3  C10 UNL     1     -30.045  -9.596 -10.990  1.00  0.00     0.039 A 
HETATM    4  C11 UNL     1     -29.146  -8.584 -10.650  1.00  0.00     0.072 A 
HETATM    5  C18 UNL     1     -29.367  -7.300 -11.035  1.00  0.00     0.039 A 
HETATM    6  C19 UNL     1     -30.495  -6.975 -11.775  1.00  0.00     0.033 A 
ENDROOT
BRANCH   4   7
HETATM    7  O3  UNL     1     -28.061  -8.952  -9.928  1.00  0.00    -0.318 OA
BRANCH   7   8
HETATM    8  C12 UNL     1     -26.796  -8.398 -10.046  1.00  0.00     0.298 C 
HETATM    9  O4  UNL     1     -26.816  -7.218  -9.251  1.00  0.00    -0.348 OA
HETATM   10  C13 UNL     1     -27.115  -7.678  -7.951  1.00  0.00     0.179 C 
HETATM   11  C15 UNL     1     -25.787  -8.046  -7.326  1.00  0.00     0.180 C 
HETATM   12  C16 UNL     1     -24.918  -8.619  -8.450  1.00  0.00     0.183 C 
HETATM   13  C17 UNL     1     -25.829  -9.398  -9.383  1.00  0.00     0.205 C 
BRANCH  10  14
HETATM   14  C14 UNL     1     -27.804  -6.560  -7.233  1.00  0.00     0.198 C 
BRANCH  14  15
HETATM   15  O5  UNL     1     -26.951  -5.439  -7.193  1.00  0.00    -0.398 OA
ATOM     16  H5  UNL     1     -27.467  -4.659  -7.025  1.00  0.00     0.209 HD
ENDBRANCH  14  15
ENDBRANCH  10  14
BRANCH  11  17
HETATM   17  O6  UNL     1     -25.929  -9.058  -6.374  1.00  0.00    -0.390 OA
ATOM     18  H6  UNL     1     -25.287  -8.978  -5.678  1.00  0.00     0.210 HD
ENDBRANCH  11  17
BRANCH  12  19
HETATM   19  O7  UNL     1     -24.338  -7.603  -9.207  1.00  0.00    -0.390 OA
ATOM     20  H7  UNL     1     -24.715  -7.566 -10.079  1.00  0.00     0.210 HD
ENDBRANCH  12  19
BRANCH  13  21
HETATM   21  O8  UNL     1     -25.102  -9.981 -10.403  1.00  0.00    -0.388 OA
ATOM     22  H8  UNL     1     -24.259 -10.216 -10.035  1.00  0.00     0.210 HD
ENDBRANCH  13  21
ENDBRANCH   7   8
ENDBRANCH   4   7
BRANCH   1  23
HETATM   23  N2  UNL     1     -32.523  -7.641 -12.859  1.00  0.00    -0.322 N 
HETATM   24  C4  UNL     1     -33.740  -8.149 -12.652  1.00  0.00     0.049 A 
HETATM   25  C3  UNL     1     -34.254  -9.074 -11.744  1.00  0.00     0.033 A 
HETATM   26  C5  UNL     1     -34.577  -7.573 -13.579  1.00  0.00    -0.005 A 
HETATM   27  C2  UNL     1     -35.590  -9.411 -11.772  1.00  0.00     0.038 A 
HETATM   28  C1  UNL     1     -36.446  -8.846 -12.693  1.00  0.00     0.103 A 
HETATM   29  C20 UNL     1     -35.913  -7.939 -13.574  1.00  0.00     0.049 A 
HETATM   30  C6  UNL     1     -33.810  -6.711 -14.336  1.00  0.00     0.031 A 
HETATM   31  C7  UNL     1     -32.512  -6.759 -13.875  1.00  0.00     0.098 A 
BRANCH  28  32
HETATM   32  N1  UNL     1     -37.831  -9.204 -12.711  1.00  0.00    -0.116 N 
HETATM   33  O1  UNL     1     -38.190 -10.175 -13.384  1.00  0.00    -0.532 OA
HETATM   34  O2  UNL     1     -38.743  -8.466 -11.986  1.00  0.00    -0.532 OA
ENDBRANCH  28  32
ENDBRANCH   1  23
TORSDOF 9
ENDMDL
