MODEL 4
REMARK VINA RESULT: -7.521678533      4.221      5.554
REMARK  9 active torsions:
REMARK  status: ('A' for Active; 'I' for Inactive)
REMARK    1  A    between atoms: N1_2  and  C1_4 
REMARK    2  A    between atoms: N2_11  and  C8_12 
REMARK    3  A    between atoms: C11_15  and  O3_16 
REMARK    4  A    between atoms: O3_16  and  C12_17 
REMARK    5  A    between atoms: C13_19  and  C14_20 
REMARK    6  A    between atoms: C14_20  and  O5_21 
REMARK    7  A    between atoms: C15_23  and  O6_24 
REMARK    8  A    between atoms: C16_26  and  O7_27 
REMARK    9  A    between atoms: C17_29  and  O8_30 
ROOT
HETATM    1  C8  UNL     1     -29.819  -5.802 -13.273  1.00  0.00     0.039 A 
HETATM    2  C9  UNL     1     -28.526  -6.164 -13.571  1.00  0.00     0.033 A 
HETATM    3  C10 UNL     1     -27.843  -6.979 -12.725  1.00  0.00     0.039 A 
HETATM    4  C11 UNL     1     -28.469  -7.438 -11.564  1.00  0.00     0.072 A 
HETATM    5  C18 UNL     1     -29.747  -7.077 -11.275  1.00  0.00     0.039 A 
HETATM    6  C19 UNL     1     -30.451  -6.244 -12.133  1.00  0.00     0.033 A 
ENDROOT
BRANCH   4   7
HETATM    7  O3  UNL     1     -27.740  -8.247 -10.760  1.00  0.00    -0.318 OA
BRANCH   7   8
HETATM    8  C12 UNL     1     -26.450  -7.990 -10.323  1.00  0.00     0.298 C 
HETATM    9  O4  UNL     1     -26.578  -7.005  -9.304  1.00  0.00    -0.348 OA
HETATM   10  C13 UNL     1     -27.396  -7.616  -8.329  1.00  0.00     0.179 C 
HETATM   11  C15 UNL     1     -26.458  -8.390  -7.428  1.00  0.00     0.180 C 
HETATM   12  C16 UNL     1     -25.339  -8.931  -8.323  1.00  0.00     0.183 C 
HETATM   13  C17 UNL     1     -25.956  -9.291  -9.663  1.00  0.00     0.205 C 
BRANCH  10  14
HETATM   14  C14 UNL     1     -28.119  -6.521  -7.610  1.00  0.00     0.198 C 
BRANCH  14  15
HETATM   15  O5  UNL     1     -27.193  -5.540  -7.204  1.00  0.00    -0.398 OA
ATOM     16  H5  UNL     1     -26.653  -5.292  -7.946  1.00  0.00     0.209 HD
ENDBRANCH  14  15
ENDBRANCH  10  14
BRANCH  11  17
HETATM   17  O6  UNL     1     -27.090  -9.500  -6.863  1.00  0.00    -0.390 OA
ATOM     18  H6  UNL     1     -26.827 -10.308  -7.290  1.00  0.00     0.210 HD
ENDBRANCH  11  17
BRANCH  12  19
HETATM   19  O7  UNL     1     -24.375  -7.955  -8.571  1.00  0.00    -0.390 OA
ATOM     20  H7  UNL     1     -23.503  -8.273  -8.366  1.00  0.00     0.210 HD
ENDBRANCH  12  19
BRANCH  13  21
HETATM   21  O8  UNL     1     -25.005  -9.828 -10.511  1.00  0.00    -0.388 OA
ATOM     22  H8  UNL     1     -24.501 -10.447  -9.997  1.00  0.00     0.210 HD
ENDBRANCH  13  21
ENDBRANCH   7   8
ENDBRANCH   4   7
BRANCH   1  23
HETATM   23  N2  UNL     1     -30.549  -4.949 -14.144  1.00  0.00    -0.322 N 
HETATM   24  C4  UNL     1     -30.590  -3.620 -14.036  1.00  0.00     0.049 A 
HETATM   25  C3  UNL     1     -30.013  -2.708 -13.152  1.00  0.00     0.033 A 
HETATM   26  C5  UNL     1     -31.393  -3.160 -15.055  1.00  0.00    -0.005 A 
HETATM   27  C2  UNL     1     -30.243  -1.356 -13.295  1.00  0.00     0.038 A 
HETATM   28  C1  UNL     1     -31.045  -0.876 -14.308  1.00  0.00     0.103 A 
HETATM   29  C20 UNL     1     -31.599  -1.794 -15.162  1.00  0.00     0.049 A 
HETATM   30  C6  UNL     1     -31.821  -4.265 -15.762  1.00  0.00     0.031 A 
HETATM   31  C7  UNL     1     -31.283  -5.394 -15.181  1.00  0.00     0.098 A 
BRANCH  28  32
HETATM   32  N1  UNL     1     -31.276   0.530 -14.445  1.00  0.00    -0.116 N 
HETATM   33  O1  UNL     1     -31.074   1.066 -15.540  1.00  0.00    -0.532 OA
HETATM   34  O2  UNL     1     -31.715   1.265 -13.364  1.00  0.00    -0.532 OA
ENDBRANCH  28  32
ENDBRANCH   1  23
TORSDOF 9
ENDMDL
