MODEL 5
REMARK VINA RESULT: -7.510595260      3.479      4.338
REMARK  9 active torsions:
REMARK  status: ('A' for Active; 'I' for Inactive)
REMARK    1  A    between atoms: N1_2  and  C1_4 
REMARK    2  A    between atoms: N2_11  and  C8_12 
REMARK    3  A    between atoms: C11_15  and  O3_16 
REMARK    4  A    between atoms: O3_16  and  C12_17 
REMARK    5  A    between atoms: C13_19  and  C14_20 
REMARK    6  A    between atoms: C14_20  and  O5_21 
REMARK    7  A    between atoms: C15_23  and  O6_24 
REMARK    8  A    between atoms: C16_26  and  O7_27 
REMARK    9  A    between atoms: C17_29  and  O8_30 
ROOT
HETATM    1  C8  UNL     1     -30.453  -6.846 -13.185  1.00  0.00     0.039 A 
HETATM    2  C9  UNL     1     -30.935  -7.468 -12.056  1.00  0.00     0.033 A 
HETATM    3  C10 UNL     1     -30.065  -8.017 -11.168  1.00  0.00     0.039 A 
HETATM    4  C11 UNL     1     -28.694  -7.939 -11.416  1.00  0.00     0.072 A 
HETATM    5  C18 UNL     1     -28.224  -7.323 -12.533  1.00  0.00     0.039 A 
HETATM    6  C19 UNL     1     -29.105  -6.760 -13.446  1.00  0.00     0.033 A 
ENDROOT
BRANCH   4   7
HETATM    7  O3  UNL     1     -27.876  -8.503 -10.496  1.00  0.00    -0.318 OA
BRANCH   7   8
HETATM    8  C12 UNL     1     -26.558  -8.140 -10.266  1.00  0.00     0.298 C 
HETATM    9  O4  UNL     1     -26.613  -7.034  -9.372  1.00  0.00    -0.348 OA
HETATM   10  C13 UNL     1     -27.268  -7.542  -8.230  1.00  0.00     0.179 C 
HETATM   11  C15 UNL     1     -26.185  -8.153  -7.368  1.00  0.00     0.180 C 
HETATM   12  C16 UNL     1     -25.157  -8.764  -8.325  1.00  0.00     0.183 C 
HETATM   13  C17 UNL     1     -25.914  -9.322  -9.518  1.00  0.00     0.205 C 
BRANCH  10  14
HETATM   14  C14 UNL     1     -27.957  -6.391  -7.567  1.00  0.00     0.198 C 
BRANCH  14  15
HETATM   15  O5  UNL     1     -26.995  -5.442  -7.167  1.00  0.00    -0.398 OA
ATOM     16  H5  UNL     1     -27.089  -4.658  -7.696  1.00  0.00     0.209 HD
ENDBRANCH  14  15
ENDBRANCH  10  14
BRANCH  11  17
HETATM   17  O6  UNL     1     -26.679  -9.202  -6.589  1.00  0.00    -0.390 OA
ATOM     18  H6  UNL     1     -26.016  -9.542  -5.999  1.00  0.00     0.210 HD
ENDBRANCH  11  17
BRANCH  12  19
HETATM   19  O7  UNL     1     -24.287  -7.792  -8.818  1.00  0.00    -0.390 OA
ATOM     20  H7  UNL     1     -24.060  -7.963  -9.725  1.00  0.00     0.210 HD
ENDBRANCH  12  19
BRANCH  13  21
HETATM   21  O8  UNL     1     -25.048  -9.929 -10.407  1.00  0.00    -0.388 OA
ATOM     22  H8  UNL     1     -24.238 -10.083  -9.935  1.00  0.00     0.210 HD
ENDBRANCH  13  21
ENDBRANCH   7   8
ENDBRANCH   4   7
BRANCH   1  23
HETATM   23  N2  UNL     1     -31.346  -6.266 -14.126  1.00  0.00    -0.322 N 
HETATM   24  C4  UNL     1     -31.689  -4.977 -14.143  1.00  0.00     0.049 A 
HETATM   25  C3  UNL     1     -31.345  -3.879 -13.354  1.00  0.00     0.033 A 
HETATM   26  C5  UNL     1     -32.562  -4.808 -15.194  1.00  0.00    -0.005 A 
HETATM   27  C2  UNL     1     -31.873  -2.635 -13.621  1.00  0.00     0.038 A 
HETATM   28  C1  UNL     1     -32.750  -2.445 -14.668  1.00  0.00     0.103 A 
HETATM   29  C20 UNL     1     -33.070  -3.541 -15.428  1.00  0.00     0.049 A 
HETATM   30  C6  UNL     1     -32.718  -6.043 -15.790  1.00  0.00     0.031 A 
HETATM   31  C7  UNL     1     -31.947  -6.961 -15.110  1.00  0.00     0.098 A 
BRANCH  28  32
HETATM   32  N1  UNL     1     -33.291  -1.148 -14.935  1.00  0.00    -0.116 N 
HETATM   33  O1  UNL     1     -34.486  -0.938 -14.703  1.00  0.00    -0.532 OA
HETATM   34  O2  UNL     1     -32.482  -0.155 -15.447  1.00  0.00    -0.532 OA
ENDBRANCH  28  32
ENDBRANCH   1  23
TORSDOF 9
ENDMDL
