MODEL 11
REMARK VINA RESULT: -6.546716631      2.623      3.640
REMARK  10 active torsions:
REMARK  status: ('A' for Active; 'I' for Inactive)
REMARK    1  A    between atoms: N2_5  and  C4_6 
REMARK    2  A    between atoms: C5_7  and  N3_8 
REMARK    3  A    between atoms: N3_8  and  C6_10 
REMARK    4  A    between atoms: C9_13  and  O1_14 
REMARK    5  A    between atoms: O1_14  and  C10_15 
REMARK    6  A    between atoms: C11_17  and  C12_18 
REMARK    7  A    between atoms: C12_18  and  O3_19 
REMARK    8  A    between atoms: C13_21  and  O4_22 
REMARK    9  A    between atoms: C14_24  and  O5_25 
REMARK   10  A    between atoms: C15_27  and  O6_28 
ROOT
HETATM    1  C6  UNL     1      11.507  17.830 -19.270  1.00  0.00     0.034 A 
HETATM    2  C7  UNL     1      11.911  17.965 -17.934  1.00  0.00     0.032 A 
HETATM    3  C8  UNL     1      11.376  17.228 -16.930  1.00  0.00     0.041 A 
HETATM    4  C9  UNL     1      10.361  16.261 -17.155  1.00  0.00     0.094 A 
HETATM    5  C16 UNL     1       9.966  16.127 -18.456  1.00  0.00     0.069 A 
HETATM    6 CL1  UNL     1       8.730  14.972 -18.882  1.00  0.00    -0.081 Cl
HETATM    7  C17 UNL     1      10.533  16.897 -19.476  1.00  0.00     0.056 A 
ENDROOT
BRANCH   4   8
HETATM    8  O1  UNL     1       9.918  15.604 -16.077  1.00  0.00    -0.316 OA
BRANCH   8   9
HETATM    9  C10 UNL     1      10.375  14.628 -15.281  1.00  0.00     0.298 C 
HETATM   10  O2  UNL     1      10.793  15.205 -14.056  1.00  0.00    -0.348 OA
HETATM   11  C11 UNL     1      11.418  14.314 -13.228  1.00  0.00     0.179 C 
HETATM   12  C13 UNL     1      10.673  13.053 -12.954  1.00  0.00     0.180 C 
HETATM   13  C14 UNL     1       9.853  12.560 -14.097  1.00  0.00     0.183 C 
HETATM   14  C15 UNL     1       9.218  13.697 -14.832  1.00  0.00     0.205 C 
BRANCH  11  15
HETATM   15  C12 UNL     1      12.866  14.028 -13.649  1.00  0.00     0.198 C 
BRANCH  15  16
HETATM   16  O3  UNL     1      13.606  15.208 -13.606  1.00  0.00    -0.398 OA
ATOM     17  H3  UNL     1      14.493  15.037 -13.899  1.00  0.00     0.209 HD
ENDBRANCH  15  16
ENDBRANCH  11  15
BRANCH  12  18
HETATM   18  O4  UNL     1       9.843  13.241 -11.827  1.00  0.00    -0.390 OA
ATOM     19  H4  UNL     1       9.964  12.514 -11.227  1.00  0.00     0.210 HD
ENDBRANCH  12  18
BRANCH  13  20
HETATM   20  O5  UNL     1      10.523  11.682 -14.937  1.00  0.00    -0.390 OA
ATOM     21  H5  UNL     1       9.960  11.233 -15.557  1.00  0.00     0.210 HD
ENDBRANCH  13  20
BRANCH  14  22
HETATM   22  O6  UNL     1       8.470  13.288 -15.917  1.00  0.00    -0.388 OA
ATOM     23  H6  UNL     1       7.858  13.966 -16.178  1.00  0.00     0.210 HD
ENDBRANCH  14  22
ENDBRANCH   8   9
ENDBRANCH   4   8
BRANCH   1  24
HETATM   24  N3  UNL     1      12.153  18.625 -20.224  1.00  0.00    -0.351 N 
ATOM     25  H3  UNL     1      11.585  19.225 -20.822  1.00  0.00     0.166 HD
BRANCH  24  26
HETATM   26  C5  UNL     1      13.555  18.638 -20.399  1.00  0.00     0.118 A 
HETATM   27  C4  UNL     1      14.440  17.639 -20.846  1.00  0.00     0.116 A 
HETATM   28  C19 UNL     1      15.494  18.495 -20.648  1.00  0.00     0.252 A 
HETATM   29  C18 UNL     1      14.625  19.485 -20.205  1.00  0.00     0.253 A 
HETATM   30  O8  UNL     1      16.739  18.466 -20.785  1.00  0.00    -0.281 OA
HETATM   31  O7  UNL     1      14.803  20.670 -19.797  1.00  0.00    -0.281 OA
BRANCH  27  32
HETATM   32  N2  UNL     1      14.299  16.323 -21.302  1.00  0.00    -0.372 N 
HETATM   33  C3  UNL     1      13.133  15.942 -22.069  1.00  0.00     0.153 C 
HETATM   34  C2  UNL     1      12.502  14.660 -21.577  1.00  0.00     0.291 C 
HETATM   35  N1  UNL     1      13.471  13.668 -21.219  1.00  0.00     0.087 N 
HETATM   36  C1  UNL     1      13.109  12.425 -21.889  1.00  0.00     0.310 C 
HETATM   37  C21 UNL     1      14.811  14.008 -21.656  1.00  0.00     0.291 C 
HETATM   38  C20 UNL     1      15.288  15.305 -21.034  1.00  0.00     0.153 C 
ENDBRANCH  27  32
ENDBRANCH  24  26
ENDBRANCH   1  24
TORSDOF 10
ENDMDL
