MODEL 3
REMARK VINA RESULT: -6.759947840      2.330      3.853
REMARK  10 active torsions:
REMARK  status: ('A' for Active; 'I' for Inactive)
REMARK    1  A    between atoms: N2_5  and  C4_6 
REMARK    2  A    between atoms: C5_7  and  N3_8 
REMARK    3  A    between atoms: N3_8  and  C6_10 
REMARK    4  A    between atoms: C9_13  and  O1_14 
REMARK    5  A    between atoms: O1_14  and  C10_15 
REMARK    6  A    between atoms: C11_17  and  C12_18 
REMARK    7  A    between atoms: C12_18  and  O3_19 
REMARK    8  A    between atoms: C13_21  and  O4_22 
REMARK    9  A    between atoms: C14_24  and  O5_25 
REMARK   10  A    between atoms: C15_27  and  O6_28 
ROOT
HETATM    1  C6  UNL     1      11.261  18.057 -18.026  1.00  0.00     0.034 A 
HETATM    2  C7  UNL     1      12.057  16.963 -17.657  1.00  0.00     0.032 A 
HETATM    3  C8  UNL     1      11.852  16.262 -16.515  1.00  0.00     0.041 A 
HETATM    4  C9  UNL     1      10.813  16.583 -15.602  1.00  0.00     0.094 A 
HETATM    5  C16 UNL     1      10.036  17.648 -15.959  1.00  0.00     0.069 A 
HETATM    6 CL1  UNL     1       8.718  18.155 -14.934  1.00  0.00    -0.081 Cl
HETATM    7  C17 UNL     1      10.265  18.356 -17.143  1.00  0.00     0.056 A 
ENDROOT
BRANCH   4   8
HETATM    8  O1  UNL     1      10.722  15.813 -14.512  1.00  0.00    -0.316 OA
BRANCH   8   9
HETATM    9  C10 UNL     1      10.138  14.650 -14.193  1.00  0.00     0.298 C 
HETATM   10  O2  UNL     1       9.880  13.934 -15.389  1.00  0.00    -0.348 OA
HETATM   11  C11 UNL     1       9.146  12.797 -15.187  1.00  0.00     0.179 C 
HETATM   12  C13 UNL     1       9.673  11.863 -14.152  1.00  0.00     0.180 C 
HETATM   13  C14 UNL     1      10.345  12.531 -13.002  1.00  0.00     0.183 C 
HETATM   14  C15 UNL     1      11.135  13.717 -13.457  1.00  0.00     0.205 C 
BRANCH  11  15
HETATM   15  C12 UNL     1       7.653  13.085 -14.973  1.00  0.00     0.198 C 
BRANCH  15  16
HETATM   16  O3  UNL     1       6.914  11.932 -15.232  1.00  0.00    -0.398 OA
ATOM     17  H3  UNL     1       6.012  12.168 -15.412  1.00  0.00     0.209 HD
ENDBRANCH  15  16
ENDBRANCH  11  15
BRANCH  12  18
HETATM   18  O4  UNL     1      10.571  10.958 -14.761  1.00  0.00    -0.390 OA
ATOM     19  H4  UNL     1      11.113  11.429 -15.382  1.00  0.00     0.210 HD
ENDBRANCH  12  18
BRANCH  13  20
HETATM   20  O5  UNL     1       9.498  12.821 -11.942  1.00  0.00    -0.390 OA
ATOM     21  H5  UNL     1       9.210  12.057 -11.456  1.00  0.00     0.210 HD
ENDBRANCH  13  20
BRANCH  14  22
HETATM   22  O6  UNL     1      11.753  14.383 -12.419  1.00  0.00    -0.388 OA
ATOM     23  H6  UNL     1      12.171  15.178 -12.731  1.00  0.00     0.210 HD
ENDBRANCH  14  22
ENDBRANCH   8   9
ENDBRANCH   4   8
BRANCH   1  24
HETATM   24  N3  UNL     1      11.550  18.684 -19.243  1.00  0.00    -0.351 N 
ATOM     25  H3  UNL     1      10.773  18.953 -19.847  1.00  0.00     0.166 HD
BRANCH  24  26
HETATM   26  C5  UNL     1      12.865  18.962 -19.678  1.00  0.00     0.118 A 
HETATM   27  C4  UNL     1      13.802  18.165 -20.360  1.00  0.00     0.116 A 
HETATM   28  C19 UNL     1      14.711  19.190 -20.297  1.00  0.00     0.252 A 
HETATM   29  C18 UNL     1      13.790  19.983 -19.622  1.00  0.00     0.253 A 
HETATM   30  O8  UNL     1      15.889  19.398 -20.668  1.00  0.00    -0.281 OA
HETATM   31  O7  UNL     1      13.839  21.162 -19.163  1.00  0.00    -0.281 OA
BRANCH  27  32
HETATM   32  N2  UNL     1      13.802  16.866 -20.884  1.00  0.00    -0.372 N 
HETATM   33  C3  UNL     1      12.636  16.363 -21.577  1.00  0.00     0.153 C 
HETATM   34  C2  UNL     1      12.231  14.982 -21.115  1.00  0.00     0.291 C 
HETATM   35  N1  UNL     1      13.354  14.120 -20.899  1.00  0.00     0.087 N 
HETATM   36  C1  UNL     1      13.107  12.874 -21.613  1.00  0.00     0.310 C 
HETATM   37  C21 UNL     1      14.591  14.667 -21.421  1.00  0.00     0.291 C 
HETATM   38  C20 UNL     1      14.940  15.986 -20.760  1.00  0.00     0.153 C 
ENDBRANCH  27  32
ENDBRANCH  24  26
ENDBRANCH   1  24
TORSDOF 10
ENDMDL
