MODEL 2
REMARK VINA RESULT: -6.848705291      2.183      3.142
REMARK  10 active torsions:
REMARK  status: ('A' for Active; 'I' for Inactive)
REMARK    1  A    between atoms: N2_5  and  C4_6 
REMARK    2  A    between atoms: C5_7  and  N3_8 
REMARK    3  A    between atoms: N3_8  and  C6_10 
REMARK    4  A    between atoms: C9_13  and  O1_14 
REMARK    5  A    between atoms: O1_14  and  C10_15 
REMARK    6  A    between atoms: C11_17  and  C12_18 
REMARK    7  A    between atoms: C12_18  and  O3_19 
REMARK    8  A    between atoms: C13_21  and  O4_22 
REMARK    9  A    between atoms: C14_24  and  O5_25 
REMARK   10  A    between atoms: C15_27  and  O6_28 
ROOT
HETATM    1  C6  UNL     1      11.380  18.793 -18.363  1.00  0.00     0.034 A 
HETATM    2  C7  UNL     1      11.937  17.546 -18.040  1.00  0.00     0.032 A 
HETATM    3  C8  UNL     1      11.451  16.764 -17.045  1.00  0.00     0.041 A 
HETATM    4  C9  UNL     1      10.338  17.148 -16.252  1.00  0.00     0.094 A 
HETATM    5  C16 UNL     1       9.794  18.361 -16.564  1.00  0.00     0.069 A 
HETATM    6 CL1  UNL     1       8.418  18.959 -15.674  1.00  0.00    -0.081 Cl
HETATM    7  C17 UNL     1      10.311  19.151 -17.595  1.00  0.00     0.056 A 
ENDROOT
BRANCH   4   8
HETATM    8  O1  UNL     1       9.961  16.284 -15.302  1.00  0.00    -0.316 OA
BRANCH   8   9
HETATM    9  C10 UNL     1      10.423  15.130 -14.803  1.00  0.00     0.298 C 
HETATM   10  O2  UNL     1      10.901  15.368 -13.489  1.00  0.00    -0.348 OA
HETATM   11  C11 UNL     1      11.535  14.285 -12.944  1.00  0.00     0.179 C 
HETATM   12  C13 UNL     1      10.769  13.007 -12.970  1.00  0.00     0.180 C 
HETATM   13  C14 UNL     1       9.895  12.836 -14.164  1.00  0.00     0.183 C 
HETATM   14  C15 UNL     1       9.261  14.132 -14.557  1.00  0.00     0.205 C 
BRANCH  11  15
HETATM   15  C12 UNL     1      12.958  14.095 -13.486  1.00  0.00     0.198 C 
BRANCH  15  16
HETATM   16  O3  UNL     1      13.642  15.309 -13.436  1.00  0.00    -0.398 OA
ATOM     17  H3  UNL     1      14.502  15.173 -13.058  1.00  0.00     0.209 HD
ENDBRANCH  15  16
ENDBRANCH  11  15
BRANCH  12  18
HETATM   18  O4  UNL     1       9.987  12.912 -11.797  1.00  0.00    -0.390 OA
ATOM     19  H4  UNL     1       9.105  12.652 -12.033  1.00  0.00     0.210 HD
ENDBRANCH  12  18
BRANCH  13  20
HETATM   20  O5  UNL     1      10.510  12.192 -15.229  1.00  0.00    -0.390 OA
ATOM     21  H5  UNL     1      10.406  12.636 -16.062  1.00  0.00     0.210 HD
ENDBRANCH  13  20
BRANCH  14  22
HETATM   22  O6  UNL     1       8.463  14.026 -15.677  1.00  0.00    -0.388 OA
ATOM     23  H6  UNL     1       8.303  14.881 -16.059  1.00  0.00     0.210 HD
ENDBRANCH  14  22
ENDBRANCH   8   9
ENDBRANCH   4   8
BRANCH   1  24
HETATM   24  N3  UNL     1      11.949  19.497 -19.430  1.00  0.00    -0.351 N 
ATOM     25  H3  UNL     1      11.354  20.126 -19.969  1.00  0.00     0.166 HD
BRANCH  24  26
HETATM   26  C5  UNL     1      13.309  19.380 -19.797  1.00  0.00     0.118 A 
HETATM   27  C4  UNL     1      14.002  18.352 -20.462  1.00  0.00     0.116 A 
HETATM   28  C19 UNL     1      15.169  19.061 -20.327  1.00  0.00     0.252 A 
HETATM   29  C18 UNL     1      14.489  20.080 -19.670  1.00  0.00     0.253 A 
HETATM   30  O8  UNL     1      16.373  18.917 -20.639  1.00  0.00    -0.281 OA
HETATM   31  O7  UNL     1      14.861  21.184 -19.172  1.00  0.00    -0.281 OA
BRANCH  27  32
HETATM   32  N2  UNL     1      13.645  17.121 -21.025  1.00  0.00    -0.372 N 
HETATM   33  C3  UNL     1      12.515  17.034 -21.924  1.00  0.00     0.153 C 
HETATM   34  C2  UNL     1      11.587  15.889 -21.588  1.00  0.00     0.291 C 
HETATM   35  N1  UNL     1      12.290  14.698 -21.215  1.00  0.00     0.087 N 
HETATM   36  C1  UNL     1      11.756  13.597 -22.006  1.00  0.00     0.310 C 
HETATM   37  C21 UNL     1      13.710  14.772 -21.499  1.00  0.00     0.291 C 
HETATM   38  C20 UNL     1      14.372  15.905 -20.741  1.00  0.00     0.153 C 
ENDBRANCH  27  32
ENDBRANCH  24  26
ENDBRANCH   1  24
TORSDOF 10
ENDMDL
