MODEL 4
REMARK VINA RESULT: -9.036246310      7.271     10.829
REMARK  8 active torsions:
REMARK  status: ('A' for Active; 'I' for Inactive)
REMARK    1  A    between atoms: C3_3  and  C4_4 
REMARK    2  A    between atoms: C4_4  and  N1_5 
REMARK    3  A    between atoms: C7_8  and  N2_9 
REMARK    4  A    between atoms: N2_9  and  C8_11 
REMARK    5  A    between atoms: C11_19  and  C12_20 
REMARK    6  A    between atoms: C12_20  and  C13_21 
REMARK    7  A    between atoms: N6_37  and  C25_38 
REMARK    8  A    between atoms: C25_38  and  C26_39 
ROOT
HETATM    1  C1  UNL     1      19.235  11.691   3.954  1.00  0.00     0.050 C 
HETATM    2  C2  UNL     1      19.669  11.197   5.268  1.00  0.00    -0.038 A 
HETATM    3  C3  UNL     1      18.867  10.338   5.986  1.00  0.00    -0.019 A 
HETATM    4  C18 UNL     1      19.333   9.914   7.204  1.00  0.00     0.015 A 
HETATM    5  C19 UNL     1      20.570  10.333   7.704  1.00  0.00     0.031 A 
HETATM    6  C20 UNL     1      21.353  11.185   6.980  1.00  0.00     0.046 A 
HETATM    7  C21 UNL     1      20.909  11.616   5.768  1.00  0.00     0.000 A 
HETATM    8  C22 UNL     1      21.870  12.459   5.247  1.00  0.00     0.055 A 
HETATM    9  C23 UNL     1      22.889  12.519   6.171  1.00  0.00     0.117 A 
HETATM   10  C24 UNL     1      24.107  13.296   6.024  1.00  0.00     0.118 C 
HETATM   11  N5  UNL     1      25.072  13.930   5.925  1.00  0.00    -0.190 NA
HETATM   12  N6  UNL     1      22.574  11.748   7.215  1.00  0.00    -0.333 N 
ENDROOT
BRANCH  12  13
HETATM   13  C25 UNL     1      23.399  11.555   8.392  1.00  0.00     0.171 C 
BRANCH  13  14
HETATM   14  C26 UNL     1      22.846  12.160   9.607  1.00  0.00    -0.006 A 
HETATM   15  C27 UNL     1      22.714  13.499   9.888  1.00  0.00     0.117 A 
HETATM   16  N7  UNL     1      22.160  13.579  11.111  1.00  0.00    -0.312 N 
HETATM   17  N8  UNL     1      21.940  12.379  11.611  1.00  0.00    -0.312 N 
ATOM     18  H7  UNL     1      21.940  14.453  11.589  1.00  0.00     0.186 HD
HETATM   19  C28 UNL     1      22.356  11.484  10.698  1.00  0.00     0.117 A 
ATOM     20  H8  UNL     1      21.530  12.169  12.521  1.00  0.00     0.186 HD
ENDBRANCH  13  14
ENDBRANCH  12  13
BRANCH   3  21
HETATM   21  C4  UNL     1      17.594   9.932   5.433  1.00  0.00     0.071 C 
BRANCH  21  22
HETATM   22  N1  UNL     1      16.685   9.244   6.304  1.00  0.00    -0.292 NA
HETATM   23  C5  UNL     1      16.511   7.863   5.990  1.00  0.00     0.097 C 
HETATM   24  C6  UNL     1      15.410   7.266   6.778  1.00  0.00     0.040 C 
HETATM   25  C7  UNL     1      14.870   8.070   7.913  1.00  0.00     0.085 C 
HETATM   26  C16 UNL     1      14.681   9.529   7.563  1.00  0.00     0.040 C 
HETATM   27  C17 UNL     1      15.344   9.863   6.242  1.00  0.00     0.097 C 
BRANCH  25  28
HETATM   28  N2  UNL     1      13.621   7.571   8.422  1.00  0.00    -0.371 N 
ATOM     29  H2  UNL     1      12.976   7.140   7.760  1.00  0.00     0.161 HD
BRANCH  28  30
HETATM   30  C8  UNL     1      13.226   7.638   9.778  1.00  0.00     0.115 A 
HETATM   31  N3  UNL     1      11.930   7.798  10.049  1.00  0.00    -0.338 N 
HETATM   32  C9  UNL     1      11.405   7.879  11.274  1.00  0.00     0.182 A 
ATOM     33  H3  UNL     1      11.290   7.865   9.258  1.00  0.00     0.168 HD
HETATM   34  N4  UNL     1      12.267   7.789  12.302  1.00  0.00    -0.346 N 
HETATM   35  C10 UNL     1      13.616   7.623  12.093  1.00  0.00     0.089 A 
ATOM     36  H4  UNL     1      11.913   7.845  13.257  1.00  0.00     0.167 HD
HETATM   37  S1  UNL     1      14.984   7.471  13.112  1.00  0.00    -0.076 SA
HETATM   38  C15 UNL     1      14.154   7.540  10.841  1.00  0.00     0.043 A 
HETATM   39  C11 UNL     1      16.194   7.308  11.929  1.00  0.00    -0.006 A 
HETATM   40  C14 UNL     1      15.492   7.376  10.759  1.00  0.00     0.033 A 
BRANCH  39  41
HETATM   41  C12 UNL     1      17.686   7.132  12.092  1.00  0.00     0.163 C 
BRANCH  41  42
HETATM   42  C13 UNL     1      18.340   8.422  11.671  1.00  0.00     0.392 C 
HETATM   43  F1  UNL     1      17.801   9.509  12.361  1.00  0.00    -0.171 F 
HETATM   44  F2  UNL     1      18.223   8.629  10.303  1.00  0.00    -0.171 F 
HETATM   45  F3  UNL     1      19.681   8.349  11.986  1.00  0.00    -0.171 F 
ENDBRANCH  41  42
ENDBRANCH  39  41
ENDBRANCH  28  30
ENDBRANCH  25  28
ENDBRANCH  21  22
ENDBRANCH   3  21
TORSDOF 8
ENDMDL
