MODEL 1
REMARK VINA RESULT: -9.450362658      0.000      0.000
REMARK  8 active torsions:
REMARK  status: ('A' for Active; 'I' for Inactive)
REMARK    1  A    between atoms: C3_3  and  C4_4 
REMARK    2  A    between atoms: C4_4  and  N1_5 
REMARK    3  A    between atoms: C7_8  and  N2_9 
REMARK    4  A    between atoms: N2_9  and  C8_11 
REMARK    5  A    between atoms: C11_19  and  C12_20 
REMARK    6  A    between atoms: C12_20  and  C13_21 
REMARK    7  A    between atoms: N6_37  and  C25_38 
REMARK    8  A    between atoms: C25_38  and  C26_39 
ROOT
HETATM    1  C1  UNL     1       9.934  14.123   8.467  1.00  0.00     0.050 C 
HETATM    2  C2  UNL     1      10.053  14.526   9.876  1.00  0.00    -0.038 A 
HETATM    3  C3  UNL     1      11.000  13.942  10.687  1.00  0.00    -0.019 A 
HETATM    4  C18 UNL     1      11.058  14.364  11.990  1.00  0.00     0.015 A 
HETATM    5  C19 UNL     1      10.194  15.347  12.483  1.00  0.00     0.031 A 
HETATM    6  C20 UNL     1       9.260  15.916  11.666  1.00  0.00     0.046 A 
HETATM    7  C21 UNL     1       9.188  15.511  10.369  1.00  0.00     0.000 A 
HETATM    8  C22 UNL     1       8.174  16.226   9.764  1.00  0.00     0.055 A 
HETATM    9  C23 UNL     1       7.649  17.061  10.726  1.00  0.00     0.117 A 
HETATM   10  C24 UNL     1       6.557  17.995  10.516  1.00  0.00     0.118 C 
HETATM   11  N5  UNL     1       5.671  18.727  10.365  1.00  0.00    -0.190 NA
HETATM   12  N6  UNL     1       8.307  16.872  11.871  1.00  0.00    -0.333 N 
ENDROOT
BRANCH  12  13
HETATM   13  C25 UNL     1       8.041  17.569  13.115  1.00  0.00     0.171 C 
BRANCH  13  14
HETATM   14  C26 UNL     1       8.825  18.795  13.285  1.00  0.00    -0.006 A 
HETATM   15  C27 UNL     1      10.163  18.899  13.576  1.00  0.00     0.117 A 
HETATM   16  N7  UNL     1      10.440  20.214  13.636  1.00  0.00    -0.312 N 
HETATM   17  N8  UNL     1       9.362  20.936  13.402  1.00  0.00    -0.312 N 
ATOM     18  H7  UNL     1      11.362  20.601  13.836  1.00  0.00     0.186 HD
HETATM   19  C28 UNL     1       8.348  20.080  13.182  1.00  0.00     0.117 A 
ATOM     20  H8  UNL     1       9.308  21.954  13.391  1.00  0.00     0.186 HD
ENDBRANCH  13  14
ENDBRANCH  12  13
BRANCH   3  21
HETATM   21  C4  UNL     1      11.872  12.928  10.137  1.00  0.00     0.071 C 
BRANCH  21  22
HETATM   22  N1  UNL     1      13.232  12.905  10.597  1.00  0.00    -0.292 NA
HETATM   23  C5  UNL     1      14.157  12.372   9.651  1.00  0.00     0.097 C 
HETATM   24  C6  UNL     1      15.492  12.176  10.256  1.00  0.00     0.040 C 
HETATM   25  C7  UNL     1      15.731  12.790  11.595  1.00  0.00     0.085 C 
HETATM   26  C16 UNL     1      14.571  12.600  12.544  1.00  0.00     0.040 C 
HETATM   27  C17 UNL     1      13.349  12.077  11.816  1.00  0.00     0.097 C 
BRANCH  25  28
HETATM   28  N2  UNL     1      16.919  12.302  12.243  1.00  0.00    -0.371 N 
ATOM     29  H2  UNL     1      17.182  12.724  13.133  1.00  0.00     0.161 HD
BRANCH  28  30
HETATM   30  C8  UNL     1      17.747  11.276  11.731  1.00  0.00     0.115 A 
HETATM   31  N3  UNL     1      18.820  11.628  11.022  1.00  0.00    -0.338 N 
HETATM   32  C9  UNL     1      19.693  10.779  10.475  1.00  0.00     0.182 A 
ATOM     33  H3  UNL     1      18.987  12.625  10.888  1.00  0.00     0.168 HD
HETATM   34  N4  UNL     1      19.453   9.470  10.665  1.00  0.00    -0.346 N 
HETATM   35  C10 UNL     1      18.364   9.037  11.385  1.00  0.00     0.089 A 
ATOM     36  H4  UNL     1      20.092   8.782  10.266  1.00  0.00     0.167 HD
HETATM   37  S1  UNL     1      17.743   7.505  11.829  1.00  0.00    -0.076 SA
HETATM   38  C15 UNL     1      17.471   9.906  11.945  1.00  0.00     0.043 A 
HETATM   39  C11 UNL     1      16.376   8.003  12.707  1.00  0.00    -0.006 A 
HETATM   40  C14 UNL     1      16.440   9.366  12.631  1.00  0.00     0.033 A 
BRANCH  39  41
HETATM   41  C12 UNL     1      15.325   7.175  13.410  1.00  0.00     0.163 C 
BRANCH  41  42
HETATM   42  C13 UNL     1      14.107   7.147  12.523  1.00  0.00     0.392 C 
HETATM   43  F1  UNL     1      14.465   7.133  11.175  1.00  0.00    -0.171 F 
HETATM   44  F2  UNL     1      13.269   8.225  12.775  1.00  0.00    -0.171 F 
HETATM   45  F3  UNL     1      13.410   5.985  12.783  1.00  0.00    -0.171 F 
ENDBRANCH  41  42
ENDBRANCH  39  41
ENDBRANCH  28  30
ENDBRANCH  25  28
ENDBRANCH  21  22
ENDBRANCH   3  21
TORSDOF 8
ENDMDL
