MODEL 2
REMARK VINA RESULT: -9.163917125      3.007      3.962
REMARK  8 active torsions:
REMARK  status: ('A' for Active; 'I' for Inactive)
REMARK    1  A    between atoms: C3_3  and  C4_4 
REMARK    2  A    between atoms: C4_4  and  N1_5 
REMARK    3  A    between atoms: C7_8  and  N2_9 
REMARK    4  A    between atoms: N2_9  and  C8_11 
REMARK    5  A    between atoms: C11_19  and  C12_20 
REMARK    6  A    between atoms: C12_20  and  C13_21 
REMARK    7  A    between atoms: N6_37  and  C25_38 
REMARK    8  A    between atoms: C25_38  and  C26_39 
ROOT
HETATM    1  C1  UNL     1       9.949  14.100   8.554  1.00  0.00     0.050 C 
HETATM    2  C2  UNL     1      10.063  14.488   9.967  1.00  0.00    -0.038 A 
HETATM    3  C3  UNL     1      10.959  13.847  10.793  1.00  0.00    -0.019 A 
HETATM    4  C18 UNL     1      11.014  14.259  12.099  1.00  0.00     0.015 A 
HETATM    5  C19 UNL     1      10.197  15.286  12.581  1.00  0.00     0.031 A 
HETATM    6  C20 UNL     1       9.313  15.912  11.750  1.00  0.00     0.046 A 
HETATM    7  C21 UNL     1       9.244  15.517  10.449  1.00  0.00     0.000 A 
HETATM    8  C22 UNL     1       8.284  16.292   9.829  1.00  0.00     0.055 A 
HETATM    9  C23 UNL     1       7.788  17.150  10.786  1.00  0.00     0.117 A 
HETATM   10  C24 UNL     1       6.754  18.145  10.561  1.00  0.00     0.118 C 
HETATM   11  N5  UNL     1       5.915  18.927  10.397  1.00  0.00    -0.190 NA
HETATM   12  N6  UNL     1       8.412  16.918  11.942  1.00  0.00    -0.333 N 
ENDROOT
BRANCH  12  13
HETATM   13  C25 UNL     1       8.161  17.622  13.186  1.00  0.00     0.171 C 
BRANCH  13  14
HETATM   14  C26 UNL     1       9.018  18.794  13.385  1.00  0.00    -0.006 A 
HETATM   15  C27 UNL     1      10.376  18.811  13.593  1.00  0.00     0.117 A 
HETATM   16  N7  UNL     1      10.726  20.104  13.722  1.00  0.00    -0.312 N 
HETATM   17  N8  UNL     1       9.675  20.893  13.609  1.00  0.00    -0.312 N 
ATOM     18  H7  UNL     1      11.678  20.430  13.886  1.00  0.00     0.186 HD
HETATM   19  C28 UNL     1       8.605  20.105  13.399  1.00  0.00     0.117 A 
ATOM     20  H8  UNL     1       9.675  21.911  13.669  1.00  0.00     0.186 HD
ENDBRANCH  13  14
ENDBRANCH  12  13
BRANCH   3  21
HETATM   21  C4  UNL     1      11.783  12.788  10.254  1.00  0.00     0.071 C 
BRANCH  21  22
HETATM   22  N1  UNL     1      13.176  12.794  10.599  1.00  0.00    -0.292 NA
HETATM   23  C5  UNL     1      14.020  12.185   9.624  1.00  0.00     0.097 C 
HETATM   24  C6  UNL     1      15.402  12.029  10.130  1.00  0.00     0.040 C 
HETATM   25  C7  UNL     1      15.750  12.743  11.393  1.00  0.00     0.085 C 
HETATM   26  C16 UNL     1      14.673  12.634  12.447  1.00  0.00     0.040 C 
HETATM   27  C17 UNL     1      13.396  12.062  11.865  1.00  0.00     0.097 C 
BRANCH  25  28
HETATM   28  N2  UNL     1      16.988  12.301  11.976  1.00  0.00    -0.371 N 
ATOM     29  H2  UNL     1      17.579  13.000  12.425  1.00  0.00     0.161 HD
BRANCH  28  30
HETATM   30  C8  UNL     1      17.442  10.961  11.971  1.00  0.00     0.115 A 
HETATM   31  N3  UNL     1      16.717  10.048  12.617  1.00  0.00    -0.338 N 
HETATM   32  C9  UNL     1      17.014   8.750  12.702  1.00  0.00     0.182 A 
ATOM     33  H3  UNL     1      15.868  10.367  13.084  1.00  0.00     0.168 HD
HETATM   34  N4  UNL     1      18.137   8.351  12.080  1.00  0.00    -0.346 N 
HETATM   35  C10 UNL     1      18.931   9.240  11.395  1.00  0.00     0.089 A 
ATOM     36  H4  UNL     1      18.406   7.368  12.117  1.00  0.00     0.167 HD
HETATM   37  S1  UNL     1      20.389   9.118  10.505  1.00  0.00    -0.076 SA
HETATM   38  C15 UNL     1      18.628  10.569  11.307  1.00  0.00     0.043 A 
HETATM   39  C11 UNL     1      20.573  10.745  10.048  1.00  0.00    -0.006 A 
HETATM   40  C14 UNL     1      19.481  11.347  10.608  1.00  0.00     0.033 A 
BRANCH  39  41
HETATM   41  C12 UNL     1      21.661  11.401   9.230  1.00  0.00     0.163 C 
BRANCH  41  42
HETATM   42  C13 UNL     1      22.800  11.714  10.165  1.00  0.00     0.392 C 
HETATM   43  F1  UNL     1      23.423  10.546  10.608  1.00  0.00    -0.171 F 
HETATM   44  F2  UNL     1      22.374  12.462  11.254  1.00  0.00    -0.171 F 
HETATM   45  F3  UNL     1      23.738  12.451   9.471  1.00  0.00    -0.171 F 
ENDBRANCH  41  42
ENDBRANCH  39  41
ENDBRANCH  28  30
ENDBRANCH  25  28
ENDBRANCH  21  22
ENDBRANCH   3  21
TORSDOF 8
ENDMDL
