MODEL 5
REMARK VINA RESULT: -9.028515872      2.825      4.737
REMARK  8 active torsions:
REMARK  status: ('A' for Active; 'I' for Inactive)
REMARK    1  A    between atoms: C3_3  and  C4_4 
REMARK    2  A    between atoms: C4_4  and  N1_5 
REMARK    3  A    between atoms: C7_8  and  N2_9 
REMARK    4  A    between atoms: N2_9  and  C8_11 
REMARK    5  A    between atoms: C11_19  and  C12_20 
REMARK    6  A    between atoms: C12_20  and  C13_21 
REMARK    7  A    between atoms: N6_37  and  C25_38 
REMARK    8  A    between atoms: C25_38  and  C26_39 
ROOT
HETATM    1  C1  UNL     1       7.214  17.263  11.311  1.00  0.00     0.050 C 
HETATM    2  C2  UNL     1       8.578  17.750  11.557  1.00  0.00    -0.038 A 
HETATM    3  C3  UNL     1       9.662  17.062  11.059  1.00  0.00    -0.019 A 
HETATM    4  C18 UNL     1      10.906  17.572  11.325  1.00  0.00     0.015 A 
HETATM    5  C19 UNL     1      11.077  18.742  12.071  1.00  0.00     0.031 A 
HETATM    6  C20 UNL     1       9.992  19.413  12.558  1.00  0.00     0.046 A 
HETATM    7  C21 UNL     1       8.749  18.923  12.304  1.00  0.00     0.000 A 
HETATM    8  C22 UNL     1       7.836  19.770  12.901  1.00  0.00     0.055 A 
HETATM    9  C23 UNL     1       8.562  20.769  13.512  1.00  0.00     0.117 A 
HETATM   10  C24 UNL     1       7.996  21.877  14.259  1.00  0.00     0.118 C 
HETATM   11  N5  UNL     1       7.554  22.753  14.876  1.00  0.00    -0.190 NA
HETATM   12  N6  UNL     1       9.862  20.550  13.302  1.00  0.00    -0.333 N 
ENDROOT
BRANCH  12  13
HETATM   13  C25 UNL     1      10.942  21.387  13.790  1.00  0.00     0.171 C 
BRANCH  13  14
HETATM   14  C26 UNL     1      11.261  22.515  12.911  1.00  0.00    -0.006 A 
HETATM   15  C27 UNL     1      11.680  22.463  11.604  1.00  0.00     0.117 A 
HETATM   16  N7  UNL     1      11.848  23.737  11.206  1.00  0.00    -0.312 N 
HETATM   17  N8  UNL     1      11.561  24.579  12.179  1.00  0.00    -0.312 N 
ATOM     18  H7  UNL     1      12.157  24.015  10.275  1.00  0.00     0.186 HD
HETATM   19  C28 UNL     1      11.194  23.846  13.246  1.00  0.00     0.117 A 
ATOM     20  H8  UNL     1      11.609  25.596  12.132  1.00  0.00     0.186 HD
ENDBRANCH  13  14
ENDBRANCH  12  13
BRANCH   3  21
HETATM   21  C4  UNL     1       9.440  15.854  10.295  1.00  0.00     0.071 C 
BRANCH  21  22
HETATM   22  N1  UNL     1      10.097  14.659  10.742  1.00  0.00    -0.292 NA
HETATM   23  C5  UNL     1      10.626  14.746  12.064  1.00  0.00     0.097 C 
HETATM   24  C6  UNL     1      11.470  13.574  12.384  1.00  0.00     0.040 C 
HETATM   25  C7  UNL     1      11.415  12.416  11.444  1.00  0.00     0.085 C 
HETATM   26  C16 UNL     1      11.436  12.836   9.992  1.00  0.00     0.040 C 
HETATM   27  C17 UNL     1      11.232  14.331   9.853  1.00  0.00     0.097 C 
BRANCH  25  28
HETATM   28  N2  UNL     1      12.474  11.465  11.646  1.00  0.00    -0.371 N 
ATOM     29  H2  UNL     1      13.422  11.825  11.754  1.00  0.00     0.161 HD
BRANCH  28  30
HETATM   30  C8  UNL     1      12.292  10.064  11.706  1.00  0.00     0.115 A 
HETATM   31  N3  UNL     1      11.091   9.572  11.400  1.00  0.00    -0.338 N 
HETATM   32  C9  UNL     1      10.765   8.277  11.411  1.00  0.00     0.182 A 
ATOM     33  H3  UNL     1      10.364  10.237  11.137  1.00  0.00     0.168 HD
HETATM   34  N4  UNL     1      11.738   7.418  11.761  1.00  0.00    -0.346 N 
HETATM   35  C10 UNL     1      12.999   7.858  12.088  1.00  0.00     0.089 A 
ATOM     36  H4  UNL     1      11.537   6.419  11.783  1.00  0.00     0.167 HD
HETATM   37  S1  UNL     1      14.455   7.097  12.568  1.00  0.00    -0.076 SA
HETATM   38  C15 UNL     1      13.334   9.183  12.077  1.00  0.00     0.043 A 
HETATM   39  C11 UNL     1      15.442   8.469  12.742  1.00  0.00    -0.006 A 
HETATM   40  C14 UNL     1      14.602   9.496  12.416  1.00  0.00     0.033 A 
BRANCH  39  41
HETATM   41  C12 UNL     1      16.894   8.569  13.154  1.00  0.00     0.163 C 
BRANCH  41  42
HETATM   42  C13 UNL     1      17.711   7.882  12.091  1.00  0.00     0.392 C 
HETATM   43  F1  UNL     1      19.013   8.385  12.054  1.00  0.00    -0.171 F 
HETATM   44  F2  UNL     1      17.125   8.004  10.839  1.00  0.00    -0.171 F 
HETATM   45  F3  UNL     1      17.789   6.541  12.407  1.00  0.00    -0.171 F 
ENDBRANCH  41  42
ENDBRANCH  39  41
ENDBRANCH  28  30
ENDBRANCH  25  28
ENDBRANCH  21  22
ENDBRANCH   3  21
TORSDOF 8
ENDMDL
