MODEL 2
REMARK VINA RESULT: -9.330795692      2.943      4.078
REMARK  6 active torsions:
REMARK  status: ('A' for Active; 'I' for Inactive)
REMARK    1  A    between atoms: C6_7  and  C7_8 
REMARK    2  A    between atoms: C7_8  and  N2_9 
REMARK    3  A    between atoms: C10_12  and  N3_13 
REMARK    4  A    between atoms: N3_13  and  C11_15 
REMARK    5  A    between atoms: C14_23  and  C15_24 
REMARK    6  A    between atoms: C15_24  and  C16_25 
ROOT
HETATM    1  N1  UNL     1       9.036   9.431  10.503  1.00  0.00    -0.190 NA
HETATM    2  C1  UNL     1      10.069   9.145  10.940  1.00  0.00     0.117 C 
HETATM    3  C2  UNL     1      11.355   8.800  11.458  1.00  0.00     0.115 A 
HETATM    4  C3  UNL     1      12.477   9.572  11.501  1.00  0.00     0.054 A 
HETATM    5  C4  UNL     1      13.487   8.850  12.079  1.00  0.00    -0.006 A 
HETATM    6  C5  UNL     1      14.817   9.145  12.367  1.00  0.00     0.022 A 
HETATM    7  C6  UNL     1      15.643   8.218  12.967  1.00  0.00    -0.029 A 
HETATM    8  C21 UNL     1      15.101   6.991  13.271  1.00  0.00     0.011 A 
HETATM    9  C22 UNL     1      13.778   6.690  12.988  1.00  0.00     0.031 A 
HETATM   10  C23 UNL     1      12.971   7.616  12.393  1.00  0.00     0.043 A 
HETATM   11  N6  UNL     1      11.681   7.612  12.007  1.00  0.00    -0.347 N 
ATOM     12  H6  UNL     1      11.042   6.825  12.115  1.00  0.00     0.167 HD
ENDROOT
BRANCH   7  13
HETATM   13  C7  UNL     1      17.056   8.550  13.267  1.00  0.00     0.311 C 
BRANCH  13  14
HETATM   14  N2  UNL     1      17.828   8.733  12.052  1.00  0.00     0.092 N 
HETATM   15  C8  UNL     1      18.081  10.099  11.729  1.00  0.00     0.275 C 
HETATM   16  C9  UNL     1      18.634  10.126  10.308  1.00  0.00     0.055 C 
HETATM   17  C10 UNL     1      20.011   9.530  10.349  1.00  0.00     0.086 C 
HETATM   18  C19 UNL     1      20.225   8.541  11.452  1.00  0.00     0.055 C 
HETATM   19  C20 UNL     1      19.028   7.961  12.087  1.00  0.00     0.275 C 
BRANCH  17  20
HETATM   20  N3  UNL     1      20.363   9.030   9.054  1.00  0.00    -0.371 N 
ATOM     21  H3  UNL     1      21.053   8.281   8.995  1.00  0.00     0.161 HD
BRANCH  20  22
HETATM   22  C11 UNL     1      19.791   9.530   7.825  1.00  0.00     0.115 A 
HETATM   23  N4  UNL     1      18.656   8.984   7.386  1.00  0.00    -0.338 N 
HETATM   24  C12 UNL     1      18.065   9.372   6.275  1.00  0.00     0.182 A 
ATOM     25  H4  UNL     1      18.229   8.236   7.932  1.00  0.00     0.168 HD
HETATM   26  N5  UNL     1      18.640  10.359   5.568  1.00  0.00    -0.346 N 
HETATM   27  C13 UNL     1      19.792  10.937   5.984  1.00  0.00     0.089 A 
ATOM     28  H5  UNL     1      18.202  10.679   4.704  1.00  0.00     0.167 HD
HETATM   29  S1  UNL     1      20.798  12.182   5.375  1.00  0.00    -0.076 SA
HETATM   30  C18 UNL     1      20.436  10.562   7.131  1.00  0.00     0.043 A 
HETATM   31  C14 UNL     1      21.996  12.187   6.589  1.00  0.00    -0.006 A 
HETATM   32  C17 UNL     1      21.572  11.205   7.443  1.00  0.00     0.033 A 
BRANCH  31  33
HETATM   33  C15 UNL     1      23.195  13.061   6.660  1.00  0.00     0.163 C 
BRANCH  33  34
HETATM   34  C16 UNL     1      24.467  12.266   6.413  1.00  0.00     0.392 C 
HETATM   35  F1  UNL     1      25.424  13.041   5.808  1.00  0.00    -0.171 F 
HETATM   36  F2  UNL     1      24.181  11.193   5.622  1.00  0.00    -0.171 F 
HETATM   37  F3  UNL     1      24.938  11.817   7.638  1.00  0.00    -0.171 F 
ENDBRANCH  33  34
ENDBRANCH  31  33
ENDBRANCH  20  22
ENDBRANCH  17  20
ENDBRANCH  13  14
ENDBRANCH   7  13
TORSDOF 6
ENDMDL
