MODEL 3
REMARK VINA RESULT: -9.318946296      3.595      4.634
REMARK  6 active torsions:
REMARK  status: ('A' for Active; 'I' for Inactive)
REMARK    1  A    between atoms: C6_7  and  C7_8 
REMARK    2  A    between atoms: C7_8  and  N2_9 
REMARK    3  A    between atoms: C10_12  and  N3_13 
REMARK    4  A    between atoms: N3_13  and  C11_15 
REMARK    5  A    between atoms: C14_23  and  C15_24 
REMARK    6  A    between atoms: C15_24  and  C16_25 
ROOT
HETATM    1  N1  UNL     1       8.986   9.315  10.650  1.00  0.00    -0.190 NA
HETATM    2  C1  UNL     1      10.039   9.051  11.047  1.00  0.00     0.117 C 
HETATM    3  C2  UNL     1      11.351   8.734  11.517  1.00  0.00     0.115 A 
HETATM    4  C3  UNL     1      12.435   9.555  11.596  1.00  0.00     0.054 A 
HETATM    5  C4  UNL     1      13.490   8.845  12.104  1.00  0.00    -0.006 A 
HETATM    6  C5  UNL     1      14.810   9.184  12.389  1.00  0.00     0.022 A 
HETATM    7  C6  UNL     1      15.692   8.259  12.908  1.00  0.00    -0.029 A 
HETATM    8  C21 UNL     1      15.216   6.988  13.133  1.00  0.00     0.011 A 
HETATM    9  C22 UNL     1      13.903   6.644  12.852  1.00  0.00     0.031 A 
HETATM   10  C23 UNL     1      13.041   7.568  12.338  1.00  0.00     0.043 A 
HETATM   11  N6  UNL     1      11.744   7.528  11.975  1.00  0.00    -0.347 N 
ATOM     12  H6  UNL     1      11.146   6.704  12.038  1.00  0.00     0.167 HD
ENDROOT
BRANCH   7  13
HETATM   13  C7  UNL     1      17.093   8.639  13.207  1.00  0.00     0.311 C 
BRANCH  13  14
HETATM   14  N2  UNL     1      17.847   8.884  11.991  1.00  0.00     0.092 N 
HETATM   15  C8  UNL     1      18.151  10.261  11.770  1.00  0.00     0.275 C 
HETATM   16  C9  UNL     1      18.676  10.377  10.342  1.00  0.00     0.055 C 
HETATM   17  C10 UNL     1      20.026   9.725  10.305  1.00  0.00     0.086 C 
HETATM   18  C19 UNL     1      20.222   8.644  11.322  1.00  0.00     0.055 C 
HETATM   19  C20 UNL     1      19.014   8.065  11.938  1.00  0.00     0.275 C 
BRANCH  17  20
HETATM   20  N3  UNL     1      20.331   9.314   8.966  1.00  0.00    -0.371 N 
ATOM     21  H3  UNL     1      20.476   8.320   8.786  1.00  0.00     0.161 HD
BRANCH  20  22
HETATM   22  C11 UNL     1      20.442  10.233   7.857  1.00  0.00     0.115 A 
HETATM   23  N4  UNL     1      19.758   9.968   6.743  1.00  0.00    -0.338 N 
HETATM   24  C12 UNL     1      19.803  10.746   5.682  1.00  0.00     0.182 A 
ATOM     25  H4  UNL     1      19.178   9.130   6.712  1.00  0.00     0.168 HD
HETATM   26  N5  UNL     1      20.571  11.847   5.739  1.00  0.00    -0.346 N 
HETATM   27  C13 UNL     1      21.279  12.148   6.854  1.00  0.00     0.089 A 
ATOM     28  H5  UNL     1      20.622  12.466   4.931  1.00  0.00     0.167 HD
HETATM   29  S1  UNL     1      22.337  13.418   7.298  1.00  0.00    -0.076 SA
HETATM   30  C18 UNL     1      21.259  11.365   7.977  1.00  0.00     0.043 A 
HETATM   31  C14 UNL     1      22.719  12.919   8.883  1.00  0.00    -0.006 A 
HETATM   32  C17 UNL     1      22.001  11.762   9.022  1.00  0.00     0.033 A 
BRANCH  31  33
HETATM   33  C15 UNL     1      23.619  13.605   9.845  1.00  0.00     0.163 C 
BRANCH  33  34
HETATM   34  C16 UNL     1      22.891  13.929  11.141  1.00  0.00     0.392 C 
HETATM   35  F1  UNL     1      21.781  14.698  10.903  1.00  0.00    -0.171 F 
HETATM   36  F2  UNL     1      23.738  14.593  11.977  1.00  0.00    -0.171 F 
HETATM   37  F3  UNL     1      22.513  12.733  11.731  1.00  0.00    -0.171 F 
ENDBRANCH  33  34
ENDBRANCH  31  33
ENDBRANCH  20  22
ENDBRANCH  17  20
ENDBRANCH  13  14
ENDBRANCH   7  13
TORSDOF 6
ENDMDL
