MODEL 1
REMARK VINA RESULT: -9.670972022      0.000      0.000
REMARK  6 active torsions:
REMARK  status: ('A' for Active; 'I' for Inactive)
REMARK    1  A    between atoms: C6_7  and  C7_8 
REMARK    2  A    between atoms: C7_8  and  N2_9 
REMARK    3  A    between atoms: C10_12  and  N3_13 
REMARK    4  A    between atoms: N3_13  and  C11_15 
REMARK    5  A    between atoms: C14_23  and  C15_24 
REMARK    6  A    between atoms: C15_24  and  C16_25 
ROOT
HETATM    1  N1  UNL     1       9.040   9.331  10.715  1.00  0.00    -0.190 NA
HETATM    2  C1  UNL     1      10.101   9.080  11.100  1.00  0.00     0.117 C 
HETATM    3  C2  UNL     1      11.422   8.780  11.555  1.00  0.00     0.115 A 
HETATM    4  C3  UNL     1      12.499   9.611  11.612  1.00  0.00     0.054 A 
HETATM    5  C4  UNL     1      13.568   8.915  12.112  1.00  0.00    -0.006 A 
HETATM    6  C5  UNL     1      14.888   9.269  12.376  1.00  0.00     0.022 A 
HETATM    7  C6  UNL     1      15.785   8.357  12.891  1.00  0.00    -0.029 A 
HETATM    8  C21 UNL     1      15.324   7.084  13.134  1.00  0.00     0.011 A 
HETATM    9  C22 UNL     1      14.010   6.724  12.873  1.00  0.00     0.031 A 
HETATM   10  C23 UNL     1      13.133   7.636  12.363  1.00  0.00     0.043 A 
HETATM   11  N6  UNL     1      11.832   7.581  12.018  1.00  0.00    -0.347 N 
ATOM     12  H6  UNL     1      11.242   6.752  12.096  1.00  0.00     0.167 HD
ENDROOT
BRANCH   7  13
HETATM   13  C7  UNL     1      17.186   8.752  13.167  1.00  0.00     0.311 C 
BRANCH  13  14
HETATM   14  N2  UNL     1      17.944   8.914  11.940  1.00  0.00     0.092 N 
HETATM   15  C8  UNL     1      18.255  10.271  11.630  1.00  0.00     0.275 C 
HETATM   16  C9  UNL     1      18.783  10.290  10.199  1.00  0.00     0.055 C 
HETATM   17  C10 UNL     1      20.131   9.631  10.208  1.00  0.00     0.086 C 
HETATM   18  C19 UNL     1      20.319   8.619  11.294  1.00  0.00     0.055 C 
HETATM   19  C20 UNL     1      19.107   8.087  11.944  1.00  0.00     0.275 C 
BRANCH  17  20
HETATM   20  N3  UNL     1      20.436   9.131   8.900  1.00  0.00    -0.371 N 
ATOM     21  H3  UNL     1      20.527   8.123   8.776  1.00  0.00     0.161 HD
BRANCH  20  22
HETATM   22  C11 UNL     1      20.622   9.981   7.746  1.00  0.00     0.115 A 
HETATM   23  N4  UNL     1      21.793  10.603   7.600  1.00  0.00    -0.338 N 
HETATM   24  C12 UNL     1      22.051  11.400   6.583  1.00  0.00     0.182 A 
ATOM     25  H4  UNL     1      22.517  10.456   8.302  1.00  0.00     0.168 HD
HETATM   26  N5  UNL     1      21.086  11.583   5.666  1.00  0.00    -0.346 N 
HETATM   27  C13 UNL     1      19.886  10.967   5.782  1.00  0.00     0.089 A 
ATOM     28  H5  UNL     1      21.261  12.194   4.869  1.00  0.00     0.167 HD
HETATM   29  S1  UNL     1      18.450  10.951   4.850  1.00  0.00    -0.076 SA
HETATM   30  C18 UNL     1      19.580  10.133   6.823  1.00  0.00     0.043 A 
HETATM   31  C14 UNL     1      17.513   9.892   5.803  1.00  0.00    -0.006 A 
HETATM   32  C17 UNL     1      18.357   9.579   6.835  1.00  0.00     0.033 A 
BRANCH  31  33
HETATM   33  C15 UNL     1      16.121   9.447   5.542  1.00  0.00     0.163 C 
BRANCH  33  34
HETATM   34  C16 UNL     1      16.018   7.929   5.562  1.00  0.00     0.392 C 
HETATM   35  F1  UNL     1      17.261   7.352   5.632  1.00  0.00    -0.171 F 
HETATM   36  F2  UNL     1      15.381   7.507   4.433  1.00  0.00    -0.171 F 
HETATM   37  F3  UNL     1      15.272   7.564   6.671  1.00  0.00    -0.171 F 
ENDBRANCH  33  34
ENDBRANCH  31  33
ENDBRANCH  20  22
ENDBRANCH  17  20
ENDBRANCH  13  14
ENDBRANCH   7  13
TORSDOF 6
ENDMDL
