MODEL 8
REMARK VINA RESULT: -8.952958946      6.525     11.222
REMARK  8 active torsions:
REMARK  status: ('A' for Active; 'I' for Inactive)
REMARK       I    between atoms: C1_2  and  N1_3 
REMARK    1  A    between atoms: C1_2  and  C14_20 
REMARK    2  A    between atoms: N1_3  and  C2_5 
REMARK    3  A    between atoms: C2_5  and  C3_6 
REMARK    4  A    between atoms: C3_6  and  O2_7 
REMARK    5  A    between atoms: C3_6  and  C4_9 
REMARK    6  A    between atoms: C4_9  and  N2_10 
REMARK    7  A    between atoms: C16_22  and  N3_23 
REMARK    8  A    between atoms: N3_23  and  C17_25 
ROOT
HETATM    1  O1  UNL     1      20.738 -49.644 -12.862  1.00  0.00    -0.266 OA
HETATM    2  C1  UNL     1      21.125 -49.487 -11.677  1.00  0.00     0.268 C 
HETATM    3  N1  UNL     1      20.594 -48.455 -10.893  1.00  0.00    -0.353 N 
ATOM      4  H1  UNL     1      20.927 -48.362  -9.934  1.00  0.00     0.162 HD
ENDROOT
BRANCH   3   5
HETATM    5  C2  UNL     1      19.580 -47.492 -11.370  1.00  0.00     0.156 C 
BRANCH   5   6
HETATM    6  C3  UNL     1      19.611 -46.328 -10.466  1.00  0.00     0.164 C 
BRANCH   6   7
HETATM    7  O2  UNL     1      18.755 -45.329 -11.044  1.00  0.00    -0.392 OA
ATOM      8  H2  UNL     1      18.169 -45.036 -10.356  1.00  0.00     0.210 HD
ENDBRANCH   6   7
BRANCH   6   9
HETATM    9  C4  UNL     1      20.881 -45.635 -10.194  1.00  0.00     0.305 C 
BRANCH   9  10
HETATM   10  N2  UNL     1      20.898 -44.486  -9.355  1.00  0.00     0.095 N 
HETATM   11  C5  UNL     1      21.565 -43.439 -10.142  1.00  0.00     0.277 C 
HETATM   12  C6  UNL     1      23.070 -43.536  -9.966  1.00  0.00     0.069 C 
HETATM   13  C7  UNL     1      23.293 -43.093  -8.571  1.00  0.00    -0.049 A 
HETATM   14  C8  UNL     1      24.227 -42.176  -8.198  1.00  0.00     0.007 A 
HETATM   15  C12 UNL     1      22.473 -43.657  -7.629  1.00  0.00    -0.024 A 
HETATM   16  C9  UNL     1      24.359 -41.799  -6.851  1.00  0.00     0.001 A 
HETATM   17  C10 UNL     1      23.522 -42.378  -5.917  1.00  0.00     0.001 A 
HETATM   18  C11 UNL     1      22.587 -43.298  -6.286  1.00  0.00     0.009 A 
HETATM   19  C13 UNL     1      21.484 -44.667  -8.078  1.00  0.00     0.311 C 
ENDBRANCH   9  10
ENDBRANCH   6   9
ENDBRANCH   5   6
ENDBRANCH   3   5
BRANCH   2  20
HETATM   20  C14 UNL     1      22.140 -50.371 -11.090  1.00  0.00     0.105 A 
HETATM   21  C15 UNL     1      23.459 -50.186 -11.519  1.00  0.00     0.083 A 
HETATM   22  C16 UNL     1      24.487 -50.949 -11.054  1.00  0.00     0.104 A 
HETATM   23  N4  UNL     1      24.151 -51.923 -10.128  1.00  0.00    -0.339 N 
HETATM   24  C20 UNL     1      22.900 -52.095  -9.724  1.00  0.00     0.182 A 
ATOM     25  H4  UNL     1      24.884 -52.521  -9.747  1.00  0.00     0.168 HD
HETATM   26  N5  UNL     1      21.900 -51.322 -10.204  1.00  0.00    -0.348 N 
ATOM     27  H5  UNL     1      20.946 -51.475  -9.878  1.00  0.00     0.167 HD
BRANCH  22  28
HETATM   28  N3  UNL     1      25.843 -50.847 -11.429  1.00  0.00    -0.367 N 
ATOM     29  H3  UNL     1      26.048 -50.936 -12.425  1.00  0.00     0.161 HD
BRANCH  28  30
HETATM   30  C17 UNL     1      26.957 -50.634 -10.571  1.00  0.00     0.130 C 
HETATM   31  C18 UNL     1      27.991 -51.705 -10.523  1.00  0.00     0.195 C 
HETATM   32  O3  UNL     1      27.943 -51.725  -9.149  1.00  0.00    -0.387 OA
HETATM   33  C19 UNL     1      26.859 -50.886  -9.121  1.00  0.00     0.195 C 
ENDBRANCH  28  30
ENDBRANCH  22  28
ENDBRANCH   2  20
TORSDOF 8
ENDMDL
