MODEL 3
REMARK VINA RESULT: -9.299375419      5.608      8.826
REMARK  8 active torsions:
REMARK  status: ('A' for Active; 'I' for Inactive)
REMARK       I    between atoms: C1_2  and  N1_3 
REMARK    1  A    between atoms: C1_2  and  C14_20 
REMARK    2  A    between atoms: N1_3  and  C2_5 
REMARK    3  A    between atoms: C2_5  and  C3_6 
REMARK    4  A    between atoms: C3_6  and  O2_7 
REMARK    5  A    between atoms: C3_6  and  C4_9 
REMARK    6  A    between atoms: C4_9  and  N2_10 
REMARK    7  A    between atoms: C16_22  and  N3_23 
REMARK    8  A    between atoms: N3_23  and  C17_25 
ROOT
HETATM    1  O1  UNL     1      20.790 -46.605  -8.578  1.00  0.00    -0.266 OA
HETATM    2  C1  UNL     1      21.228 -46.070  -9.627  1.00  0.00     0.268 C 
HETATM    3  N1  UNL     1      20.892 -46.599 -10.880  1.00  0.00    -0.353 N 
ATOM      4  H1  UNL     1      21.261 -46.135 -11.710  1.00  0.00     0.162 HD
ENDROOT
BRANCH   3   5
HETATM    5  C2  UNL     1      20.037 -47.788 -11.075  1.00  0.00     0.156 C 
BRANCH   5   6
HETATM    6  C3  UNL     1      20.868 -48.839 -11.688  1.00  0.00     0.164 C 
BRANCH   6   7
HETATM    7  O2  UNL     1      20.252 -49.177 -12.942  1.00  0.00    -0.392 OA
ATOM      8  H2  UNL     1      20.780 -48.778 -13.624  1.00  0.00     0.210 HD
ENDBRANCH   6   7
BRANCH   6   9
HETATM    9  C4  UNL     1      21.063 -50.124 -10.997  1.00  0.00     0.305 C 
BRANCH   9  10
HETATM   10  N2  UNL     1      22.157 -50.963 -11.352  1.00  0.00     0.095 N 
HETATM   11  C5  UNL     1      22.321 -51.889 -10.223  1.00  0.00     0.277 C 
HETATM   12  C6  UNL     1      23.204 -51.261  -9.160  1.00  0.00     0.069 C 
HETATM   13  C7  UNL     1      24.550 -51.253  -9.778  1.00  0.00    -0.049 A 
HETATM   14  C8  UNL     1      25.680 -51.691  -9.159  1.00  0.00     0.007 A 
HETATM   15  C12 UNL     1      24.612 -50.780 -11.063  1.00  0.00    -0.024 A 
HETATM   16  C9  UNL     1      26.915 -51.663  -9.827  1.00  0.00     0.001 A 
HETATM   17  C10 UNL     1      26.957 -51.184 -11.123  1.00  0.00     0.001 A 
HETATM   18  C11 UNL     1      25.828 -50.744 -11.745  1.00  0.00     0.009 A 
HETATM   19  C13 UNL     1      23.359 -50.294 -11.690  1.00  0.00     0.311 C 
ENDBRANCH   9  10
ENDBRANCH   6   9
ENDBRANCH   5   6
ENDBRANCH   3   5
BRANCH   2  20
HETATM   20  C14 UNL     1      22.101 -44.890  -9.567  1.00  0.00     0.105 A 
HETATM   21  C15 UNL     1      21.903 -44.018  -8.491  1.00  0.00     0.083 A 
HETATM   22  C16 UNL     1      22.643 -42.886  -8.331  1.00  0.00     0.104 A 
HETATM   23  N4  UNL     1      23.607 -42.647  -9.296  1.00  0.00    -0.339 N 
HETATM   24  C20 UNL     1      23.791 -43.476 -10.315  1.00  0.00     0.182 A 
ATOM     25  H4  UNL     1      24.189 -41.813  -9.222  1.00  0.00     0.168 HD
HETATM   26  N5  UNL     1      23.040 -44.593 -10.448  1.00  0.00    -0.348 N 
ATOM     27  H5  UNL     1      23.200 -45.215 -11.240  1.00  0.00     0.167 HD
BRANCH  22  28
HETATM   28  N3  UNL     1      22.517 -41.941  -7.290  1.00  0.00    -0.367 N 
ATOM     29  H3  UNL     1      21.723 -41.303  -7.349  1.00  0.00     0.161 HD
BRANCH  28  30
HETATM   30  C17 UNL     1      23.374 -41.781  -6.167  1.00  0.00     0.130 C 
HETATM   31  C18 UNL     1      24.572 -40.914  -6.346  1.00  0.00     0.195 C 
HETATM   32  O3  UNL     1      25.389 -41.893  -5.832  1.00  0.00    -0.387 OA
HETATM   33  C19 UNL     1      24.371 -42.811  -5.819  1.00  0.00     0.195 C 
ENDBRANCH  28  30
ENDBRANCH  22  28
ENDBRANCH   2  20
TORSDOF 8
ENDMDL
