MODEL 1
REMARK VINA RESULT: -9.629757663      0.000      0.000
REMARK  8 active torsions:
REMARK  status: ('A' for Active; 'I' for Inactive)
REMARK       I    between atoms: C1_2  and  N1_3 
REMARK    1  A    between atoms: C1_2  and  C14_20 
REMARK    2  A    between atoms: N1_3  and  C2_5 
REMARK    3  A    between atoms: C2_5  and  C3_6 
REMARK    4  A    between atoms: C3_6  and  O2_7 
REMARK    5  A    between atoms: C3_6  and  C4_9 
REMARK    6  A    between atoms: C4_9  and  N2_10 
REMARK    7  A    between atoms: C16_22  and  N3_23 
REMARK    8  A    between atoms: N3_23  and  C17_25 
ROOT
HETATM    1  O1  UNL     1      22.627 -37.578  -7.112  1.00  0.00    -0.266 OA
HETATM    2  C1  UNL     1      22.342 -38.190  -6.052  1.00  0.00     0.268 C 
HETATM    3  N1  UNL     1      23.357 -38.772  -5.280  1.00  0.00    -0.353 N 
ATOM      4  H1  UNL     1      23.089 -39.255  -4.423  1.00  0.00     0.162 HD
ENDROOT
BRANCH   3   5
HETATM    5  C2  UNL     1      24.791 -38.730  -5.631  1.00  0.00     0.156 C 
BRANCH   5   6
HETATM    6  C3  UNL     1      25.067 -39.875  -6.517  1.00  0.00     0.164 C 
BRANCH   6   7
HETATM    7  O2  UNL     1      24.905 -39.406  -7.866  1.00  0.00    -0.392 OA
ATOM      8  H2  UNL     1      25.708 -39.614  -8.328  1.00  0.00     0.210 HD
ENDBRANCH   6   7
BRANCH   6   9
HETATM    9  C4  UNL     1      24.244 -41.092  -6.432  1.00  0.00     0.305 C 
BRANCH   9  10
HETATM   10  N2  UNL     1      23.358 -41.427  -7.493  1.00  0.00     0.095 N 
HETATM   11  C5  UNL     1      22.093 -41.800  -6.844  1.00  0.00     0.277 C 
HETATM   12  C6  UNL     1      22.120 -43.269  -6.461  1.00  0.00     0.069 C 
HETATM   13  C7  UNL     1      22.044 -43.975  -7.761  1.00  0.00    -0.049 A 
HETATM   14  C8  UNL     1      21.190 -45.000  -8.027  1.00  0.00     0.007 A 
HETATM   15  C12 UNL     1      22.896 -43.523  -8.734  1.00  0.00    -0.024 A 
HETATM   16  C9  UNL     1      21.172 -45.603  -9.296  1.00  0.00     0.001 A 
HETATM   17  C10 UNL     1      22.038 -45.132 -10.264  1.00  0.00     0.001 A 
HETATM   18  C11 UNL     1      22.895 -44.107 -10.001  1.00  0.00     0.009 A 
HETATM   19  C13 UNL     1      23.823 -42.418  -8.392  1.00  0.00     0.311 C 
ENDBRANCH   9  10
ENDBRANCH   6   9
ENDBRANCH   5   6
ENDBRANCH   3   5
BRANCH   2  20
HETATM   20  C14 UNL     1      20.950 -38.315  -5.601  1.00  0.00     0.105 A 
HETATM   21  C15 UNL     1      20.749 -38.842  -4.320  1.00  0.00     0.083 A 
HETATM   22  C16 UNL     1      19.505 -39.014  -3.794  1.00  0.00     0.104 A 
HETATM   23  N4  UNL     1      18.445 -38.634  -4.601  1.00  0.00    -0.339 N 
HETATM   24  C20 UNL     1      18.640 -38.136  -5.814  1.00  0.00     0.182 A 
ATOM     25  H4  UNL     1      17.493 -38.742  -4.253  1.00  0.00     0.168 HD
HETATM   26  N5  UNL     1      19.888 -37.977  -6.311  1.00  0.00    -0.348 N 
ATOM     27  H5  UNL     1      20.011 -37.591  -7.247  1.00  0.00     0.167 HD
BRANCH  22  28
HETATM   28  N3  UNL     1      19.198 -39.542  -2.522  1.00  0.00    -0.367 N 
ATOM     29  H3  UNL     1      19.925 -39.463  -1.810  1.00  0.00     0.161 HD
BRANCH  28  30
HETATM   30  C17 UNL     1      17.987 -40.172  -2.124  1.00  0.00     0.130 C 
HETATM   31  C18 UNL     1      18.045 -41.061  -0.929  1.00  0.00     0.195 C 
HETATM   32  O3  UNL     1      17.419 -42.072  -1.619  1.00  0.00    -0.387 OA
HETATM   33  C19 UNL     1      17.504 -41.388  -2.805  1.00  0.00     0.195 C 
ENDBRANCH  28  30
ENDBRANCH  22  28
ENDBRANCH   2  20
TORSDOF 8
ENDMDL
