MODEL 2
REMARK VINA RESULT: -9.344840596      2.136      2.697
REMARK  8 active torsions:
REMARK  status: ('A' for Active; 'I' for Inactive)
REMARK       I    between atoms: C1_2  and  N1_3 
REMARK    1  A    between atoms: C1_2  and  C14_20 
REMARK    2  A    between atoms: N1_3  and  C2_5 
REMARK    3  A    between atoms: C2_5  and  C3_6 
REMARK    4  A    between atoms: C3_6  and  O2_7 
REMARK    5  A    between atoms: C3_6  and  C4_9 
REMARK    6  A    between atoms: C4_9  and  N2_10 
REMARK    7  A    between atoms: C16_22  and  N3_23 
REMARK    8  A    between atoms: N3_23  and  C17_25 
ROOT
HETATM    1  O1  UNL     1      20.582 -38.221  -6.636  1.00  0.00    -0.266 OA
HETATM    2  C1  UNL     1      20.885 -38.430  -5.434  1.00  0.00     0.268 C 
HETATM    3  N1  UNL     1      22.230 -38.460  -5.042  1.00  0.00    -0.353 N 
ATOM      4  H1  UNL     1      22.438 -38.625  -4.058  1.00  0.00     0.162 HD
ENDROOT
BRANCH   3   5
HETATM    5  C2  UNL     1      23.366 -38.268  -5.967  1.00  0.00     0.156 C 
BRANCH   5   6
HETATM    6  C3  UNL     1      24.304 -39.385  -5.758  1.00  0.00     0.164 C 
BRANCH   6   7
HETATM    7  O2  UNL     1      25.446 -39.131  -6.594  1.00  0.00    -0.392 OA
ATOM      8  H2  UNL     1      25.992 -38.507  -6.131  1.00  0.00     0.210 HD
ENDBRANCH   6   7
BRANCH   6   9
HETATM    9  C4  UNL     1      23.897 -40.764  -6.074  1.00  0.00     0.305 C 
BRANCH   9  10
HETATM   10  N2  UNL     1      23.274 -41.053  -7.320  1.00  0.00     0.095 N 
HETATM   11  C5  UNL     1      21.961 -41.618  -6.978  1.00  0.00     0.277 C 
HETATM   12  C6  UNL     1      22.084 -43.112  -6.741  1.00  0.00     0.069 C 
HETATM   13  C7  UNL     1      22.339 -43.665  -8.092  1.00  0.00    -0.049 A 
HETATM   14  C8  UNL     1      21.675 -44.728  -8.623  1.00  0.00     0.007 A 
HETATM   15  C12 UNL     1      23.303 -43.024  -8.825  1.00  0.00    -0.024 A 
HETATM   16  C9  UNL     1      21.969 -45.176  -9.921  1.00  0.00     0.001 A 
HETATM   17  C10 UNL     1      22.944 -44.515 -10.645  1.00  0.00     0.001 A 
HETATM   18  C11 UNL     1      23.611 -43.452 -10.116  1.00  0.00     0.009 A 
HETATM   19  C13 UNL     1      24.014 -41.884  -8.198  1.00  0.00     0.311 C 
ENDBRANCH   9  10
ENDBRANCH   6   9
ENDBRANCH   5   6
ENDBRANCH   3   5
BRANCH   2  20
HETATM   20  C14 UNL     1      19.847 -38.649  -4.419  1.00  0.00     0.105 A 
HETATM   21  C15 UNL     1      18.731 -37.806  -4.469  1.00  0.00     0.083 A 
HETATM   22  C16 UNL     1      17.707 -37.905  -3.577  1.00  0.00     0.104 A 
HETATM   23  N4  UNL     1      17.832 -38.893  -2.614  1.00  0.00    -0.339 N 
HETATM   24  C20 UNL     1      18.890 -39.691  -2.570  1.00  0.00     0.182 A 
ATOM     25  H4  UNL     1      17.091 -39.011  -1.923  1.00  0.00     0.168 HD
HETATM   26  N5  UNL     1      19.893 -39.568  -3.470  1.00  0.00    -0.348 N 
ATOM     27  H5  UNL     1      20.697 -40.193  -3.415  1.00  0.00     0.167 HD
BRANCH  22  28
HETATM   28  N3  UNL     1      16.548 -37.101  -3.538  1.00  0.00    -0.367 N 
ATOM     29  H3  UNL     1      16.673 -36.140  -3.219  1.00  0.00     0.161 HD
BRANCH  28  30
HETATM   30  C17 UNL     1      15.226 -37.483  -3.894  1.00  0.00     0.130 C 
HETATM   31  C18 UNL     1      15.082 -38.580  -4.892  1.00  0.00     0.195 C 
HETATM   32  O3  UNL     1      14.216 -37.818  -5.641  1.00  0.00    -0.387 OA
HETATM   33  C19 UNL     1      14.448 -36.705  -4.876  1.00  0.00     0.195 C 
ENDBRANCH  28  30
ENDBRANCH  22  28
ENDBRANCH   2  20
TORSDOF 8
ENDMDL
