MODEL 7
REMARK VINA RESULT: -6.081680039      3.809      5.019
REMARK  4 active torsions:
REMARK  status: ('A' for Active; 'I' for Inactive)
REMARK    1  A    between atoms: C2_3  and  N2_4 
REMARK       I    between atoms: N2_4  and  C3_6 
REMARK    2  A    between atoms: C3_6  and  C4_8 
REMARK    3  A    between atoms: C4_8  and  N3_9 
REMARK       I    between atoms: N3_9  and  C5_11 
REMARK    4  A    between atoms: C5_11  and  C6_13 
ROOT
HETATM    1  N1  UNL     1      18.217   3.193 -25.963  1.00  0.00    -0.196 NA
HETATM    2  C1  UNL     1      18.336   4.099 -25.265  1.00  0.00     0.078 C 
HETATM    3  C2  UNL     1      18.475   5.251 -24.400  1.00  0.00     0.247 C 
ENDROOT
BRANCH   3   4
HETATM    4  N2  UNL     1      17.809   4.994 -23.119  1.00  0.00    -0.347 N 
HETATM    5  C3  UNL     1      17.344   6.056 -22.362  1.00  0.00     0.246 C 
HETATM    6  O1  UNL     1      17.524   7.221 -22.821  1.00  0.00    -0.271 OA
ATOM      7  H2  UNL     1      17.690   4.037 -22.787  1.00  0.00     0.163 HD
BRANCH   5   8
HETATM    8  C4  UNL     1      16.636   5.971 -21.031  1.00  0.00     0.114 C 
HETATM    9  C12 UNL     1      17.577   5.993 -19.892  1.00  0.00     0.041 C 
HETATM   10  C13 UNL     1      17.902   4.593 -19.472  1.00  0.00     0.003 C 
HETATM   11  C14 UNL     1      16.596   4.056 -18.867  1.00  0.00     0.000 C 
HETATM   12  C15 UNL     1      15.529   3.958 -19.914  1.00  0.00     0.003 C 
HETATM   13  C16 UNL     1      15.734   4.773 -21.126  1.00  0.00     0.041 C 
BRANCH   8  14
HETATM   14  N3  UNL     1      15.850   7.217 -20.984  1.00  0.00    -0.339 N 
HETATM   15  C5  UNL     1      15.349   7.807 -19.817  1.00  0.00     0.254 C 
HETATM   16  O2  UNL     1      15.577   7.230 -18.721  1.00  0.00    -0.268 OA
ATOM     17  H3  UNL     1      15.657   7.685 -21.869  1.00  0.00     0.164 HD
BRANCH  15  18
HETATM   18  C6  UNL     1      14.574   9.067 -19.835  1.00  0.00     0.056 A 
HETATM   19  C7  UNL     1      13.305   9.103 -19.303  1.00  0.00     0.020 A 
HETATM   20  C8  UNL     1      12.593  10.301 -19.334  1.00  0.00     0.020 A 
HETATM   21  C9  UNL     1      13.178  11.404 -19.896  1.00  0.00     0.012 A 
HETATM   22 BR1  UNL     1      12.230  13.056 -19.954  1.00  0.00    -0.051 Br
HETATM   23  C10 UNL     1      14.456  11.352 -20.429  1.00  0.00     0.046 A 
HETATM   24  C11 UNL     1      15.149  10.187 -20.397  1.00  0.00     0.063 A 
HETATM   25  N4  UNL     1      16.474  10.052 -20.927  1.00  0.00    -0.101 NA
ENDBRANCH  15  18
ENDBRANCH   8  14
ENDBRANCH   5   8
ENDBRANCH   3   4
TORSDOF 4
ENDMDL
