MODEL 3
REMARK VINA RESULT: -6.382069206      4.712      6.192
REMARK  4 active torsions:
REMARK  status: ('A' for Active; 'I' for Inactive)
REMARK    1  A    between atoms: C2_3  and  N2_4 
REMARK       I    between atoms: N2_4  and  C3_6 
REMARK    2  A    between atoms: C3_6  and  C4_8 
REMARK    3  A    between atoms: C4_8  and  N3_9 
REMARK       I    between atoms: N3_9  and  C5_11 
REMARK    4  A    between atoms: C5_11  and  C6_13 
ROOT
HETATM    1  N1  UNL     1      14.866   8.624 -24.204  1.00  0.00    -0.196 NA
HETATM    2  C1  UNL     1      15.892   8.151 -23.988  1.00  0.00     0.078 C 
HETATM    3  C2  UNL     1      17.186   7.570 -23.702  1.00  0.00     0.247 C 
ENDROOT
BRANCH   3   4
HETATM    4  N2  UNL     1      17.017   6.220 -23.156  1.00  0.00    -0.347 N 
HETATM    5  C3  UNL     1      17.176   6.003 -21.799  1.00  0.00     0.246 C 
HETATM    6  O1  UNL     1      17.472   7.002 -21.080  1.00  0.00    -0.271 OA
ATOM      7  H2  UNL     1      16.782   5.444 -23.775  1.00  0.00     0.163 HD
BRANCH   5   8
HETATM    8  C4  UNL     1      17.035   4.686 -21.074  1.00  0.00     0.114 C 
HETATM    9  C12 UNL     1      15.623   4.293 -20.891  1.00  0.00     0.041 C 
HETATM   10  C13 UNL     1      15.138   4.744 -19.547  1.00  0.00     0.003 C 
HETATM   11  C14 UNL     1      15.903   3.866 -18.545  1.00  0.00     0.000 C 
HETATM   12  C15 UNL     1      17.371   4.158 -18.597  1.00  0.00     0.003 C 
HETATM   13  C16 UNL     1      17.856   4.820 -19.822  1.00  0.00     0.041 C 
BRANCH   8  14
HETATM   14  N3  UNL     1      17.649   3.720 -22.003  1.00  0.00    -0.339 N 
HETATM   15  C5  UNL     1      18.967   3.783 -22.472  1.00  0.00     0.254 C 
HETATM   16  O2  UNL     1      19.686   4.740 -22.079  1.00  0.00    -0.268 OA
ATOM     17  H3  UNL     1      17.069   2.947 -22.330  1.00  0.00     0.164 HD
BRANCH  15  18
HETATM   18  C6  UNL     1      19.529   2.776 -23.398  1.00  0.00     0.056 A 
HETATM   19  C7  UNL     1      20.344   1.777 -22.917  1.00  0.00     0.020 A 
HETATM   20  C8  UNL     1      20.864   0.840 -23.808  1.00  0.00     0.020 A 
HETATM   21  C9  UNL     1      20.547   0.945 -25.137  1.00  0.00     0.012 A 
HETATM   22 BR1  UNL     1      21.243  -0.320 -26.381  1.00  0.00    -0.051 Br
HETATM   23  C10 UNL     1      19.726   1.957 -25.607  1.00  0.00     0.046 A 
HETATM   24  C11 UNL     1      19.220   2.867 -24.739  1.00  0.00     0.063 A 
HETATM   25  N4  UNL     1      18.364   3.942 -25.145  1.00  0.00    -0.101 NA
ENDBRANCH  15  18
ENDBRANCH   8  14
ENDBRANCH   5   8
ENDBRANCH   3   4
TORSDOF 4
ENDMDL
