MODEL 2
REMARK VINA RESULT: -6.654891604      2.037      2.850
REMARK  4 active torsions:
REMARK  status: ('A' for Active; 'I' for Inactive)
REMARK    1  A    between atoms: C2_3  and  N2_4 
REMARK       I    between atoms: N2_4  and  C3_6 
REMARK    2  A    between atoms: C3_6  and  C4_8 
REMARK    3  A    between atoms: C4_8  and  N3_9 
REMARK       I    between atoms: N3_9  and  C5_11 
REMARK    4  A    between atoms: C5_11  and  C6_13 
ROOT
HETATM    1  N1  UNL     1      13.730  11.538 -19.026  1.00  0.00    -0.196 NA
HETATM    2  C1  UNL     1      13.467  10.420 -19.083  1.00  0.00     0.078 C 
HETATM    3  C2  UNL     1      13.120   9.018 -19.167  1.00  0.00     0.247 C 
ENDROOT
BRANCH   3   4
HETATM    4  N2  UNL     1      14.217   8.270 -19.789  1.00  0.00    -0.347 N 
HETATM    5  C3  UNL     1      15.101   7.560 -18.994  1.00  0.00     0.246 C 
HETATM    6  O1  UNL     1      14.918   7.597 -17.743  1.00  0.00    -0.271 OA
ATOM      7  H2  UNL     1      14.328   8.272 -20.802  1.00  0.00     0.163 HD
BRANCH   5   8
HETATM    8  C4  UNL     1      16.277   6.738 -19.467  1.00  0.00     0.114 C 
HETATM    9  C12 UNL     1      16.277   6.548 -20.931  1.00  0.00     0.041 C 
HETATM   10  C13 UNL     1      15.613   5.250 -21.276  1.00  0.00     0.003 C 
HETATM   11  C14 UNL     1      16.576   4.171 -20.759  1.00  0.00     0.000 C 
HETATM   12  C15 UNL     1      16.676   4.223 -19.265  1.00  0.00     0.003 C 
HETATM   13  C16 UNL     1      16.260   5.489 -18.632  1.00  0.00     0.041 C 
BRANCH   8  14
HETATM   14  N3  UNL     1      17.438   7.581 -19.127  1.00  0.00    -0.339 N 
HETATM   15  C5  UNL     1      18.675   7.547 -19.784  1.00  0.00     0.254 C 
HETATM   16  O2  UNL     1      18.814   6.732 -20.734  1.00  0.00    -0.268 OA
ATOM     17  H3  UNL     1      17.333   8.238 -18.354  1.00  0.00     0.164 HD
BRANCH  15  18
HETATM   18  C6  UNL     1      19.800   8.427 -19.401  1.00  0.00     0.056 A 
HETATM   19  C7  UNL     1      20.941   7.886 -18.852  1.00  0.00     0.020 A 
HETATM   20  C8  UNL     1      21.988   8.735 -18.496  1.00  0.00     0.020 A 
HETATM   21  C9  UNL     1      21.847  10.082 -18.704  1.00  0.00     0.012 A 
HETATM   22 BR1  UNL     1      23.260  11.268 -18.227  1.00  0.00    -0.051 Br
HETATM   23  C10 UNL     1      20.692  10.612 -19.257  1.00  0.00     0.046 A 
HETATM   24  C11 UNL     1      19.675   9.785 -19.603  1.00  0.00     0.063 A 
HETATM   25  N4  UNL     1      18.449  10.254 -20.180  1.00  0.00    -0.101 NA
ENDBRANCH  15  18
ENDBRANCH   8  14
ENDBRANCH   5   8
ENDBRANCH   3   4
TORSDOF 4
ENDMDL
