MODEL 9
REMARK VINA RESULT: -6.003517217      2.303      3.002
REMARK  4 active torsions:
REMARK  status: ('A' for Active; 'I' for Inactive)
REMARK    1  A    between atoms: C2_3  and  N2_4 
REMARK       I    between atoms: N2_4  and  C3_6 
REMARK    2  A    between atoms: C3_6  and  C4_8 
REMARK    3  A    between atoms: C4_8  and  N3_9 
REMARK       I    between atoms: N3_9  and  C5_11 
REMARK    4  A    between atoms: C5_11  and  C6_13 
ROOT
HETATM    1  N1  UNL     1      14.103  11.144 -19.990  1.00  0.00    -0.196 NA
HETATM    2  C1  UNL     1      13.879  10.072 -19.640  1.00  0.00     0.078 C 
HETATM    3  C2  UNL     1      13.579   8.723 -19.208  1.00  0.00     0.247 C 
ENDROOT
BRANCH   3   4
HETATM    4  N2  UNL     1      14.528   7.784 -19.814  1.00  0.00    -0.347 N 
HETATM    5  C3  UNL     1      15.537   7.234 -19.043  1.00  0.00     0.246 C 
HETATM    6  O1  UNL     1      15.595   7.580 -17.828  1.00  0.00    -0.271 OA
ATOM      7  H2  UNL     1      14.444   7.537 -20.800  1.00  0.00     0.163 HD
BRANCH   5   8
HETATM    8  C4  UNL     1      16.590   6.253 -19.503  1.00  0.00     0.114 C 
HETATM    9  C12 UNL     1      16.397   5.839 -20.907  1.00  0.00     0.041 C 
HETATM   10  C13 UNL     1      15.613   4.563 -20.959  1.00  0.00     0.003 C 
HETATM   11  C14 UNL     1      16.561   3.501 -20.383  1.00  0.00     0.000 C 
HETATM   12  C15 UNL     1      16.848   3.775 -18.938  1.00  0.00     0.003 C 
HETATM   13  C16 UNL     1      16.596   5.154 -18.478  1.00  0.00     0.041 C 
BRANCH   8  14
HETATM   14  N3  UNL     1      17.836   7.038 -19.438  1.00  0.00    -0.339 N 
HETATM   15  C5  UNL     1      18.087   8.208 -20.166  1.00  0.00     0.254 C 
HETATM   16  O2  UNL     1      17.187   8.622 -20.943  1.00  0.00    -0.268 OA
ATOM     17  H3  UNL     1      18.571   6.704 -18.815  1.00  0.00     0.164 HD
BRANCH  15  18
HETATM   18  C6  UNL     1      19.357   8.958 -20.049  1.00  0.00     0.056 A 
HETATM   19  C7  UNL     1      19.381  10.175 -19.407  1.00  0.00     0.020 A 
HETATM   20  C8  UNL     1      20.589  10.864 -19.311  1.00  0.00     0.020 A 
HETATM   21  C9  UNL     1      21.714  10.308 -19.861  1.00  0.00     0.012 A 
HETATM   22 BR1  UNL     1      23.379  11.226 -19.746  1.00  0.00    -0.051 Br
HETATM   23  C10 UNL     1      21.674   9.081 -20.504  1.00  0.00     0.046 A 
HETATM   24  C11 UNL     1      20.499   8.411 -20.596  1.00  0.00     0.063 A 
HETATM   25  N4  UNL     1      20.374   7.139 -21.244  1.00  0.00    -0.101 NA
ENDBRANCH  15  18
ENDBRANCH   8  14
ENDBRANCH   5   8
ENDBRANCH   3   4
TORSDOF 4
ENDMDL
