MODEL 6
REMARK VINA RESULT: -6.156395633      5.237      7.255
REMARK  4 active torsions:
REMARK  status: ('A' for Active; 'I' for Inactive)
REMARK    1  A    between atoms: C2_3  and  N2_4 
REMARK       I    between atoms: N2_4  and  C3_6 
REMARK    2  A    between atoms: C3_6  and  C4_8 
REMARK    3  A    between atoms: C4_8  and  N3_9 
REMARK       I    between atoms: N3_9  and  C5_11 
REMARK    4  A    between atoms: C5_11  and  C6_13 
ROOT
HETATM    1  N1  UNL     1       7.214   9.018 -18.292  1.00  0.00    -0.196 NA
HETATM    2  C1  UNL     1       7.806   8.824 -19.259  1.00  0.00     0.078 C 
HETATM    3  C2  UNL     1       8.539   8.594 -20.485  1.00  0.00     0.247 C 
ENDROOT
BRANCH   3   4
HETATM    4  N2  UNL     1       9.959   8.897 -20.280  1.00  0.00    -0.347 N 
HETATM    5  C3  UNL     1      10.531   9.978 -20.928  1.00  0.00     0.246 C 
HETATM    6  O1  UNL     1       9.786  10.664 -21.686  1.00  0.00    -0.271 OA
ATOM      7  H2  UNL     1      10.522   8.313 -19.662  1.00  0.00     0.163 HD
BRANCH   5   8
HETATM    8  C4  UNL     1      11.969  10.431 -20.827  1.00  0.00     0.114 C 
HETATM    9  C12 UNL     1      12.178  11.397 -19.729  1.00  0.00     0.041 C 
HETATM   10  C13 UNL     1      12.086  12.796 -20.258  1.00  0.00     0.003 C 
HETATM   11  C14 UNL     1      13.332  12.959 -21.142  1.00  0.00     0.000 C 
HETATM   12  C15 UNL     1      13.265  12.044 -22.325  1.00  0.00     0.003 C 
HETATM   13  C16 UNL     1      12.346  10.897 -22.205  1.00  0.00     0.041 C 
BRANCH   8  14
HETATM   14  N3  UNL     1      12.690   9.195 -20.475  1.00  0.00    -0.339 N 
HETATM   15  C5  UNL     1      13.980   9.144 -19.931  1.00  0.00     0.254 C 
HETATM   16  O2  UNL     1      14.577  10.235 -19.731  1.00  0.00    -0.268 OA
ATOM     17  H3  UNL     1      12.214   8.308 -20.640  1.00  0.00     0.164 HD
BRANCH  15  18
HETATM   18  C6  UNL     1      14.647   7.869 -19.590  1.00  0.00     0.056 A 
HETATM   19  C7  UNL     1      14.656   7.424 -18.288  1.00  0.00     0.020 A 
HETATM   20  C8  UNL     1      15.294   6.220 -17.989  1.00  0.00     0.020 A 
HETATM   21  C9  UNL     1      15.892   5.519 -19.003  1.00  0.00     0.012 A 
HETATM   22 BR1  UNL     1      16.771   3.872 -18.626  1.00  0.00    -0.051 Br
HETATM   23  C10 UNL     1      15.875   5.981 -20.309  1.00  0.00     0.046 A 
HETATM   24  C11 UNL     1      15.254   7.151 -20.599  1.00  0.00     0.063 A 
HETATM   25  N4  UNL     1      15.192   7.695 -21.923  1.00  0.00    -0.101 NA
ENDBRANCH  15  18
ENDBRANCH   8  14
ENDBRANCH   5   8
ENDBRANCH   3   4
TORSDOF 4
ENDMDL
