MODEL 4
REMARK VINA RESULT: -6.811788491      1.795      5.683
REMARK  4 active torsions:
REMARK  status: ('A' for Active; 'I' for Inactive)
REMARK       I    between atoms: C2_2  and  N1_4 
REMARK    1  A    between atoms: N1_4  and  C3_6 
REMARK    2  A    between atoms: C5_10  and  C6_11 
REMARK    3  A    between atoms: C7_14  and  O4_15 
REMARK    4  A    between atoms: C8_17  and  O5_18 
ROOT
HETATM    1  C3  UNL     1      40.108  13.825 -15.289  1.00  0.00     0.211 C 
HETATM    2  N2  UNL     1      40.002  15.222 -15.012  1.00  0.00    -0.398 N 
ATOM      3  H2  UNL     1      40.315  15.933 -15.672  1.00  0.00     0.155 HD
HETATM    4  C4  UNL     1      39.431  15.554 -13.752  1.00  0.00     0.134 C 
HETATM    5  C5  UNL     1      38.101  14.856 -13.566  1.00  0.00     0.135 C 
HETATM    6  C7  UNL     1      38.392  13.371 -13.531  1.00  0.00     0.166 C 
HETATM    7  C8  UNL     1      38.911  13.016 -14.916  1.00  0.00     0.189 C 
ENDROOT
BRANCH   1   8
HETATM    8  N1  UNL     1      40.324  13.677 -16.725  1.00  0.00    -0.338 N 
HETATM    9  C2  UNL     1      41.249  12.764 -17.280  1.00  0.00     0.215 C 
HETATM   10  C1  UNL     1      41.468  12.615 -18.742  1.00  0.00     0.117 C 
HETATM   11  O1  UNL     1      41.918  12.045 -16.514  1.00  0.00    -0.274 OA
ATOM     12  H1  UNL     1      39.781  14.262 -17.360  1.00  0.00     0.164 HD
ENDBRANCH   1   8
BRANCH   7  13
HETATM   13  O5  UNL     1      39.234  11.674 -14.953  1.00  0.00    -0.389 OA
ATOM     14  H5  UNL     1      38.457  11.167 -15.156  1.00  0.00     0.210 HD
ENDBRANCH   7  13
BRANCH   6  15
HETATM   15  O4  UNL     1      39.356  13.115 -12.555  1.00  0.00    -0.392 OA
ATOM     16  H4  UNL     1      39.366  13.831 -11.930  1.00  0.00     0.210 HD
ENDBRANCH   6  15
BRANCH   5  17
HETATM   17  C6  UNL     1      37.357  15.321 -12.401  1.00  0.00     0.181 C 
HETATM   18  O2  UNL     1      36.793  16.440 -12.424  1.00  0.00    -0.648 OA
HETATM   19  O3  UNL     1      37.281  14.517 -11.277  1.00  0.00    -0.648 OA
ENDBRANCH   5  17
TORSDOF 4
ENDMDL
