MODEL 9
REMARK VINA RESULT: -6.526844915      1.690      5.491
REMARK  4 active torsions:
REMARK  status: ('A' for Active; 'I' for Inactive)
REMARK       I    between atoms: C2_2  and  N1_4 
REMARK    1  A    between atoms: N1_4  and  C3_6 
REMARK    2  A    between atoms: C5_10  and  C6_11 
REMARK    3  A    between atoms: C7_14  and  O4_15 
REMARK    4  A    between atoms: C8_17  and  O5_18 
ROOT
HETATM    1  C3  UNL     1      40.379  13.315 -16.608  1.00  0.00     0.211 C 
HETATM    2  N2  UNL     1      40.523  14.575 -15.953  1.00  0.00    -0.398 N 
ATOM      3  H2  UNL     1      40.659  15.445 -16.469  1.00  0.00     0.155 HD
HETATM    4  C4  UNL     1      40.465  14.538 -14.532  1.00  0.00     0.134 C 
HETATM    5  C5  UNL     1      39.218  13.818 -14.067  1.00  0.00     0.135 C 
HETATM    6  C7  UNL     1      39.347  12.383 -14.532  1.00  0.00     0.166 C 
HETATM    7  C8  UNL     1      39.311  12.435 -16.053  1.00  0.00     0.189 C 
ENDROOT
BRANCH   1   8
HETATM    8  N1  UNL     1      40.065  13.579 -18.008  1.00  0.00    -0.338 N 
HETATM    9  C2  UNL     1      40.649  12.871 -19.082  1.00  0.00     0.215 C 
HETATM   10  C1  UNL     1      40.329  13.143 -20.507  1.00  0.00     0.117 C 
HETATM   11  O1  UNL     1      41.476  11.973 -18.831  1.00  0.00    -0.274 OA
ATOM     12  H1  UNL     1      39.389  14.313 -18.223  1.00  0.00     0.164 HD
ENDBRANCH   1   8
BRANCH   7  13
HETATM   13  O5  UNL     1      39.459  11.158 -16.557  1.00  0.00    -0.389 OA
ATOM     14  H5  UNL     1      38.912  11.057 -17.328  1.00  0.00     0.210 HD
ENDBRANCH   7  13
BRANCH   6  15
HETATM   15  O4  UNL     1      40.558  11.860 -14.079  1.00  0.00    -0.392 OA
ATOM     16  H4  UNL     1      40.535  10.912 -14.146  1.00  0.00     0.210 HD
ENDBRANCH   6  15
BRANCH   5  17
HETATM   17  C6  UNL     1      38.980  13.934 -12.632  1.00  0.00     0.181 C 
HETATM   18  O2  UNL     1      39.559  13.158 -11.837  1.00  0.00    -0.648 OA
HETATM   19  O3  UNL     1      38.112  14.905 -12.164  1.00  0.00    -0.648 OA
ENDBRANCH   5  17
TORSDOF 4
ENDMDL
