MODEL 16
REMARK VINA RESULT: -6.133358224      2.026      2.465
REMARK  4 active torsions:
REMARK  status: ('A' for Active; 'I' for Inactive)
REMARK       I    between atoms: C2_2  and  N1_4 
REMARK    1  A    between atoms: N1_4  and  C3_6 
REMARK    2  A    between atoms: C5_10  and  C6_11 
REMARK    3  A    between atoms: C7_14  and  O4_15 
REMARK    4  A    between atoms: C8_17  and  O5_18 
ROOT
HETATM    1  C3  UNL     1      39.421  13.033 -14.661  1.00  0.00     0.211 C 
HETATM    2  N2  UNL     1      39.909  14.357 -14.876  1.00  0.00    -0.398 N 
ATOM      3  H2  UNL     1      39.670  15.133 -14.258  1.00  0.00     0.155 HD
HETATM    4  C4  UNL     1      40.752  14.522 -16.010  1.00  0.00     0.134 C 
HETATM    5  C5  UNL     1      41.883  13.517 -15.988  1.00  0.00     0.135 C 
HETATM    6  C7  UNL     1      41.250  12.148 -16.114  1.00  0.00     0.166 C 
HETATM    7  C8  UNL     1      40.430  11.951 -14.848  1.00  0.00     0.189 C 
ENDROOT
BRANCH   1   8
HETATM    8  N1  UNL     1      38.931  12.962 -13.288  1.00  0.00    -0.338 N 
HETATM    9  C2  UNL     1      37.966  13.850 -12.760  1.00  0.00     0.215 C 
HETATM   10  C1  UNL     1      37.471  13.777 -11.361  1.00  0.00     0.117 C 
HETATM   11  O1  UNL     1      37.504  14.742 -13.497  1.00  0.00    -0.274 OA
ATOM     12  H1  UNL     1      39.304  12.235 -12.677  1.00  0.00     0.164 HD
ENDBRANCH   1   8
BRANCH   7  13
HETATM   13  O5  UNL     1      39.788  10.729 -14.905  1.00  0.00    -0.389 OA
ATOM     14  H5  UNL     1      40.412  10.035 -14.725  1.00  0.00     0.210 HD
ENDBRANCH   7  13
BRANCH   6  15
HETATM   15  O4  UNL     1      40.434  12.122 -17.246  1.00  0.00    -0.392 OA
ATOM     16  H4  UNL     1      40.473  12.968 -17.679  1.00  0.00     0.210 HD
ENDBRANCH   6  15
BRANCH   5  17
HETATM   17  C6  UNL     1      42.906  13.770 -16.996  1.00  0.00     0.181 C 
HETATM   18  O2  UNL     1      42.862  13.171 -18.096  1.00  0.00    -0.648 OA
HETATM   19  O3  UNL     1      43.920  14.672 -16.725  1.00  0.00    -0.648 OA
ENDBRANCH   5  17
TORSDOF 4
ENDMDL
