MODEL 5
REMARK VINA RESULT: -6.697697877      5.238      7.028
REMARK  4 active torsions:
REMARK  status: ('A' for Active; 'I' for Inactive)
REMARK       I    between atoms: C2_2  and  N1_4 
REMARK    1  A    between atoms: N1_4  and  C3_6 
REMARK    2  A    between atoms: C5_10  and  C6_11 
REMARK    3  A    between atoms: C7_14  and  O4_15 
REMARK    4  A    between atoms: C8_17  and  O5_18 
ROOT
HETATM    1  C3  UNL     1      39.274  15.088 -20.238  1.00  0.00     0.211 C 
HETATM    2  N2  UNL     1      37.936  14.630 -20.044  1.00  0.00    -0.398 N 
ATOM      3  H2  UNL     1      37.721  13.785 -19.516  1.00  0.00     0.155 HD
HETATM    4  C4  UNL     1      36.922  15.433 -20.638  1.00  0.00     0.134 C 
HETATM    5  C5  UNL     1      37.073  16.880 -20.222  1.00  0.00     0.135 C 
HETATM    6  C7  UNL     1      38.392  17.360 -20.788  1.00  0.00     0.166 C 
HETATM    7  C8  UNL     1      39.468  16.557 -20.071  1.00  0.00     0.189 C 
ENDROOT
BRANCH   1   8
HETATM    8  N1  UNL     1      40.118  14.407 -19.260  1.00  0.00    -0.338 N 
HETATM    9  C2  UNL     1      40.512  13.055 -19.383  1.00  0.00     0.215 C 
HETATM   10  C1  UNL     1      41.370  12.365 -18.385  1.00  0.00     0.117 C 
HETATM   11  O1  UNL     1      40.125  12.404 -20.371  1.00  0.00    -0.274 OA
ATOM     12  H1  UNL     1      40.440  14.934 -18.448  1.00  0.00     0.164 HD
ENDBRANCH   1   8
BRANCH   7  13
HETATM   13  O5  UNL     1      40.708  16.916 -20.563  1.00  0.00    -0.389 OA
ATOM     14  H5  UNL     1      41.367  16.322 -20.222  1.00  0.00     0.210 HD
ENDBRANCH   7  13
BRANCH   6  15
HETATM   15  O4  UNL     1      38.418  17.115 -22.162  1.00  0.00    -0.392 OA
ATOM     16  H4  UNL     1      37.970  16.296 -22.342  1.00  0.00     0.210 HD
ENDBRANCH   6  15
BRANCH   5  17
HETATM   17  C6  UNL     1      35.944  17.718 -20.611  1.00  0.00     0.181 C 
HETATM   18  O2  UNL     1      35.552  17.726 -21.801  1.00  0.00    -0.648 OA
HETATM   19  O3  UNL     1      35.316  18.499 -19.657  1.00  0.00    -0.648 OA
ENDBRANCH   5  17
TORSDOF 4
ENDMDL
