MODEL 2
REMARK VINA RESULT: -7.599798861      1.751      2.386
REMARK  4 active torsions:
REMARK  status: ('A' for Active; 'I' for Inactive)
REMARK       I    between atoms: C2_2  and  N1_4 
REMARK    1  A    between atoms: N1_4  and  C3_6 
REMARK    2  A    between atoms: C5_10  and  C6_11 
REMARK    3  A    between atoms: C7_14  and  O4_15 
REMARK    4  A    between atoms: C8_17  and  O5_18 
ROOT
HETATM    1  C3  UNL     1      38.678  13.256 -15.051  1.00  0.00     0.211 C 
HETATM    2  N2  UNL     1      39.924  13.953 -15.011  1.00  0.00    -0.398 N 
ATOM      3  H2  UNL     1      40.266  14.408 -14.165  1.00  0.00     0.155 HD
HETATM    4  C4  UNL     1      40.655  13.969 -16.231  1.00  0.00     0.134 C 
HETATM    5  C5  UNL     1      40.829  12.566 -16.771  1.00  0.00     0.135 C 
HETATM    6  C7  UNL     1      39.444  12.055 -17.104  1.00  0.00     0.166 C 
HETATM    7  C8  UNL     1      38.708  11.953 -15.775  1.00  0.00     0.189 C 
ENDROOT
BRANCH   1   8
HETATM    8  N1  UNL     1      38.274  12.998 -13.673  1.00  0.00    -0.338 N 
HETATM    9  C2  UNL     1      37.911  14.019 -12.765  1.00  0.00     0.215 C 
HETATM   10  C1  UNL     1      37.502  13.753 -11.362  1.00  0.00     0.117 C 
HETATM   11  O1  UNL     1      37.934  15.203 -13.153  1.00  0.00    -0.274 OA
ATOM     12  H1  UNL     1      38.252  12.031 -13.347  1.00  0.00     0.164 HD
ENDBRANCH   1   8
BRANCH   7  13
HETATM   13  O5  UNL     1      37.415  11.523 -16.001  1.00  0.00    -0.389 OA
ATOM     14  H5  UNL     1      37.434  10.681 -16.443  1.00  0.00     0.210 HD
ENDBRANCH   7  13
BRANCH   6  15
HETATM   15  O4  UNL     1      38.812  12.962 -17.956  1.00  0.00    -0.392 OA
ATOM     16  H4  UNL     1      37.947  12.634 -18.176  1.00  0.00     0.210 HD
ENDBRANCH   6  15
BRANCH   5  17
HETATM   17  C6  UNL     1      41.754  12.485 -17.895  1.00  0.00     0.181 C 
HETATM   18  O2  UNL     1      42.848  13.094 -17.850  1.00  0.00    -0.648 OA
HETATM   19  O3  UNL     1      41.412  11.732 -19.004  1.00  0.00    -0.648 OA
ENDBRANCH   5  17
TORSDOF 4
ENDMDL
