MODEL 4
REMARK VINA RESULT: -9.809966779      3.388      7.566
REMARK  9 active torsions:
REMARK  status: ('A' for Active; 'I' for Inactive)
REMARK    1  A    between atoms: C4_9  and  C5_10 
REMARK    2  A    between atoms: C6_13  and  C7_14 
REMARK    3  A    between atoms: C7_14  and  C8_15 
REMARK    4  A    between atoms: C7_14  and  N5_22 
REMARK    5  A    between atoms: C8_15  and  C9_16 
REMARK       I    between atoms: N5_22  and  C15_24 
REMARK       I    between atoms: C15_24  and  N6_26 
REMARK    6  A    between atoms: N6_26  and  C16_28 
REMARK    7  A    between atoms: C16_28  and  C17_29 
REMARK    8  A    between atoms: C22_35  and  C23_36 
REMARK    9  A    between atoms: C23_36  and  N7_37 
ROOT
HETATM    1  C7  UNL     1      41.468 -20.757  27.340  1.00  0.00     0.158 C 
ENDROOT
BRANCH   1   2
HETATM    2  C6  UNL     1      40.790 -19.535  26.905  1.00  0.00     0.106 A 
HETATM    3  N4  UNL     1      39.869 -18.872  27.649  1.00  0.00    -0.341 N 
HETATM    4  C5  UNL     1      39.446 -17.818  26.968  1.00  0.00     0.083 A 
ATOM      5  H4  UNL     1      39.554 -19.142  28.581  1.00  0.00     0.167 HD
HETATM    6  C24 UNL     1      40.097 -17.781  25.751  1.00  0.00     0.132 A 
HETATM    7  N8  UNL     1      40.914 -18.862  25.760  1.00  0.00    -0.333 N 
HETATM    8 CL2  UNL     1      39.932 -16.618  24.458  1.00  0.00    -0.062 Cl
ATOM      9  H8  UNL     1      41.538 -19.124  24.997  1.00  0.00     0.168 HD
BRANCH   4  10
HETATM   10  C4  UNL     1      38.439 -16.841  27.433  1.00  0.00    -0.004 A 
HETATM   11  C3  UNL     1      38.584 -15.492  27.161  1.00  0.00     0.045 A 
HETATM   12  C2  UNL     1      37.630 -14.603  27.608  1.00  0.00     0.062 A 
HETATM   13  N3  UNL     1      37.510 -13.251  27.493  1.00  0.00    -0.299 N 
HETATM   14  C27 UNL     1      36.519 -14.994  28.324  1.00  0.00     0.035 A 
HETATM   15  N2  UNL     1      36.408 -12.838  28.093  1.00  0.00    -0.287 N 
ATOM     16  H3  UNL     1      38.175 -12.645  27.013  1.00  0.00     0.187 HD
HETATM   17  C1  UNL     1      35.740 -13.882  28.635  1.00  0.00     0.143 A 
ATOM     18  H2  UNL     1      36.103 -11.866  28.141  1.00  0.00     0.188 HD
HETATM   19  N1  UNL     1      34.526 -13.870  29.357  1.00  0.00    -0.080 NA
HETATM   20  C26 UNL     1      36.372 -16.334  28.596  1.00  0.00     0.018 A 
HETATM   21  C25 UNL     1      37.326 -17.225  28.151  1.00  0.00     0.015 A 
ENDBRANCH   4  10
ENDBRANCH   1   2
BRANCH   1  22
HETATM   22  C8  UNL     1      42.958 -20.532  27.296  1.00  0.00     0.071 C 
BRANCH  22  23
HETATM   23  C9  UNL     1      43.589 -20.687  28.628  1.00  0.00    -0.056 A 
HETATM   24  C10 UNL     1      44.782 -20.047  28.890  1.00  0.00     0.007 A 
HETATM   25  C11 UNL     1      45.404 -20.171  30.111  1.00  0.00     0.001 A 
HETATM   26  C12 UNL     1      44.851 -20.933  31.096  1.00  0.00     0.000 A 
HETATM   27  C13 UNL     1      43.656 -21.591  30.875  1.00  0.00     0.001 A 
HETATM   28  C14 UNL     1      43.047 -21.454  29.644  1.00  0.00     0.007 A 
ENDBRANCH  22  23
ENDBRANCH   1  22
BRANCH   1  29
HETATM   29  N5  UNL     1      41.117 -21.927  26.560  1.00  0.00    -0.331 N 
HETATM   30  C15 UNL     1      39.912 -22.647  26.751  1.00  0.00     0.317 C 
HETATM   31  O1  UNL     1      39.146 -22.210  27.653  1.00  0.00    -0.247 OA
HETATM   32  N6  UNL     1      39.526 -23.781  26.025  1.00  0.00    -0.339 N 
ATOM     33  H6  UNL     1      40.150 -24.119  25.292  1.00  0.00     0.164 HD
ATOM     34  H5  UNL     1      41.766 -22.246  25.841  1.00  0.00     0.165 HD
BRANCH  32  35
HETATM   35  C16 UNL     1      38.316 -24.485  26.254  1.00  0.00     0.163 C 
BRANCH  35  36
HETATM   36  C17 UNL     1      37.185 -24.177  25.386  1.00  0.00    -0.031 A 
HETATM   37  C18 UNL     1      36.787 -22.899  25.070  1.00  0.00     0.033 A 
HETATM   38  C19 UNL     1      35.693 -22.756  24.250  1.00  0.00     0.034 A 
HETATM   39 CL1  UNL     1      35.193 -21.122  23.852  1.00  0.00    -0.084 Cl
HETATM   40  C20 UNL     1      34.970 -23.803  23.727  1.00  0.00     0.024 A 
HETATM   41  C21 UNL     1      35.403 -25.080  24.069  1.00  0.00     0.011 A 
HETATM   42  C22 UNL     1      36.491 -25.286  24.885  1.00  0.00    -0.025 A 
BRANCH  42  43
HETATM   43  C23 UNL     1      36.910 -26.669  25.218  1.00  0.00     0.268 C 
BRANCH  43  44
HETATM   44  N7  UNL     1      35.747 -27.526  25.328  1.00  0.00    -0.075 N 
ATOM     45  H73 UNL     1      34.909 -27.002  25.581  1.00  0.00     0.274 HD
ATOM     46  H72 UNL     1      35.439 -27.871  24.420  1.00  0.00     0.274 HD
ATOM     47  H71 UNL     1      35.935 -28.286  25.982  1.00  0.00     0.274 HD
ENDBRANCH  43  44
ENDBRANCH  42  43
ENDBRANCH  35  36
ENDBRANCH  32  35
ENDBRANCH   1  29
TORSDOF 9
ENDMDL
