MODEL 1
REMARK VINA RESULT: -10.076801268      0.000      0.000
REMARK  9 active torsions:
REMARK  status: ('A' for Active; 'I' for Inactive)
REMARK    1  A    between atoms: C4_9  and  C5_10 
REMARK    2  A    between atoms: C6_13  and  C7_14 
REMARK    3  A    between atoms: C7_14  and  C8_15 
REMARK    4  A    between atoms: C7_14  and  N5_22 
REMARK    5  A    between atoms: C8_15  and  C9_16 
REMARK       I    between atoms: N5_22  and  C15_24 
REMARK       I    between atoms: C15_24  and  N6_26 
REMARK    6  A    between atoms: N6_26  and  C16_28 
REMARK    7  A    between atoms: C16_28  and  C17_29 
REMARK    8  A    between atoms: C22_35  and  C23_36 
REMARK    9  A    between atoms: C23_36  and  N7_37 
ROOT
HETATM    1  C7  UNL     1      38.816 -19.318  28.196  1.00  0.00     0.158 C 
ENDROOT
BRANCH   1   2
HETATM    2  C6  UNL     1      39.814 -20.261  28.703  1.00  0.00     0.106 A 
HETATM    3  N4  UNL     1      41.092 -19.922  29.009  1.00  0.00    -0.341 N 
HETATM    4  C5  UNL     1      41.732 -21.002  29.429  1.00  0.00     0.083 A 
ATOM      5  H4  UNL     1      41.493 -18.988  28.928  1.00  0.00     0.167 HD
HETATM    6  C24 UNL     1      40.865 -22.076  29.401  1.00  0.00     0.132 A 
HETATM    7  N8  UNL     1      39.696 -21.567  28.945  1.00  0.00    -0.333 N 
HETATM    8 CL2  UNL     1      41.170 -23.738  29.846  1.00  0.00    -0.062 Cl
ATOM      9  H8  UNL     1      38.842 -22.109  28.805  1.00  0.00     0.168 HD
BRANCH   4  10
HETATM   10  C4  UNL     1      43.147 -21.050  29.858  1.00  0.00    -0.004 A 
HETATM   11  C3  UNL     1      43.508 -21.688  31.031  1.00  0.00     0.045 A 
HETATM   12  C2  UNL     1      44.835 -21.718  31.407  1.00  0.00     0.062 A 
HETATM   13  N3  UNL     1      45.473 -22.258  32.482  1.00  0.00    -0.299 N 
HETATM   14  C27 UNL     1      45.837 -21.135  30.661  1.00  0.00     0.035 A 
HETATM   15  N2  UNL     1      46.770 -22.027  32.406  1.00  0.00    -0.287 N 
ATOM     16  H3  UNL     1      45.014 -22.768  33.237  1.00  0.00     0.187 HD
HETATM   17  C1  UNL     1      47.067 -21.327  31.288  1.00  0.00     0.143 A 
ATOM     18  H2  UNL     1      47.456 -22.334  33.097  1.00  0.00     0.188 HD
HETATM   19  N1  UNL     1      48.329 -20.880  30.837  1.00  0.00    -0.080 NA
HETATM   20  C26 UNL     1      45.480 -20.500  29.494  1.00  0.00     0.018 A 
HETATM   21  C25 UNL     1      44.154 -20.469  29.118  1.00  0.00     0.015 A 
ENDBRANCH   4  10
ENDBRANCH   1   2
BRANCH   1  22
HETATM   22  C8  UNL     1      38.610 -18.228  29.219  1.00  0.00     0.071 C 
BRANCH  22  23
HETATM   23  C9  UNL     1      38.431 -16.898  28.592  1.00  0.00    -0.056 A 
HETATM   24  C10 UNL     1      37.531 -16.008  29.141  1.00  0.00     0.007 A 
HETATM   25  C11 UNL     1      37.329 -14.765  28.585  1.00  0.00     0.001 A 
HETATM   26  C12 UNL     1      38.018 -14.383  27.473  1.00  0.00     0.000 A 
HETATM   27  C13 UNL     1      38.929 -15.245  26.892  1.00  0.00     0.001 A 
HETATM   28  C14 UNL     1      39.118 -16.487  27.464  1.00  0.00     0.007 A 
ENDBRANCH  22  23
ENDBRANCH   1  22
BRANCH   1  29
HETATM   29  N5  UNL     1      37.547 -19.935  27.863  1.00  0.00    -0.331 N 
HETATM   30  C15 UNL     1      37.251 -20.438  26.573  1.00  0.00     0.317 C 
HETATM   31  O1  UNL     1      38.165 -20.319  25.712  1.00  0.00    -0.247 OA
HETATM   32  N6  UNL     1      36.043 -21.042  26.200  1.00  0.00    -0.339 N 
ATOM     33  H6  UNL     1      35.316 -21.142  26.908  1.00  0.00     0.164 HD
ATOM     34  H5  UNL     1      36.836 -20.010  28.591  1.00  0.00     0.165 HD
BRANCH  32  35
HETATM   35  C16 UNL     1      35.777 -21.524  24.893  1.00  0.00     0.163 C 
BRANCH  35  36
HETATM   36  C17 UNL     1      35.885 -22.961  24.671  1.00  0.00    -0.031 A 
HETATM   37  C18 UNL     1      36.808 -23.766  25.297  1.00  0.00     0.033 A 
HETATM   38  C19 UNL     1      36.806 -25.104  24.982  1.00  0.00     0.034 A 
HETATM   39 CL1  UNL     1      37.985 -26.124  25.785  1.00  0.00    -0.084 Cl
HETATM   40  C20 UNL     1      35.945 -25.691  24.081  1.00  0.00     0.024 A 
HETATM   41  C21 UNL     1      35.028 -24.844  23.468  1.00  0.00     0.011 A 
HETATM   42  C22 UNL     1      34.981 -23.498  23.744  1.00  0.00    -0.025 A 
BRANCH  42  43
HETATM   43  C23 UNL     1      33.983 -22.640  23.062  1.00  0.00     0.268 C 
BRANCH  43  44
HETATM   44  N7  UNL     1      33.375 -23.365  21.965  1.00  0.00    -0.075 N 
ATOM     45  H73 UNL     1      33.466 -22.866  21.080  1.00  0.00     0.274 HD
ATOM     46  H72 UNL     1      33.904 -24.201  21.720  1.00  0.00     0.274 HD
ATOM     47  H71 UNL     1      32.401 -23.579  22.186  1.00  0.00     0.274 HD
ENDBRANCH  43  44
ENDBRANCH  42  43
ENDBRANCH  35  36
ENDBRANCH  32  35
ENDBRANCH   1  29
TORSDOF 9
ENDMDL
