MODEL 3
REMARK VINA RESULT: -9.813659856      4.016      8.227
REMARK  9 active torsions:
REMARK  status: ('A' for Active; 'I' for Inactive)
REMARK    1  A    between atoms: C4_9  and  C5_10 
REMARK    2  A    between atoms: C6_13  and  C7_14 
REMARK    3  A    between atoms: C7_14  and  C8_15 
REMARK    4  A    between atoms: C7_14  and  N5_22 
REMARK    5  A    between atoms: C8_15  and  C9_16 
REMARK       I    between atoms: N5_22  and  C15_24 
REMARK       I    between atoms: C15_24  and  N6_26 
REMARK    6  A    between atoms: N6_26  and  C16_28 
REMARK    7  A    between atoms: C16_28  and  C17_29 
REMARK    8  A    between atoms: C22_35  and  C23_36 
REMARK    9  A    between atoms: C23_36  and  N7_37 
ROOT
HETATM    1  C7  UNL     1      41.354 -20.840  29.466  1.00  0.00     0.158 C 
ENDROOT
BRANCH   1   2
HETATM    2  C6  UNL     1      40.626 -19.908  28.602  1.00  0.00     0.106 A 
HETATM    3  N4  UNL     1      39.857 -18.890  29.063  1.00  0.00    -0.341 N 
HETATM    4  C5  UNL     1      39.335 -18.246  28.031  1.00  0.00     0.083 A 
ATOM      5  H4  UNL     1      39.705 -18.659  30.045  1.00  0.00     0.167 HD
HETATM    6  C24 UNL     1      39.765 -18.848  26.865  1.00  0.00     0.132 A 
HETATM    7  N8  UNL     1      40.558 -19.868  27.271  1.00  0.00    -0.333 N 
HETATM    8 CL2  UNL     1      39.392 -18.419  25.212  1.00  0.00    -0.062 Cl
ATOM      9  H8  UNL     1      41.036 -20.516  26.645  1.00  0.00     0.168 HD
BRANCH   4  10
HETATM   10  C4  UNL     1      38.437 -17.074  28.113  1.00  0.00    -0.004 A 
HETATM   11  C3  UNL     1      38.832 -15.845  27.616  1.00  0.00     0.045 A 
HETATM   12  C2  UNL     1      37.974 -14.769  27.706  1.00  0.00     0.062 A 
HETATM   13  N3  UNL     1      38.087 -13.470  27.314  1.00  0.00    -0.299 N 
HETATM   14  C27 UNL     1      36.721 -14.856  28.274  1.00  0.00     0.035 A 
HETATM   15  N2  UNL     1      36.988 -12.804  27.617  1.00  0.00    -0.287 N 
ATOM     16  H3  UNL     1      38.904 -13.068  26.852  1.00  0.00     0.187 HD
HETATM   17  C1  UNL     1      36.090 -13.615  28.221  1.00  0.00     0.143 A 
ATOM     18  H2  UNL     1      36.836 -11.815  27.422  1.00  0.00     0.188 HD
HETATM   19  N1  UNL     1      34.799 -13.298  28.700  1.00  0.00    -0.080 NA
HETATM   20  C26 UNL     1      36.326 -16.078  28.769  1.00  0.00     0.018 A 
HETATM   21  C25 UNL     1      37.183 -17.154  28.680  1.00  0.00     0.015 A 
ENDBRANCH   4  10
ENDBRANCH   1   2
BRANCH   1  22
HETATM   22  C8  UNL     1      42.692 -21.144  28.840  1.00  0.00     0.071 C 
BRANCH  22  23
HETATM   23  C9  UNL     1      43.787 -21.156  29.837  1.00  0.00    -0.056 A 
HETATM   24  C10 UNL     1      44.851 -20.293  29.684  1.00  0.00     0.007 A 
HETATM   25  C11 UNL     1      45.893 -20.278  30.583  1.00  0.00     0.001 A 
HETATM   26  C12 UNL     1      45.896 -21.122  31.654  1.00  0.00     0.000 A 
HETATM   27  C13 UNL     1      44.848 -22.003  31.844  1.00  0.00     0.001 A 
HETATM   28  C14 UNL     1      43.813 -22.003  30.931  1.00  0.00     0.007 A 
ENDBRANCH  22  23
ENDBRANCH   1  22
BRANCH   1  29
HETATM   29  N5  UNL     1      40.636 -22.071  29.729  1.00  0.00    -0.331 N 
HETATM   30  C15 UNL     1      40.404 -23.056  28.737  1.00  0.00     0.317 C 
HETATM   31  O1  UNL     1      40.864 -22.800  27.591  1.00  0.00    -0.247 OA
HETATM   32  N6  UNL     1      39.718 -24.260  28.940  1.00  0.00    -0.339 N 
ATOM     33  H6  UNL     1      39.360 -24.460  29.874  1.00  0.00     0.164 HD
ATOM     34  H5  UNL     1      40.281 -22.237  30.671  1.00  0.00     0.165 HD
BRANCH  32  35
HETATM   35  C16 UNL     1      39.494 -25.218  27.918  1.00  0.00     0.163 C 
BRANCH  35  36
HETATM   36  C17 UNL     1      40.434 -26.329  27.820  1.00  0.00    -0.031 A 
HETATM   37  C18 UNL     1      40.781 -27.134  28.879  1.00  0.00     0.033 A 
HETATM   38  C19 UNL     1      41.691 -28.138  28.647  1.00  0.00     0.034 A 
HETATM   39 CL1  UNL     1      42.129 -29.160  30.003  1.00  0.00    -0.084 Cl
HETATM   40  C20 UNL     1      42.278 -28.389  27.427  1.00  0.00     0.024 A 
HETATM   41  C21 UNL     1      41.901 -27.554  26.380  1.00  0.00     0.011 A 
HETATM   42  C22 UNL     1      40.995 -26.534  26.552  1.00  0.00    -0.025 A 
BRANCH  42  43
HETATM   43  C23 UNL     1      40.628 -25.672  25.403  1.00  0.00     0.268 C 
BRANCH  43  44
HETATM   44  N7  UNL     1      41.667 -24.689  25.170  1.00  0.00    -0.075 N 
ATOM     45  H73 UNL     1      41.438 -23.786  25.584  1.00  0.00     0.274 HD
ATOM     46  H72 UNL     1      42.511 -24.890  25.706  1.00  0.00     0.274 HD
ATOM     47  H71 UNL     1      41.858 -24.615  24.170  1.00  0.00     0.274 HD
ENDBRANCH  43  44
ENDBRANCH  42  43
ENDBRANCH  35  36
ENDBRANCH  32  35
ENDBRANCH   1  29
TORSDOF 9
ENDMDL
