MODEL 2
REMARK VINA RESULT: -10.195604507      3.139      8.233
REMARK  8 active torsions:
REMARK  status: ('A' for Active; 'I' for Inactive)
REMARK    1  A    between atoms: C4_9  and  C5_10 
REMARK    2  A    between atoms: C6_13  and  C7_14 
REMARK    3  A    between atoms: C7_14  and  C8_15 
REMARK    4  A    between atoms: C7_14  and  N5_22 
REMARK    5  A    between atoms: C8_15  and  C9_16 
REMARK       I    between atoms: N5_22  and  C15_24 
REMARK       I    between atoms: C15_24  and  N6_26 
REMARK    6  A    between atoms: N6_26  and  C16_28 
REMARK    7  A    between atoms: C16_28  and  C17_29 
REMARK    8  A    between atoms: C22_35  and  N7_36 
ROOT
HETATM    1  C7  UNL     1      38.163 -17.657  27.454  1.00  0.00     0.158 C 
ENDROOT
BRANCH   1   2
HETATM    2  C6  UNL     1      37.562 -18.348  26.285  1.00  0.00     0.106 A 
HETATM    3  N4  UNL     1      37.196 -19.634  26.273  1.00  0.00    -0.341 N 
HETATM    4  C5  UNL     1      36.693 -19.937  25.069  1.00  0.00     0.083 A 
ATOM      5  H4  UNL     1      37.285 -20.282  27.056  1.00  0.00     0.167 HD
HETATM    6  C24 UNL     1      36.755 -18.798  24.318  1.00  0.00     0.132 A 
HETATM    7  N11 UNL     1      37.286 -17.842  25.075  1.00  0.00    -0.333 N 
HETATM    8 CL2  UNL     1      36.212 -18.657  22.638  1.00  0.00    -0.062 Cl
ATOM      9  H11 UNL     1      37.457 -16.880  24.782  1.00  0.00     0.168 HD
BRANCH   4  10
HETATM   10  C4  UNL     1      36.176 -21.248  24.642  1.00  0.00    -0.004 A 
HETATM   11  C3  UNL     1      35.363 -21.310  23.528  1.00  0.00     0.045 A 
HETATM   12  C2  UNL     1      34.847 -22.518  23.080  1.00  0.00     0.062 A 
HETATM   13  N3  UNL     1      34.052 -22.881  22.057  1.00  0.00    -0.299 N 
HETATM   14  C27 UNL     1      35.181 -23.649  23.795  1.00  0.00     0.035 A 
HETATM   15  N2  UNL     1      33.884 -24.190  22.116  1.00  0.00    -0.287 N 
ATOM     16  H3  UNL     1      33.650 -22.255  21.358  1.00  0.00     0.187 HD
HETATM   17  C1  UNL     1      34.557 -24.698  23.163  1.00  0.00     0.143 A 
ATOM     18  H2  UNL     1      33.325 -24.737  21.462  1.00  0.00     0.188 HD
HETATM   19  N1  UNL     1      34.637 -26.069  23.578  1.00  0.00    -0.080 NA
HETATM   20  C26 UNL     1      36.004 -23.584  24.923  1.00  0.00     0.018 A 
HETATM   21  C25 UNL     1      36.508 -22.374  25.354  1.00  0.00     0.015 A 
ENDBRANCH   4  10
ENDBRANCH   1   2
BRANCH   1  22
HETATM   22  C8  UNL     1      38.369 -16.204  27.129  1.00  0.00     0.071 C 
BRANCH  22  23
HETATM   23  C9  UNL     1      37.254 -15.370  27.652  1.00  0.00    -0.056 A 
HETATM   24  C10 UNL     1      36.389 -15.832  28.616  1.00  0.00     0.007 A 
HETATM   25  C11 UNL     1      35.371 -15.026  29.071  1.00  0.00     0.001 A 
HETATM   26  C12 UNL     1      35.179 -13.754  28.595  1.00  0.00     0.000 A 
HETATM   27  C13 UNL     1      36.048 -13.290  27.626  1.00  0.00     0.001 A 
HETATM   28  C14 UNL     1      37.079 -14.100  27.161  1.00  0.00     0.007 A 
ENDBRANCH  22  23
ENDBRANCH   1  22
BRANCH   1  29
HETATM   29  N5  UNL     1      39.420 -18.241  27.818  1.00  0.00    -0.331 N 
HETATM   30  C15 UNL     1      39.510 -19.495  28.483  1.00  0.00     0.317 C 
HETATM   31  O1  UNL     1      38.433 -20.081  28.744  1.00  0.00    -0.247 OA
HETATM   32  N6  UNL     1      40.782 -20.047  28.831  1.00  0.00    -0.339 N 
ATOM     33  H6  UNL     1      41.633 -19.538  28.591  1.00  0.00     0.164 HD
ATOM     34  H5  UNL     1      40.279 -17.741  27.591  1.00  0.00     0.165 HD
BRANCH  32  35
HETATM   35  C16 UNL     1      40.878 -21.309  29.515  1.00  0.00     0.165 C 
BRANCH  35  36
HETATM   36  C17 UNL     1      41.311 -22.364  28.618  1.00  0.00    -0.010 A 
HETATM   37  C18 UNL     1      40.525 -22.844  27.619  1.00  0.00     0.035 A 
HETATM   38  C19 UNL     1      40.943 -23.878  26.775  1.00  0.00     0.034 A 
HETATM   39 CL1  UNL     1      39.936 -24.490  25.493  1.00  0.00    -0.084 Cl
HETATM   40  C20 UNL     1      42.181 -24.435  26.953  1.00  0.00     0.026 A 
HETATM   41  C21 UNL     1      42.976 -23.944  27.975  1.00  0.00     0.034 A 
HETATM   42  C22 UNL     1      42.566 -22.928  28.802  1.00  0.00     0.067 A 
BRANCH  42  43
HETATM   43  N7  UNL     1      43.365 -22.408  29.855  1.00  0.00    -0.235 N 
HETATM   44  C23 UNL     1      44.247 -21.405  29.700  1.00  0.00     0.226 A 
HETATM   45  N8  UNL     1      44.830 -21.163  30.887  1.00  0.00    -0.279 N 
HETATM   46  N9  UNL     1      44.319 -21.995  31.748  1.00  0.00    -0.227 N 
ATOM     47  H8  UNL     1      45.541 -20.457  31.077  1.00  0.00     0.189 HD
HETATM   48  N10 UNL     1      43.441 -22.741  31.128  1.00  0.00    -0.220 N 
ATOM     49  H9  UNL     1      44.562 -22.055  32.737  1.00  0.00     0.210 HD
ATOM     50  H10 UNL     1      42.891 -23.479  31.569  1.00  0.00     0.210 HD
ENDBRANCH  42  43
ENDBRANCH  35  36
ENDBRANCH  32  35
ENDBRANCH   1  29
TORSDOF 8
ENDMDL
