MODEL 3
REMARK VINA RESULT: -10.178938236      2.926      8.597
REMARK  8 active torsions:
REMARK  status: ('A' for Active; 'I' for Inactive)
REMARK    1  A    between atoms: C4_9  and  C5_10 
REMARK    2  A    between atoms: C6_13  and  C7_14 
REMARK    3  A    between atoms: C7_14  and  C8_15 
REMARK    4  A    between atoms: C7_14  and  N5_22 
REMARK    5  A    between atoms: C8_15  and  C9_16 
REMARK       I    between atoms: N5_22  and  C15_24 
REMARK       I    between atoms: C15_24  and  N6_26 
REMARK    6  A    between atoms: N6_26  and  C16_28 
REMARK    7  A    between atoms: C16_28  and  C17_29 
REMARK    8  A    between atoms: C22_35  and  N7_36 
ROOT
HETATM    1  C7  UNL     1      38.231 -17.743  27.498  1.00  0.00     0.158 C 
ENDROOT
BRANCH   1   2
HETATM    2  C6  UNL     1      37.609 -18.404  26.322  1.00  0.00     0.106 A 
HETATM    3  N4  UNL     1      37.224 -19.685  26.291  1.00  0.00    -0.341 N 
HETATM    4  C5  UNL     1      36.706 -19.958  25.086  1.00  0.00     0.083 A 
ATOM      5  H4  UNL     1      37.312 -20.348  27.061  1.00  0.00     0.167 HD
HETATM    6  C24 UNL     1      36.775 -18.806  24.356  1.00  0.00     0.132 A 
HETATM    7  N11 UNL     1      37.328 -17.872  25.125  1.00  0.00    -0.333 N 
HETATM    8 CL2  UNL     1      36.218 -18.626  22.685  1.00  0.00    -0.062 Cl
ATOM      9  H11 UNL     1      37.509 -16.907  24.848  1.00  0.00     0.168 HD
BRANCH   4  10
HETATM   10  C4  UNL     1      36.166 -21.254  24.640  1.00  0.00    -0.004 A 
HETATM   11  C3  UNL     1      35.332 -21.283  23.541  1.00  0.00     0.045 A 
HETATM   12  C2  UNL     1      34.794 -22.474  23.077  1.00  0.00     0.062 A 
HETATM   13  N3  UNL     1      33.976 -22.806  22.061  1.00  0.00    -0.299 N 
HETATM   14  C27 UNL     1      35.128 -23.624  23.761  1.00  0.00     0.035 A 
HETATM   15  N2  UNL     1      33.795 -24.115  22.095  1.00  0.00    -0.287 N 
ATOM     16  H3  UNL     1      33.569 -22.161  21.384  1.00  0.00     0.187 HD
HETATM   17  C1  UNL     1      34.481 -24.653  23.117  1.00  0.00     0.143 A 
ATOM     18  H2  UNL     1      33.217 -24.641  21.439  1.00  0.00     0.188 HD
HETATM   19  N1  UNL     1      34.552 -26.033  23.501  1.00  0.00    -0.080 NA
HETATM   20  C26 UNL     1      35.972 -23.593  24.875  1.00  0.00     0.018 A 
HETATM   21  C25 UNL     1      36.498 -22.399  25.322  1.00  0.00     0.015 A 
ENDBRANCH   4  10
ENDBRANCH   1   2
BRANCH   1  22
HETATM   22  C8  UNL     1      38.440 -16.285  27.202  1.00  0.00     0.071 C 
BRANCH  22  23
HETATM   23  C9  UNL     1      37.305 -15.464  27.705  1.00  0.00    -0.056 A 
HETATM   24  C10 UNL     1      36.415 -15.944  28.637  1.00  0.00     0.007 A 
HETATM   25  C11 UNL     1      35.380 -15.150  29.074  1.00  0.00     0.001 A 
HETATM   26  C12 UNL     1      35.194 -13.873  28.610  1.00  0.00     0.000 A 
HETATM   27  C13 UNL     1      36.088 -13.391  27.673  1.00  0.00     0.001 A 
HETATM   28  C14 UNL     1      37.137 -14.188  27.227  1.00  0.00     0.007 A 
ENDBRANCH  22  23
ENDBRANCH   1  22
BRANCH   1  29
HETATM   29  N5  UNL     1      39.490 -18.342  27.828  1.00  0.00    -0.331 N 
HETATM   30  C15 UNL     1      39.584 -19.615  28.455  1.00  0.00     0.317 C 
HETATM   31  O1  UNL     1      38.509 -20.205  28.713  1.00  0.00    -0.247 OA
HETATM   32  N6  UNL     1      40.858 -20.181  28.771  1.00  0.00    -0.339 N 
ATOM     33  H6  UNL     1      41.708 -19.668  28.536  1.00  0.00     0.164 HD
ATOM     34  H5  UNL     1      40.348 -17.838  27.606  1.00  0.00     0.165 HD
BRANCH  32  35
HETATM   35  C16 UNL     1      40.958 -21.463  29.417  1.00  0.00     0.165 C 
BRANCH  35  36
HETATM   36  C17 UNL     1      42.322 -21.957  29.400  1.00  0.00    -0.010 A 
HETATM   37  C18 UNL     1      43.400 -21.137  29.518  1.00  0.00     0.035 A 
HETATM   38  C19 UNL     1      44.712 -21.622  29.476  1.00  0.00     0.034 A 
HETATM   39 CL1  UNL     1      46.091 -20.571  29.629  1.00  0.00    -0.084 Cl
HETATM   40  C20 UNL     1      44.930 -22.963  29.311  1.00  0.00     0.026 A 
HETATM   41  C21 UNL     1      43.827 -23.793  29.189  1.00  0.00     0.034 A 
HETATM   42  C22 UNL     1      42.541 -23.317  29.231  1.00  0.00     0.067 A 
BRANCH  42  43
HETATM   43  N7  UNL     1      41.397 -24.150  29.109  1.00  0.00    -0.235 N 
HETATM   44  C23 UNL     1      40.856 -24.509  27.931  1.00  0.00     0.226 A 
HETATM   45  N8  UNL     1      39.791 -25.294  28.172  1.00  0.00    -0.279 N 
HETATM   46  N9  UNL     1      39.682 -25.414  29.465  1.00  0.00    -0.227 N 
ATOM     47  H8  UNL     1      39.182 -25.718  27.473  1.00  0.00     0.189 HD
HETATM   48  N10 UNL     1      40.645 -24.727  30.024  1.00  0.00    -0.220 N 
ATOM     49  H9  UNL     1      38.968 -25.951  29.956  1.00  0.00     0.210 HD
ATOM     50  H10 UNL     1      40.794 -24.649  31.030  1.00  0.00     0.210 HD
ENDBRANCH  42  43
ENDBRANCH  35  36
ENDBRANCH  32  35
ENDBRANCH   1  29
TORSDOF 8
ENDMDL
