MODEL 1
REMARK VINA RESULT: -10.338204467      0.000      0.000
REMARK  8 active torsions:
REMARK  status: ('A' for Active; 'I' for Inactive)
REMARK    1  A    between atoms: C4_9  and  C5_10 
REMARK    2  A    between atoms: C6_13  and  C7_14 
REMARK    3  A    between atoms: C7_14  and  C8_15 
REMARK    4  A    between atoms: C7_14  and  N5_22 
REMARK    5  A    between atoms: C8_15  and  C9_16 
REMARK       I    between atoms: N5_22  and  C15_24 
REMARK       I    between atoms: C15_24  and  N6_26 
REMARK    6  A    between atoms: N6_26  and  C16_28 
REMARK    7  A    between atoms: C16_28  and  C17_29 
REMARK    8  A    between atoms: C22_35  and  N7_36 
ROOT
HETATM    1  C7  UNL     1      41.087 -20.731  26.169  1.00  0.00     0.158 C 
ENDROOT
BRANCH   1   2
HETATM    2  C6  UNL     1      40.507 -19.375  25.990  1.00  0.00     0.106 A 
HETATM    3  N4  UNL     1      39.578 -18.839  26.788  1.00  0.00    -0.341 N 
HETATM    4  C5  UNL     1      39.276 -17.611  26.348  1.00  0.00     0.083 A 
ATOM      5  H4  UNL     1      39.166 -19.293  27.603  1.00  0.00     0.167 HD
HETATM    6  C24 UNL     1      40.046 -17.388  25.242  1.00  0.00     0.132 A 
HETATM    7  N11 UNL     1      40.788 -18.473  25.040  1.00  0.00    -0.333 N 
HETATM    8 CL2  UNL     1      40.031 -15.905  24.275  1.00  0.00    -0.062 Cl
ATOM      9  H11 UNL     1      41.462 -18.598  24.284  1.00  0.00     0.168 HD
BRANCH   4  10
HETATM   10  C4  UNL     1      38.300 -16.684  26.945  1.00  0.00    -0.004 A 
HETATM   11  C3  UNL     1      38.376 -15.344  26.625  1.00  0.00     0.045 A 
HETATM   12  C2  UNL     1      37.484 -14.424  27.158  1.00  0.00     0.062 A 
HETATM   13  N3  UNL     1      37.315 -13.095  27.034  1.00  0.00    -0.299 N 
HETATM   14  C27 UNL     1      36.521 -14.908  28.018  1.00  0.00     0.035 A 
HETATM   15  N2  UNL     1      36.286 -12.744  27.786  1.00  0.00    -0.287 N 
ATOM     16  H3  UNL     1      37.881 -12.469  26.461  1.00  0.00     0.187 HD
HETATM   17  C1  UNL     1      35.772 -13.821  28.403  1.00  0.00     0.143 A 
ATOM     18  H2  UNL     1      35.933 -11.792  27.883  1.00  0.00     0.188 HD
HETATM   19  N1  UNL     1      34.656 -13.872  29.302  1.00  0.00    -0.080 NA
HETATM   20  C26 UNL     1      36.445 -16.266  28.341  1.00  0.00     0.018 A 
HETATM   21  C25 UNL     1      37.341 -17.166  27.802  1.00  0.00     0.015 A 
ENDBRANCH   4  10
ENDBRANCH   1   2
BRANCH   1  22
HETATM   22  C8  UNL     1      42.540 -20.711  25.785  1.00  0.00     0.071 C 
BRANCH  22  23
HETATM   23  C9  UNL     1      43.416 -20.711  26.988  1.00  0.00    -0.056 A 
HETATM   24  C10 UNL     1      42.912 -20.877  28.257  1.00  0.00     0.007 A 
HETATM   25  C11 UNL     1      43.758 -20.870  29.341  1.00  0.00     0.001 A 
HETATM   26  C12 UNL     1      45.113 -20.701  29.208  1.00  0.00     0.000 A 
HETATM   27  C13 UNL     1      45.620 -20.534  27.933  1.00  0.00     0.001 A 
HETATM   28  C14 UNL     1      44.769 -20.540  26.832  1.00  0.00     0.007 A 
ENDBRANCH  22  23
ENDBRANCH   1  22
BRANCH   1  29
HETATM   29  N5  UNL     1      40.402 -21.702  25.368  1.00  0.00    -0.331 N 
HETATM   30  C15 UNL     1      39.175 -22.293  25.776  1.00  0.00     0.317 C 
HETATM   31  O1  UNL     1      38.705 -21.928  26.880  1.00  0.00    -0.247 OA
HETATM   32  N6  UNL     1      38.520 -23.260  24.952  1.00  0.00    -0.339 N 
ATOM     33  H6  UNL     1      38.935 -23.521  24.058  1.00  0.00     0.164 HD
ATOM     34  H5  UNL     1      40.809 -21.979  24.475  1.00  0.00     0.165 HD
BRANCH  32  35
HETATM   35  C16 UNL     1      37.285 -23.870  25.366  1.00  0.00     0.165 C 
BRANCH  35  36
HETATM   36  C17 UNL     1      36.333 -23.930  24.272  1.00  0.00    -0.010 A 
HETATM   37  C18 UNL     1      36.061 -25.079  23.600  1.00  0.00     0.035 A 
HETATM   38  C19 UNL     1      35.159 -25.120  22.531  1.00  0.00     0.034 A 
HETATM   39 CL1  UNL     1      34.810 -26.593  21.671  1.00  0.00    -0.084 Cl
HETATM   40  C20 UNL     1      34.526 -23.971  22.139  1.00  0.00     0.026 A 
HETATM   41  C21 UNL     1      34.809 -22.802  22.827  1.00  0.00     0.034 A 
HETATM   42  C22 UNL     1      35.693 -22.763  23.876  1.00  0.00     0.067 A 
BRANCH  42  43
HETATM   43  N7  UNL     1      35.998 -21.577  24.596  1.00  0.00    -0.235 N 
HETATM   44  C23 UNL     1      36.533 -20.479  24.034  1.00  0.00     0.226 A 
HETATM   45  N8  UNL     1      36.693 -19.546  24.989  1.00  0.00    -0.279 N 
HETATM   46  N9  UNL     1      36.266 -20.059  26.108  1.00  0.00    -0.227 N 
ATOM     47  H8  UNL     1      37.077 -18.610  24.861  1.00  0.00     0.189 HD
HETATM   48  N10 UNL     1      35.850 -21.276  25.870  1.00  0.00    -0.220 N 
ATOM     49  H9  UNL     1      36.258 -19.591  27.014  1.00  0.00     0.210 HD
ATOM     50  H10 UNL     1      35.465 -21.906  26.574  1.00  0.00     0.210 HD
ENDBRANCH  42  43
ENDBRANCH  35  36
ENDBRANCH  32  35
ENDBRANCH   1  29
TORSDOF 8
ENDMDL
