MODEL 5
REMARK VINA RESULT: -9.512161553      3.965      8.491
REMARK  11 active torsions:
REMARK  status: ('A' for Active; 'I' for Inactive)
REMARK    1  A    between atoms: O1_2  and  C2_3 
REMARK       I    between atoms: C2_3  and  N1_5 
REMARK    2  A    between atoms: N1_5  and  C3_7 
REMARK    3  A    between atoms: C6_10  and  C7_11 
REMARK    4  A    between atoms: C8_14  and  C9_15 
REMARK    5  A    between atoms: C9_15  and  C10_16 
REMARK    6  A    between atoms: C9_15  and  N3_23 
REMARK    7  A    between atoms: C10_16  and  C11_17 
REMARK       I    between atoms: N3_23  and  C17_25 
REMARK    8  A    between atoms: C17_25  and  C18_27 
REMARK    9  A    between atoms: C18_27  and  C19_28 
REMARK   10  A    between atoms: C19_28  and  C20_29 
REMARK   11  A    between atoms: C25_35  and  N4_36 
ROOT
HETATM    1  C9  UNL     1      40.881 -20.624  28.680  1.00  0.00     0.156 C 
ENDROOT
BRANCH   1   2
HETATM    2  C8  UNL     1      40.240 -21.773  27.979  1.00  0.00     0.106 A 
HETATM    3  N2  UNL     1      39.454 -21.747  26.886  1.00  0.00    -0.341 N 
HETATM    4  C7  UNL     1      39.069 -22.997  26.560  1.00  0.00     0.083 A 
ATOM      5  H2  UNL     1      39.188 -20.904  26.378  1.00  0.00     0.167 HD
HETATM    6  C27 UNL     1      39.668 -23.811  27.525  1.00  0.00     0.132 A 
HETATM    7  N8  UNL     1      40.377 -23.055  28.383  1.00  0.00    -0.333 N 
HETATM    8 CL2  UNL     1      39.512 -25.558  27.596  1.00  0.00    -0.062 Cl
ATOM      9  H8  UNL     1      40.914 -23.387  29.183  1.00  0.00     0.168 HD
BRANCH   4  10
HETATM   10  C6  UNL     1      38.225 -23.458  25.467  1.00  0.00    -0.006 A 
HETATM   11  C5  UNL     1      38.715 -24.218  24.462  1.00  0.00     0.016 A 
HETATM   12  C4  UNL     1      37.882 -24.653  23.412  1.00  0.00     0.030 A 
HETATM   13  C3  UNL     1      36.564 -24.336  23.360  1.00  0.00     0.036 A 
HETATM   14  C29 UNL     1      36.076 -23.549  24.412  1.00  0.00     0.030 A 
HETATM   15  C28 UNL     1      36.888 -23.122  25.439  1.00  0.00     0.016 A 
BRANCH  13  16
HETATM   16  N1  UNL     1      35.707 -24.741  22.321  1.00  0.00    -0.303 N 
HETATM   17  C2  UNL     1      35.127 -26.010  22.143  1.00  0.00     0.364 C 
HETATM   18  O2  UNL     1      35.343 -26.936  22.937  1.00  0.00    -0.238 OA
ATOM     19  H1  UNL     1      35.481 -24.036  21.619  1.00  0.00     0.171 HD
BRANCH  17  20
HETATM   20  O1  UNL     1      34.280 -26.306  21.072  1.00  0.00    -0.309 OA
HETATM   21  C1  UNL     1      34.288 -27.568  20.439  1.00  0.00     0.215 C 
ENDBRANCH  17  20
ENDBRANCH  13  16
ENDBRANCH   4  10
ENDBRANCH   1   2
BRANCH   1  22
HETATM   22  C10 UNL     1      41.965 -21.069  29.615  1.00  0.00     0.071 C 
BRANCH  22  23
HETATM   23  C11 UNL     1      43.317 -20.805  29.120  1.00  0.00    -0.056 A 
HETATM   24  C12 UNL     1      44.342 -20.628  30.014  1.00  0.00     0.007 A 
HETATM   25  C13 UNL     1      45.654 -20.374  29.630  1.00  0.00     0.001 A 
HETATM   26  C14 UNL     1      45.857 -20.312  28.268  1.00  0.00     0.000 A 
HETATM   27  C15 UNL     1      44.854 -20.485  27.341  1.00  0.00     0.001 A 
HETATM   28  C16 UNL     1      43.572 -20.734  27.776  1.00  0.00     0.007 A 
ENDBRANCH  22  23
ENDBRANCH   1  22
BRANCH   1  29
HETATM   29  N3  UNL     1      39.894 -19.759  29.296  1.00  0.00    -0.349 N 
HETATM   30  C17 UNL     1      39.364 -18.613  28.636  1.00  0.00     0.218 C 
HETATM   31  O3  UNL     1      39.795 -18.380  27.482  1.00  0.00    -0.274 OA
ATOM     32  H3  UNL     1      39.567 -19.979  30.237  1.00  0.00     0.163 HD
BRANCH  30  33
HETATM   33  C18 UNL     1      38.357 -17.708  29.230  1.00  0.00     0.107 C 
BRANCH  33  34
HETATM   34  C19 UNL     1      37.225 -17.538  28.241  1.00  0.00     0.050 C 
BRANCH  34  35
HETATM   35  C20 UNL     1      36.694 -16.158  28.208  1.00  0.00    -0.027 A 
HETATM   36  C21 UNL     1      35.639 -15.792  29.032  1.00  0.00     0.033 A 
HETATM   37  C22 UNL     1      35.130 -14.533  29.025  1.00  0.00     0.034 A 
HETATM   38 CL1  UNL     1      33.791 -14.038  30.060  1.00  0.00    -0.084 Cl
HETATM   39  C23 UNL     1      35.683 -13.586  28.167  1.00  0.00     0.026 A 
HETATM   40  C24 UNL     1      36.731 -13.955  27.350  1.00  0.00     0.034 A 
HETATM   41  C25 UNL     1      37.254 -15.244  27.356  1.00  0.00     0.065 A 
BRANCH  41  42
HETATM   42  N4  UNL     1      38.339 -15.531  26.474  1.00  0.00    -0.235 N 
HETATM   43  C26 UNL     1      38.273 -15.859  25.164  1.00  0.00     0.226 A 
HETATM   44  N5  UNL     1      39.517 -16.052  24.697  1.00  0.00    -0.279 N 
HETATM   45  N6  UNL     1      40.353 -15.848  25.697  1.00  0.00    -0.227 N 
ATOM     46  H5  UNL     1      39.770 -16.309  23.743  1.00  0.00     0.189 HD
HETATM   47  N7  UNL     1      39.634 -15.540  26.743  1.00  0.00    -0.220 N 
ATOM     48  H6  UNL     1      41.371 -15.917  25.660  1.00  0.00     0.210 HD
ATOM     49  H7  UNL     1      40.026 -15.331  27.661  1.00  0.00     0.210 HD
ENDBRANCH  41  42
ENDBRANCH  34  35
ENDBRANCH  33  34
ENDBRANCH  30  33
ENDBRANCH   1  29
TORSDOF 11
ENDMDL
