MODEL 3
REMARK VINA RESULT: -9.710170305      1.507      2.456
REMARK  11 active torsions:
REMARK  status: ('A' for Active; 'I' for Inactive)
REMARK    1  A    between atoms: O1_2  and  C2_3 
REMARK       I    between atoms: C2_3  and  N1_5 
REMARK    2  A    between atoms: N1_5  and  C3_7 
REMARK    3  A    between atoms: C6_10  and  C7_11 
REMARK    4  A    between atoms: C8_14  and  C9_15 
REMARK    5  A    between atoms: C9_15  and  C10_16 
REMARK    6  A    between atoms: C9_15  and  N3_23 
REMARK    7  A    between atoms: C10_16  and  C11_17 
REMARK       I    between atoms: N3_23  and  C17_25 
REMARK    8  A    between atoms: C17_25  and  C18_27 
REMARK    9  A    between atoms: C18_27  and  C19_28 
REMARK   10  A    between atoms: C19_28  and  C20_29 
REMARK   11  A    between atoms: C25_35  and  N4_36 
ROOT
HETATM    1  C9  UNL     1      39.835 -20.897  28.289  1.00  0.00     0.156 C 
ENDROOT
BRANCH   1   2
HETATM    2  C8  UNL     1      41.316 -20.813  28.147  1.00  0.00     0.106 A 
HETATM    3  N2  UNL     1      42.252 -20.916  29.110  1.00  0.00    -0.341 N 
HETATM    4  C7  UNL     1      43.483 -20.783  28.578  1.00  0.00     0.083 A 
ATOM      5  H2  UNL     1      42.057 -21.072  30.099  1.00  0.00     0.167 HD
HETATM    6  C27 UNL     1      43.257 -20.589  27.214  1.00  0.00     0.132 A 
HETATM    7  N8  UNL     1      41.935 -20.609  26.963  1.00  0.00    -0.333 N 
HETATM    8 CL2  UNL     1      44.517 -20.356  26.015  1.00  0.00    -0.062 Cl
ATOM      9  H8  UNL     1      41.487 -20.492  26.055  1.00  0.00     0.168 HD
BRANCH   4  10
HETATM   10  C6  UNL     1      44.787 -20.822  29.226  1.00  0.00    -0.006 A 
HETATM   11  C5  UNL     1      45.774 -21.635  28.787  1.00  0.00     0.016 A 
HETATM   12  C4  UNL     1      47.029 -21.659  29.427  1.00  0.00     0.030 A 
HETATM   13  C3  UNL     1      47.306 -20.878  30.500  1.00  0.00     0.036 A 
HETATM   14  C29 UNL     1      46.269 -20.041  30.937  1.00  0.00     0.030 A 
HETATM   15  C28 UNL     1      45.042 -20.016  30.315  1.00  0.00     0.016 A 
BRANCH  13  16
HETATM   16  N1  UNL     1      48.540 -20.886  31.172  1.00  0.00    -0.303 N 
HETATM   17  C2  UNL     1      48.871 -21.608  32.333  1.00  0.00     0.364 C 
HETATM   18  O2  UNL     1      48.046 -22.340  32.896  1.00  0.00    -0.238 OA
ATOM     19  H1  UNL     1      49.278 -20.304  30.774  1.00  0.00     0.171 HD
BRANCH  17  20
HETATM   20  O1  UNL     1      50.138 -21.548  32.921  1.00  0.00    -0.309 OA
HETATM   21  C1  UNL     1      50.336 -21.795  34.297  1.00  0.00     0.215 C 
ENDBRANCH  17  20
ENDBRANCH  13  16
ENDBRANCH   4  10
ENDBRANCH   1   2
BRANCH   1  22
HETATM   22  C10 UNL     1      39.236 -21.900  27.349  1.00  0.00     0.071 C 
BRANCH  22  23
HETATM   23  C11 UNL     1      39.601 -23.286  27.653  1.00  0.00    -0.056 A 
HETATM   24  C12 UNL     1      39.797 -23.663  28.956  1.00  0.00     0.007 A 
HETATM   25  C13 UNL     1      40.144 -24.956  29.332  1.00  0.00     0.001 A 
HETATM   26  C14 UNL     1      40.280 -25.846  28.288  1.00  0.00     0.000 A 
HETATM   27  C15 UNL     1      40.091 -25.504  26.967  1.00  0.00     0.001 A 
HETATM   28  C16 UNL     1      39.748 -24.209  26.652  1.00  0.00     0.007 A 
ENDBRANCH  22  23
ENDBRANCH   1  22
BRANCH   1  29
HETATM   29  N3  UNL     1      39.218 -19.587  28.219  1.00  0.00    -0.349 N 
HETATM   30  C17 UNL     1      39.258 -18.665  29.303  1.00  0.00     0.218 C 
HETATM   31  O3  UNL     1      39.857 -19.040  30.338  1.00  0.00    -0.274 OA
ATOM     32  H3  UNL     1      38.739 -19.315  27.360  1.00  0.00     0.163 HD
BRANCH  30  33
HETATM   33  C18 UNL     1      38.643 -17.321  29.270  1.00  0.00     0.107 C 
BRANCH  33  34
HETATM   34  C19 UNL     1      37.609 -17.295  28.167  1.00  0.00     0.050 C 
BRANCH  34  35
HETATM   35  C20 UNL     1      36.907 -15.997  28.067  1.00  0.00    -0.027 A 
HETATM   36  C21 UNL     1      35.851 -15.703  28.917  1.00  0.00     0.033 A 
HETATM   37  C22 UNL     1      35.188 -14.520  28.850  1.00  0.00     0.034 A 
HETATM   38 CL1  UNL     1      33.842 -14.117  29.916  1.00  0.00    -0.084 Cl
HETATM   39  C23 UNL     1      35.580 -13.578  27.903  1.00  0.00     0.026 A 
HETATM   40  C24 UNL     1      36.630 -13.876  27.061  1.00  0.00     0.034 A 
HETATM   41  C25 UNL     1      37.311 -15.086  27.127  1.00  0.00     0.065 A 
BRANCH  41  42
HETATM   42  N4  UNL     1      38.386 -15.303  26.212  1.00  0.00    -0.235 N 
HETATM   43  C26 UNL     1      39.646 -15.702  26.499  1.00  0.00     0.226 A 
HETATM   44  N5  UNL     1      40.349 -15.785  25.358  1.00  0.00    -0.279 N 
HETATM   45  N6  UNL     1      39.544 -15.444  24.369  1.00  0.00    -0.227 N 
ATOM     46  H5  UNL     1      41.327 -16.061  25.271  1.00  0.00     0.189 HD
HETATM   47  N7  UNL     1      38.384 -15.162  24.897  1.00  0.00    -0.220 N 
ATOM     48  H6  UNL     1      39.784 -15.409  23.378  1.00  0.00     0.210 HD
ATOM     49  H7  UNL     1      37.571 -14.867  24.357  1.00  0.00     0.210 HD
ENDBRANCH  41  42
ENDBRANCH  34  35
ENDBRANCH  33  34
ENDBRANCH  30  33
ENDBRANCH   1  29
TORSDOF 11
ENDMDL
