MODEL 4
REMARK VINA RESULT: -9.573811793      4.238     10.473
REMARK  11 active torsions:
REMARK  status: ('A' for Active; 'I' for Inactive)
REMARK    1  A    between atoms: O1_2  and  C2_3 
REMARK       I    between atoms: C2_3  and  N1_5 
REMARK    2  A    between atoms: N1_5  and  C3_7 
REMARK    3  A    between atoms: C6_10  and  C7_11 
REMARK    4  A    between atoms: C8_14  and  C9_15 
REMARK    5  A    between atoms: C9_15  and  C10_16 
REMARK    6  A    between atoms: C9_15  and  N3_23 
REMARK    7  A    between atoms: C10_16  and  C11_17 
REMARK       I    between atoms: N3_23  and  C17_25 
REMARK    8  A    between atoms: C17_25  and  C18_27 
REMARK    9  A    between atoms: C18_27  and  C19_28 
REMARK   10  A    between atoms: C19_28  and  C20_29 
REMARK   11  A    between atoms: C25_35  and  N4_36 
ROOT
HETATM    1  C9  UNL     1      37.915 -17.465  26.784  1.00  0.00     0.156 C 
ENDROOT
BRANCH   1   2
HETATM    2  C8  UNL     1      37.282 -18.209  25.658  1.00  0.00     0.106 A 
HETATM    3  N2  UNL     1      37.057 -19.534  25.559  1.00  0.00    -0.341 N 
HETATM    4  C7  UNL     1      36.464 -19.817  24.382  1.00  0.00     0.083 A 
ATOM      5  H2  UNL     1      37.300 -20.223  26.271  1.00  0.00     0.167 HD
HETATM    6  C27 UNL     1      36.331 -18.579  23.748  1.00  0.00     0.132 A 
HETATM    7  N8  UNL     1      36.833 -17.609  24.534  1.00  0.00    -0.333 N 
HETATM    8 CL2  UNL     1      35.615 -18.338  22.164  1.00  0.00    -0.062 Cl
ATOM      9  H8  UNL     1      36.867 -16.612  24.322  1.00  0.00     0.168 HD
BRANCH   4  10
HETATM   10  C6  UNL     1      36.035 -21.099  23.839  1.00  0.00    -0.006 A 
HETATM   11  C5  UNL     1      34.772 -21.298  23.400  1.00  0.00     0.016 A 
HETATM   12  C4  UNL     1      34.377 -22.546  22.878  1.00  0.00     0.030 A 
HETATM   13  C3  UNL     1      35.233 -23.594  22.791  1.00  0.00     0.036 A 
HETATM   14  C29 UNL     1      36.537 -23.366  23.250  1.00  0.00     0.030 A 
HETATM   15  C28 UNL     1      36.927 -22.148  23.761  1.00  0.00     0.016 A 
BRANCH  13  16
HETATM   16  N1  UNL     1      34.869 -24.857  22.290  1.00  0.00    -0.303 N 
HETATM   17  C2  UNL     1      34.554 -26.008  23.035  1.00  0.00     0.364 C 
HETATM   18  O2  UNL     1      34.578 -26.003  24.273  1.00  0.00    -0.238 OA
ATOM     19  H1  UNL     1      34.830 -24.948  21.275  1.00  0.00     0.171 HD
BRANCH  17  20
HETATM   20  O1  UNL     1      34.199 -27.219  22.434  1.00  0.00    -0.309 OA
HETATM   21  C1  UNL     1      34.543 -28.465  23.002  1.00  0.00     0.215 C 
ENDBRANCH  17  20
ENDBRANCH  13  16
ENDBRANCH   4  10
ENDBRANCH   1   2
BRANCH   1  22
HETATM   22  C10 UNL     1      37.898 -15.983  26.558  1.00  0.00     0.071 C 
BRANCH  22  23
HETATM   23  C11 UNL     1      36.901 -15.274  27.363  1.00  0.00    -0.056 A 
HETATM   24  C12 UNL     1      36.654 -13.948  27.120  1.00  0.00     0.007 A 
HETATM   25  C13 UNL     1      35.725 -13.201  27.836  1.00  0.00     0.001 A 
HETATM   26  C14 UNL     1      35.060 -13.896  28.823  1.00  0.00     0.000 A 
HETATM   27  C15 UNL     1      35.281 -15.227  29.097  1.00  0.00     0.001 A 
HETATM   28  C16 UNL     1      36.212 -15.919  28.356  1.00  0.00     0.007 A 
ENDBRANCH  22  23
ENDBRANCH   1  22
BRANCH   1  29
HETATM   29  N3  UNL     1      39.227 -17.994  27.100  1.00  0.00    -0.349 N 
HETATM   30  C17 UNL     1      39.416 -19.072  28.012  1.00  0.00     0.218 C 
HETATM   31  O3  UNL     1      38.383 -19.550  28.538  1.00  0.00    -0.274 OA
ATOM     32  H3  UNL     1      40.045 -17.580  26.653  1.00  0.00     0.163 HD
BRANCH  30  33
HETATM   33  C18 UNL     1      40.735 -19.640  28.361  1.00  0.00     0.107 C 
BRANCH  33  34
HETATM   34  C19 UNL     1      40.528 -20.746  29.372  1.00  0.00     0.050 C 
BRANCH  34  35
HETATM   35  C20 UNL     1      40.803 -22.089  28.819  1.00  0.00    -0.027 A 
HETATM   36  C21 UNL     1      39.886 -22.704  27.979  1.00  0.00     0.033 A 
HETATM   37  C22 UNL     1      40.110 -23.936  27.455  1.00  0.00     0.034 A 
HETATM   38 CL1  UNL     1      38.964 -24.743  26.385  1.00  0.00    -0.084 Cl
HETATM   39  C23 UNL     1      41.294 -24.599  27.770  1.00  0.00     0.026 A 
HETATM   40  C24 UNL     1      42.201 -23.983  28.605  1.00  0.00     0.034 A 
HETATM   41  C25 UNL     1      41.974 -22.721  29.143  1.00  0.00     0.065 A 
BRANCH  41  42
HETATM   42  N4  UNL     1      42.974 -22.166  29.998  1.00  0.00    -0.235 N 
HETATM   43  C26 UNL     1      43.968 -21.314  29.661  1.00  0.00     0.226 A 
HETATM   44  N5  UNL     1      44.694 -21.032  30.754  1.00  0.00    -0.279 N 
HETATM   45  N6  UNL     1      44.164 -21.696  31.765  1.00  0.00    -0.227 N 
ATOM     46  H5  UNL     1      45.506 -20.417  30.797  1.00  0.00     0.189 HD
HETATM   47  N7  UNL     1      43.145 -22.363  31.295  1.00  0.00    -0.220 N 
ATOM     48  H6  UNL     1      44.491 -21.689  32.731  1.00  0.00     0.210 HD
ATOM     49  H7  UNL     1      42.550 -22.966  31.863  1.00  0.00     0.210 HD
ENDBRANCH  41  42
ENDBRANCH  34  35
ENDBRANCH  33  34
ENDBRANCH  30  33
ENDBRANCH   1  29
TORSDOF 11
ENDMDL
