MODEL 2
REMARK VINA RESULT: -10.037602357      4.095      8.382
REMARK  11 active torsions:
REMARK  status: ('A' for Active; 'I' for Inactive)
REMARK    1  A    between atoms: O1_2  and  C2_3 
REMARK       I    between atoms: C2_3  and  N1_5 
REMARK    2  A    between atoms: N1_5  and  C3_7 
REMARK    3  A    between atoms: C6_10  and  C7_11 
REMARK    4  A    between atoms: C8_14  and  C9_15 
REMARK    5  A    between atoms: C9_15  and  C10_16 
REMARK    6  A    between atoms: C9_15  and  N3_23 
REMARK    7  A    between atoms: C10_16  and  C11_17 
REMARK       I    between atoms: N3_23  and  C17_25 
REMARK    8  A    between atoms: C17_25  and  C18_27 
REMARK    9  A    between atoms: C18_27  and  C19_28 
REMARK   10  A    between atoms: C19_28  and  C20_29 
REMARK   11  A    between atoms: C25_35  and  N4_36 
ROOT
HETATM    1  C9  UNL     1      40.584 -20.749  28.465  1.00  0.00     0.156 C 
ENDROOT
BRANCH   1   2
HETATM    2  C8  UNL     1      39.974 -21.445  27.296  1.00  0.00     0.106 A 
HETATM    3  N2  UNL     1      39.226 -22.566  27.292  1.00  0.00    -0.341 N 
HETATM    4  C7  UNL     1      38.865 -22.878  26.032  1.00  0.00     0.083 A 
ATOM      5  H2  UNL     1      38.971 -23.101  28.122  1.00  0.00     0.167 HD
HETATM    6  C27 UNL     1      39.436 -21.876  25.244  1.00  0.00     0.132 A 
HETATM    7  N8  UNL     1      40.109 -21.011  26.024  1.00  0.00    -0.333 N 
HETATM    8 CL2  UNL     1      39.291 -21.772  23.498  1.00  0.00    -0.062 Cl
ATOM      9  H8  UNL     1      40.622 -20.186  25.714  1.00  0.00     0.168 HD
BRANCH   4  10
HETATM   10  C6  UNL     1      38.063 -23.990  25.541  1.00  0.00    -0.006 A 
HETATM   11  C5  UNL     1      38.499 -25.267  25.612  1.00  0.00     0.016 A 
HETATM   12  C4  UNL     1      37.709 -26.330  25.131  1.00  0.00     0.030 A 
HETATM   13  C3  UNL     1      36.486 -26.126  24.581  1.00  0.00     0.036 A 
HETATM   14  C29 UNL     1      36.052 -24.795  24.518  1.00  0.00     0.030 A 
HETATM   15  C28 UNL     1      36.822 -23.755  24.987  1.00  0.00     0.016 A 
BRANCH  13  16
HETATM   16  N1  UNL     1      35.677 -27.160  24.078  1.00  0.00    -0.303 N 
HETATM   17  C2  UNL     1      35.085 -28.208  24.806  1.00  0.00     0.364 C 
HETATM   18  O2  UNL     1      35.244 -28.314  26.030  1.00  0.00    -0.238 OA
ATOM     19  H1  UNL     1      35.499 -27.149  23.074  1.00  0.00     0.171 HD
BRANCH  17  20
HETATM   20  O1  UNL     1      34.289 -29.186  24.205  1.00  0.00    -0.309 OA
HETATM   21  C1  UNL     1      34.404 -29.506  22.835  1.00  0.00     0.215 C 
ENDBRANCH  17  20
ENDBRANCH  13  16
ENDBRANCH   4  10
ENDBRANCH   1   2
BRANCH   1  22
HETATM   22  C10 UNL     1      41.239 -21.709  29.412  1.00  0.00     0.071 C 
BRANCH  22  23
HETATM   23  C11 UNL     1      42.625 -21.366  29.736  1.00  0.00    -0.056 A 
HETATM   24  C12 UNL     1      43.376 -20.659  28.833  1.00  0.00     0.007 A 
HETATM   25  C13 UNL     1      44.698 -20.291  29.061  1.00  0.00     0.001 A 
HETATM   26  C14 UNL     1      45.209 -20.693  30.276  1.00  0.00     0.000 A 
HETATM   27  C15 UNL     1      44.486 -21.403  31.209  1.00  0.00     0.001 A 
HETATM   28  C16 UNL     1      43.181 -21.740  30.931  1.00  0.00     0.007 A 
ENDBRANCH  22  23
ENDBRANCH   1  22
BRANCH   1  29
HETATM   29  N3  UNL     1      39.640 -19.851  29.100  1.00  0.00    -0.349 N 
HETATM   30  C17 UNL     1      39.370 -18.546  28.598  1.00  0.00     0.218 C 
HETATM   31  O3  UNL     1      39.994 -18.201  27.567  1.00  0.00    -0.274 OA
ATOM     32  H3  UNL     1      39.150 -20.166  29.939  1.00  0.00     0.163 HD
BRANCH  30  33
HETATM   33  C18 UNL     1      38.415 -17.602  29.217  1.00  0.00     0.107 C 
BRANCH  33  34
HETATM   34  C19 UNL     1      37.190 -17.513  28.334  1.00  0.00     0.050 C 
BRANCH  34  35
HETATM   35  C20 UNL     1      36.672 -16.134  28.206  1.00  0.00    -0.027 A 
HETATM   36  C21 UNL     1      35.630 -15.698  29.012  1.00  0.00     0.033 A 
HETATM   37  C22 UNL     1      35.134 -14.438  28.918  1.00  0.00     0.034 A 
HETATM   38 CL1  UNL     1      33.810 -13.855  29.927  1.00  0.00    -0.084 Cl
HETATM   39  C23 UNL     1      35.687 -13.561  27.989  1.00  0.00     0.026 A 
HETATM   40  C24 UNL     1      36.722 -14.000  27.191  1.00  0.00     0.034 A 
HETATM   41  C25 UNL     1      37.233 -15.290  27.285  1.00  0.00     0.065 A 
BRANCH  41  42
HETATM   42  N4  UNL     1      38.306 -15.652  26.415  1.00  0.00    -0.235 N 
HETATM   43  C26 UNL     1      38.220 -16.223  25.193  1.00  0.00     0.226 A 
HETATM   44  N5  UNL     1      39.459 -16.402  24.705  1.00  0.00    -0.279 N 
HETATM   45  N6  UNL     1      40.310 -15.951  25.607  1.00  0.00    -0.227 N 
ATOM     46  H5  UNL     1      39.698 -16.813  23.803  1.00  0.00     0.189 HD
HETATM   47  N7  UNL     1      39.606 -15.510  26.615  1.00  0.00    -0.220 N 
ATOM     48  H6  UNL     1      41.328 -15.948  25.531  1.00  0.00     0.210 HD
ATOM     49  H7  UNL     1      40.012 -15.104  27.457  1.00  0.00     0.210 HD
ENDBRANCH  41  42
ENDBRANCH  34  35
ENDBRANCH  33  34
ENDBRANCH  30  33
ENDBRANCH   1  29
TORSDOF 11
ENDMDL
