MODEL 8
REMARK VINA RESULT: -10.772183116      2.524      4.371
REMARK  8 active torsions:
REMARK  status: ('A' for Active; 'I' for Inactive)
REMARK    1  A    between atoms: C1_2  and  C2_4 
REMARK    2  A    between atoms: C2_4  and  C3_5 
REMARK    3  A    between atoms: C3_5  and  C4_6 
REMARK    4  A    between atoms: C7_9  and  O3_10 
REMARK    5  A    between atoms: O3_10  and  C8_11 
REMARK       I    between atoms: N1_14  and  C11_15 
REMARK       I    between atoms: C11_15  and  N2_17 
REMARK    6  A    between atoms: N2_17  and  C12_19 
REMARK    7  A    between atoms: C13_20  and  C14_21 
REMARK    8  A    between atoms: C20_27  and  C21_28 
ROOT
HETATM    1  C8  UNL     1      28.896 -23.978  -8.208  1.00  0.00     0.132 C 
HETATM    2  C9  UNL     1      29.414 -25.343  -8.649  1.00  0.00     0.052 C 
HETATM    3  C10 UNL     1      28.853 -26.471  -7.827  1.00  0.00     0.130 C 
HETATM    4  N1  UNL     1      27.410 -26.366  -7.805  1.00  0.00    -0.334 N 
HETATM    5  C11 UNL     1      26.659 -27.534  -8.086  1.00  0.00     0.318 C 
HETATM    6  O4  UNL     1      27.222 -28.623  -8.350  1.00  0.00    -0.247 OA
HETATM    7  N2  UNL     1      25.233 -27.489  -8.071  1.00  0.00    -0.337 N 
ATOM      8  H2  UNL     1      24.770 -26.606  -7.856  1.00  0.00     0.164 HD
HETATM    9  C27 UNL     1      26.852 -25.081  -7.499  1.00  0.00     0.130 C 
HETATM   10  C28 UNL     1      28.008 -24.204  -6.991  1.00  0.00     0.052 C 
ENDROOT
BRANCH   7  11
HETATM   11  C12 UNL     1      24.406 -28.677  -8.355  1.00  0.00     0.104 A 
HETATM   12  C13 UNL     1      24.070 -29.489  -7.181  1.00  0.00     0.052 A 
HETATM   13  C20 UNL     1      22.999 -28.652  -7.793  1.00  0.00     0.052 A 
BRANCH  12  14
HETATM   14  C14 UNL     1      23.846 -30.947  -7.210  1.00  0.00    -0.051 A 
HETATM   15  C15 UNL     1      24.722 -31.737  -7.938  1.00  0.00     0.007 A 
HETATM   16  C16 UNL     1      24.594 -33.099  -8.046  1.00  0.00     0.001 A 
HETATM   17  C17 UNL     1      23.540 -33.750  -7.402  1.00  0.00     0.000 A 
HETATM   18  C18 UNL     1      22.666 -32.984  -6.679  1.00  0.00     0.001 A 
HETATM   19  C19 UNL     1      22.818 -31.612  -6.587  1.00  0.00     0.007 A 
ENDBRANCH  12  14
BRANCH  13  20
HETATM   20  C21 UNL     1      21.902 -29.182  -8.585  1.00  0.00    -0.051 A 
HETATM   21  C22 UNL     1      20.658 -29.349  -7.952  1.00  0.00     0.007 A 
HETATM   22  C23 UNL     1      19.620 -29.823  -8.688  1.00  0.00     0.001 A 
HETATM   23  C24 UNL     1      19.764 -30.136 -10.021  1.00  0.00     0.000 A 
HETATM   24  C25 UNL     1      20.962 -29.976 -10.636  1.00  0.00     0.001 A 
HETATM   25  C26 UNL     1      22.053 -29.490  -9.906  1.00  0.00     0.007 A 
ENDBRANCH  13  20
ENDBRANCH   7  11
BRANCH   1  26
HETATM   26  O3  UNL     1      29.965 -23.141  -7.941  1.00  0.00    -0.346 OA
BRANCH  26  27
HETATM   27  C7  UNL     1      31.313 -23.443  -7.977  1.00  0.00     0.069 A 
HETATM   28  C6  UNL     1      31.928 -23.313  -9.217  1.00  0.00     0.037 A 
HETATM   29  C5  UNL     1      33.260 -23.590  -9.354  1.00  0.00     0.010 A 
HETATM   30  C4  UNL     1      34.013 -23.999  -8.278  1.00  0.00    -0.058 A 
HETATM   31  C30 UNL     1      33.390 -24.123  -7.053  1.00  0.00     0.010 A 
HETATM   32  C29 UNL     1      32.051 -23.846  -6.909  1.00  0.00     0.037 A 
BRANCH  30  33
HETATM   33  C3  UNL     1      35.458 -24.303  -8.420  1.00  0.00     0.049 C 
BRANCH  33  34
HETATM   34  C2  UNL     1      35.788 -24.601  -9.867  1.00  0.00     0.117 C 
BRANCH  34  35
HETATM   35  C1  UNL     1      36.979 -23.811 -10.256  1.00  0.00     0.172 C 
HETATM   36  O1  UNL     1      36.976 -22.542 -10.214  1.00  0.00    -0.648 OA
HETATM   37  O2  UNL     1      38.146 -24.430 -10.686  1.00  0.00    -0.648 OA
ENDBRANCH  34  35
ENDBRANCH  33  34
ENDBRANCH  30  33
ENDBRANCH  26  27
ENDBRANCH   1  26
TORSDOF 8
ENDMDL
