MODEL 7
REMARK VINA RESULT: -10.796495780      2.682      4.534
REMARK  8 active torsions:
REMARK  status: ('A' for Active; 'I' for Inactive)
REMARK    1  A    between atoms: C1_2  and  C2_4 
REMARK    2  A    between atoms: C2_4  and  C3_5 
REMARK    3  A    between atoms: C3_5  and  C4_6 
REMARK    4  A    between atoms: C7_9  and  O3_10 
REMARK    5  A    between atoms: O3_10  and  C8_11 
REMARK       I    between atoms: N1_14  and  C11_15 
REMARK       I    between atoms: C11_15  and  N2_17 
REMARK    6  A    between atoms: N2_17  and  C12_19 
REMARK    7  A    between atoms: C13_20  and  C14_21 
REMARK    8  A    between atoms: C20_27  and  C21_28 
ROOT
HETATM    1  C8  UNL     1      28.957 -24.003  -8.263  1.00  0.00     0.132 C 
HETATM    2  C9  UNL     1      29.473 -25.384  -8.653  1.00  0.00     0.052 C 
HETATM    3  C10 UNL     1      28.881 -26.484  -7.816  1.00  0.00     0.130 C 
HETATM    4  N1  UNL     1      27.439 -26.367  -7.834  1.00  0.00    -0.334 N 
HETATM    5  C11 UNL     1      26.685 -27.536  -8.101  1.00  0.00     0.318 C 
HETATM    6  O4  UNL     1      27.245 -28.636  -8.322  1.00  0.00    -0.247 OA
HETATM    7  N2  UNL     1      25.259 -27.478  -8.124  1.00  0.00    -0.337 N 
ATOM      8  H2  UNL     1      24.799 -26.586  -7.945  1.00  0.00     0.164 HD
HETATM    9  C27 UNL     1      26.885 -25.069  -7.576  1.00  0.00     0.130 C 
HETATM   10  C28 UNL     1      28.037 -24.189  -7.062  1.00  0.00     0.052 C 
ENDROOT
BRANCH   7  11
HETATM   11  C12 UNL     1      24.429 -28.666  -8.396  1.00  0.00     0.104 A 
HETATM   12  C13 UNL     1      24.101 -29.473  -7.217  1.00  0.00     0.052 A 
HETATM   13  C20 UNL     1      23.027 -28.637  -7.823  1.00  0.00     0.052 A 
BRANCH  12  14
HETATM   14  C14 UNL     1      23.875 -30.931  -7.238  1.00  0.00    -0.051 A 
HETATM   15  C15 UNL     1      24.711 -31.718  -8.016  1.00  0.00     0.007 A 
HETATM   16  C16 UNL     1      24.577 -33.080  -8.121  1.00  0.00     0.001 A 
HETATM   17  C17 UNL     1      23.558 -33.734  -7.422  1.00  0.00     0.000 A 
HETATM   18  C18 UNL     1      22.725 -32.970  -6.651  1.00  0.00     0.001 A 
HETATM   19  C19 UNL     1      22.883 -31.598  -6.563  1.00  0.00     0.007 A 
ENDBRANCH  12  14
BRANCH  13  20
HETATM   20  C21 UNL     1      21.923 -29.169  -8.605  1.00  0.00    -0.051 A 
HETATM   21  C22 UNL     1      20.702 -29.394  -7.946  1.00  0.00     0.007 A 
HETATM   22  C23 UNL     1      19.657 -29.871  -8.670  1.00  0.00     0.001 A 
HETATM   23  C24 UNL     1      19.772 -30.131 -10.017  1.00  0.00     0.000 A 
HETATM   24  C25 UNL     1      20.948 -29.914 -10.658  1.00  0.00     0.001 A 
HETATM   25  C26 UNL     1      22.045 -29.425  -9.940  1.00  0.00     0.007 A 
ENDBRANCH  13  20
ENDBRANCH   7  11
BRANCH   1  26
HETATM   26  O3  UNL     1      30.026 -23.168  -7.992  1.00  0.00    -0.346 OA
BRANCH  26  27
HETATM   27  C7  UNL     1      31.374 -23.434  -8.141  1.00  0.00     0.069 A 
HETATM   28  C6  UNL     1      32.040 -23.838  -6.989  1.00  0.00     0.037 A 
HETATM   29  C5  UNL     1      33.376 -24.124  -7.034  1.00  0.00     0.010 A 
HETATM   30  C4  UNL     1      34.084 -24.018  -8.209  1.00  0.00    -0.058 A 
HETATM   31  C30 UNL     1      33.410 -23.617  -9.345  1.00  0.00     0.010 A 
HETATM   32  C29 UNL     1      32.067 -23.328  -9.305  1.00  0.00     0.037 A 
BRANCH  30  33
HETATM   33  C3  UNL     1      35.535 -24.325  -8.265  1.00  0.00     0.049 C 
BRANCH  33  34
HETATM   34  C2  UNL     1      36.129 -23.797  -9.552  1.00  0.00     0.117 C 
BRANCH  34  35
HETATM   35  C1  UNL     1      36.759 -24.923 -10.282  1.00  0.00     0.172 C 
HETATM   36  O1  UNL     1      38.014 -25.109 -10.259  1.00  0.00    -0.648 OA
HETATM   37  O2  UNL     1      35.997 -25.818 -11.022  1.00  0.00    -0.648 OA
ENDBRANCH  34  35
ENDBRANCH  33  34
ENDBRANCH  30  33
ENDBRANCH  26  27
ENDBRANCH   1  26
TORSDOF 8
ENDMDL
