MODEL 9
REMARK VINA RESULT: -10.752896426      2.795     12.705
REMARK  8 active torsions:
REMARK  status: ('A' for Active; 'I' for Inactive)
REMARK    1  A    between atoms: C1_2  and  C2_4 
REMARK    2  A    between atoms: C2_4  and  C3_5 
REMARK    3  A    between atoms: C3_5  and  C4_6 
REMARK    4  A    between atoms: C7_9  and  O3_10 
REMARK    5  A    between atoms: O3_10  and  C8_11 
REMARK       I    between atoms: N1_14  and  C11_15 
REMARK       I    between atoms: C11_15  and  N2_17 
REMARK    6  A    between atoms: N2_17  and  C12_19 
REMARK    7  A    between atoms: C13_20  and  C14_21 
REMARK    8  A    between atoms: C20_27  and  C21_28 
ROOT
HETATM    1  C8  UNL     1      26.375 -26.857  -8.472  1.00  0.00     0.132 C 
HETATM    2  C9  UNL     1      26.197 -25.394  -8.080  1.00  0.00     0.052 C 
HETATM    3  C10 UNL     1      27.474 -24.763  -7.597  1.00  0.00     0.130 C 
HETATM    4  N1  UNL     1      28.512 -24.988  -8.580  1.00  0.00    -0.334 N 
HETATM    5  C11 UNL     1      29.295 -23.877  -8.980  1.00  0.00     0.318 C 
HETATM    6  O4  UNL     1      29.094 -22.734  -8.505  1.00  0.00    -0.247 OA
HETATM    7  N2  UNL     1      30.338 -24.045  -9.940  1.00  0.00    -0.337 N 
ATOM      8  H2  UNL     1      30.505 -24.972 -10.329  1.00  0.00     0.164 HD
HETATM    9  C27 UNL     1      28.668 -26.326  -9.072  1.00  0.00     0.130 C 
HETATM   10  C28 UNL     1      27.819 -27.234  -8.166  1.00  0.00     0.052 C 
ENDROOT
BRANCH   7  11
HETATM   11  C12 UNL     1      31.180 -22.920 -10.388  1.00  0.00     0.104 A 
HETATM   12  C13 UNL     1      31.981 -23.190 -11.587  1.00  0.00     0.052 A 
HETATM   13  C20 UNL     1      30.796 -22.296 -11.714  1.00  0.00     0.052 A 
BRANCH  12  14
HETATM   14  C14 UNL     1      33.290 -22.573 -11.873  1.00  0.00    -0.051 A 
HETATM   15  C15 UNL     1      33.901 -21.825 -10.878  1.00  0.00     0.007 A 
HETATM   16  C16 UNL     1      35.108 -21.194 -11.045  1.00  0.00     0.001 A 
HETATM   17  C17 UNL     1      35.779 -21.292 -12.267  1.00  0.00     0.000 A 
HETATM   18  C18 UNL     1      35.189 -22.027 -13.260  1.00  0.00     0.001 A 
HETATM   19  C19 UNL     1      33.970 -22.652 -13.064  1.00  0.00     0.007 A 
ENDBRANCH  12  14
BRANCH  13  20
HETATM   20  C21 UNL     1      30.876 -20.854 -11.876  1.00  0.00    -0.051 A 
HETATM   21  C22 UNL     1      31.335 -20.357 -13.108  1.00  0.00     0.007 A 
HETATM   22  C23 UNL     1      31.394 -19.011 -13.279  1.00  0.00     0.001 A 
HETATM   23  C24 UNL     1      31.017 -18.140 -12.281  1.00  0.00     0.000 A 
HETATM   24  C25 UNL     1      30.572 -18.615 -11.091  1.00  0.00     0.001 A 
HETATM   25  C26 UNL     1      30.500 -19.996 -10.882  1.00  0.00     0.007 A 
ENDBRANCH  13  20
ENDBRANCH   7  11
BRANCH   1  26
HETATM   26  O3  UNL     1      25.462 -27.636  -7.783  1.00  0.00    -0.346 OA
BRANCH  26  27
HETATM   27  C7  UNL     1      25.195 -28.982  -7.947  1.00  0.00     0.069 A 
HETATM   28  C6  UNL     1      25.843 -29.837  -7.064  1.00  0.00     0.037 A 
HETATM   29  C5  UNL     1      25.644 -31.187  -7.146  1.00  0.00     0.010 A 
HETATM   30  C4  UNL     1      24.805 -31.723  -8.097  1.00  0.00    -0.058 A 
HETATM   31  C30 UNL     1      24.168 -30.861  -8.967  1.00  0.00     0.010 A 
HETATM   32  C29 UNL     1      24.365 -29.503  -8.888  1.00  0.00     0.037 A 
BRANCH  30  33
HETATM   33  C3  UNL     1      24.586 -33.187  -8.193  1.00  0.00     0.049 C 
BRANCH  33  34
HETATM   34  C2  UNL     1      25.002 -33.862  -6.904  1.00  0.00     0.117 C 
BRANCH  34  35
HETATM   35  C1  UNL     1      25.677 -35.139  -7.233  1.00  0.00     0.172 C 
HETATM   36  O1  UNL     1      26.919 -35.304  -7.031  1.00  0.00    -0.648 OA
HETATM   37  O2  UNL     1      24.975 -36.207  -7.776  1.00  0.00    -0.648 OA
ENDBRANCH  34  35
ENDBRANCH  33  34
ENDBRANCH  30  33
ENDBRANCH  26  27
ENDBRANCH   1  26
TORSDOF 8
ENDMDL
