MODEL 6
REMARK VINA RESULT: -10.828344341      3.167     12.456
REMARK  8 active torsions:
REMARK  status: ('A' for Active; 'I' for Inactive)
REMARK    1  A    between atoms: C1_2  and  C2_4 
REMARK    2  A    between atoms: C2_4  and  C3_5 
REMARK    3  A    between atoms: C3_5  and  C4_6 
REMARK    4  A    between atoms: C7_9  and  O3_10 
REMARK    5  A    between atoms: O3_10  and  C8_11 
REMARK       I    between atoms: N1_14  and  C11_15 
REMARK       I    between atoms: C11_15  and  N2_17 
REMARK    6  A    between atoms: N2_17  and  C12_19 
REMARK    7  A    between atoms: C13_20  and  C14_21 
REMARK    8  A    between atoms: C20_27  and  C21_28 
ROOT
HETATM    1  C8  UNL     1      25.614 -29.145  -7.726  1.00  0.00     0.132 C 
HETATM    2  C9  UNL     1      24.959 -27.949  -8.406  1.00  0.00     0.052 C 
HETATM    3  C10 UNL     1      25.704 -26.664  -8.167  1.00  0.00     0.130 C 
HETATM    4  N1  UNL     1      27.096 -26.854  -8.517  1.00  0.00    -0.334 N 
HETATM    5  C11 UNL     1      27.707 -25.880  -9.345  1.00  0.00     0.318 C 
HETATM    6  O4  UNL     1      27.065 -24.889  -9.767  1.00  0.00    -0.247 OA
HETATM    7  N2  UNL     1      29.079 -26.014  -9.714  1.00  0.00    -0.337 N 
ATOM      8  H2  UNL     1      29.605 -26.818  -9.374  1.00  0.00     0.164 HD
HETATM    9  C27 UNL     1      27.749 -28.019  -7.994  1.00  0.00     0.130 C 
HETATM   10  C28 UNL     1      26.807 -28.619  -6.937  1.00  0.00     0.052 C 
ENDROOT
BRANCH   7  11
HETATM   11  C12 UNL     1      29.760 -25.027 -10.573  1.00  0.00     0.104 A 
HETATM   12  C13 UNL     1      30.121 -23.772  -9.904  1.00  0.00     0.052 A 
HETATM   13  C20 UNL     1      31.208 -24.740 -10.226  1.00  0.00     0.052 A 
BRANCH  12  14
HETATM   14  C14 UNL     1      30.202 -22.461 -10.575  1.00  0.00    -0.051 A 
HETATM   15  C15 UNL     1      29.222 -22.129 -11.498  1.00  0.00     0.007 A 
HETATM   16  C16 UNL     1      29.214 -20.944 -12.191  1.00  0.00     0.001 A 
HETATM   17  C17 UNL     1      30.229 -20.008 -11.978  1.00  0.00     0.000 A 
HETATM   18  C18 UNL     1      31.204 -20.322 -11.071  1.00  0.00     0.001 A 
HETATM   19  C19 UNL     1      31.188 -21.524 -10.385  1.00  0.00     0.007 A 
ENDBRANCH  12  14
BRANCH  13  20
HETATM   20  C21 UNL     1      32.176 -24.553 -11.294  1.00  0.00    -0.051 A 
HETATM   21  C22 UNL     1      33.521 -24.364 -10.933  1.00  0.00     0.007 A 
HETATM   22  C23 UNL     1      34.438 -24.209 -11.923  1.00  0.00     0.001 A 
HETATM   23  C24 UNL     1      34.077 -24.235 -13.251  1.00  0.00     0.000 A 
HETATM   24  C25 UNL     1      32.780 -24.417 -13.604  1.00  0.00     0.001 A 
HETATM   25  C26 UNL     1      31.810 -24.579 -12.609  1.00  0.00     0.007 A 
ENDBRANCH  13  20
ENDBRANCH   7  11
BRANCH   1  26
HETATM   26  O3  UNL     1      24.687 -29.788  -6.925  1.00  0.00    -0.346 OA
BRANCH  26  27
HETATM   27  C7  UNL     1      24.276 -31.106  -6.985  1.00  0.00     0.069 A 
HETATM   28  C6  UNL     1      25.293 -32.051  -7.055  1.00  0.00     0.037 A 
HETATM   29  C5  UNL     1      24.989 -33.383  -7.119  1.00  0.00     0.010 A 
HETATM   30  C4  UNL     1      23.681 -33.811  -7.116  1.00  0.00    -0.058 A 
HETATM   31  C30 UNL     1      22.682 -32.862  -7.046  1.00  0.00     0.010 A 
HETATM   32  C29 UNL     1      22.983 -31.522  -6.981  1.00  0.00     0.037 A 
BRANCH  30  33
HETATM   33  C3  UNL     1      23.343 -35.254  -7.187  1.00  0.00     0.049 C 
BRANCH  33  34
HETATM   34  C2  UNL     1      24.354 -36.065  -6.404  1.00  0.00     0.117 C 
BRANCH  34  35
HETATM   35  C1  UNL     1      23.805 -36.334  -5.054  1.00  0.00     0.172 C 
HETATM   36  O1  UNL     1      22.587 -36.111  -4.776  1.00  0.00    -0.648 OA
HETATM   37  O2  UNL     1      24.606 -36.840  -4.038  1.00  0.00    -0.648 OA
ENDBRANCH  34  35
ENDBRANCH  33  34
ENDBRANCH  30  33
ENDBRANCH  26  27
ENDBRANCH   1  26
TORSDOF 8
ENDMDL
