MODEL 4
REMARK VINA RESULT: -11.151581039      3.385     12.792
REMARK  8 active torsions:
REMARK  status: ('A' for Active; 'I' for Inactive)
REMARK    1  A    between atoms: C1_2  and  C2_4 
REMARK    2  A    between atoms: C2_4  and  C3_5 
REMARK    3  A    between atoms: C3_5  and  C4_6 
REMARK    4  A    between atoms: C7_9  and  O3_10 
REMARK    5  A    between atoms: O3_10  and  C8_11 
REMARK       I    between atoms: N1_14  and  C11_15 
REMARK       I    between atoms: C11_15  and  N2_17 
REMARK    6  A    between atoms: N2_17  and  C12_19 
REMARK    7  A    between atoms: C13_20  and  C14_21 
REMARK    8  A    between atoms: C20_27  and  C21_28 
ROOT
HETATM    1  C8  UNL     1      24.823 -30.290  -8.343  1.00  0.00     0.132 C 
HETATM    2  C9  UNL     1      24.369 -28.951  -8.915  1.00  0.00     0.052 C 
HETATM    3  C10 UNL     1      24.865 -27.779  -8.113  1.00  0.00     0.130 C 
HETATM    4  N1  UNL     1      26.297 -27.894  -7.945  1.00  0.00    -0.334 N 
HETATM    5  C11 UNL     1      27.089 -26.753  -8.221  1.00  0.00     0.318 C 
HETATM    6  O4  UNL     1      26.569 -25.678  -8.606  1.00  0.00    -0.247 OA
HETATM    7  N2  UNL     1      28.506 -26.809  -8.064  1.00  0.00    -0.337 N 
ATOM      8  H2  UNL     1      28.933 -27.680  -7.751  1.00  0.00     0.164 HD
HETATM    9  C27 UNL     1      26.804 -29.163  -7.507  1.00  0.00     0.130 C 
HETATM   10  C28 UNL     1      25.591 -29.996  -7.061  1.00  0.00     0.052 C 
ENDROOT
BRANCH   7  11
HETATM   11  C12 UNL     1      29.373 -25.648  -8.338  1.00  0.00     0.104 A 
HETATM   12  C13 UNL     1      30.800 -25.961  -8.468  1.00  0.00     0.052 A 
HETATM   13  C20 UNL     1      30.033 -25.626  -9.702  1.00  0.00     0.052 A 
BRANCH  12  14
HETATM   14  C14 UNL     1      31.893 -25.036  -8.115  1.00  0.00    -0.051 A 
HETATM   15  C15 UNL     1      33.121 -25.195  -8.740  1.00  0.00     0.007 A 
HETATM   16  C16 UNL     1      34.209 -24.402  -8.471  1.00  0.00     0.001 A 
HETATM   17  C17 UNL     1      34.105 -23.377  -7.528  1.00  0.00     0.000 A 
HETATM   18  C18 UNL     1      32.899 -23.208  -6.903  1.00  0.00     0.001 A 
HETATM   19  C19 UNL     1      31.818 -24.022  -7.192  1.00  0.00     0.007 A 
ENDBRANCH  12  14
BRANCH  13  20
HETATM   20  C21 UNL     1      30.153 -24.368 -10.419  1.00  0.00    -0.051 A 
HETATM   21  C22 UNL     1      31.171 -24.255 -11.381  1.00  0.00     0.007 A 
HETATM   22  C23 UNL     1      31.279 -23.092 -12.073  1.00  0.00     0.001 A 
HETATM   23  C24 UNL     1      30.421 -22.038 -11.852  1.00  0.00     0.000 A 
HETATM   24  C25 UNL     1      29.436 -22.142 -10.925  1.00  0.00     0.001 A 
HETATM   25  C26 UNL     1      29.298 -23.327 -10.194  1.00  0.00     0.007 A 
ENDBRANCH  13  20
ENDBRANCH   7  11
BRANCH   1  26
HETATM   26  O3  UNL     1      23.721 -31.100  -8.131  1.00  0.00    -0.346 OA
BRANCH  26  27
HETATM   27  C7  UNL     1      23.699 -32.424  -7.734  1.00  0.00     0.069 A 
HETATM   28  C6  UNL     1      22.523 -32.853  -7.130  1.00  0.00     0.037 A 
HETATM   29  C5  UNL     1      22.405 -34.146  -6.702  1.00  0.00     0.010 A 
HETATM   30  C4  UNL     1      23.438 -35.041  -6.857  1.00  0.00    -0.058 A 
HETATM   31  C30 UNL     1      24.600 -34.601  -7.459  1.00  0.00     0.010 A 
HETATM   32  C29 UNL     1      24.724 -33.302  -7.891  1.00  0.00     0.037 A 
BRANCH  30  33
HETATM   33  C3  UNL     1      23.317 -36.445  -6.393  1.00  0.00     0.049 C 
BRANCH  33  34
HETATM   34  C2  UNL     1      22.854 -36.479  -4.953  1.00  0.00     0.117 C 
BRANCH  34  35
HETATM   35  C1  UNL     1      23.982 -36.924  -4.101  1.00  0.00     0.172 C 
HETATM   36  O1  UNL     1      23.785 -37.530  -3.003  1.00  0.00    -0.648 OA
HETATM   37  O2  UNL     1      25.301 -36.695  -4.472  1.00  0.00    -0.648 OA
ENDBRANCH  34  35
ENDBRANCH  33  34
ENDBRANCH  30  33
ENDBRANCH  26  27
ENDBRANCH   1  26
TORSDOF 8
ENDMDL
