MODEL 10
REMARK VINA RESULT: -10.683781384      2.267      2.950
REMARK  8 active torsions:
REMARK  status: ('A' for Active; 'I' for Inactive)
REMARK    1  A    between atoms: C1_2  and  C2_4 
REMARK    2  A    between atoms: C2_4  and  C3_5 
REMARK    3  A    between atoms: C3_5  and  C4_6 
REMARK    4  A    between atoms: C7_9  and  O3_10 
REMARK    5  A    between atoms: O3_10  and  C8_11 
REMARK       I    between atoms: N1_14  and  C11_15 
REMARK       I    between atoms: C11_15  and  N2_17 
REMARK    6  A    between atoms: N2_17  and  C12_19 
REMARK    7  A    between atoms: C13_20  and  C14_21 
REMARK    8  A    between atoms: C20_27  and  C21_28 
ROOT
HETATM    1  C8  UNL     1      29.827 -24.865  -7.914  1.00  0.00     0.132 C 
HETATM    2  C9  UNL     1      28.478 -24.310  -7.470  1.00  0.00     0.052 C 
HETATM    3  C10 UNL     1      27.340 -24.794  -8.326  1.00  0.00     0.130 C 
HETATM    4  N1  UNL     1      27.388 -26.238  -8.402  1.00  0.00    -0.334 N 
HETATM    5  C11 UNL     1      26.187 -26.951  -8.166  1.00  0.00     0.318 C 
HETATM    6  O4  UNL     1      25.118 -26.355  -7.892  1.00  0.00    -0.247 OA
HETATM    7  N2  UNL     1      26.176 -28.377  -8.235  1.00  0.00    -0.337 N 
ATOM      8  H2  UNL     1      27.042 -28.866  -8.457  1.00  0.00     0.164 HD
HETATM    9  C27 UNL     1      28.654 -26.835  -8.715  1.00  0.00     0.130 C 
HETATM   10  C28 UNL     1      29.583 -25.696  -9.168  1.00  0.00     0.052 C 
ENDROOT
BRANCH   7  11
HETATM   11  C12 UNL     1      24.952 -29.165  -7.998  1.00  0.00     0.104 A 
HETATM   12  C13 UNL     1      24.089 -29.333  -9.171  1.00  0.00     0.052 A 
HETATM   13  C20 UNL     1      24.883 -30.504  -8.703  1.00  0.00     0.052 A 
BRANCH  12  14
HETATM   14  C14 UNL     1      22.622 -29.481  -9.115  1.00  0.00    -0.051 A 
HETATM   15  C15 UNL     1      21.953 -29.878 -10.262  1.00  0.00     0.007 A 
HETATM   16  C16 UNL     1      20.591 -30.029 -10.324  1.00  0.00     0.001 A 
HETATM   17  C17 UNL     1      19.813 -29.778  -9.191  1.00  0.00     0.000 A 
HETATM   18  C18 UNL     1      20.459 -29.385  -8.050  1.00  0.00     0.001 A 
HETATM   19  C19 UNL     1      21.834 -29.241  -8.016  1.00  0.00     0.007 A 
ENDBRANCH  12  14
BRANCH  13  20
HETATM   20  C21 UNL     1      24.316 -31.649  -8.012  1.00  0.00    -0.051 A 
HETATM   21  C22 UNL     1      24.821 -32.922  -8.328  1.00  0.00     0.007 A 
HETATM   22  C23 UNL     1      24.314 -33.998  -7.672  1.00  0.00     0.001 A 
HETATM   23  C24 UNL     1      23.330 -33.864  -6.718  1.00  0.00     0.000 A 
HETATM   24  C25 UNL     1      22.840 -32.637  -6.410  1.00  0.00     0.001 A 
HETATM   25  C26 UNL     1      23.340 -31.508  -7.067  1.00  0.00     0.007 A 
ENDBRANCH  13  20
ENDBRANCH   7  11
BRANCH   1  26
HETATM   26  O3  UNL     1      30.710 -23.821  -8.129  1.00  0.00    -0.346 OA
BRANCH  26  27
HETATM   27  C7  UNL     1      32.063 -23.891  -8.399  1.00  0.00     0.069 A 
HETATM   28  C6  UNL     1      32.452 -23.437  -9.654  1.00  0.00     0.037 A 
HETATM   29  C5  UNL     1      33.770 -23.466 -10.016  1.00  0.00     0.010 A 
HETATM   30  C4  UNL     1      34.731 -23.942  -9.153  1.00  0.00    -0.058 A 
HETATM   31  C30 UNL     1      34.331 -24.390  -7.910  1.00  0.00     0.010 A 
HETATM   32  C29 UNL     1      33.006 -24.362  -7.542  1.00  0.00     0.037 A 
BRANCH  30  33
HETATM   33  C3  UNL     1      36.163 -23.979  -9.539  1.00  0.00     0.049 C 
BRANCH  33  34
HETATM   34  C2  UNL     1      36.600 -22.622 -10.047  1.00  0.00     0.117 C 
BRANCH  34  35
HETATM   35  C1  UNL     1      37.163 -22.781 -11.408  1.00  0.00     0.172 C 
HETATM   36  O1  UNL     1      38.415 -22.861 -11.604  1.00  0.00    -0.648 OA
HETATM   37  O2  UNL     1      36.340 -22.849 -12.525  1.00  0.00    -0.648 OA
ENDBRANCH  34  35
ENDBRANCH  33  34
ENDBRANCH  30  33
ENDBRANCH  26  27
ENDBRANCH   1  26
TORSDOF 8
ENDMDL
