MODEL 1
REMARK VINA RESULT: -9.869935233      0.000      0.000
REMARK  5 active torsions:
REMARK  status: ('A' for Active; 'I' for Inactive)
REMARK       I    between atoms: C1_2  and  N1_3 
REMARK    1  A    between atoms: C1_2  and  C11_20 
REMARK    2  A    between atoms: N1_3  and  C2_5 
REMARK    3  A    between atoms: C6_11  and  O2_12 
REMARK    4  A    between atoms: O2_12  and  C7_13 
REMARK    5  A    between atoms: C13_23  and  C14_24 
ROOT
HETATM    1  O1  UNL     1      25.421   7.377  -1.991  1.00  0.00    -0.266 OA
HETATM    2  C1  UNL     1      26.423   7.160  -1.279  1.00  0.00     0.273 C 
HETATM    3  N1  UNL     1      26.920   5.852  -1.183  1.00  0.00    -0.318 N 
ATOM      4  H1  UNL     1      27.739   5.732  -0.586  1.00  0.00     0.169 HD
ENDROOT
BRANCH   3   5
HETATM    5  C2  UNL     1      26.438   4.687  -1.801  1.00  0.00     0.084 A 
HETATM    6  C3  UNL     1      26.532   4.432  -3.142  1.00  0.00     0.120 A 
HETATM    7  N2  UNL     1      26.041   3.271  -3.694  1.00  0.00    -0.373 N 
HETATM    8  C4  UNL     1      25.448   2.344  -2.933  1.00  0.00     0.090 A 
ATOM      9  H2  UNL     1      26.130   3.115  -4.698  1.00  0.00     0.164 HD
HETATM   10  C5  UNL     1      25.316   2.534  -1.557  1.00  0.00     0.056 A 
HETATM   11  C6  UNL     1      25.813   3.697  -1.023  1.00  0.00     0.098 A 
BRANCH  11  12
HETATM   12  O2  UNL     1      25.721   3.954   0.309  1.00  0.00    -0.342 OA
BRANCH  12  13
HETATM   13  C7  UNL     1      26.479   3.416   1.327  1.00  0.00     0.156 C 
HETATM   14  C8  UNL     1      27.290   4.380   2.136  1.00  0.00     0.061 C 
HETATM   15  C9  UNL     1      27.190   3.882   3.540  1.00  0.00     0.235 C 
HETATM   16  N3  UNL     1      26.192   2.864   3.616  1.00  0.00    -0.073 N 
HETATM   17  C10 UNL     1      25.726   2.538   2.305  1.00  0.00     0.264 C 
ATOM     18  H32 UNL     1      26.522   2.041   4.121  1.00  0.00     0.277 HD
ATOM     19  H31 UNL     1      25.427   3.123   4.241  1.00  0.00     0.277 HD
ENDBRANCH  12  13
ENDBRANCH  11  12
ENDBRANCH   3   5
BRANCH   2  20
HETATM   20  C11 UNL     1      27.081   8.288  -0.538  1.00  0.00     0.108 A 
HETATM   21  C12 UNL     1      27.641   9.366  -1.184  1.00  0.00     0.087 A 
HETATM   22  S1  UNL     1      28.216  10.292   0.130  1.00  0.00    -0.081 SA
HETATM   23  C13 UNL     1      27.717   9.265   1.404  1.00  0.00     0.091 A 
HETATM   24  N4  UNL     1      27.140   8.275   0.757  1.00  0.00    -0.345 N 
ATOM     25  H4  UNL     1      26.738   7.495   1.276  1.00  0.00     0.167 HD
BRANCH  23  26
HETATM   26  C14 UNL     1      27.893   9.454   2.839  1.00  0.00     0.075 A 
HETATM   27  C15 UNL     1      27.531  10.630   3.450  1.00  0.00     0.132 A 
HETATM   28  F1  UNL     1      27.006  11.605   2.679  1.00  0.00    -0.205 F 
HETATM   29  C16 UNL     1      27.697  10.815   4.815  1.00  0.00     0.043 A 
HETATM   30  C17 UNL     1      28.233   9.816   5.594  1.00  0.00     0.006 A 
HETATM   31  C18 UNL     1      28.597   8.639   4.988  1.00  0.00     0.043 A 
HETATM   32  C19 UNL     1      28.427   8.467   3.629  1.00  0.00     0.132 A 
HETATM   33  F2  UNL     1      28.792   7.294   3.035  1.00  0.00    -0.205 F 
ENDBRANCH  23  26
ENDBRANCH   2  20
TORSDOF 5
ENDMDL
