MODEL 3
REMARK VINA RESULT: -9.629269133      2.649      6.353
REMARK  5 active torsions:
REMARK  status: ('A' for Active; 'I' for Inactive)
REMARK       I    between atoms: C1_2  and  N1_3 
REMARK    1  A    between atoms: C1_2  and  C11_20 
REMARK    2  A    between atoms: N1_3  and  C2_5 
REMARK    3  A    between atoms: C6_11  and  O2_12 
REMARK    4  A    between atoms: O2_12  and  C7_13 
REMARK    5  A    between atoms: C13_23  and  C14_24 
ROOT
HETATM    1  O1  UNL     1      25.852   7.898  -1.920  1.00  0.00    -0.266 OA
HETATM    2  C1  UNL     1      26.648   7.542  -1.027  1.00  0.00     0.273 C 
HETATM    3  N1  UNL     1      27.556   8.479  -0.511  1.00  0.00    -0.318 N 
ATOM      4  H1  UNL     1      28.185   8.134   0.215  1.00  0.00     0.169 HD
ENDROOT
BRANCH   3   5
HETATM    5  C2  UNL     1      27.713   9.829  -0.863  1.00  0.00     0.084 A 
HETATM    6  C3  UNL     1      28.035  10.264  -2.120  1.00  0.00     0.120 A 
HETATM    7  N2  UNL     1      28.178  11.602  -2.408  1.00  0.00    -0.373 N 
HETATM    8  C4  UNL     1      28.006  12.532  -1.462  1.00  0.00     0.090 A 
ATOM      9  H2  UNL     1      28.417  11.889  -3.357  1.00  0.00     0.164 HD
HETATM   10  C5  UNL     1      27.677  12.165  -0.157  1.00  0.00     0.056 A 
HETATM   11  C6  UNL     1      27.538  10.826   0.113  1.00  0.00     0.098 A 
BRANCH  11  12
HETATM   12  O2  UNL     1      27.218  10.390   1.361  1.00  0.00    -0.342 OA
BRANCH  12  13
HETATM   13  C7  UNL     1      28.011  10.400   2.488  1.00  0.00     0.156 C 
HETATM   14  C8  UNL     1      27.354  10.835   3.762  1.00  0.00     0.061 C 
HETATM   15  C9  UNL     1      27.919   9.935   4.810  1.00  0.00     0.235 C 
HETATM   16  N3  UNL     1      28.649   8.876   4.191  1.00  0.00    -0.073 N 
HETATM   17  C10 UNL     1      28.740   9.106   2.783  1.00  0.00     0.264 C 
ATOM     18  H32 UNL     1      29.566   8.743   4.617  1.00  0.00     0.277 HD
ATOM     19  H31 UNL     1      28.251   7.961   4.405  1.00  0.00     0.277 HD
ENDBRANCH  12  13
ENDBRANCH  11  12
ENDBRANCH   3   5
BRANCH   2  20
HETATM   20  C11 UNL     1      26.630   6.130  -0.518  1.00  0.00     0.108 A 
HETATM   21  C12 UNL     1      26.662   5.044  -1.361  1.00  0.00     0.087 A 
HETATM   22  S1  UNL     1      26.622   3.746  -0.252  1.00  0.00    -0.081 SA
HETATM   23  C13 UNL     1      26.568   4.653   1.198  1.00  0.00     0.091 A 
HETATM   24  N4  UNL     1      26.584   5.892   0.755  1.00  0.00    -0.345 N 
ATOM     25  H4  UNL     1      26.558   6.668   1.417  1.00  0.00     0.167 HD
BRANCH  23  26
HETATM   26  C14 UNL     1      26.518   4.161   2.570  1.00  0.00     0.075 A 
HETATM   27  C15 UNL     1      25.824   3.021   2.891  1.00  0.00     0.132 A 
HETATM   28  F1  UNL     1      25.189   2.369   1.895  1.00  0.00    -0.205 F 
HETATM   29  C16 UNL     1      25.773   2.549   4.194  1.00  0.00     0.043 A 
HETATM   30  C17 UNL     1      26.423   3.220   5.204  1.00  0.00     0.006 A 
HETATM   31  C18 UNL     1      27.119   4.361   4.889  1.00  0.00     0.043 A 
HETATM   32  C19 UNL     1      27.162   4.820   3.588  1.00  0.00     0.132 A 
HETATM   33  F2  UNL     1      27.856   5.955   3.283  1.00  0.00    -0.205 F 
ENDBRANCH  23  26
ENDBRANCH   2  20
TORSDOF 5
ENDMDL
