MODEL 2
REMARK VINA RESULT: -9.635636380      2.651      6.266
REMARK  5 active torsions:
REMARK  status: ('A' for Active; 'I' for Inactive)
REMARK       I    between atoms: C1_2  and  N1_3 
REMARK    1  A    between atoms: C1_2  and  C11_20 
REMARK    2  A    between atoms: N1_3  and  C2_5 
REMARK    3  A    between atoms: C6_11  and  O2_12 
REMARK    4  A    between atoms: O2_12  and  C7_13 
REMARK    5  A    between atoms: C13_23  and  C14_24 
ROOT
HETATM    1  O1  UNL     1      25.851   7.894  -1.933  1.00  0.00    -0.266 OA
HETATM    2  C1  UNL     1      26.644   7.534  -1.039  1.00  0.00     0.273 C 
HETATM    3  N1  UNL     1      27.557   8.466  -0.524  1.00  0.00    -0.318 N 
ATOM      4  H1  UNL     1      28.183   8.117   0.203  1.00  0.00     0.169 HD
ENDROOT
BRANCH   3   5
HETATM    5  C2  UNL     1      27.723   9.814  -0.877  1.00  0.00     0.084 A 
HETATM    6  C3  UNL     1      28.051  10.246  -2.133  1.00  0.00     0.120 A 
HETATM    7  N2  UNL     1      28.201  11.583  -2.423  1.00  0.00    -0.373 N 
HETATM    8  C4  UNL     1      28.032  12.515  -1.479  1.00  0.00     0.090 A 
ATOM      9  H2  UNL     1      28.444  11.867  -3.372  1.00  0.00     0.164 HD
HETATM   10  C5  UNL     1      27.697  12.151  -0.174  1.00  0.00     0.056 A 
HETATM   11  C6  UNL     1      27.550  10.813   0.097  1.00  0.00     0.098 A 
BRANCH  11  12
HETATM   12  O2  UNL     1      27.225  10.381   1.345  1.00  0.00    -0.342 OA
BRANCH  12  13
HETATM   13  C7  UNL     1      28.011  10.397   2.476  1.00  0.00     0.156 C 
HETATM   14  C8  UNL     1      27.357  10.875   3.736  1.00  0.00     0.061 C 
HETATM   15  C9  UNL     1      27.895   9.985   4.807  1.00  0.00     0.235 C 
HETATM   16  N3  UNL     1      28.604   8.897   4.215  1.00  0.00    -0.073 N 
HETATM   17  C10 UNL     1      28.708   9.093   2.803  1.00  0.00     0.264 C 
ATOM     18  H32 UNL     1      29.515   8.752   4.650  1.00  0.00     0.277 HD
ATOM     19  H31 UNL     1      28.185   7.996   4.447  1.00  0.00     0.277 HD
ENDBRANCH  12  13
ENDBRANCH  11  12
ENDBRANCH   3   5
BRANCH   2  20
HETATM   20  C11 UNL     1      26.617   6.123  -0.529  1.00  0.00     0.108 A 
HETATM   21  C12 UNL     1      26.637   5.035  -1.371  1.00  0.00     0.087 A 
HETATM   22  S1  UNL     1      26.592   3.739  -0.260  1.00  0.00    -0.081 SA
HETATM   23  C13 UNL     1      26.551   4.648   1.189  1.00  0.00     0.091 A 
HETATM   24  N4  UNL     1      26.574   5.886   0.745  1.00  0.00    -0.345 N 
ATOM     25  H4  UNL     1      26.557   6.663   1.406  1.00  0.00     0.167 HD
BRANCH  23  26
HETATM   26  C14 UNL     1      26.503   4.158   2.562  1.00  0.00     0.075 A 
HETATM   27  C15 UNL     1      27.129   4.834   3.580  1.00  0.00     0.132 A 
HETATM   28  F1  UNL     1      27.789   5.970   3.269  1.00  0.00    -0.205 F 
HETATM   29  C16 UNL     1      27.087   4.373   4.887  1.00  0.00     0.043 A 
HETATM   30  C17 UNL     1      26.411   3.215   5.196  1.00  0.00     0.006 A 
HETATM   31  C18 UNL     1      25.783   2.534   4.182  1.00  0.00     0.043 A 
HETATM   32  C19 UNL     1      25.833   3.004   2.885  1.00  0.00     0.132 A 
HETATM   33  F2  UNL     1      25.206   2.321   1.883  1.00  0.00    -0.205 F 
ENDBRANCH  23  26
ENDBRANCH   2  20
TORSDOF 5
ENDMDL
