MODEL 5
REMARK VINA RESULT: -5.887729349      4.036      5.563
REMARK  1 active torsions:
REMARK  status: ('A' for Active; 'I' for Inactive)
REMARK    1  A    between atoms: C1_2  and  C2_4 
ROOT
HETATM    1  C2  UNL     1       8.918  36.641  28.111  1.00  0.00     0.111 A 
HETATM    2  C3  UNL     1       9.056  35.690  27.125  1.00  0.00     0.050 A 
HETATM    3  C4  UNL     1       9.360  34.481  27.709  1.00  0.00    -0.005 A 
HETATM    4  C5  UNL     1       9.608  33.202  27.254  1.00  0.00     0.037 A 
HETATM    5  C6  UNL     1       9.891  32.185  28.137  1.00  0.00     0.035 A 
HETATM    6 CL1  UNL     1      10.209  30.542  27.570  1.00  0.00    -0.084 Cl
HETATM    7  C7  UNL     1       9.939  32.402  29.501  1.00  0.00     0.026 A 
HETATM    8  C8  UNL     1       9.696  33.664  29.963  1.00  0.00     0.032 A 
HETATM    9  C9  UNL     1       9.407  34.706  29.075  1.00  0.00     0.043 A 
HETATM   10  N1  UNL     1       9.137  36.010  29.276  1.00  0.00    -0.350 N 
ATOM     11  H1  UNL     1       9.103  36.459  30.191  1.00  0.00     0.166 HD
ENDROOT
BRANCH   1  12
HETATM   12  C1  UNL     1       8.594  38.058  27.887  1.00  0.00     0.226 C 
HETATM   13  O1  UNL     1       7.999  38.407  26.850  1.00  0.00    -0.643 OA
HETATM   14  O2  UNL     1       8.933  39.037  28.805  1.00  0.00    -0.643 OA
ENDBRANCH   1  12
TORSDOF 1
ENDMDL
