MODEL 2
REMARK VINA RESULT: -6.218637718      1.434      2.140
REMARK  1 active torsions:
REMARK  status: ('A' for Active; 'I' for Inactive)
REMARK    1  A    between atoms: C1_2  and  C2_4 
ROOT
HETATM    1  C2  UNL     1       9.468  34.400  28.417  1.00  0.00     0.111 A 
HETATM    2  C3  UNL     1       9.178  34.611  27.088  1.00  0.00     0.050 A 
HETATM    3  C4  UNL     1       8.747  35.908  26.924  1.00  0.00    -0.005 A 
HETATM    4  C5  UNL     1       8.327  36.679  25.860  1.00  0.00     0.037 A 
HETATM    5  C6  UNL     1       7.950  37.990  26.048  1.00  0.00     0.035 A 
HETATM    6 CL1  UNL     1       7.410  38.991  24.696  1.00  0.00    -0.084 Cl
HETATM    7  C7  UNL     1       7.978  38.580  27.298  1.00  0.00     0.026 A 
HETATM    8  C8  UNL     1       8.392  37.825  28.359  1.00  0.00     0.032 A 
HETATM    9  C9  UNL     1       8.777  36.492  28.179  1.00  0.00     0.043 A 
HETATM   10  N1  UNL     1       9.214  35.558  29.045  1.00  0.00    -0.350 N 
ATOM     11  H1  UNL     1       9.337  35.711  30.046  1.00  0.00     0.166 HD
ENDROOT
BRANCH   1  12
HETATM   12  C1  UNL     1       9.958  33.137  28.991  1.00  0.00     0.226 C 
HETATM   13  O1  UNL     1      10.627  32.352  28.293  1.00  0.00    -0.643 OA
HETATM   14  O2  UNL     1       9.698  32.784  30.304  1.00  0.00    -0.643 OA
ENDBRANCH   1  12
TORSDOF 1
ENDMDL
