MODEL 1
REMARK VINA RESULT: -6.417350868      0.000      0.000
REMARK  1 active torsions:
REMARK  status: ('A' for Active; 'I' for Inactive)
REMARK    1  A    between atoms: C1_2  and  C2_4 
ROOT
HETATM    1  C2  UNL     1       9.486  33.996  27.659  1.00  0.00     0.111 A 
HETATM    2  C3  UNL     1       9.477  35.016  28.583  1.00  0.00     0.050 A 
HETATM    3  C4  UNL     1       8.989  36.157  27.986  1.00  0.00    -0.005 A 
HETATM    4  C5  UNL     1       8.751  37.454  28.389  1.00  0.00     0.037 A 
HETATM    5  C6  UNL     1       8.239  38.381  27.508  1.00  0.00     0.035 A 
HETATM    6 CL1  UNL     1       7.929  40.047  28.009  1.00  0.00    -0.084 Cl
HETATM    7  C7  UNL     1       7.946  38.051  26.198  1.00  0.00     0.026 A 
HETATM    8  C8  UNL     1       8.178  36.768  25.789  1.00  0.00     0.032 A 
HETATM    9  C9  UNL     1       8.698  35.818  26.675  1.00  0.00     0.043 A 
HETATM   10  N1  UNL     1       9.009  34.518  26.518  1.00  0.00    -0.350 N 
ATOM     11  H1  UNL     1       8.896  33.998  25.648  1.00  0.00     0.166 HD
ENDROOT
BRANCH   1  12
HETATM   12  C1  UNL     1       9.939  32.620  27.915  1.00  0.00     0.226 C 
HETATM   13  O1  UNL     1      10.657  32.372  28.902  1.00  0.00    -0.643 OA
HETATM   14  O2  UNL     1       9.589  31.571  27.082  1.00  0.00    -0.643 OA
ENDBRANCH   1  12
TORSDOF 1
ENDMDL
