MODEL 4
REMARK VINA RESULT: -5.939041374      0.910      1.205
REMARK  1 active torsions:
REMARK  status: ('A' for Active; 'I' for Inactive)
REMARK    1  A    between atoms: C1_2  and  C2_4 
ROOT
HETATM    1  C2  UNL     1       9.440  34.630  28.104  1.00  0.00     0.111 A 
HETATM    2  C3  UNL     1       9.222  35.825  28.751  1.00  0.00     0.050 A 
HETATM    3  C4  UNL     1       8.712  36.735  27.852  1.00  0.00    -0.005 A 
HETATM    4  C5  UNL     1       8.310  38.054  27.906  1.00  0.00     0.037 A 
HETATM    5  C6  UNL     1       7.832  38.689  26.781  1.00  0.00     0.035 A 
HETATM    6 CL1  UNL     1       7.313  40.377  26.834  1.00  0.00    -0.084 Cl
HETATM    7  C7  UNL     1       7.739  38.038  25.566  1.00  0.00     0.026 A 
HETATM    8  C8  UNL     1       8.135  36.732  25.501  1.00  0.00     0.032 A 
HETATM    9  C9  UNL     1       8.622  36.076  26.637  1.00  0.00     0.043 A 
HETATM   10  N1  UNL     1       9.065  34.819  26.828  1.00  0.00    -0.350 N 
ATOM     11  H1  UNL     1       9.111  34.106  26.101  1.00  0.00     0.166 HD
ENDROOT
BRANCH   1  12
HETATM   12  C1  UNL     1       9.978  33.411  28.726  1.00  0.00     0.226 C 
HETATM   13  O1  UNL     1      10.754  32.674  28.089  1.00  0.00    -0.643 OA
HETATM   14  O2  UNL     1       9.646  33.046  30.020  1.00  0.00    -0.643 OA
ENDBRANCH   1  12
TORSDOF 1
ENDMDL
