MODEL 13
REMARK VINA RESULT: -5.182077177      3.932      5.290
REMARK  1 active torsions:
REMARK  status: ('A' for Active; 'I' for Inactive)
REMARK    1  A    between atoms: C1_2  and  C2_4 
ROOT
HETATM    1  C2  UNL     1       8.610  36.433  26.332  1.00  0.00     0.111 A 
HETATM    2  C3  UNL     1       9.028  35.163  26.002  1.00  0.00     0.050 A 
HETATM    3  C4  UNL     1       9.310  34.470  27.157  1.00  0.00    -0.005 A 
HETATM    4  C5  UNL     1       9.755  33.199  27.460  1.00  0.00     0.037 A 
HETATM    5  C6  UNL     1       9.939  32.813  28.769  1.00  0.00     0.035 A 
HETATM    6 CL1  UNL     1      10.508  31.189  29.173  1.00  0.00    -0.084 Cl
HETATM    7  C7  UNL     1       9.691  33.675  29.821  1.00  0.00     0.026 A 
HETATM    8  C8  UNL     1       9.250  34.935  29.532  1.00  0.00     0.032 A 
HETATM    9  C9  UNL     1       9.058  35.339  28.206  1.00  0.00     0.043 A 
HETATM   10  N1  UNL     1       8.641  36.502  27.672  1.00  0.00    -0.350 N 
ATOM     11  H1  UNL     1       8.383  37.327  28.214  1.00  0.00     0.166 HD
ENDROOT
BRANCH   1  12
HETATM   12  C1  UNL     1       8.217  37.475  25.372  1.00  0.00     0.226 C 
HETATM   13  O1  UNL     1       8.363  37.287  24.149  1.00  0.00    -0.643 OA
HETATM   14  O2  UNL     1       7.679  38.682  25.787  1.00  0.00    -0.643 OA
ENDBRANCH   1  12
TORSDOF 1
ENDMDL
