MODEL 1
REMARK VINA RESULT: -9.658586178      0.000      0.000
REMARK  13 active torsions:
REMARK  status: ('A' for Active; 'I' for Inactive)
REMARK    1  A    between atoms: O1_2  and  C2_3 
REMARK       I    between atoms: C2_3  and  N1_5 
REMARK    2  A    between atoms: N1_5  and  C3_7 
REMARK    3  A    between atoms: C6_10  and  S1_11 
REMARK    4  A    between atoms: S1_11  and  C7_14 
REMARK    5  A    between atoms: C10_17  and  C11_18 
REMARK    6  A    between atoms: N2_22  and  C15_23 
REMARK    7  A    between atoms: C15_23  and  O5_24 
REMARK    8  A    between atoms: C15_23  and  C16_26 
REMARK    9  A    between atoms: C16_26  and  N3_27 
REMARK   10  A    between atoms: C16_26  and  C26_41 
REMARK   11  A    between atoms: N3_27  and  C17_29 
REMARK   12  A    between atoms: C29_44  and  O7_45 
REMARK   13  A    between atoms: C31_47  and  O8_48 
ROOT
HETATM    1  C15 UNL     1       7.596  38.212  24.569  1.00  0.00     0.142 C 
ENDROOT
BRANCH   1   2
HETATM    2  N2  UNL     1       7.279  39.589  24.352  1.00  0.00    -0.355 N 
HETATM    3  C11 UNL     1       7.577  40.504  23.234  1.00  0.00     0.120 C 
HETATM    4  C12 UNL     1       7.592  41.813  23.993  1.00  0.00     0.032 C 
HETATM    5  C13 UNL     1       6.727  41.729  25.184  1.00  0.00     0.022 C 
HETATM    6  C14 UNL     1       6.516  40.294  25.368  1.00  0.00     0.125 C 
BRANCH   3   7
HETATM    7  C10 UNL     1       6.438  40.437  22.264  1.00  0.00    -0.012 A 
HETATM    8  C6  UNL     1       6.749  40.056  20.941  1.00  0.00     0.068 A 
HETATM    9  C5  UNL     1       5.701  39.818  20.105  1.00  0.00     0.026 A 
HETATM   10  C4  UNL     1       4.365  39.936  20.490  1.00  0.00     0.031 A 
HETATM   11  C3  UNL     1       4.052  40.307  21.759  1.00  0.00     0.037 A 
HETATM   12  C34 UNL     1       5.120  40.559  22.644  1.00  0.00     0.040 A 
BRANCH   8  13
HETATM   13  S1  UNL     1       8.372  40.071  20.416  1.00  0.00     0.179 S 
HETATM   14  O3  UNL     1       8.514  39.578  19.019  1.00  0.00    -0.222 OA
HETATM   15  O4  UNL     1       9.252  39.162  21.268  1.00  0.00    -0.222 OA
BRANCH  13  16
HETATM   16  C7  UNL     1       9.161  41.672  20.417  1.00  0.00     0.105 C 
HETATM   17  C8  UNL     1       8.183  42.752  19.959  1.00  0.00     0.026 C 
HETATM   18  C9  UNL     1      10.447  41.756  19.692  1.00  0.00     0.026 C 
ENDBRANCH  13  16
ENDBRANCH   8  13
BRANCH  11  19
HETATM   19  N1  UNL     1       2.747  40.462  22.283  1.00  0.00    -0.303 N 
HETATM   20  C2  UNL     1       1.823  39.423  22.542  1.00  0.00     0.364 C 
HETATM   21  O2  UNL     1       2.124  38.223  22.291  1.00  0.00    -0.238 OA
ATOM     22  H1  UNL     1       2.443  41.412  22.494  1.00  0.00     0.171 HD
BRANCH  20  23
HETATM   23  O1  UNL     1       0.563  39.747  23.086  1.00  0.00    -0.309 OA
HETATM   24  C1  UNL     1      -0.116  40.916  22.741  1.00  0.00     0.215 C 
ENDBRANCH  20  23
ENDBRANCH  11  19
ENDBRANCH   3   7
ENDBRANCH   1   2
BRANCH   1  25
HETATM   25  O5  UNL     1       8.255  37.594  23.626  1.00  0.00    -0.348 OA
ATOM     26  H5  UNL     1       7.833  36.848  23.217  1.00  0.00     0.219 HD
ENDBRANCH   1  25
BRANCH   1  27
HETATM   27  C16 UNL     1       7.297  37.345  25.712  1.00  0.00     0.190 C 
BRANCH  27  28
HETATM   28  N3  UNL     1       7.984  36.039  25.475  1.00  0.00    -0.374 N 
ATOM     29  H3  UNL     1       8.039  35.687  24.519  1.00  0.00     0.160 HD
BRANCH  28  30
HETATM   30  C17 UNL     1       8.559  35.271  26.501  1.00  0.00     0.029 A 
HETATM   31  C18 UNL     1       9.358  34.164  26.288  1.00  0.00     0.030 A 
HETATM   32  C19 UNL     1       9.915  33.444  27.335  1.00  0.00     0.010 A 
HETATM   33  C20 UNL     1       9.673  33.837  28.664  1.00  0.00    -0.041 A 
HETATM   34  C21 UNL     1       8.881  34.938  28.876  1.00  0.00     0.040 A 
HETATM   35  C25 UNL     1      10.250  33.102  29.791  1.00  0.00     0.059 C 
HETATM   36  C22 UNL     1       8.343  35.628  27.809  1.00  0.00     0.046 A 
HETATM   37  C23 UNL     1       8.608  35.381  30.261  1.00  0.00     0.252 C 
HETATM   38  O6  UNL     1       7.889  36.384  30.453  1.00  0.00    -0.268 OA
HETATM   39  N4  UNL     1       9.181  34.641  31.336  1.00  0.00    -0.357 N 
HETATM   40  C24 UNL     1       9.423  33.231  31.039  1.00  0.00     0.127 C 
ATOM     41  H4  UNL     1       9.403  35.062  32.239  1.00  0.00     0.162 HD
ENDBRANCH  28  30
ENDBRANCH  27  28
BRANCH  27  42
HETATM   42  C26 UNL     1       5.808  37.006  25.687  1.00  0.00    -0.025 A 
HETATM   43  C27 UNL     1       4.917  37.341  26.650  1.00  0.00     0.012 A 
HETATM   44  C28 UNL     1       3.567  37.002  26.516  1.00  0.00     0.040 A 
HETATM   45  C29 UNL     1       3.126  36.324  25.401  1.00  0.00     0.101 A 
HETATM   46  C31 UNL     1       4.035  35.956  24.369  1.00  0.00     0.102 A 
HETATM   47  C33 UNL     1       5.335  36.328  24.587  1.00  0.00     0.049 A 
BRANCH  45  48
HETATM   48  O7  UNL     1       1.832  35.959  25.186  1.00  0.00    -0.353 OA
HETATM   49  C30 UNL     1       0.659  36.560  24.897  1.00  0.00     0.210 C 
ENDBRANCH  45  48
BRANCH  46  50
HETATM   50  O8  UNL     1       3.603  35.278  23.251  1.00  0.00    -0.353 OA
HETATM   51  C32 UNL     1       3.475  33.876  23.310  1.00  0.00     0.210 C 
ENDBRANCH  46  50
ENDBRANCH  27  42
ENDBRANCH   1  27
TORSDOF 13
ENDMDL
