MODEL 8
REMARK VINA RESULT: -8.559948464      3.586      6.141
REMARK  13 active torsions:
REMARK  status: ('A' for Active; 'I' for Inactive)
REMARK    1  A    between atoms: O1_2  and  C2_3 
REMARK       I    between atoms: C2_3  and  N1_5 
REMARK    2  A    between atoms: N1_5  and  C3_7 
REMARK    3  A    between atoms: C6_10  and  S1_11 
REMARK    4  A    between atoms: S1_11  and  C7_14 
REMARK    5  A    between atoms: C10_17  and  C11_18 
REMARK    6  A    between atoms: N2_22  and  C15_23 
REMARK    7  A    between atoms: C15_23  and  O5_24 
REMARK    8  A    between atoms: C15_23  and  C16_26 
REMARK    9  A    between atoms: C16_26  and  N3_27 
REMARK   10  A    between atoms: C16_26  and  C26_41 
REMARK   11  A    between atoms: N3_27  and  C17_29 
REMARK   12  A    between atoms: C29_44  and  O7_45 
REMARK   13  A    between atoms: C31_47  and  O8_48 
ROOT
HETATM    1  C15 UNL     1       6.208  39.781  26.142  1.00  0.00     0.142 C 
ENDROOT
BRANCH   1   2
HETATM    2  N2  UNL     1       4.798  40.008  26.075  1.00  0.00    -0.355 N 
HETATM    3  C11 UNL     1       3.728  39.342  25.308  1.00  0.00     0.120 C 
HETATM    4  C12 UNL     1       2.762  40.500  25.190  1.00  0.00     0.032 C 
HETATM    5  C13 UNL     1       2.929  41.429  26.322  1.00  0.00     0.022 C 
HETATM    6  C14 UNL     1       4.226  41.066  26.890  1.00  0.00     0.125 C 
BRANCH   3   7
HETATM    7  C10 UNL     1       3.171  38.238  26.152  1.00  0.00    -0.012 A 
HETATM    8  C6  UNL     1       3.442  36.917  25.734  1.00  0.00     0.068 A 
HETATM    9  C5  UNL     1       3.096  35.915  26.589  1.00  0.00     0.026 A 
HETATM   10  C4  UNL     1       2.496  36.134  27.830  1.00  0.00     0.031 A 
HETATM   11  C3  UNL     1       2.226  37.400  28.243  1.00  0.00     0.037 A 
HETATM   12  C34 UNL     1       2.575  38.454  27.375  1.00  0.00     0.040 A 
BRANCH   8  13
HETATM   13  S1  UNL     1       4.019  36.631  24.155  1.00  0.00     0.179 S 
HETATM   14  O3  UNL     1       4.366  35.202  23.934  1.00  0.00    -0.222 OA
HETATM   15  O4  UNL     1       5.295  37.417  23.867  1.00  0.00    -0.222 OA
BRANCH  13  16
HETATM   16  C7  UNL     1       2.881  37.033  22.840  1.00  0.00     0.105 C 
HETATM   17  C8  UNL     1       3.341  38.287  22.098  1.00  0.00     0.026 C 
HETATM   18  C9  UNL     1       1.456  37.119  23.226  1.00  0.00     0.026 C 
ENDBRANCH  13  16
ENDBRANCH   8  13
BRANCH  11  19
HETATM   19  N1  UNL     1       1.627  37.764  29.472  1.00  0.00    -0.303 N 
HETATM   20  C2  UNL     1       0.284  37.535  29.847  1.00  0.00     0.364 C 
HETATM   21  O2  UNL     1      -0.514  36.969  29.049  1.00  0.00    -0.238 OA
ATOM     22  H1  UNL     1       2.221  38.238  30.152  1.00  0.00     0.171 HD
BRANCH  20  23
HETATM   23  O1  UNL     1      -0.152  37.946  31.123  1.00  0.00    -0.309 OA
HETATM   24  C1  UNL     1      -1.436  37.672  31.594  1.00  0.00     0.215 C 
ENDBRANCH  20  23
ENDBRANCH  11  19
ENDBRANCH   3   7
ENDBRANCH   1   2
BRANCH   1  25
HETATM   25  O5  UNL     1       6.951  40.357  25.235  1.00  0.00    -0.348 OA
ATOM     26  H5  UNL     1       7.744  39.907  24.972  1.00  0.00     0.219 HD
ENDBRANCH   1  25
BRANCH   1  27
HETATM   27  C16 UNL     1       6.991  38.984  27.091  1.00  0.00     0.190 C 
BRANCH  27  28
HETATM   28  N3  UNL     1       6.663  37.547  26.846  1.00  0.00    -0.374 N 
ATOM     29  H3  UNL     1       5.736  37.316  26.489  1.00  0.00     0.160 HD
BRANCH  28  30
HETATM   30  C17 UNL     1       7.567  36.498  27.083  1.00  0.00     0.029 A 
HETATM   31  C18 UNL     1       8.172  35.756  26.087  1.00  0.00     0.030 A 
HETATM   32  C19 UNL     1       9.070  34.736  26.368  1.00  0.00     0.010 A 
HETATM   33  C20 UNL     1       9.390  34.433  27.704  1.00  0.00    -0.041 A 
HETATM   34  C21 UNL     1       8.790  35.171  28.694  1.00  0.00     0.040 A 
HETATM   35  C25 UNL     1      10.336  33.367  28.036  1.00  0.00     0.059 C 
HETATM   36  C22 UNL     1       7.901  36.177  28.374  1.00  0.00     0.046 A 
HETATM   37  C23 UNL     1       9.106  34.881  30.110  1.00  0.00     0.252 C 
HETATM   38  O6  UNL     1       8.561  35.555  31.010  1.00  0.00    -0.268 OA
HETATM   39  N4  UNL     1      10.028  33.834  30.400  1.00  0.00    -0.357 N 
HETATM   40  C24 UNL     1      10.078  32.776  29.393  1.00  0.00     0.127 C 
ATOM     41  H4  UNL     1      10.606  33.824  31.240  1.00  0.00     0.162 HD
ENDBRANCH  28  30
ENDBRANCH  27  28
BRANCH  27  42
HETATM   42  C26 UNL     1       6.471  39.262  28.501  1.00  0.00    -0.025 A 
HETATM   43  C27 UNL     1       5.528  38.531  29.141  1.00  0.00     0.012 A 
HETATM   44  C28 UNL     1       5.140  38.857  30.444  1.00  0.00     0.040 A 
HETATM   45  C29 UNL     1       5.715  39.927  31.094  1.00  0.00     0.101 A 
HETATM   46  C31 UNL     1       6.709  40.718  30.451  1.00  0.00     0.102 A 
HETATM   47  C33 UNL     1       7.024  40.325  29.178  1.00  0.00     0.049 A 
BRANCH  45  48
HETATM   48  O7  UNL     1       5.403  40.313  32.361  1.00  0.00    -0.353 OA
HETATM   49  C30 UNL     1       4.362  40.199  33.213  1.00  0.00     0.210 C 
ENDBRANCH  45  48
BRANCH  46  50
HETATM   50  O8  UNL     1       7.288  41.790  31.094  1.00  0.00    -0.353 OA
HETATM   51  C32 UNL     1       8.643  42.084  30.846  1.00  0.00     0.210 C 
ENDBRANCH  46  50
ENDBRANCH  27  42
ENDBRANCH   1  27
TORSDOF 13
ENDMDL
