MODEL 5
REMARK VINA RESULT: -8.687169151      4.492      7.547
REMARK  13 active torsions:
REMARK  status: ('A' for Active; 'I' for Inactive)
REMARK    1  A    between atoms: O1_2  and  C2_3 
REMARK       I    between atoms: C2_3  and  N1_5 
REMARK    2  A    between atoms: N1_5  and  C3_7 
REMARK    3  A    between atoms: C6_10  and  S1_11 
REMARK    4  A    between atoms: S1_11  and  C7_14 
REMARK    5  A    between atoms: C10_17  and  C11_18 
REMARK    6  A    between atoms: N2_22  and  C15_23 
REMARK    7  A    between atoms: C15_23  and  O5_24 
REMARK    8  A    between atoms: C15_23  and  C16_26 
REMARK    9  A    between atoms: C16_26  and  N3_27 
REMARK   10  A    between atoms: C16_26  and  C26_41 
REMARK   11  A    between atoms: N3_27  and  C17_29 
REMARK   12  A    between atoms: C29_44  and  O7_45 
REMARK   13  A    between atoms: C31_47  and  O8_48 
ROOT
HETATM    1  C15 UNL     1       5.482  38.751  29.473  1.00  0.00     0.142 C 
ENDROOT
BRANCH   1   2
HETATM    2  N2  UNL     1       4.270  39.328  28.980  1.00  0.00    -0.355 N 
HETATM    3  C11 UNL     1       3.524  39.127  27.723  1.00  0.00     0.120 C 
HETATM    4  C12 UNL     1       2.866  40.485  27.616  1.00  0.00     0.032 C 
HETATM    5  C13 UNL     1       2.686  41.078  28.953  1.00  0.00     0.022 C 
HETATM    6  C14 UNL     1       3.572  40.293  29.812  1.00  0.00     0.125 C 
BRANCH   3   7
HETATM    7  C10 UNL     1       2.520  38.039  27.948  1.00  0.00    -0.012 A 
HETATM    8  C6  UNL     1       2.420  37.047  26.949  1.00  0.00     0.068 A 
HETATM    9  C5  UNL     1       1.644  35.964  27.230  1.00  0.00     0.026 A 
HETATM   10  C4  UNL     1       0.958  35.799  28.435  1.00  0.00     0.031 A 
HETATM   11  C3  UNL     1       1.042  36.748  29.402  1.00  0.00     0.037 A 
HETATM   12  C34 UNL     1       1.839  37.879  29.135  1.00  0.00     0.040 A 
BRANCH   8  13
HETATM   13  S1  UNL     1       3.117  37.317  25.416  1.00  0.00     0.179 S 
HETATM   14  O3  UNL     1       4.602  37.389  25.480  1.00  0.00    -0.222 OA
HETATM   15  O4  UNL     1       2.663  38.643  24.813  1.00  0.00    -0.222 OA
BRANCH  13  16
HETATM   16  C7  UNL     1       2.772  36.068  24.189  1.00  0.00     0.105 C 
HETATM   17  C8  UNL     1       4.043  35.294  23.841  1.00  0.00     0.026 C 
HETATM   18  C9  UNL     1       2.068  36.535  22.975  1.00  0.00     0.026 C 
ENDBRANCH  13  16
ENDBRANCH   8  13
BRANCH  11  19
HETATM   19  N1  UNL     1       0.405  36.707  30.665  1.00  0.00    -0.303 N 
HETATM   20  C2  UNL     1      -0.872  37.231  30.973  1.00  0.00     0.364 C 
HETATM   21  O2  UNL     1      -1.554  37.815  30.086  1.00  0.00    -0.238 OA
ATOM     22  H1  UNL     1       0.915  36.258  31.425  1.00  0.00     0.171 HD
BRANCH  20  23
HETATM   23  O1  UNL     1      -1.372  37.090  32.284  1.00  0.00    -0.309 OA
HETATM   24  C1  UNL     1      -1.743  38.189  33.059  1.00  0.00     0.215 C 
ENDBRANCH  20  23
ENDBRANCH  11  19
ENDBRANCH   3   7
ENDBRANCH   1   2
BRANCH   1  25
HETATM   25  O5  UNL     1       5.409  38.058  30.578  1.00  0.00    -0.348 OA
ATOM     26  H5  UNL     1       5.654  38.496  31.384  1.00  0.00     0.219 HD
ENDBRANCH   1  25
BRANCH   1  27
HETATM   27  C16 UNL     1       6.842  38.807  28.930  1.00  0.00     0.190 C 
BRANCH  27  28
HETATM   28  N3  UNL     1       7.679  37.855  29.721  1.00  0.00    -0.374 N 
ATOM     29  H3  UNL     1       7.863  38.070  30.701  1.00  0.00     0.160 HD
BRANCH  28  30
HETATM   30  C17 UNL     1       8.225  36.678  29.183  1.00  0.00     0.029 A 
HETATM   31  C18 UNL     1       8.302  36.405  27.830  1.00  0.00     0.030 A 
HETATM   32  C19 UNL     1       8.864  35.233  27.344  1.00  0.00     0.010 A 
HETATM   33  C20 UNL     1       9.379  34.278  28.240  1.00  0.00    -0.041 A 
HETATM   34  C21 UNL     1       9.304  34.549  29.584  1.00  0.00     0.040 A 
HETATM   35  C25 UNL     1       9.982  33.034  27.761  1.00  0.00     0.059 C 
HETATM   36  C22 UNL     1       8.737  35.726  30.029  1.00  0.00     0.046 A 
HETATM   37  C23 UNL     1       9.839  33.569  30.554  1.00  0.00     0.252 C 
HETATM   38  O6  UNL     1       9.772  33.818  31.777  1.00  0.00    -0.268 OA
HETATM   39  N4  UNL     1      10.416  32.365  30.055  1.00  0.00    -0.357 N 
HETATM   40  C24 UNL     1       9.879  31.924  28.769  1.00  0.00     0.127 C 
ATOM     41  H4  UNL     1      11.143  31.853  30.555  1.00  0.00     0.162 HD
ENDBRANCH  28  30
ENDBRANCH  27  28
BRANCH  27  42
HETATM   42  C26 UNL     1       7.431  40.183  29.239  1.00  0.00    -0.025 A 
HETATM   43  C27 UNL     1       6.834  41.366  28.958  1.00  0.00     0.012 A 
HETATM   44  C28 UNL     1       7.450  42.572  29.306  1.00  0.00     0.040 A 
HETATM   45  C29 UNL     1       8.672  42.571  29.941  1.00  0.00     0.101 A 
HETATM   46  C31 UNL     1       9.329  41.347  30.250  1.00  0.00     0.102 A 
HETATM   47  C33 UNL     1       8.652  40.218  29.872  1.00  0.00     0.049 A 
BRANCH  45  48
HETATM   48  O7  UNL     1       9.341  43.695  30.319  1.00  0.00    -0.353 OA
HETATM   49  C30 UNL     1       9.067  45.001  30.522  1.00  0.00     0.210 C 
ENDBRANCH  45  48
BRANCH  46  50
HETATM   50  O8  UNL     1      10.551  41.338  30.884  1.00  0.00    -0.353 OA
HETATM   51  C32 UNL     1      11.703  41.684  30.151  1.00  0.00     0.210 C 
ENDBRANCH  46  50
ENDBRANCH  27  42
ENDBRANCH   1  27
TORSDOF 13
ENDMDL
