MODEL 2
REMARK VINA RESULT: -9.547109193      1.110      1.306
REMARK  13 active torsions:
REMARK  status: ('A' for Active; 'I' for Inactive)
REMARK    1  A    between atoms: O1_2  and  C2_3 
REMARK       I    between atoms: C2_3  and  N1_5 
REMARK    2  A    between atoms: N1_5  and  C3_7 
REMARK    3  A    between atoms: C6_10  and  S1_11 
REMARK    4  A    between atoms: S1_11  and  C7_14 
REMARK    5  A    between atoms: C10_17  and  C11_18 
REMARK    6  A    between atoms: N2_22  and  C15_23 
REMARK    7  A    between atoms: C15_23  and  O5_24 
REMARK    8  A    between atoms: C15_23  and  C16_26 
REMARK    9  A    between atoms: C16_26  and  N3_27 
REMARK   10  A    between atoms: C16_26  and  C26_41 
REMARK   11  A    between atoms: N3_27  and  C17_29 
REMARK   12  A    between atoms: C29_44  and  O7_45 
REMARK   13  A    between atoms: C31_47  and  O8_48 
ROOT
HETATM    1  C15 UNL     1       7.643  38.193  24.583  1.00  0.00     0.142 C 
ENDROOT
BRANCH   1   2
HETATM    2  N2  UNL     1       7.199  39.522  24.299  1.00  0.00    -0.355 N 
HETATM    3  C11 UNL     1       7.266  40.343  23.075  1.00  0.00     0.120 C 
HETATM    4  C12 UNL     1       7.293  41.716  23.709  1.00  0.00     0.032 C 
HETATM    5  C13 UNL     1       6.615  41.693  25.017  1.00  0.00     0.022 C 
HETATM    6  C14 UNL     1       6.538  40.272  25.353  1.00  0.00     0.125 C 
BRANCH   3   7
HETATM    7  C10 UNL     1       6.009  40.116  22.294  1.00  0.00    -0.012 A 
HETATM    8  C6  UNL     1       6.109  40.193  20.888  1.00  0.00     0.068 A 
HETATM    9  C5  UNL     1       5.017  39.811  20.170  1.00  0.00     0.026 A 
HETATM   10  C4  UNL     1       3.831  39.360  20.751  1.00  0.00     0.031 A 
HETATM   11  C3  UNL     1       3.720  39.285  22.103  1.00  0.00     0.037 A 
HETATM   12  C34 UNL     1       4.837  39.676  22.869  1.00  0.00     0.040 A 
BRANCH   8  13
HETATM   13  S1  UNL     1       7.489  40.897  20.176  1.00  0.00     0.179 S 
HETATM   14  O3  UNL     1       8.744  40.493  20.864  1.00  0.00    -0.222 OA
HETATM   15  O4  UNL     1       7.449  42.420  20.247  1.00  0.00    -0.222 OA
BRANCH  13  16
HETATM   16  C7  UNL     1       7.757  40.487  18.459  1.00  0.00     0.105 C 
HETATM   17  C8  UNL     1       9.116  39.814  18.276  1.00  0.00     0.026 C 
HETATM   18  C9  UNL     1       7.559  41.590  17.495  1.00  0.00     0.026 C 
ENDBRANCH  13  16
ENDBRANCH   8  13
BRANCH  11  19
HETATM   19  N1  UNL     1       2.583  38.846  22.821  1.00  0.00    -0.303 N 
HETATM   20  C2  UNL     1       1.465  39.633  23.180  1.00  0.00     0.364 C 
HETATM   21  O2  UNL     1       1.422  40.857  22.872  1.00  0.00    -0.238 OA
ATOM     22  H1  UNL     1       2.568  37.867  23.108  1.00  0.00     0.171 HD
BRANCH  20  23
HETATM   23  O1  UNL     1       0.401  39.033  23.884  1.00  0.00    -0.309 OA
HETATM   24  C1  UNL     1      -0.342  39.727  24.839  1.00  0.00     0.215 C 
ENDBRANCH  20  23
ENDBRANCH  11  19
ENDBRANCH   3   7
ENDBRANCH   1   2
BRANCH   1  25
HETATM   25  O5  UNL     1       8.350  37.589  23.666  1.00  0.00    -0.348 OA
ATOM     26  H5  UNL     1       7.881  37.052  23.038  1.00  0.00     0.219 HD
ENDBRANCH   1  25
BRANCH   1  27
HETATM   27  C16 UNL     1       7.434  37.363  25.773  1.00  0.00     0.190 C 
BRANCH  27  28
HETATM   28  N3  UNL     1       8.089  36.045  25.520  1.00  0.00    -0.374 N 
ATOM     29  H3  UNL     1       8.141  35.706  24.559  1.00  0.00     0.160 HD
BRANCH  28  30
HETATM   30  C17 UNL     1       8.637  35.247  26.538  1.00  0.00     0.029 A 
HETATM   31  C18 UNL     1       9.412  34.125  26.313  1.00  0.00     0.030 A 
HETATM   32  C19 UNL     1       9.944  33.374  27.351  1.00  0.00     0.010 A 
HETATM   33  C20 UNL     1       9.702  33.752  28.685  1.00  0.00    -0.041 A 
HETATM   34  C21 UNL     1       8.934  34.868  28.909  1.00  0.00     0.040 A 
HETATM   35  C25 UNL     1      10.252  32.986  29.804  1.00  0.00     0.059 C 
HETATM   36  C22 UNL     1       8.420  35.588  27.849  1.00  0.00     0.046 A 
HETATM   37  C23 UNL     1       8.662  35.295  30.299  1.00  0.00     0.252 C 
HETATM   38  O6  UNL     1       7.965  36.312  30.502  1.00  0.00    -0.268 OA
HETATM   39  N4  UNL     1       9.209  34.525  31.366  1.00  0.00    -0.357 N 
HETATM   40  C24 UNL     1       9.420  33.114  31.048  1.00  0.00     0.127 C 
ATOM     41  H4  UNL     1       9.434  34.926  32.277  1.00  0.00     0.162 HD
ENDBRANCH  28  30
ENDBRANCH  27  28
BRANCH  27  42
HETATM   42  C26 UNL     1       5.945  37.038  25.881  1.00  0.00    -0.025 A 
HETATM   43  C27 UNL     1       5.188  37.219  26.989  1.00  0.00     0.012 A 
HETATM   44  C28 UNL     1       3.823  36.911  26.975  1.00  0.00     0.040 A 
HETATM   45  C29 UNL     1       3.233  36.421  25.830  1.00  0.00     0.101 A 
HETATM   46  C31 UNL     1       3.999  36.219  24.648  1.00  0.00     0.102 A 
HETATM   47  C33 UNL     1       5.324  36.547  24.756  1.00  0.00     0.049 A 
BRANCH  45  48
HETATM   48  O7  UNL     1       1.914  36.100  25.725  1.00  0.00    -0.353 OA
HETATM   49  C30 UNL     1       0.744  36.484  26.278  1.00  0.00     0.210 C 
ENDBRANCH  45  48
BRANCH  46  50
HETATM   50  O8  UNL     1       3.416  35.730  23.500  1.00  0.00    -0.353 OA
HETATM   51  C32 UNL     1       3.366  34.337  23.300  1.00  0.00     0.210 C 
ENDBRANCH  46  50
ENDBRANCH  27  42
ENDBRANCH   1  27
TORSDOF 13
ENDMDL
