MODEL 6
REMARK VINA RESULT: -8.677962100      4.306      7.264
REMARK  13 active torsions:
REMARK  status: ('A' for Active; 'I' for Inactive)
REMARK    1  A    between atoms: O1_2  and  C2_3 
REMARK       I    between atoms: C2_3  and  N1_5 
REMARK    2  A    between atoms: N1_5  and  C3_7 
REMARK    3  A    between atoms: C6_10  and  S1_11 
REMARK    4  A    between atoms: S1_11  and  C7_14 
REMARK    5  A    between atoms: C10_17  and  C11_18 
REMARK    6  A    between atoms: N2_22  and  C15_23 
REMARK    7  A    between atoms: C15_23  and  O5_24 
REMARK    8  A    between atoms: C15_23  and  C16_26 
REMARK    9  A    between atoms: C16_26  and  N3_27 
REMARK   10  A    between atoms: C16_26  and  C26_41 
REMARK   11  A    between atoms: N3_27  and  C17_29 
REMARK   12  A    between atoms: C29_44  and  O7_45 
REMARK   13  A    between atoms: C31_47  and  O8_48 
ROOT
HETATM    1  C15 UNL     1       5.436  38.765  29.498  1.00  0.00     0.142 C 
ENDROOT
BRANCH   1   2
HETATM    2  N2  UNL     1       4.281  39.268  28.820  1.00  0.00    -0.355 N 
HETATM    3  C11 UNL     1       3.649  38.893  27.542  1.00  0.00     0.120 C 
HETATM    4  C12 UNL     1       3.023  40.223  27.185  1.00  0.00     0.032 C 
HETATM    5  C13 UNL     1       2.732  40.999  28.404  1.00  0.00     0.022 C 
HETATM    6  C14 UNL     1       3.526  40.343  29.441  1.00  0.00     0.125 C 
BRANCH   3   7
HETATM    7  C10 UNL     1       2.613  37.849  27.825  1.00  0.00    -0.012 A 
HETATM    8  C6  UNL     1       2.457  36.828  26.864  1.00  0.00     0.068 A 
HETATM    9  C5  UNL     1       1.650  35.783  27.198  1.00  0.00     0.026 A 
HETATM   10  C4  UNL     1       0.985  35.683  28.421  1.00  0.00     0.031 A 
HETATM   11  C3  UNL     1       1.124  36.661  29.353  1.00  0.00     0.037 A 
HETATM   12  C34 UNL     1       1.953  37.754  29.030  1.00  0.00     0.040 A 
BRANCH   8  13
HETATM   13  S1  UNL     1       3.129  37.021  25.308  1.00  0.00     0.179 S 
HETATM   14  O3  UNL     1       2.466  38.109  24.541  1.00  0.00    -0.222 OA
HETATM   15  O4  UNL     1       2.972  35.761  24.462  1.00  0.00    -0.222 OA
BRANCH  13  16
HETATM   16  C7  UNL     1       4.866  37.430  25.271  1.00  0.00     0.105 C 
HETATM   17  C8  UNL     1       5.153  38.450  24.171  1.00  0.00     0.026 C 
HETATM   18  C9  UNL     1       5.797  36.283  25.209  1.00  0.00     0.026 C 
ENDBRANCH  13  16
ENDBRANCH   8  13
BRANCH  11  19
HETATM   19  N1  UNL     1       0.513  36.686  30.630  1.00  0.00    -0.303 N 
HETATM   20  C2  UNL     1      -0.780  37.174  30.928  1.00  0.00     0.364 C 
HETATM   21  O2  UNL     1      -1.504  37.662  30.016  1.00  0.00    -0.238 OA
ATOM     22  H1  UNL     1       1.058  36.317  31.409  1.00  0.00     0.171 HD
BRANCH  20  23
HETATM   23  O1  UNL     1      -1.248  37.109  32.256  1.00  0.00    -0.309 OA
HETATM   24  C1  UNL     1      -1.791  38.217  32.907  1.00  0.00     0.215 C 
ENDBRANCH  20  23
ENDBRANCH  11  19
ENDBRANCH   3   7
ENDBRANCH   1   2
BRANCH   1  25
HETATM   25  O5  UNL     1       5.254  38.240  30.681  1.00  0.00    -0.348 OA
ATOM     26  H5  UNL     1       4.549  37.612  30.774  1.00  0.00     0.219 HD
ENDBRANCH   1  25
BRANCH   1  27
HETATM   27  C16 UNL     1       6.839  38.736  29.076  1.00  0.00     0.190 C 
BRANCH  27  28
HETATM   28  N3  UNL     1       7.528  37.688  29.887  1.00  0.00    -0.374 N 
ATOM     29  H3  UNL     1       7.557  37.800  30.901  1.00  0.00     0.160 HD
BRANCH  28  30
HETATM   30  C17 UNL     1       8.139  36.554  29.325  1.00  0.00     0.029 A 
HETATM   31  C18 UNL     1       8.293  36.348  27.967  1.00  0.00     0.030 A 
HETATM   32  C19 UNL     1       8.916  35.218  27.458  1.00  0.00     0.010 A 
HETATM   33  C20 UNL     1       9.416  34.238  28.335  1.00  0.00    -0.041 A 
HETATM   34  C21 UNL     1       9.265  34.443  29.684  1.00  0.00     0.040 A 
HETATM   35  C25 UNL     1      10.083  33.036  27.832  1.00  0.00     0.059 C 
HETATM   36  C22 UNL     1       8.638  35.580  30.153  1.00  0.00     0.046 A 
HETATM   37  C23 UNL     1       9.782  33.434  30.635  1.00  0.00     0.252 C 
HETATM   38  O6  UNL     1       9.646  33.622  31.863  1.00  0.00    -0.268 OA
HETATM   39  N4  UNL     1      10.422  32.273  30.112  1.00  0.00    -0.357 N 
HETATM   40  C24 UNL     1       9.966  31.878  28.781  1.00  0.00     0.127 C 
ATOM     41  H4  UNL     1      11.139  31.760  30.625  1.00  0.00     0.162 HD
ENDBRANCH  28  30
ENDBRANCH  27  28
BRANCH  27  42
HETATM   42  C26 UNL     1       7.500  40.047  29.500  1.00  0.00    -0.025 A 
HETATM   43  C27 UNL     1       8.411  40.173  30.494  1.00  0.00     0.012 A 
HETATM   44  C28 UNL     1       8.975  41.419  30.786  1.00  0.00     0.040 A 
HETATM   45  C29 UNL     1       8.610  42.534  30.065  1.00  0.00     0.101 A 
HETATM   46  C31 UNL     1       7.654  42.438  29.014  1.00  0.00     0.102 A 
HETATM   47  C33 UNL     1       7.156  41.181  28.801  1.00  0.00     0.049 A 
BRANCH  45  48
HETATM   48  O7  UNL     1       9.109  43.782  30.277  1.00  0.00    -0.353 OA
HETATM   49  C30 UNL     1       8.803  44.869  31.017  1.00  0.00     0.210 C 
ENDBRANCH  45  48
BRANCH  46  50
HETATM   50  O8  UNL     1       7.283  43.549  28.288  1.00  0.00    -0.353 OA
HETATM   51  C32 UNL     1       6.218  43.443  27.373  1.00  0.00     0.210 C 
ENDBRANCH  46  50
ENDBRANCH  27  42
ENDBRANCH   1  27
TORSDOF 13
ENDMDL
