MODEL 17
REMARK VINA RESULT: -6.155885758      2.664      4.569
REMARK  3 active torsions:
REMARK  status: ('A' for Active; 'I' for Inactive)
REMARK    1  A    between atoms: N1_1  and  C1_5 
REMARK    2  A    between atoms: C1_5  and  C2_6 
REMARK    3  A    between atoms: C6_12  and  C7_13 
ROOT
HETATM    1  C1  UNL     1      -7.331  35.744  27.726  1.00  0.00     0.215 C 
HETATM    2  C3  UNL     1      -7.623  35.542  29.178  1.00  0.00     0.051 C 
HETATM    3  C4  UNL     1      -7.240  36.870  29.777  1.00  0.00     0.009 C 
HETATM    4  C5  UNL     1      -6.159  37.401  28.895  1.00  0.00     0.008 A 
HETATM    5  C6  UNL     1      -5.007  36.463  28.716  1.00  0.00     0.099 A 
HETATM    6  C8  UNL     1      -6.049  36.488  27.706  1.00  0.00     0.052 A 
ENDROOT
BRANCH   1   7
HETATM    7  N1  UNL     1      -7.287  34.489  26.998  1.00  0.00    -0.060 N 
ATOM      8  H13 UNL     1      -7.980  33.819  27.331  1.00  0.00     0.275 HD
ATOM      9  H12 UNL     1      -7.630  34.579  26.042  1.00  0.00     0.275 HD
ATOM     10  H11 UNL     1      -6.336  34.123  27.041  1.00  0.00     0.275 HD
ENDBRANCH   1   7
BRANCH   1  11
HETATM   11  C2  UNL     1      -8.404  36.590  27.143  1.00  0.00     0.210 C 
HETATM   12  O1  UNL     1      -8.579  36.552  25.899  1.00  0.00    -0.646 OA
HETATM   13  O2  UNL     1      -9.220  37.419  27.918  1.00  0.00    -0.646 OA
ENDBRANCH   1  11
BRANCH   5  14
HETATM   14  C7  UNL     1      -3.724  37.118  28.389  1.00  0.00     0.177 C 
HETATM   15  O3  UNL     1      -3.509  38.276  28.828  1.00  0.00    -0.648 OA
HETATM   16  O4  UNL     1      -2.738  36.525  27.619  1.00  0.00    -0.648 OA
ENDBRANCH   5  14
TORSDOF 3
ENDMDL
