MODEL 1
REMARK VINA RESULT: -8.622352034      0.000      0.000
REMARK  3 active torsions:
REMARK  status: ('A' for Active; 'I' for Inactive)
REMARK    1  A    between atoms: N1_1  and  C1_5 
REMARK    2  A    between atoms: C1_5  and  C2_6 
REMARK    3  A    between atoms: C6_12  and  C7_13 
ROOT
HETATM    1  C1  UNL     1      -7.903  36.011  26.962  1.00  0.00     0.215 C 
HETATM    2  C3  UNL     1      -7.868  37.062  28.025  1.00  0.00     0.051 C 
HETATM    3  C4  UNL     1      -7.294  36.318  29.203  1.00  0.00     0.009 C 
HETATM    4  C5  UNL     1      -7.721  34.900  29.016  1.00  0.00     0.008 A 
HETATM    5  C6  UNL     1      -9.198  34.727  28.852  1.00  0.00     0.099 A 
HETATM    6  C8  UNL     1      -8.367  34.790  27.663  1.00  0.00     0.052 A 
ENDROOT
BRANCH   1   7
HETATM    7  N1  UNL     1      -8.743  36.394  25.842  1.00  0.00    -0.060 N 
ATOM      8  H13 UNL     1      -8.452  37.275  25.419  1.00  0.00     0.275 HD
ATOM      9  H12 UNL     1      -8.606  35.796  25.028  1.00  0.00     0.275 HD
ATOM     10  H11 UNL     1      -9.713  36.413  26.157  1.00  0.00     0.275 HD
ENDBRANCH   1   7
BRANCH   1  11
HETATM   11  C2  UNL     1      -6.520  35.799  26.463  1.00  0.00     0.210 C 
HETATM   12  O1  UNL     1      -6.366  35.136  25.406  1.00  0.00    -0.646 OA
HETATM   13  O2  UNL     1      -5.393  36.305  27.119  1.00  0.00    -0.646 OA
ENDBRANCH   1  11
BRANCH   5  14
HETATM   14  C7  UNL     1      -9.712  33.402  29.255  1.00  0.00     0.177 C 
HETATM   15  O3  UNL     1     -10.834  33.034  28.823  1.00  0.00    -0.648 OA
HETATM   16  O4  UNL     1      -9.025  32.536  30.088  1.00  0.00    -0.648 OA
ENDBRANCH   5  14
TORSDOF 3
ENDMDL
