MODEL 4
REMARK VINA RESULT: -7.426652380      1.292      1.561
REMARK  3 active torsions:
REMARK  status: ('A' for Active; 'I' for Inactive)
REMARK    1  A    between atoms: N1_1  and  C1_5 
REMARK    2  A    between atoms: C1_5  and  C2_6 
REMARK    3  A    between atoms: C6_12  and  C7_13 
ROOT
HETATM    1  C1  UNL     1      -7.157  35.590  27.110  1.00  0.00     0.215 C 
HETATM    2  C3  UNL     1      -8.188  36.573  26.656  1.00  0.00     0.051 C 
HETATM    3  C4  UNL     1      -8.891  36.929  27.940  1.00  0.00     0.009 C 
HETATM    4  C5  UNL     1      -8.775  35.715  28.799  1.00  0.00     0.008 A 
HETATM    5  C6  UNL     1      -9.288  34.465  28.156  1.00  0.00     0.099 A 
HETATM    6  C8  UNL     1      -7.864  34.744  28.101  1.00  0.00     0.052 A 
ENDROOT
BRANCH   1   7
HETATM    7  N1  UNL     1      -6.591  34.841  26.004  1.00  0.00    -0.060 N 
ATOM      8  H13 UNL     1      -5.644  35.140  25.773  1.00  0.00     0.275 HD
ATOM      9  H12 UNL     1      -6.376  33.876  26.254  1.00  0.00     0.275 HD
ATOM     10  H11 UNL     1      -7.226  34.908  25.209  1.00  0.00     0.275 HD
ENDBRANCH   1   7
BRANCH   1  11
HETATM   11  C2  UNL     1      -6.063  36.334  27.786  1.00  0.00     0.210 C 
HETATM   12  O1  UNL     1      -4.918  36.301  27.269  1.00  0.00    -0.646 OA
HETATM   13  O2  UNL     1      -6.258  37.063  28.963  1.00  0.00    -0.646 OA
ENDBRANCH   1  11
BRANCH   5  14
HETATM   14  C7  UNL     1      -9.743  33.426  29.103  1.00  0.00     0.177 C 
HETATM   15  O3  UNL     1     -10.978  33.271  29.279  1.00  0.00    -0.648 OA
HETATM   16  O4  UNL     1      -8.881  32.608  29.812  1.00  0.00    -0.648 OA
ENDBRANCH   5  14
TORSDOF 3
ENDMDL
