MODEL 16
REMARK VINA RESULT: -6.229683322      2.110      4.634
REMARK  3 active torsions:
REMARK  status: ('A' for Active; 'I' for Inactive)
REMARK    1  A    between atoms: N1_1  and  C1_5 
REMARK    2  A    between atoms: C1_5  and  C2_6 
REMARK    3  A    between atoms: C6_12  and  C7_13 
ROOT
HETATM    1  C1  UNL     1      -8.160  35.961  29.508  1.00  0.00     0.215 C 
HETATM    2  C3  UNL     1      -8.856  36.804  28.488  1.00  0.00     0.051 C 
HETATM    3  C4  UNL     1      -8.167  36.407  27.209  1.00  0.00     0.009 C 
HETATM    4  C5  UNL     1      -6.784  36.017  27.614  1.00  0.00     0.008 A 
HETATM    5  C6  UNL     1      -6.058  37.071  28.389  1.00  0.00     0.099 A 
HETATM    6  C8  UNL     1      -6.731  36.009  29.116  1.00  0.00     0.052 A 
ENDROOT
BRANCH   1   7
HETATM    7  N1  UNL     1      -8.408  36.424  30.861  1.00  0.00    -0.060 N 
ATOM      8  H13 UNL     1      -7.665  37.029  31.210  1.00  0.00     0.275 HD
ATOM      9  H12 UNL     1      -9.171  37.098  30.911  1.00  0.00     0.275 HD
ATOM     10  H11 UNL     1      -8.563  35.611  31.458  1.00  0.00     0.275 HD
ENDBRANCH   1   7
BRANCH   1  11
HETATM   11  C2  UNL     1      -8.660  34.568  29.387  1.00  0.00     0.210 C 
HETATM   12  O1  UNL     1      -9.900  34.390  29.281  1.00  0.00    -0.646 OA
HETATM   13  O2  UNL     1      -7.812  33.456  29.387  1.00  0.00    -0.646 OA
ENDBRANCH   1  11
BRANCH   5  14
HETATM   14  C7  UNL     1      -4.586  37.004  28.292  1.00  0.00     0.177 C 
HETATM   15  O3  UNL     1      -4.073  36.410  27.310  1.00  0.00    -0.648 OA
HETATM   16  O4  UNL     1      -3.732  37.561  29.229  1.00  0.00    -0.648 OA
ENDBRANCH   5  14
TORSDOF 3
ENDMDL
