MODEL 8
REMARK VINA RESULT: -7.006512605      1.390      1.670
REMARK  3 active torsions:
REMARK  status: ('A' for Active; 'I' for Inactive)
REMARK    1  A    between atoms: N1_1  and  C1_5 
REMARK    2  A    between atoms: C1_5  and  C2_6 
REMARK    3  A    between atoms: C6_12  and  C7_13 
ROOT
HETATM    1  C1  UNL     1      -7.168  35.560  27.404  1.00  0.00     0.215 C 
HETATM    2  C3  UNL     1      -8.321  36.506  27.296  1.00  0.00     0.051 C 
HETATM    3  C4  UNL     1      -8.488  36.984  28.714  1.00  0.00     0.009 C 
HETATM    4  C5  UNL     1      -8.018  35.853  29.567  1.00  0.00     0.008 A 
HETATM    5  C6  UNL     1      -8.703  34.553  29.283  1.00  0.00     0.099 A 
HETATM    6  C8  UNL     1      -7.417  34.814  28.661  1.00  0.00     0.052 A 
ENDROOT
BRANCH   1   7
HETATM    7  N1  UNL     1      -7.048  34.708  26.236  1.00  0.00    -0.060 N 
ATOM      8  H13 UNL     1      -6.989  33.719  26.477  1.00  0.00     0.275 HD
ATOM      9  H12 UNL     1      -7.909  34.668  25.691  1.00  0.00     0.275 HD
ATOM     10  H11 UNL     1      -6.250  35.025  25.684  1.00  0.00     0.275 HD
ENDBRANCH   1   7
BRANCH   1  11
HETATM   11  C2  UNL     1      -5.920  36.354  27.539  1.00  0.00     0.210 C 
HETATM   12  O1  UNL     1      -5.131  36.389  26.560  1.00  0.00    -0.646 OA
HETATM   13  O2  UNL     1      -5.591  37.057  28.702  1.00  0.00    -0.646 OA
ENDBRANCH   1  11
BRANCH   5  14
HETATM   14  C7  UNL     1      -8.732  33.610  30.419  1.00  0.00     0.177 C 
HETATM   15  O3  UNL     1      -8.948  32.393  30.187  1.00  0.00    -0.648 OA
HETATM   16  O4  UNL     1      -8.534  33.992  31.734  1.00  0.00    -0.648 OA
ENDBRANCH   5  14
TORSDOF 3
ENDMDL
