MODEL 11
REMARK VINA RESULT: -6.483638230      1.437      1.845
REMARK  3 active torsions:
REMARK  status: ('A' for Active; 'I' for Inactive)
REMARK    1  A    between atoms: N1_1  and  C1_5 
REMARK    2  A    between atoms: C1_5  and  C2_6 
REMARK    3  A    between atoms: C6_12  and  C7_13 
ROOT
HETATM    1  C1  UNL     1      -8.269  36.396  27.537  1.00  0.00     0.215 C 
HETATM    2  C3  UNL     1      -6.913  36.732  28.071  1.00  0.00     0.051 C 
HETATM    3  C4  UNL     1      -6.238  35.387  28.122  1.00  0.00     0.009 C 
HETATM    4  C5  UNL     1      -7.339  34.404  28.346  1.00  0.00     0.008 A 
HETATM    5  C6  UNL     1      -8.185  34.703  29.544  1.00  0.00     0.099 A 
HETATM    6  C8  UNL     1      -8.643  35.145  28.239  1.00  0.00     0.052 A 
ENDROOT
BRANCH   1   7
HETATM    7  N1  UNL     1      -9.217  37.477  27.732  1.00  0.00    -0.060 N 
ATOM      8  H13 UNL     1      -8.773  38.395  27.709  1.00  0.00     0.275 HD
ATOM      9  H12 UNL     1      -9.837  37.603  26.932  1.00  0.00     0.275 HD
ATOM     10  H11 UNL     1      -9.725  37.310  28.600  1.00  0.00     0.275 HD
ENDBRANCH   1   7
BRANCH   1  11
HETATM   11  C2  UNL     1      -8.149  36.130  26.081  1.00  0.00     0.210 C 
HETATM   12  O1  UNL     1      -9.206  35.970  25.419  1.00  0.00    -0.646 OA
HETATM   13  O2  UNL     1      -6.917  36.051  25.424  1.00  0.00    -0.646 OA
ENDBRANCH   1  11
BRANCH   5  14
HETATM   14  C7  UNL     1      -8.850  33.526  30.138  1.00  0.00     0.177 C 
HETATM   15  O3  UNL     1      -8.253  32.888  31.041  1.00  0.00    -0.648 OA
HETATM   16  O4  UNL     1     -10.103  33.081  29.752  1.00  0.00    -0.648 OA
ENDBRANCH   5  14
TORSDOF 3
ENDMDL
