MODEL 2
REMARK VINA RESULT: -7.620037681      0.739      1.152
REMARK  3 active torsions:
REMARK  status: ('A' for Active; 'I' for Inactive)
REMARK    1  A    between atoms: N1_1  and  C1_5 
REMARK    2  A    between atoms: C1_5  and  C2_6 
REMARK    3  A    between atoms: C6_12  and  C7_13 
ROOT
HETATM    1  C1  UNL     1      -7.995  35.977  26.872  1.00  0.00     0.215 C 
HETATM    2  C3  UNL     1      -8.042  37.159  27.786  1.00  0.00     0.051 C 
HETATM    3  C4  UNL     1      -7.118  36.748  28.902  1.00  0.00     0.009 C 
HETATM    4  C5  UNL     1      -7.211  35.259  28.959  1.00  0.00     0.008 A 
HETATM    5  C6  UNL     1      -8.607  34.743  29.109  1.00  0.00     0.099 A 
HETATM    6  C8  UNL     1      -8.026  34.805  27.780  1.00  0.00     0.052 A 
ENDROOT
BRANCH   1   7
HETATM    7  N1  UNL     1      -9.076  35.991  25.904  1.00  0.00    -0.060 N 
ATOM      8  H13 UNL     1      -8.987  36.750  25.229  1.00  0.00     0.275 HD
ATOM      9  H12 UNL     1      -9.024  35.213  25.247  1.00  0.00     0.275 HD
ATOM     10  H11 UNL     1      -9.962  36.019  26.409  1.00  0.00     0.275 HD
ENDBRANCH   1   7
BRANCH   1  11
HETATM   11  C2  UNL     1      -6.704  36.000  26.138  1.00  0.00     0.210 C 
HETATM   12  O1  UNL     1      -6.735  35.937  24.883  1.00  0.00    -0.646 OA
HETATM   13  O2  UNL     1      -5.467  36.090  26.783  1.00  0.00    -0.646 OA
ENDBRANCH   1  11
BRANCH   5  14
HETATM   14  C7  UNL     1      -8.709  33.415  29.747  1.00  0.00     0.177 C 
HETATM   15  O3  UNL     1      -7.712  32.967  30.368  1.00  0.00    -0.648 OA
HETATM   16  O4  UNL     1      -9.848  32.629  29.700  1.00  0.00    -0.648 OA
ENDBRANCH   5  14
TORSDOF 3
ENDMDL
