MODEL 7
REMARK VINA RESULT: -7.135624479      1.752      4.543
REMARK  3 active torsions:
REMARK  status: ('A' for Active; 'I' for Inactive)
REMARK    1  A    between atoms: N1_1  and  C1_5 
REMARK    2  A    between atoms: C1_5  and  C2_6 
REMARK    3  A    between atoms: C6_12  and  C7_13 
ROOT
HETATM    1  C1  UNL     1      -8.491  35.016  29.780  1.00  0.00     0.215 C 
HETATM    2  C3  UNL     1      -9.689  35.446  28.996  1.00  0.00     0.051 C 
HETATM    3  C4  UNL     1      -9.456  34.796  27.657  1.00  0.00     0.009 C 
HETATM    4  C5  UNL     1      -7.972  34.712  27.516  1.00  0.00     0.008 A 
HETATM    5  C6  UNL     1      -7.271  36.023  27.683  1.00  0.00     0.099 A 
HETATM    6  C8  UNL     1      -7.363  35.131  28.825  1.00  0.00     0.052 A 
ENDROOT
BRANCH   1   7
HETATM    7  N1  UNL     1      -8.315  35.804  30.986  1.00  0.00    -0.060 N 
ATOM      8  H13 UNL     1      -8.623  35.311  31.824  1.00  0.00     0.275 HD
ATOM      9  H12 UNL     1      -7.334  35.915  31.242  1.00  0.00     0.275 HD
ATOM     10  H11 UNL     1      -8.792  36.697  30.861  1.00  0.00     0.275 HD
ENDBRANCH   1   7
BRANCH   1  11
HETATM   11  C2  UNL     1      -8.668  33.593  30.168  1.00  0.00     0.210 C 
HETATM   12  O1  UNL     1      -7.653  32.949  30.537  1.00  0.00    -0.646 OA
HETATM   13  O2  UNL     1      -9.908  32.948  30.138  1.00  0.00    -0.646 OA
ENDBRANCH   1  11
BRANCH   5  14
HETATM   14  C7  UNL     1      -5.967  36.118  26.995  1.00  0.00     0.177 C 
HETATM   15  O3  UNL     1      -5.917  35.871  25.763  1.00  0.00    -0.648 OA
HETATM   16  O4  UNL     1      -4.789  36.463  27.634  1.00  0.00    -0.648 OA
ENDBRANCH   5  14
TORSDOF 3
ENDMDL
