MODEL 10
REMARK VINA RESULT: -7.099127434      1.436      1.776
REMARK  3 active torsions:
REMARK  status: ('A' for Active; 'I' for Inactive)
REMARK    1  A    between atoms: N1_1  and  C1_5 
REMARK    2  A    between atoms: C1_5  and  C2_6 
REMARK    3  A    between atoms: C6_12  and  C7_13 
ROOT
HETATM    1  C1  UNL     1      51.293 -26.291   8.376  1.00  0.00     0.215 C 
HETATM    2  C3  UNL     1      51.394 -24.820   8.624  1.00  0.00     0.051 C 
HETATM    3  C4  UNL     1      52.199 -24.756   9.896  1.00  0.00     0.009 C 
HETATM    4  C5  UNL     1      51.873 -26.015  10.628  1.00  0.00     0.008 A 
HETATM    5  C6  UNL     1      50.409 -26.228  10.849  1.00  0.00     0.099 A 
HETATM    6  C8  UNL     1      51.045 -26.876   9.715  1.00  0.00     0.052 A 
ENDROOT
BRANCH   1   7
HETATM    7  N1  UNL     1      50.266 -26.611   7.402  1.00  0.00    -0.060 N 
ATOM      8  H13 UNL     1      49.327 -26.401   7.739  1.00  0.00     0.275 HD
ATOM      9  H12 UNL     1      50.273 -25.977   6.603  1.00  0.00     0.275 HD
ATOM     10  H11 UNL     1      50.373 -27.588   7.128  1.00  0.00     0.275 HD
ENDBRANCH   1   7
BRANCH   1  11
HETATM   11  C2  UNL     1      52.600 -26.772   7.860  1.00  0.00     0.210 C 
HETATM   12  O1  UNL     1      52.696 -27.023   6.631  1.00  0.00    -0.646 OA
HETATM   13  O2  UNL     1      53.717 -26.956   8.680  1.00  0.00    -0.646 OA
ENDBRANCH   1  11
BRANCH   5  14
HETATM   14  C7  UNL     1      50.077 -27.070  12.016  1.00  0.00     0.177 C 
HETATM   15  O3  UNL     1      50.858 -27.069  13.001  1.00  0.00    -0.648 OA
HETATM   16  O4  UNL     1      48.946 -27.865  12.088  1.00  0.00    -0.648 OA
ENDBRANCH   5  14
TORSDOF 3
ENDMDL
