MODEL 11
REMARK VINA RESULT: -7.089943925      1.040      1.385
REMARK  3 active torsions:
REMARK  status: ('A' for Active; 'I' for Inactive)
REMARK    1  A    between atoms: N1_1  and  C1_5 
REMARK    2  A    between atoms: C1_5  and  C2_6 
REMARK    3  A    between atoms: C6_12  and  C7_13 
ROOT
HETATM    1  C1  UNL     1      51.442 -25.224   8.558  1.00  0.00     0.215 C 
HETATM    2  C3  UNL     1      52.587 -25.955   9.185  1.00  0.00     0.051 C 
HETATM    3  C4  UNL     1      52.024 -27.339   9.379  1.00  0.00     0.009 C 
HETATM    4  C5  UNL     1      50.557 -27.143   9.568  1.00  0.00     0.008 A 
HETATM    5  C6  UNL     1      50.209 -26.188  10.667  1.00  0.00     0.099 A 
HETATM    6  C8  UNL     1      50.250 -25.695   9.302  1.00  0.00     0.052 A 
ENDROOT
BRANCH   1   7
HETATM    7  N1  UNL     1      51.624 -23.785   8.602  1.00  0.00    -0.060 N 
ATOM      8  H13 UNL     1      51.211 -23.314   7.797  1.00  0.00     0.275 HD
ATOM      9  H12 UNL     1      51.062 -23.341   9.327  1.00  0.00     0.275 HD
ATOM     10  H11 UNL     1      52.620 -23.587   8.701  1.00  0.00     0.275 HD
ENDBRANCH   1   7
BRANCH   1  11
HETATM   11  C2  UNL     1      51.337 -25.644   7.137  1.00  0.00     0.210 C 
HETATM   12  O1  UNL     1      50.506 -25.050   6.404  1.00  0.00    -0.646 OA
HETATM   13  O2  UNL     1      52.120 -26.664   6.589  1.00  0.00    -0.646 OA
ENDBRANCH   1  11
BRANCH   5  14
HETATM   14  C7  UNL     1      48.879 -26.405  11.274  1.00  0.00     0.177 C 
HETATM   15  O3  UNL     1      48.664 -27.483  11.884  1.00  0.00    -0.648 OA
HETATM   16  O4  UNL     1      47.849 -25.483  11.207  1.00  0.00    -0.648 OA
ENDBRANCH   5  14
TORSDOF 3
ENDMDL
