MODEL 1
REMARK VINA RESULT: -8.764062781      0.000      0.000
REMARK  3 active torsions:
REMARK  status: ('A' for Active; 'I' for Inactive)
REMARK    1  A    between atoms: N1_1  and  C1_5 
REMARK    2  A    between atoms: C1_5  and  C2_6 
REMARK    3  A    between atoms: C6_12  and  C7_13 
ROOT
HETATM    1  C1  UNL     1      51.138 -25.442   7.995  1.00  0.00     0.215 C 
HETATM    2  C3  UNL     1      52.237 -24.948   8.881  1.00  0.00     0.051 C 
HETATM    3  C4  UNL     1      52.361 -26.054   9.896  1.00  0.00     0.009 C 
HETATM    4  C5  UNL     1      50.996 -26.648   9.997  1.00  0.00     0.008 A 
HETATM    5  C6  UNL     1      49.923 -25.655  10.314  1.00  0.00     0.099 A 
HETATM    6  C8  UNL     1      50.144 -26.024   8.927  1.00  0.00     0.052 A 
ENDROOT
BRANCH   1   7
HETATM    7  N1  UNL     1      50.600 -24.389   7.154  1.00  0.00    -0.060 N 
ATOM      8  H13 UNL     1      49.930 -24.739   6.469  1.00  0.00     0.275 HD
ATOM      9  H12 UNL     1      49.970 -23.767   7.660  1.00  0.00     0.275 HD
ATOM     10  H11 UNL     1      51.378 -23.892   6.720  1.00  0.00     0.275 HD
ENDBRANCH   1   7
BRANCH   1  11
HETATM   11  C2  UNL     1      51.683 -26.512   7.121  1.00  0.00     0.210 C 
HETATM   12  O1  UNL     1      51.011 -26.857   6.116  1.00  0.00    -0.646 OA
HETATM   13  O2  UNL     1      52.905 -27.144   7.370  1.00  0.00    -0.646 OA
ENDBRANCH   1  11
BRANCH   5  14
HETATM   14  C7  UNL     1      48.738 -26.221  10.990  1.00  0.00     0.177 C 
HETATM   15  O3  UNL     1      47.636 -25.628  10.871  1.00  0.00    -0.648 OA
HETATM   16  O4  UNL     1      48.772 -27.375  11.753  1.00  0.00    -0.648 OA
ENDBRANCH   5  14
TORSDOF 3
ENDMDL
