MODEL 5
REMARK VINA RESULT: -7.451971220      1.765      4.546
REMARK  3 active torsions:
REMARK  status: ('A' for Active; 'I' for Inactive)
REMARK    1  A    between atoms: N1_1  and  C1_5 
REMARK    2  A    between atoms: C1_5  and  C2_6 
REMARK    3  A    between atoms: C6_12  and  C7_13 
ROOT
HETATM    1  C1  UNL     1      50.772 -26.196  10.998  1.00  0.00     0.215 C 
HETATM    2  C3  UNL     1      50.079 -24.930  10.604  1.00  0.00     0.051 C 
HETATM    3  C4  UNL     1      49.361 -25.328   9.341  1.00  0.00     0.009 C 
HETATM    4  C5  UNL     1      50.200 -26.404   8.736  1.00  0.00     0.008 A 
HETATM    5  C6  UNL     1      51.628 -26.012   8.521  1.00  0.00     0.099 A 
HETATM    6  C8  UNL     1      51.281 -26.752   9.721  1.00  0.00     0.052 A 
ENDROOT
BRANCH   1   7
HETATM    7  N1  UNL     1      51.808 -25.967  11.988  1.00  0.00    -0.060 N 
ATOM      8  H13 UNL     1      52.099 -24.991  12.031  1.00  0.00     0.275 HD
ATOM      9  H12 UNL     1      51.462 -26.052  12.943  1.00  0.00     0.275 HD
ATOM     10  H11 UNL     1      52.585 -26.599  11.794  1.00  0.00     0.275 HD
ENDBRANCH   1   7
BRANCH   1  11
HETATM   11  C2  UNL     1      49.765 -27.123  11.574  1.00  0.00     0.210 C 
HETATM   12  O1  UNL     1      50.035 -28.351  11.598  1.00  0.00    -0.646 OA
HETATM   13  O2  UNL     1      48.539 -26.687  12.087  1.00  0.00    -0.646 OA
ENDBRANCH   1  11
BRANCH   5  14
HETATM   14  C7  UNL     1      52.315 -26.748   7.441  1.00  0.00     0.177 C 
HETATM   15  O3  UNL     1      51.835 -26.701   6.280  1.00  0.00    -0.648 OA
HETATM   16  O4  UNL     1      53.464 -27.494   7.635  1.00  0.00    -0.648 OA
ENDBRANCH   5  14
TORSDOF 3
ENDMDL
