MODEL 18
REMARK VINA RESULT: -6.240907553      1.722      4.473
REMARK  3 active torsions:
REMARK  status: ('A' for Active; 'I' for Inactive)
REMARK    1  A    between atoms: N1_1  and  C1_5 
REMARK    2  A    between atoms: C1_5  and  C2_6 
REMARK    3  A    between atoms: C6_12  and  C7_13 
ROOT
HETATM    1  C1  UNL     1      50.104 -25.368  10.388  1.00  0.00     0.215 C 
HETATM    2  C3  UNL     1      49.278 -25.525   9.152  1.00  0.00     0.051 C 
HETATM    3  C4  UNL     1      49.597 -26.933   8.721  1.00  0.00     0.009 C 
HETATM    4  C5  UNL     1      50.988 -27.183   9.202  1.00  0.00     0.008 A 
HETATM    5  C6  UNL     1      51.984 -26.168   8.737  1.00  0.00     0.099 A 
HETATM    6  C8  UNL     1      51.395 -26.015  10.055  1.00  0.00     0.052 A 
ENDROOT
BRANCH   1   7
HETATM    7  N1  UNL     1      50.234 -23.978  10.784  1.00  0.00    -0.060 N 
ATOM      8  H13 UNL     1      50.872 -23.457  10.182  1.00  0.00     0.275 HD
ATOM      9  H12 UNL     1      49.391 -23.436  10.597  1.00  0.00     0.275 HD
ATOM     10  H11 UNL     1      50.511 -23.946  11.766  1.00  0.00     0.275 HD
ENDBRANCH   1   7
BRANCH   1  11
HETATM   11  C2  UNL     1      49.446 -26.113  11.492  1.00  0.00     0.210 C 
HETATM   12  O1  UNL     1      48.197 -26.025  11.604  1.00  0.00    -0.646 OA
HETATM   13  O2  UNL     1      50.156 -26.903  12.401  1.00  0.00    -0.646 OA
ENDBRANCH   1  11
BRANCH   5  14
HETATM   14  C7  UNL     1      53.375 -26.657   8.664  1.00  0.00     0.177 C 
HETATM   15  O3  UNL     1      54.221 -26.191   9.469  1.00  0.00    -0.648 OA
HETATM   16  O4  UNL     1      53.805 -27.606   7.752  1.00  0.00    -0.648 OA
ENDBRANCH   5  14
TORSDOF 3
ENDMDL
