MODEL 13
REMARK VINA RESULT: -6.720261273      1.922      4.452
REMARK  3 active torsions:
REMARK  status: ('A' for Active; 'I' for Inactive)
REMARK    1  A    between atoms: N1_1  and  C1_5 
REMARK    2  A    between atoms: C1_5  and  C2_6 
REMARK    3  A    between atoms: C6_12  and  C7_13 
ROOT
HETATM    1  C1  UNL     1      50.627 -26.259  10.882  1.00  0.00     0.215 C 
HETATM    2  C3  UNL     1      51.207 -24.889  11.033  1.00  0.00     0.051 C 
HETATM    3  C4  UNL     1      51.056 -24.314   9.649  1.00  0.00     0.009 C 
HETATM    4  C5  UNL     1      51.128 -25.487   8.728  1.00  0.00     0.008 A 
HETATM    5  C6  UNL     1      52.355 -26.324   8.905  1.00  0.00     0.099 A 
HETATM    6  C8  UNL     1      51.131 -26.732   9.571  1.00  0.00     0.052 A 
ENDROOT
BRANCH   1   7
HETATM    7  N1  UNL     1      50.982 -27.127  11.989  1.00  0.00    -0.060 N 
ATOM      8  H13 UNL     1      51.728 -26.741  12.567  1.00  0.00     0.275 HD
ATOM      9  H12 UNL     1      50.257 -27.164  12.706  1.00  0.00     0.275 HD
ATOM     10  H11 UNL     1      51.212 -28.049  11.617  1.00  0.00     0.275 HD
ENDBRANCH   1   7
BRANCH   1  11
HETATM   11  C2  UNL     1      49.148 -26.141  10.830  1.00  0.00     0.210 C 
HETATM   12  O1  UNL     1      48.510 -26.979  10.144  1.00  0.00    -0.646 OA
HETATM   13  O2  UNL     1      48.443 -25.142  11.509  1.00  0.00    -0.646 OA
ENDBRANCH   1  11
BRANCH   5  14
HETATM   14  C7  UNL     1      52.764 -27.081   7.704  1.00  0.00     0.177 C 
HETATM   15  O3  UNL     1      52.126 -26.904   6.635  1.00  0.00    -0.648 OA
HETATM   16  O4  UNL     1      53.815 -27.981   7.689  1.00  0.00    -0.648 OA
ENDBRANCH   5  14
TORSDOF 3
ENDMDL
