MODEL 8
REMARK VINA RESULT: -7.185050798      1.484      1.840
REMARK  3 active torsions:
REMARK  status: ('A' for Active; 'I' for Inactive)
REMARK    1  A    between atoms: N1_1  and  C1_5 
REMARK    2  A    between atoms: C1_5  and  C2_6 
REMARK    3  A    between atoms: C6_12  and  C7_13 
ROOT
HETATM    1  C1  UNL     1      50.677 -25.438   8.451  1.00  0.00     0.215 C 
HETATM    2  C3  UNL     1      51.642 -24.372   8.861  1.00  0.00     0.051 C 
HETATM    3  C4  UNL     1      52.733 -25.160   9.538  1.00  0.00     0.009 C 
HETATM    4  C5  UNL     1      52.054 -26.361  10.106  1.00  0.00     0.008 A 
HETATM    5  C6  UNL     1      50.897 -26.040  10.999  1.00  0.00     0.099 A 
HETATM    6  C8  UNL     1      50.635 -26.364   9.608  1.00  0.00     0.052 A 
ENDROOT
BRANCH   1   7
HETATM    7  N1  UNL     1      49.380 -24.893   8.095  1.00  0.00    -0.060 N 
ATOM      8  H13 UNL     1      48.775 -25.582   7.648  1.00  0.00     0.275 HD
ATOM      9  H12 UNL     1      48.797 -24.705   8.910  1.00  0.00     0.275 HD
ATOM     10  H11 UNL     1      49.524 -24.066   7.516  1.00  0.00     0.275 HD
ENDBRANCH   1   7
BRANCH   1  11
HETATM   11  C2  UNL     1      51.232 -26.147   7.270  1.00  0.00     0.210 C 
HETATM   12  O1  UNL     1      51.724 -27.291   7.442  1.00  0.00    -0.646 OA
HETATM   13  O2  UNL     1      51.228 -25.596   5.985  1.00  0.00    -0.646 OA
ENDBRANCH   1  11
BRANCH   5  14
HETATM   14  C7  UNL     1      50.592 -27.073  12.009  1.00  0.00     0.177 C 
HETATM   15  O3  UNL     1      51.060 -26.939  13.169  1.00  0.00    -0.648 OA
HETATM   16  O4  UNL     1      49.815 -28.189  11.751  1.00  0.00    -0.648 OA
ENDBRANCH   5  14
TORSDOF 3
ENDMDL
