MODEL 7
REMARK VINA RESULT: -7.303209733      1.279      1.539
REMARK  3 active torsions:
REMARK  status: ('A' for Active; 'I' for Inactive)
REMARK    1  A    between atoms: N1_1  and  C1_5 
REMARK    2  A    between atoms: C1_5  and  C2_6 
REMARK    3  A    between atoms: C6_12  and  C7_13 
ROOT
HETATM    1  C1  UNL     1      51.379 -26.292   7.923  1.00  0.00     0.215 C 
HETATM    2  C3  UNL     1      51.371 -24.805   7.765  1.00  0.00     0.051 C 
HETATM    3  C4  UNL     1      51.579 -24.324   9.178  1.00  0.00     0.009 C 
HETATM    4  C5  UNL     1      50.978 -25.381  10.043  1.00  0.00     0.008 A 
HETATM    5  C6  UNL     1      49.552 -25.697   9.715  1.00  0.00     0.099 A 
HETATM    6  C8  UNL     1      50.599 -26.537   9.159  1.00  0.00     0.052 A 
ENDROOT
BRANCH   1   7
HETATM    7  N1  UNL     1      50.845 -26.968   6.755  1.00  0.00    -0.060 N 
ATOM      8  H13 UNL     1      51.193 -26.573   5.881  1.00  0.00     0.275 HD
ATOM      9  H12 UNL     1      51.221 -27.909   6.641  1.00  0.00     0.275 HD
ATOM     10  H11 UNL     1      49.827 -26.956   6.811  1.00  0.00     0.275 HD
ENDBRANCH   1   7
BRANCH   1  11
HETATM   11  C2  UNL     1      52.781 -26.737   8.126  1.00  0.00     0.210 C 
HETATM   12  O1  UNL     1      53.298 -27.484   7.256  1.00  0.00    -0.646 OA
HETATM   13  O2  UNL     1      53.542 -26.360   9.237  1.00  0.00    -0.646 OA
ENDBRANCH   1  11
BRANCH   5  14
HETATM   14  C7  UNL     1      48.766 -26.242  10.840  1.00  0.00     0.177 C 
HETATM   15  O3  UNL     1      47.944 -25.490  11.421  1.00  0.00    -0.648 OA
HETATM   16  O4  UNL     1      48.885 -27.544  11.296  1.00  0.00    -0.648 OA
ENDBRANCH   5  14
TORSDOF 3
ENDMDL
