MODEL 14
REMARK VINA RESULT: -6.559133669      2.755      3.704
REMARK  3 active torsions:
REMARK  status: ('A' for Active; 'I' for Inactive)
REMARK    1  A    between atoms: N1_1  and  C1_5 
REMARK    2  A    between atoms: C1_5  and  C2_6 
REMARK    3  A    between atoms: C8_14  and  C9_15 
ROOT
HETATM    1  C1  UNL     1     -27.469  30.408 -27.601  1.00  0.00     0.215 C 
HETATM    2  C3  UNL     1     -26.965  29.936 -26.249  1.00  0.00     0.060 C 
HETATM    3  C4  UNL     1     -27.702  30.852 -25.310  1.00  0.00    -0.033 A 
HETATM    4  C5  UNL     1     -27.149  32.110 -24.819  1.00  0.00     0.011 A 
HETATM    5  C6  UNL     1     -27.396  30.944 -23.890  1.00  0.00     0.011 A 
HETATM    6  C7  UNL     1     -29.098  30.824 -25.849  1.00  0.00     0.017 A 
HETATM    7  C8  UNL     1     -29.443  31.912 -26.801  1.00  0.00     0.099 A 
HETATM    8  C10 UNL     1     -28.930  30.649 -27.361  1.00  0.00     0.053 A 
ENDROOT
BRANCH   1   9
HETATM    9  N1  UNL     1     -26.744  31.561 -28.022  1.00  0.00    -0.060 N 
ATOM     10  H13 UNL     1     -25.914  31.722 -27.452  1.00  0.00     0.275 HD
ATOM     11  H12 UNL     1     -26.280  31.416 -28.920  1.00  0.00     0.275 HD
ATOM     12  H11 UNL     1     -27.365  32.370 -28.036  1.00  0.00     0.275 HD
ENDBRANCH   1   9
BRANCH   1  13
HETATM   13  C2  UNL     1     -27.308  29.329 -28.597  1.00  0.00     0.210 C 
HETATM   14  O1  UNL     1     -27.661  28.143 -28.382  1.00  0.00    -0.646 OA
HETATM   15  O2  UNL     1     -26.746  29.621 -29.827  1.00  0.00    -0.646 OA
ENDBRANCH   1  13
BRANCH   7  16
HETATM   16  C9  UNL     1     -30.897  32.146 -26.966  1.00  0.00     0.177 C 
HETATM   17  O3  UNL     1     -31.290  33.048 -27.743  1.00  0.00    -0.648 OA
HETATM   18  O4  UNL     1     -31.845  31.402 -26.290  1.00  0.00    -0.648 OA
ENDBRANCH   7  16
TORSDOF 3
ENDMDL
