MODEL 3
REMARK VINA RESULT: -8.053938998      2.556      4.101
REMARK  3 active torsions:
REMARK  status: ('A' for Active; 'I' for Inactive)
REMARK    1  A    between atoms: N1_1  and  C1_5 
REMARK    2  A    between atoms: C1_5  and  C2_6 
REMARK    3  A    between atoms: C8_14  and  C9_15 
ROOT
HETATM    1  C1  UNL     1     -28.196  31.191 -25.196  1.00  0.00     0.215 C 
HETATM    2  C3  UNL     1     -29.166  31.780 -26.203  1.00  0.00     0.060 C 
HETATM    3  C4  UNL     1     -28.381  31.679 -27.481  1.00  0.00    -0.033 A 
HETATM    4  C5  UNL     1     -27.548  32.760 -27.999  1.00  0.00     0.011 A 
HETATM    5  C6  UNL     1     -28.799  32.317 -28.721  1.00  0.00     0.011 A 
HETATM    6  C7  UNL     1     -27.827  30.290 -27.420  1.00  0.00     0.017 A 
HETATM    7  C8  UNL     1     -26.460  30.167 -26.849  1.00  0.00     0.099 A 
HETATM    8  C10 UNL     1     -27.602  30.025 -25.928  1.00  0.00     0.053 A 
ENDROOT
BRANCH   1   9
HETATM    9  N1  UNL     1     -27.249  32.176 -24.789  1.00  0.00    -0.060 N 
ATOM     10  H13 UNL     1     -27.178  32.245 -23.774  1.00  0.00     0.275 HD
ATOM     11  H12 UNL     1     -26.289  31.891 -24.985  1.00  0.00     0.275 HD
ATOM     12  H11 UNL     1     -27.480  33.071 -25.220  1.00  0.00     0.275 HD
ENDBRANCH   1   9
BRANCH   1  13
HETATM   13  C2  UNL     1     -28.939  30.701 -24.016  1.00  0.00     0.210 C 
HETATM   14  O1  UNL     1     -29.470  29.564 -23.968  1.00  0.00    -0.646 OA
HETATM   15  O2  UNL     1     -29.064  31.518 -22.907  1.00  0.00    -0.646 OA
ENDBRANCH   1  13
BRANCH   7  16
HETATM   16  C9  UNL     1     -25.757  28.911 -27.202  1.00  0.00     0.177 C 
HETATM   17  O3  UNL     1     -24.531  28.804 -26.963  1.00  0.00    -0.648 OA
HETATM   18  O4  UNL     1     -26.407  27.843 -27.790  1.00  0.00    -0.648 OA
ENDBRANCH   7  16
TORSDOF 3
ENDMDL
