MODEL 8
REMARK VINA RESULT: -7.080827781      2.704      3.737
REMARK  3 active torsions:
REMARK  status: ('A' for Active; 'I' for Inactive)
REMARK    1  A    between atoms: N1_1  and  C1_5 
REMARK    2  A    between atoms: C1_5  and  C2_6 
REMARK    3  A    between atoms: C8_14  and  C9_15 
ROOT
HETATM    1  C1  UNL     1     -27.599  31.457 -25.508  1.00  0.00     0.215 C 
HETATM    2  C3  UNL     1     -28.883  32.126 -25.963  1.00  0.00     0.060 C 
HETATM    3  C4  UNL     1     -28.939  31.730 -27.413  1.00  0.00    -0.033 A 
HETATM    4  C5  UNL     1     -28.400  32.553 -28.491  1.00  0.00     0.011 A 
HETATM    5  C6  UNL     1     -29.885  32.307 -28.356  1.00  0.00     0.011 A 
HETATM    6  C7  UNL     1     -28.611  30.270 -27.370  1.00  0.00     0.017 A 
HETATM    7  C8  UNL     1     -27.180  29.925 -27.576  1.00  0.00     0.099 A 
HETATM    8  C10 UNL     1     -27.643  30.122 -26.191  1.00  0.00     0.053 A 
ENDROOT
BRANCH   1   9
HETATM    9  N1  UNL     1     -26.474  32.260 -25.857  1.00  0.00    -0.060 N 
ATOM     10  H13 UNL     1     -25.958  32.576 -25.037  1.00  0.00     0.275 HD
ATOM     11  H12 UNL     1     -25.732  31.713 -26.296  1.00  0.00     0.275 HD
ATOM     12  H11 UNL     1     -26.777  33.037 -26.444  1.00  0.00     0.275 HD
ENDBRANCH   1   9
BRANCH   1  13
HETATM   13  C2  UNL     1     -27.631  31.259 -24.044  1.00  0.00     0.210 C 
HETATM   14  O1  UNL     1     -26.594  31.231 -23.336  1.00  0.00    -0.646 OA
HETATM   15  O2  UNL     1     -28.849  31.094 -23.410  1.00  0.00    -0.646 OA
ENDBRANCH   1  13
BRANCH   7  16
HETATM   16  C9  UNL     1     -26.939  28.520 -27.981  1.00  0.00     0.177 C 
HETATM   17  O3  UNL     1     -26.704  27.659 -27.101  1.00  0.00    -0.648 OA
HETATM   18  O4  UNL     1     -26.963  28.120 -29.303  1.00  0.00    -0.648 OA
ENDBRANCH   7  16
TORSDOF 3
ENDMDL
