MODEL 7
REMARK VINA RESULT: -7.231599879      2.958      4.315
REMARK  3 active torsions:
REMARK  status: ('A' for Active; 'I' for Inactive)
REMARK    1  A    between atoms: N1_1  and  C1_5 
REMARK    2  A    between atoms: C1_5  and  C2_6 
REMARK    3  A    between atoms: C8_14  and  C9_15 
ROOT
HETATM    1  C1  UNL     1     -26.963  31.411 -27.614  1.00  0.00     0.215 C 
HETATM    2  C3  UNL     1     -26.765  30.002 -28.141  1.00  0.00     0.060 C 
HETATM    3  C4  UNL     1     -26.996  29.177 -26.905  1.00  0.00    -0.033 A 
HETATM    4  C5  UNL     1     -25.922  28.747 -26.015  1.00  0.00     0.011 A 
HETATM    5  C6  UNL     1     -26.707  27.752 -26.837  1.00  0.00     0.011 A 
HETATM    6  C7  UNL     1     -28.231  29.792 -26.323  1.00  0.00     0.017 A 
HETATM    7  C8  UNL     1     -28.004  30.840 -25.293  1.00  0.00     0.099 A 
HETATM    8  C10 UNL     1     -28.140  31.275 -26.695  1.00  0.00     0.053 A 
ENDROOT
BRANCH   1   9
HETATM    9  N1  UNL     1     -25.772  31.874 -26.982  1.00  0.00    -0.060 N 
ATOM     10  H13 UNL     1     -25.025  32.051 -27.652  1.00  0.00     0.275 HD
ATOM     11  H12 UNL     1     -25.872  32.822 -26.619  1.00  0.00     0.275 HD
ATOM     12  H11 UNL     1     -25.490  31.212 -26.258  1.00  0.00     0.275 HD
ENDBRANCH   1   9
BRANCH   1  13
HETATM   13  C2  UNL     1     -27.315  32.315 -28.729  1.00  0.00     0.210 C 
HETATM   14  O1  UNL     1     -26.799  32.224 -29.871  1.00  0.00    -0.646 OA
HETATM   15  O2  UNL     1     -28.252  33.311 -28.523  1.00  0.00    -0.646 OA
ENDBRANCH   1  13
BRANCH   7  16
HETATM   16  C9  UNL     1     -29.172  31.105 -24.421  1.00  0.00     0.177 C 
HETATM   17  O3  UNL     1     -29.026  31.085 -23.175  1.00  0.00    -0.648 OA
HETATM   18  O4  UNL     1     -30.427  31.376 -24.931  1.00  0.00    -0.648 OA
ENDBRANCH   7  16
TORSDOF 3
ENDMDL
