MODEL 13
REMARK VINA RESULT: -6.563096942      3.335      4.567
REMARK  3 active torsions:
REMARK  status: ('A' for Active; 'I' for Inactive)
REMARK    1  A    between atoms: N1_1  and  C1_5 
REMARK    2  A    between atoms: C1_5  and  C2_6 
REMARK    3  A    between atoms: C8_14  and  C9_15 
ROOT
HETATM    1  C1  UNL     1     -27.022  30.750 -28.916  1.00  0.00     0.215 C 
HETATM    2  C3  UNL     1     -26.533  29.401 -28.424  1.00  0.00     0.060 C 
HETATM    3  C4  UNL     1     -26.991  29.411 -26.991  1.00  0.00    -0.033 A 
HETATM    4  C5  UNL     1     -26.151  29.860 -25.885  1.00  0.00     0.011 A 
HETATM    5  C6  UNL     1     -26.570  28.414 -26.018  1.00  0.00     0.011 A 
HETATM    6  C7  UNL     1     -28.397  29.913 -27.098  1.00  0.00     0.017 A 
HETATM    7  C8  UNL     1     -28.573  31.378 -26.917  1.00  0.00     0.099 A 
HETATM    8  C10 UNL     1     -28.378  30.877 -28.289  1.00  0.00     0.053 A 
ENDROOT
BRANCH   1   9
HETATM    9  N1  UNL     1     -26.103  31.774 -28.543  1.00  0.00    -0.060 N 
ATOM     10  H13 UNL     1     -25.238  31.729 -29.082  1.00  0.00     0.275 HD
ATOM     11  H12 UNL     1     -26.415  32.698 -28.841  1.00  0.00     0.275 HD
ATOM     12  H11 UNL     1     -25.932  31.731 -27.538  1.00  0.00     0.275 HD
ENDBRANCH   1   9
BRANCH   1  13
HETATM   13  C2  UNL     1     -27.164  30.723 -30.387  1.00  0.00     0.210 C 
HETATM   14  O1  UNL     1     -27.950  31.478 -31.010  1.00  0.00    -0.646 OA
HETATM   15  O2  UNL     1     -26.404  29.833 -31.124  1.00  0.00    -0.646 OA
ENDBRANCH   1  13
BRANCH   7  16
HETATM   16  C9  UNL     1     -29.953  31.793 -26.572  1.00  0.00     0.177 C 
HETATM   17  O3  UNL     1     -30.592  32.523 -27.366  1.00  0.00    -0.648 OA
HETATM   18  O4  UNL     1     -30.569  31.402 -25.399  1.00  0.00    -0.648 OA
ENDBRANCH   7  16
TORSDOF 3
ENDMDL
