MODEL 2
REMARK VINA RESULT: -10.631902972      0.098      1.016
REMARK  2 active torsions:
REMARK  status: ('A' for Active; 'I' for Inactive)
REMARK    1  A    between atoms: N1_4  and  C4_5 
REMARK    2  A    between atoms: C7_8  and  C8_9 
ROOT
HETATM    1  C1  UNL     1       7.497 -10.192 -24.109  1.00  0.00     0.050 C 
HETATM    2  C2  UNL     1       6.242 -11.007 -24.206  1.00  0.00    -0.030 A 
HETATM    3  C3  UNL     1       4.946 -10.554 -24.123  1.00  0.00     0.105 A 
HETATM    4  N1  UNL     1       4.078 -11.565 -24.252  1.00  0.00    -0.325 N 
HETATM    5  C11 UNL     1       4.811 -12.673 -24.419  1.00  0.00     0.031 A 
HETATM    6  C12 UNL     1       6.156 -12.369 -24.396  1.00  0.00     0.040 A 
HETATM    7  C13 UNL     1       7.149 -13.423 -24.559  1.00  0.00     0.162 C 
HETATM    8  O2  UNL     1       8.358 -13.181 -24.322  1.00  0.00    -0.292 OA
HETATM    9  C14 UNL     1       6.765 -14.798 -25.004  1.00  0.00     0.093 C 
HETATM   10  C15 UNL     1       5.402 -14.655 -25.670  1.00  0.00    -0.036 C 
HETATM   11  C16 UNL     1       4.874 -16.002 -26.117  1.00  0.00     0.015 C 
HETATM   12  C17 UNL     1       5.492 -13.736 -26.848  1.00  0.00     0.015 C 
HETATM   13  C18 UNL     1       4.461 -14.112 -24.616  1.00  0.00     0.067 C 
ENDROOT
BRANCH   4  14
HETATM   14  C4  UNL     1       2.656 -11.564 -24.231  1.00  0.00     0.038 A 
HETATM   15  C5  UNL     1       2.004 -12.491 -23.435  1.00  0.00     0.031 A 
HETATM   16  C6  UNL     1       0.613 -12.502 -23.404  1.00  0.00     0.019 A 
HETATM   17  C7  UNL     1      -0.149 -11.622 -24.139  1.00  0.00     0.029 A 
HETATM   18  C9  UNL     1       0.533 -10.706 -24.926  1.00  0.00     0.019 A 
HETATM   19  C10 UNL     1       1.907 -10.668 -24.980  1.00  0.00     0.031 A 
BRANCH  17  20
HETATM   20  C8  UNL     1      -1.603 -11.658 -24.086  1.00  0.00     0.264 C 
HETATM   21  N2  UNL     1      -2.231 -12.128 -22.906  1.00  0.00    -0.057 NA
HETATM   22  O1  UNL     1      -2.242 -11.269 -25.087  1.00  0.00    -0.271 OA
ENDBRANCH  17  20
ENDBRANCH   4  14
TORSDOF 2
ENDMDL
