MODEL 1
REMARK VINA RESULT: -10.701540103      0.000      0.000
REMARK  2 active torsions:
REMARK  status: ('A' for Active; 'I' for Inactive)
REMARK    1  A    between atoms: N1_4  and  C4_5 
REMARK    2  A    between atoms: C7_8  and  C8_9 
ROOT
HETATM    1  C1  UNL     1       7.478 -10.079 -24.120  1.00  0.00     0.050 C 
HETATM    2  C2  UNL     1       6.249 -10.936 -24.195  1.00  0.00    -0.030 A 
HETATM    3  C3  UNL     1       4.941 -10.528 -24.085  1.00  0.00     0.105 A 
HETATM    4  N1  UNL     1       4.105 -11.567 -24.202  1.00  0.00    -0.325 N 
HETATM    5  C11 UNL     1       4.872 -12.649 -24.388  1.00  0.00     0.031 A 
HETATM    6  C12 UNL     1       6.206 -12.300 -24.390  1.00  0.00     0.040 A 
HETATM    7  C13 UNL     1       7.231 -13.319 -24.577  1.00  0.00     0.162 C 
HETATM    8  O2  UNL     1       8.435 -13.037 -24.362  1.00  0.00    -0.292 OA
HETATM    9  C14 UNL     1       6.885 -14.705 -25.020  1.00  0.00     0.093 C 
HETATM   10  C15 UNL     1       5.505 -14.606 -25.658  1.00  0.00    -0.036 C 
HETATM   11  C16 UNL     1       5.014 -15.968 -26.101  1.00  0.00     0.015 C 
HETATM   12  C17 UNL     1       5.541 -13.680 -26.834  1.00  0.00     0.015 C 
HETATM   13  C18 UNL     1       4.567 -14.099 -24.584  1.00  0.00     0.067 C 
ENDROOT
BRANCH   4  14
HETATM   14  C4  UNL     1       2.685 -11.615 -24.153  1.00  0.00     0.038 A 
HETATM   15  C5  UNL     1       1.966 -10.676 -24.873  1.00  0.00     0.031 A 
HETATM   16  C6  UNL     1       0.575 -10.709 -24.835  1.00  0.00     0.019 A 
HETATM   17  C7  UNL     1      -0.122 -11.646 -24.105  1.00  0.00     0.029 A 
HETATM   18  C9  UNL     1       0.628 -12.573 -23.395  1.00  0.00     0.019 A 
HETATM   19  C10 UNL     1       2.003 -12.567 -23.410  1.00  0.00     0.031 A 
BRANCH  17  20
HETATM   20  C8  UNL     1      -1.577 -11.656 -24.085  1.00  0.00     0.264 C 
HETATM   21  N2  UNL     1      -2.241 -12.126 -22.925  1.00  0.00    -0.057 NA
HETATM   22  O1  UNL     1      -2.185 -11.248 -25.098  1.00  0.00    -0.271 OA
ENDBRANCH  17  20
ENDBRANCH   4  14
TORSDOF 2
ENDMDL
