MODEL 10
REMARK VINA RESULT: -8.668255592      2.855      6.503
REMARK  2 active torsions:
REMARK  status: ('A' for Active; 'I' for Inactive)
REMARK    1  A    between atoms: N1_4  and  C4_5 
REMARK    2  A    between atoms: C7_8  and  C8_9 
ROOT
HETATM    1  C1  UNL     1       3.254  -6.406 -22.399  1.00  0.00     0.050 C 
HETATM    2  C2  UNL     1       3.290  -7.632 -23.261  1.00  0.00    -0.030 A 
HETATM    3  C3  UNL     1       4.078  -8.746 -23.093  1.00  0.00     0.105 A 
HETATM    4  N1  UNL     1       3.844  -9.647 -24.055  1.00  0.00    -0.325 N 
HETATM    5  C11 UNL     1       2.904  -9.117 -24.847  1.00  0.00     0.031 A 
HETATM    6  C12 UNL     1       2.534  -7.869 -24.389  1.00  0.00     0.040 A 
HETATM    7  C13 UNL     1       1.520  -7.099 -25.096  1.00  0.00     0.162 C 
HETATM    8  O2  UNL     1       1.344  -5.890 -24.809  1.00  0.00    -0.292 OA
HETATM    9  C14 UNL     1       0.674  -7.714 -26.166  1.00  0.00     0.093 C 
HETATM   10  C15 UNL     1       0.753  -9.220 -25.944  1.00  0.00    -0.036 C 
HETATM   11  C16 UNL     1      -0.025  -9.965 -27.009  1.00  0.00     0.015 C 
HETATM   12  C17 UNL     1       0.216  -9.575 -24.593  1.00  0.00     0.015 C 
HETATM   13  C18 UNL     1       2.211  -9.601 -26.080  1.00  0.00     0.067 C 
ENDROOT
BRANCH   4  14
HETATM   14  C4  UNL     1       4.422 -10.928 -24.276  1.00  0.00     0.038 A 
HETATM   15  C5  UNL     1       3.584 -12.027 -24.358  1.00  0.00     0.031 A 
HETATM   16  C6  UNL     1       4.134 -13.287 -24.574  1.00  0.00     0.019 A 
HETATM   17  C7  UNL     1       5.489 -13.487 -24.709  1.00  0.00     0.029 A 
HETATM   18  C9  UNL     1       6.302 -12.366 -24.622  1.00  0.00     0.019 A 
HETATM   19  C10 UNL     1       5.791 -11.107 -24.409  1.00  0.00     0.031 A 
BRANCH  17  20
HETATM   20  C8  UNL     1       6.035 -14.817 -24.935  1.00  0.00     0.264 C 
HETATM   21  N2  UNL     1       7.417 -15.035 -24.712  1.00  0.00    -0.057 NA
HETATM   22  O1  UNL     1       5.259 -15.719 -25.318  1.00  0.00    -0.271 OA
ENDBRANCH  17  20
ENDBRANCH   4  14
TORSDOF 2
ENDMDL
