MODEL 8
REMARK VINA RESULT: -8.825661899      2.848      6.485
REMARK  2 active torsions:
REMARK  status: ('A' for Active; 'I' for Inactive)
REMARK    1  A    between atoms: N1_4  and  C4_5 
REMARK    2  A    between atoms: C7_8  and  C8_9 
ROOT
HETATM    1  C1  UNL     1       3.418  -6.424 -22.415  1.00  0.00     0.050 C 
HETATM    2  C2  UNL     1       3.407  -7.658 -23.267  1.00  0.00    -0.030 A 
HETATM    3  C3  UNL     1       4.167  -8.792 -23.101  1.00  0.00     0.105 A 
HETATM    4  N1  UNL     1       3.893  -9.694 -24.052  1.00  0.00    -0.325 N 
HETATM    5  C11 UNL     1       2.955  -9.145 -24.834  1.00  0.00     0.031 A 
HETATM    6  C12 UNL     1       2.627  -7.884 -24.381  1.00  0.00     0.040 A 
HETATM    7  C13 UNL     1       1.623  -7.091 -25.079  1.00  0.00     0.162 C 
HETATM    8  O2  UNL     1       1.486  -5.875 -24.799  1.00  0.00    -0.292 OA
HETATM    9  C14 UNL     1       0.744  -7.691 -26.129  1.00  0.00     0.093 C 
HETATM   10  C15 UNL     1       0.785  -9.197 -25.897  1.00  0.00    -0.036 C 
HETATM   11  C16 UNL     1      -0.030  -9.928 -26.943  1.00  0.00     0.015 C 
HETATM   12  C17 UNL     1       0.260  -9.526 -24.534  1.00  0.00     0.015 C 
HETATM   13  C18 UNL     1       2.229  -9.619 -26.051  1.00  0.00     0.067 C 
ENDROOT
BRANCH   4  14
HETATM   14  C4  UNL     1       4.431 -10.992 -24.271  1.00  0.00     0.038 A 
HETATM   15  C5  UNL     1       5.802 -11.126 -24.409  1.00  0.00     0.031 A 
HETATM   16  C6  UNL     1       6.344 -12.390 -24.623  1.00  0.00     0.019 A 
HETATM   17  C7  UNL     1       5.565 -13.523 -24.705  1.00  0.00     0.029 A 
HETATM   18  C9  UNL     1       4.195 -13.355 -24.563  1.00  0.00     0.019 A 
HETATM   19  C10 UNL     1       3.628 -12.120 -24.350  1.00  0.00     0.031 A 
BRANCH  17  20
HETATM   20  C8  UNL     1       6.161 -14.832 -24.929  1.00  0.00     0.264 C 
HETATM   21  N2  UNL     1       7.546 -15.001 -24.690  1.00  0.00    -0.057 NA
HETATM   22  O1  UNL     1       5.421 -15.759 -25.325  1.00  0.00    -0.271 OA
ENDBRANCH  17  20
ENDBRANCH   4  14
TORSDOF 2
ENDMDL
