MODEL 12
REMARK VINA RESULT: -8.251308191      2.846      6.780
REMARK  2 active torsions:
REMARK  status: ('A' for Active; 'I' for Inactive)
REMARK    1  A    between atoms: N1_4  and  C4_5 
REMARK    2  A    between atoms: C7_8  and  C8_9 
ROOT
HETATM    1  C1  UNL     1       2.671  -6.004 -22.286  1.00  0.00     0.050 C 
HETATM    2  C2  UNL     1       2.893  -7.209 -23.151  1.00  0.00    -0.030 A 
HETATM    3  C3  UNL     1       3.790  -8.229 -22.945  1.00  0.00     0.105 A 
HETATM    4  N1  UNL     1       3.713  -9.140 -23.923  1.00  0.00    -0.325 N 
HETATM    5  C11 UNL     1       2.763  -8.710 -24.764  1.00  0.00     0.031 A 
HETATM    6  C12 UNL     1       2.231  -7.516 -24.321  1.00  0.00     0.040 A 
HETATM    7  C13 UNL     1       1.177  -6.856 -25.079  1.00  0.00     0.162 C 
HETATM    8  O2  UNL     1       0.851  -5.678 -24.796  1.00  0.00    -0.292 OA
HETATM    9  C14 UNL     1       0.465  -7.550 -26.198  1.00  0.00     0.093 C 
HETATM   10  C15 UNL     1       0.701  -9.040 -25.980  1.00  0.00    -0.036 C 
HETATM   11  C16 UNL     1       0.072  -9.855 -27.091  1.00  0.00     0.015 C 
HETATM   12  C17 UNL     1       0.135  -9.469 -24.662  1.00  0.00     0.015 C 
HETATM   13  C18 UNL     1       2.198  -9.254 -26.036  1.00  0.00     0.067 C 
ENDROOT
BRANCH   4  14
HETATM   14  C4  UNL     1       4.442 -10.345 -24.118  1.00  0.00     0.038 A 
HETATM   15  C5  UNL     1       5.792 -10.359 -23.813  1.00  0.00     0.031 A 
HETATM   16  C6  UNL     1       6.519 -11.531 -23.998  1.00  0.00     0.019 A 
HETATM   17  C7  UNL     1       5.946 -12.688 -24.477  1.00  0.00     0.029 A 
HETATM   18  C9  UNL     1       4.591 -12.641 -24.773  1.00  0.00     0.019 A 
HETATM   19  C10 UNL     1       3.844 -11.499 -24.602  1.00  0.00     0.031 A 
BRANCH  17  20
HETATM   20  C8  UNL     1       6.732 -13.899 -24.659  1.00  0.00     0.264 C 
HETATM   21  N2  UNL     1       6.057 -15.120 -24.907  1.00  0.00    -0.057 NA
HETATM   22  O1  UNL     1       7.977 -13.812 -24.591  1.00  0.00    -0.271 OA
ENDBRANCH  17  20
ENDBRANCH   4  14
TORSDOF 2
ENDMDL
