MODEL 1
REMARK VINA RESULT: -10.643074309      0.000      0.000
REMARK  1 active torsions:
REMARK  status: ('A' for Active; 'I' for Inactive)
REMARK    1  A    between atoms: C10_12  and  C11_13 
ROOT
HETATM    1  C1  UNL     1       1.819 -13.627 -23.977  1.00  0.00     0.051 C 
HETATM    2  C2  UNL     1       3.147 -13.055 -24.348  1.00  0.00    -0.023 A 
HETATM    3  C3  UNL     1       3.533 -11.728 -24.311  1.00  0.00     0.041 A 
HETATM    4  C4  UNL     1       4.874 -11.624 -24.749  1.00  0.00     0.032 A 
HETATM    5  N1  UNL     1       5.229 -12.857 -25.019  1.00  0.00    -0.315 N 
HETATM    6  C5  UNL     1       4.213 -13.754 -24.794  1.00  0.00     0.026 A 
HETATM    7  C6  UNL     1       4.293 -15.237 -25.055  1.00  0.00     0.085 C 
HETATM    8  C7  UNL     1       4.636 -15.519 -26.485  1.00  0.00     0.181 C 
HETATM    9  O1  UNL     1       5.888 -15.122 -26.938  1.00  0.00    -0.348 OA
HETATM   10  C8  UNL     1       6.797 -14.248 -26.365  1.00  0.00     0.096 A 
HETATM   11  C9  UNL     1       8.113 -14.430 -26.723  1.00  0.00     0.055 A 
HETATM   12  C10 UNL     1       9.094 -13.613 -26.203  1.00  0.00     0.032 A 
HETATM   13  C12 UNL     1       8.773 -12.587 -25.302  1.00  0.00     0.019 A 
HETATM   14  C13 UNL     1       7.462 -12.382 -24.925  1.00  0.00     0.034 A 
HETATM   15  C14 UNL     1       6.529 -13.218 -25.474  1.00  0.00     0.073 A 
HETATM   16  C15 UNL     1       5.392 -10.296 -24.824  1.00  0.00     0.067 C 
HETATM   17  C16 UNL     1       5.047  -9.489 -23.551  1.00  0.00    -0.036 C 
HETATM   18  C17 UNL     1       5.757  -9.985 -22.345  1.00  0.00     0.015 C 
HETATM   19  C18 UNL     1       5.534  -8.082 -23.838  1.00  0.00     0.015 C 
HETATM   20  C19 UNL     1       3.548  -9.391 -23.384  1.00  0.00     0.093 C 
HETATM   21  C20 UNL     1       2.817 -10.548 -23.907  1.00  0.00     0.162 C 
HETATM   22  O3  UNL     1       1.570 -10.485 -23.992  1.00  0.00    -0.292 OA
ENDROOT
BRANCH  12  23
HETATM   23  C11 UNL     1      10.466 -13.843 -26.610  1.00  0.00     0.265 C 
HETATM   24  N2  UNL     1      11.461 -14.183 -25.667  1.00  0.00    -0.057 NA
HETATM   25  O2  UNL     1      10.768 -13.739 -27.808  1.00  0.00    -0.271 OA
ENDBRANCH  12  23
TORSDOF 1
ENDMDL
