MODEL 4
REMARK VINA RESULT: -9.757672049      2.543      4.818
REMARK  1 active torsions:
REMARK  status: ('A' for Active; 'I' for Inactive)
REMARK    1  A    between atoms: C10_12  and  C11_13 
ROOT
HETATM    1  C1  UNL     1       5.184  -6.080 -23.662  1.00  0.00     0.051 C 
HETATM    2  C2  UNL     1       4.807  -7.517 -23.811  1.00  0.00    -0.023 A 
HETATM    3  C3  UNL     1       3.537  -8.063 -23.781  1.00  0.00     0.041 A 
HETATM    4  C4  UNL     1       3.631  -9.463 -23.957  1.00  0.00     0.032 A 
HETATM    5  N1  UNL     1       4.916  -9.693 -24.087  1.00  0.00    -0.315 N 
HETATM    6  C5  UNL     1       5.664  -8.544 -24.001  1.00  0.00     0.026 A 
HETATM    7  C6  UNL     1       7.169  -8.482 -24.063  1.00  0.00     0.085 C 
HETATM    8  C7  UNL     1       7.791  -9.330 -22.997  1.00  0.00     0.181 C 
HETATM    9  O1  UNL     1       7.598 -10.703 -23.072  1.00  0.00    -0.348 OA
HETATM   10  C8  UNL     1       6.684 -11.427 -23.821  1.00  0.00     0.096 A 
HETATM   11  C9  UNL     1       7.037 -12.726 -24.107  1.00  0.00     0.055 A 
HETATM   12  C10 UNL     1       6.196 -13.525 -24.850  1.00  0.00     0.032 A 
HETATM   13  C12 UNL     1       4.972 -13.035 -25.329  1.00  0.00     0.019 A 
HETATM   14  C13 UNL     1       4.594 -11.736 -25.058  1.00  0.00     0.034 A 
HETATM   15  C14 UNL     1       5.463 -10.988 -24.312  1.00  0.00     0.073 A 
HETATM   16  C15 UNL     1       2.396 -10.173 -23.885  1.00  0.00     0.067 C 
HETATM   17  C16 UNL     1       1.299  -9.474 -24.720  1.00  0.00    -0.036 C 
HETATM   18  C17 UNL     1       1.559  -9.538 -26.180  1.00  0.00     0.015 C 
HETATM   19  C18 UNL     1       0.032 -10.256 -24.433  1.00  0.00     0.015 C 
HETATM   20  C19 UNL     1       1.059  -8.075 -24.200  1.00  0.00     0.093 C 
HETATM   21  C20 UNL     1       2.249  -7.446 -23.621  1.00  0.00     0.162 C 
HETATM   22  O3  UNL     1       2.117  -6.371 -22.994  1.00  0.00    -0.292 OA
ENDROOT
BRANCH  12  23
HETATM   23  C11 UNL     1       6.610 -14.888 -25.126  1.00  0.00     0.265 C 
HETATM   24  N2  UNL     1       7.968 -15.208 -25.348  1.00  0.00    -0.057 NA
HETATM   25  O2  UNL     1       5.755 -15.785 -25.167  1.00  0.00    -0.271 OA
ENDBRANCH  12  23
TORSDOF 1
ENDMDL
