MODEL 5
REMARK VINA RESULT: -9.505819702      2.525      3.656
REMARK  1 active torsions:
REMARK  status: ('A' for Active; 'I' for Inactive)
REMARK    1  A    between atoms: C10_12  and  C11_13 
ROOT
HETATM    1  C1  UNL     1      -1.417 -11.630 -23.941  1.00  0.00     0.051 C 
HETATM    2  C2  UNL     1       0.000 -11.374 -24.333  1.00  0.00    -0.023 A 
HETATM    3  C3  UNL     1       0.514 -10.249 -24.952  1.00  0.00     0.041 A 
HETATM    4  C4  UNL     1       1.904 -10.421 -25.146  1.00  0.00     0.032 A 
HETATM    5  N1  UNL     1       2.163 -11.606 -24.645  1.00  0.00    -0.315 N 
HETATM    6  C5  UNL     1       1.039 -12.218 -24.147  1.00  0.00     0.026 A 
HETATM    7  C6  UNL     1       0.998 -13.602 -23.550  1.00  0.00     0.085 C 
HETATM    8  C7  UNL     1       1.496 -14.626 -24.522  1.00  0.00     0.181 C 
HETATM    9  O1  UNL     1       2.831 -14.561 -24.899  1.00  0.00    -0.348 OA
HETATM   10  C8  UNL     1       3.742 -13.528 -24.745  1.00  0.00     0.096 A 
HETATM   11  C9  UNL     1       5.068 -13.896 -24.722  1.00  0.00     0.055 A 
HETATM   12  C10 UNL     1       6.050 -12.942 -24.568  1.00  0.00     0.032 A 
HETATM   13  C12 UNL     1       5.721 -11.585 -24.430  1.00  0.00     0.019 A 
HETATM   14  C13 UNL     1       4.400 -11.188 -24.449  1.00  0.00     0.034 A 
HETATM   15  C14 UNL     1       3.466 -12.175 -24.609  1.00  0.00     0.073 A 
HETATM   16  C15 UNL     1       2.562  -9.359 -25.835  1.00  0.00     0.067 C 
HETATM   17  C16 UNL     1       2.138  -7.982 -25.277  1.00  0.00    -0.036 C 
HETATM   18  C17 UNL     1       2.626  -7.746 -23.895  1.00  0.00     0.015 C 
HETATM   19  C18 UNL     1       2.801  -6.969 -26.190  1.00  0.00     0.015 C 
HETATM   20  C19 UNL     1       0.648  -7.787 -25.443  1.00  0.00     0.093 C 
HETATM   21  C20 UNL     1      -0.123  -9.031 -25.374  1.00  0.00     0.162 C 
HETATM   22  O3  UNL     1      -1.335  -9.007 -25.687  1.00  0.00    -0.292 OA
ENDROOT
BRANCH  12  23
HETATM   23  C11 UNL     1       7.434 -13.377 -24.551  1.00  0.00     0.265 C 
HETATM   24  N2  UNL     1       8.493 -12.449 -24.657  1.00  0.00    -0.057 NA
HETATM   25  O2  UNL     1       7.687 -14.586 -24.440  1.00  0.00    -0.271 OA
ENDBRANCH  12  23
TORSDOF 1
ENDMDL
