MODEL 3
REMARK VINA RESULT: -10.057407589      2.290      7.093
REMARK  1 active torsions:
REMARK  status: ('A' for Active; 'I' for Inactive)
REMARK    1  A    between atoms: C10_12  and  C11_13 
ROOT
HETATM    1  C1  UNL     1       8.141 -10.304 -22.714  1.00  0.00     0.051 C 
HETATM    2  C2  UNL     1       6.983 -10.927 -23.421  1.00  0.00    -0.023 A 
HETATM    3  C3  UNL     1       7.021 -11.840 -24.460  1.00  0.00     0.041 A 
HETATM    4  C4  UNL     1       5.698 -12.167 -24.837  1.00  0.00     0.032 A 
HETATM    5  N1  UNL     1       4.941 -11.463 -24.029  1.00  0.00    -0.315 N 
HETATM    6  C5  UNL     1       5.678 -10.696 -23.160  1.00  0.00     0.026 A 
HETATM    7  C6  UNL     1       5.103  -9.743 -22.143  1.00  0.00     0.085 C 
HETATM    8  C7  UNL     1       4.234  -8.713 -22.796  1.00  0.00     0.181 C 
HETATM    9  O1  UNL     1       3.068  -9.149 -23.411  1.00  0.00    -0.348 OA
HETATM   10  C8  UNL     1       2.689 -10.431 -23.776  1.00  0.00     0.096 A 
HETATM   11  C9  UNL     1       1.334 -10.651 -23.876  1.00  0.00     0.055 A 
HETATM   12  C10 UNL     1       0.857 -11.895 -24.228  1.00  0.00     0.032 A 
HETATM   13  C12 UNL     1       1.737 -12.957 -24.488  1.00  0.00     0.019 A 
HETATM   14  C13 UNL     1       3.099 -12.765 -24.394  1.00  0.00     0.034 A 
HETATM   15  C14 UNL     1       3.519 -11.510 -24.046  1.00  0.00     0.073 A 
HETATM   16  C15 UNL     1       5.580 -13.057 -25.946  1.00  0.00     0.067 C 
HETATM   17  C16 UNL     1       6.544 -14.257 -25.806  1.00  0.00    -0.036 C 
HETATM   18  C17 UNL     1       6.173 -15.167 -24.694  1.00  0.00     0.015 C 
HETATM   19  C18 UNL     1       6.406 -15.023 -27.107  1.00  0.00     0.015 C 
HETATM   20  C19 UNL     1       7.976 -13.773 -25.752  1.00  0.00     0.093 C 
HETATM   21  C20 UNL     1       8.132 -12.453 -25.136  1.00  0.00     0.162 C 
HETATM   22  O3  UNL     1       9.242 -11.880 -25.212  1.00  0.00    -0.292 OA
ENDROOT
BRANCH  12  23
HETATM   23  C11 UNL     1      -0.578 -12.079 -24.321  1.00  0.00     0.265 C 
HETATM   24  N2  UNL     1      -1.327 -11.469 -25.352  1.00  0.00    -0.057 NA
HETATM   25  O2  UNL     1      -1.155 -12.784 -23.481  1.00  0.00    -0.271 OA
ENDBRANCH  12  23
TORSDOF 1
ENDMDL
