MODEL 4
REMARK VINA RESULT: -8.446984554      3.545      7.160
REMARK  3 active torsions:
REMARK  status: ('A' for Active; 'I' for Inactive)
REMARK    1  A    between atoms: C2_2  and  C3_3 
REMARK    2  A    between atoms: C3_3  and  C4_4 
REMARK    3  A    between atoms: C14_16  and  C15_17 
ROOT
HETATM    1  C4  UNL     1       5.666  -9.305 -23.331  1.00  0.00     0.134 C 
HETATM    2  C5  UNL     1       4.479  -9.786 -22.567  1.00  0.00     0.090 C 
HETATM    3  C6  UNL     1       3.189  -9.506 -23.304  1.00  0.00     0.026 A 
HETATM    4  C7  UNL     1       2.282 -10.449 -23.712  1.00  0.00    -0.023 A 
HETATM    5  C8  UNL     1       2.372 -11.910 -23.484  1.00  0.00     0.051 C 
HETATM    6  C9  UNL     1       1.272  -9.767 -24.377  1.00  0.00     0.041 A 
HETATM    7  C10 UNL     1       1.566  -8.395 -24.373  1.00  0.00     0.032 A 
HETATM    8  N1  UNL     1       2.714  -8.299 -23.719  1.00  0.00    -0.315 N 
HETATM    9  C11 UNL     1       3.386  -7.075 -23.466  1.00  0.00     0.074 A 
HETATM   10  C12 UNL     1       2.483  -6.058 -23.294  1.00  0.00     0.057 A 
HETATM   11  C13 UNL     1       3.024  -4.782 -23.077  1.00  0.00     0.051 A 
HETATM   12 CL1  UNL     1       1.886  -3.473 -22.858  1.00  0.00    -0.083 Cl
HETATM   13  C14 UNL     1       4.403  -4.581 -23.039  1.00  0.00     0.053 A 
HETATM   14  C16 UNL     1       5.255  -5.651 -23.217  1.00  0.00     0.057 A 
HETATM   15  C17 UNL     1       4.762  -6.905 -23.431  1.00  0.00     0.097 A 
HETATM   16  O2  UNL     1       5.711  -7.916 -23.593  1.00  0.00    -0.343 OA
HETATM   17  C18 UNL     1       0.686  -7.421 -25.063  1.00  0.00     0.067 C 
HETATM   18  C19 UNL     1       0.196  -8.143 -26.346  1.00  0.00    -0.036 C 
HETATM   19  C20 UNL     1       1.341  -8.689 -27.138  1.00  0.00     0.015 C 
HETATM   20  C21 UNL     1      -0.582  -7.150 -27.168  1.00  0.00     0.015 C 
HETATM   21  C22 UNL     1      -0.759  -9.216 -25.852  1.00  0.00     0.093 C 
HETATM   22  C23 UNL     1       0.037 -10.175 -25.034  1.00  0.00     0.162 C 
HETATM   23  O3  UNL     1      -0.324 -11.380 -24.875  1.00  0.00    -0.292 OA
ENDROOT
BRANCH   1  24
HETATM   24  C3  UNL     1       6.989  -9.824 -22.828  1.00  0.00     0.032 C 
BRANCH  24  25
HETATM   25  C2  UNL     1       7.654 -10.734 -23.827  1.00  0.00    -0.002 C 
HETATM   26  C1  UNL     1       6.983 -12.095 -23.872  1.00  0.00     0.005 C 
ENDBRANCH  24  25
ENDBRANCH   1  24
BRANCH  13  27
HETATM   27  C15 UNL     1       4.935  -3.261 -22.814  1.00  0.00     0.266 C 
HETATM   28  N2  UNL     1       5.150  -2.304 -23.828  1.00  0.00    -0.057 NA
HETATM   29  O1  UNL     1       5.237  -2.910 -21.642  1.00  0.00    -0.271 OA
ENDBRANCH  13  27
TORSDOF 3
ENDMDL
