MODEL 3
REMARK VINA RESULT: -10.358416151      0.721      1.011
REMARK  3 active torsions:
REMARK  status: ('A' for Active; 'I' for Inactive)
REMARK    1  A    between atoms: C2_2  and  C3_3 
REMARK    2  A    between atoms: C3_3  and  C4_4 
REMARK    3  A    between atoms: C14_16  and  C15_17 
ROOT
HETATM    1  C4  UNL     1       3.209  -8.309 -25.597  1.00  0.00     0.134 C 
HETATM    2  C5  UNL     1       4.087  -8.548 -24.416  1.00  0.00     0.090 C 
HETATM    3  C6  UNL     1       4.607  -9.967 -24.383  1.00  0.00     0.026 A 
HETATM    4  C7  UNL     1       5.926 -10.336 -24.407  1.00  0.00    -0.023 A 
HETATM    5  C8  UNL     1       7.092  -9.422 -24.436  1.00  0.00     0.051 C 
HETATM    6  C9  UNL     1       5.952 -11.724 -24.399  1.00  0.00     0.041 A 
HETATM    7  C10 UNL     1       4.634 -12.206 -24.369  1.00  0.00     0.032 A 
HETATM    8  N1  UNL     1       3.878 -11.118 -24.357  1.00  0.00    -0.315 N 
HETATM    9  C11 UNL     1       2.460 -11.135 -24.316  1.00  0.00     0.074 A 
HETATM   10  C12 UNL     1       2.013 -12.214 -23.598  1.00  0.00     0.057 A 
HETATM   11  C13 UNL     1       0.621 -12.368 -23.517  1.00  0.00     0.051 A 
HETATM   12 CL1  UNL     1       0.034 -13.740 -22.606  1.00  0.00    -0.083 Cl
HETATM   13  C14 UNL     1      -0.241 -11.465 -24.136  1.00  0.00     0.053 A 
HETATM   14  C16 UNL     1       0.277 -10.399 -24.841  1.00  0.00     0.057 A 
HETATM   15  C17 UNL     1       1.626 -10.219 -24.941  1.00  0.00     0.097 A 
HETATM   16  O2  UNL     1       2.043  -9.106 -25.672  1.00  0.00    -0.343 OA
HETATM   17  C18 UNL     1       4.351 -13.661 -24.410  1.00  0.00     0.067 C 
HETATM   18  C19 UNL     1       5.414 -14.263 -25.365  1.00  0.00    -0.036 C 
HETATM   19  C20 UNL     1       5.437 -13.548 -26.679  1.00  0.00     0.015 C 
HETATM   20  C21 UNL     1       5.084 -15.718 -25.568  1.00  0.00     0.015 C 
HETATM   21  C22 UNL     1       6.726 -14.166 -24.604  1.00  0.00     0.093 C 
HETATM   22  C23 UNL     1       7.018 -12.717 -24.410  1.00  0.00     0.162 C 
HETATM   23  O3  UNL     1       8.200 -12.289 -24.246  1.00  0.00    -0.292 OA
ENDROOT
BRANCH   1  24
HETATM   24  C3  UNL     1       2.915  -6.858 -25.879  1.00  0.00     0.032 C 
BRANCH  24  25
HETATM   25  C2  UNL     1       1.748  -6.688 -26.814  1.00  0.00    -0.002 C 
HETATM   26  C1  UNL     1       2.119  -7.058 -28.238  1.00  0.00     0.005 C 
ENDBRANCH  24  25
ENDBRANCH   1  24
BRANCH  13  27
HETATM   27  C15 UNL     1      -1.667 -11.644 -24.039  1.00  0.00     0.266 C 
HETATM   28  N2  UNL     1      -2.373 -11.790 -22.826  1.00  0.00    -0.057 NA
HETATM   29  O1  UNL     1      -2.357 -11.676 -25.094  1.00  0.00    -0.271 OA
ENDBRANCH  13  27
TORSDOF 3
ENDMDL
