MODEL 1
REMARK VINA RESULT: -11.594313046      0.000      0.000
REMARK  3 active torsions:
REMARK  status: ('A' for Active; 'I' for Inactive)
REMARK    1  A    between atoms: C2_2  and  C3_3 
REMARK    2  A    between atoms: C3_3  and  C4_4 
REMARK    3  A    between atoms: C14_16  and  C15_17 
ROOT
HETATM    1  C4  UNL     1       3.368  -8.045 -25.270  1.00  0.00     0.134 C 
HETATM    2  C5  UNL     1       4.215  -8.401 -24.095  1.00  0.00     0.090 C 
HETATM    3  C6  UNL     1       4.708  -9.828 -24.172  1.00  0.00     0.026 A 
HETATM    4  C7  UNL     1       6.021 -10.218 -24.200  1.00  0.00    -0.023 A 
HETATM    5  C8  UNL     1       7.204  -9.328 -24.126  1.00  0.00     0.051 C 
HETATM    6  C9  UNL     1       6.023 -11.602 -24.310  1.00  0.00     0.041 A 
HETATM    7  C10 UNL     1       4.696 -12.059 -24.350  1.00  0.00     0.032 A 
HETATM    8  N1  UNL     1       3.959 -10.962 -24.261  1.00  0.00    -0.315 N 
HETATM    9  C11 UNL     1       2.541 -10.955 -24.252  1.00  0.00     0.074 A 
HETATM   10  C12 UNL     1       2.058 -12.082 -23.638  1.00  0.00     0.057 A 
HETATM   11  C13 UNL     1       0.662 -12.215 -23.600  1.00  0.00     0.051 A 
HETATM   12 CL1  UNL     1       0.031 -13.648 -22.824  1.00  0.00    -0.083 Cl
HETATM   13  C14 UNL     1      -0.169 -11.246 -24.158  1.00  0.00     0.053 A 
HETATM   14  C16 UNL     1       0.384 -10.134 -24.759  1.00  0.00     0.057 A 
HETATM   15  C17 UNL     1       1.738  -9.973 -24.814  1.00  0.00     0.097 A 
HETATM   16  O2  UNL     1       2.191  -8.810 -25.438  1.00  0.00    -0.343 OA
HETATM   17  C18 UNL     1       4.388 -13.500 -24.521  1.00  0.00     0.067 C 
HETATM   18  C19 UNL     1       5.462 -14.039 -25.502  1.00  0.00    -0.036 C 
HETATM   19  C20 UNL     1       5.529 -13.215 -26.748  1.00  0.00     0.015 C 
HETATM   20  C21 UNL     1       5.111 -15.464 -25.835  1.00  0.00     0.015 C 
HETATM   21  C22 UNL     1       6.758 -14.033 -24.707  1.00  0.00     0.093 C 
HETATM   22  C23 UNL     1       7.071 -12.612 -24.383  1.00  0.00     0.162 C 
HETATM   23  O3  UNL     1       8.256 -12.222 -24.158  1.00  0.00    -0.292 OA
ENDROOT
BRANCH   1  24
HETATM   24  C3  UNL     1       3.107  -6.569 -25.433  1.00  0.00     0.032 C 
BRANCH  24  25
HETATM   25  C2  UNL     1       4.273  -5.736 -24.972  1.00  0.00    -0.002 C 
HETATM   26  C1  UNL     1       4.766  -4.814 -26.072  1.00  0.00     0.005 C 
ENDBRANCH  24  25
ENDBRANCH   1  24
BRANCH  13  27
HETATM   27  C15 UNL     1      -1.600 -11.405 -24.108  1.00  0.00     0.266 C 
HETATM   28  N2  UNL     1      -2.334 -11.661 -22.930  1.00  0.00    -0.057 NA
HETATM   29  O1  UNL     1      -2.268 -11.313 -25.173  1.00  0.00    -0.271 OA
ENDBRANCH  13  27
TORSDOF 3
ENDMDL
