MODEL 2
REMARK VINA RESULT: -10.683311503      2.595      5.148
REMARK  3 active torsions:
REMARK  status: ('A' for Active; 'I' for Inactive)
REMARK    1  A    between atoms: C2_2  and  C3_3 
REMARK    2  A    between atoms: C3_3  and  C4_4 
REMARK    3  A    between atoms: C14_16  and  C15_17 
ROOT
HETATM    1  C4  UNL     1       1.480 -12.533 -23.459  1.00  0.00     0.134 C 
HETATM    2  C5  UNL     1       2.299 -12.871 -24.659  1.00  0.00     0.090 C 
HETATM    3  C6  UNL     1       3.681 -12.263 -24.583  1.00  0.00     0.026 A 
HETATM    4  C7  UNL     1       4.861 -12.959 -24.597  1.00  0.00    -0.023 A 
HETATM    5  C8  UNL     1       5.013 -14.428 -24.724  1.00  0.00     0.051 C 
HETATM    6  C9  UNL     1       5.877 -12.022 -24.471  1.00  0.00     0.041 A 
HETATM    7  C10 UNL     1       5.310 -10.742 -24.378  1.00  0.00     0.032 A 
HETATM    8  N1  UNL     1       4.004 -10.946 -24.454  1.00  0.00    -0.315 N 
HETATM    9  C11 UNL     1       3.032  -9.913 -24.412  1.00  0.00     0.074 A 
HETATM   10  C12 UNL     1       3.521  -8.771 -24.995  1.00  0.00     0.057 A 
HETATM   11  C13 UNL     1       2.667  -7.658 -24.981  1.00  0.00     0.051 A 
HETATM   12 CL1  UNL     1       3.275  -6.193 -25.717  1.00  0.00    -0.083 Cl
HETATM   13  C14 UNL     1       1.400  -7.728 -24.405  1.00  0.00     0.053 A 
HETATM   14  C16 UNL     1       0.972  -8.910 -23.838  1.00  0.00     0.057 A 
HETATM   15  C17 UNL     1       1.776 -10.012 -23.834  1.00  0.00     0.097 A 
HETATM   16  O2  UNL     1       1.242 -11.157 -23.240  1.00  0.00    -0.343 OA
HETATM   17  C18 UNL     1       6.158  -9.542 -24.179  1.00  0.00     0.067 C 
HETATM   18  C19 UNL     1       7.300  -9.994 -23.231  1.00  0.00    -0.036 C 
HETATM   19  C20 UNL     1       6.761 -10.646 -21.998  1.00  0.00     0.015 C 
HETATM   20  C21 UNL     1       8.110  -8.779 -22.868  1.00  0.00     0.015 C 
HETATM   21  C22 UNL     1       8.164 -10.920 -24.072  1.00  0.00     0.093 C 
HETATM   22  C23 UNL     1       7.332 -12.105 -24.423  1.00  0.00     0.162 C 
HETATM   23  O3  UNL     1       7.849 -13.230 -24.696  1.00  0.00    -0.292 OA
ENDROOT
BRANCH   1  24
HETATM   24  C3  UNL     1       0.224 -13.352 -23.305  1.00  0.00     0.032 C 
BRANCH  24  25
HETATM   25  C2  UNL     1      -0.844 -12.611 -22.545  1.00  0.00    -0.002 C 
HETATM   26  C1  UNL     1      -0.844 -12.988 -21.076  1.00  0.00     0.005 C 
ENDBRANCH  24  25
ENDBRANCH   1  24
BRANCH  13  27
HETATM   27  C15 UNL     1       0.542  -6.571 -24.403  1.00  0.00     0.266 C 
HETATM   28  N2  UNL     1      -0.567  -6.397 -25.258  1.00  0.00    -0.057 NA
HETATM   29  O1  UNL     1       0.774  -5.634 -23.591  1.00  0.00    -0.271 OA
ENDBRANCH  13  27
TORSDOF 3
ENDMDL
