MODEL 5
REMARK VINA RESULT: -8.343696244      2.202      5.985
REMARK  3 active torsions:
REMARK  status: ('A' for Active; 'I' for Inactive)
REMARK    1  A    between atoms: C2_2  and  C3_3 
REMARK    2  A    between atoms: C3_3  and  C4_4 
REMARK    3  A    between atoms: C14_16  and  C15_17 
ROOT
HETATM    1  C4  UNL     1       4.745  -8.929 -23.508  1.00  0.00     0.134 C 
HETATM    2  C5  UNL     1       3.759  -8.834 -24.623  1.00  0.00     0.090 C 
HETATM    3  C6  UNL     1       2.672  -9.877 -24.498  1.00  0.00     0.026 A 
HETATM    4  C7  UNL     1       1.331  -9.622 -24.384  1.00  0.00    -0.023 A 
HETATM    5  C8  UNL     1       0.687  -8.288 -24.393  1.00  0.00     0.051 C 
HETATM    6  C9  UNL     1       0.701 -10.853 -24.258  1.00  0.00     0.041 A 
HETATM    7  C10 UNL     1       1.669 -11.868 -24.297  1.00  0.00     0.032 A 
HETATM    8  N1  UNL     1       2.821 -11.230 -24.444  1.00  0.00    -0.315 N 
HETATM    9  C11 UNL     1       4.081 -11.874 -24.542  1.00  0.00     0.074 A 
HETATM   10  C12 UNL     1       3.954 -13.086 -25.172  1.00  0.00     0.057 A 
HETATM   11  C13 UNL     1       5.128 -13.843 -25.297  1.00  0.00     0.051 A 
HETATM   12 CL1  UNL     1       4.982 -15.392 -26.095  1.00  0.00    -0.083 Cl
HETATM   13  C14 UNL     1       6.343 -13.374 -24.803  1.00  0.00     0.053 A 
HETATM   14  C16 UNL     1       6.400 -12.144 -24.182  1.00  0.00     0.057 A 
HETATM   15  C17 UNL     1       5.278 -11.381 -24.044  1.00  0.00     0.097 A 
HETATM   16  O2  UNL     1       5.448 -10.152 -23.406  1.00  0.00    -0.343 OA
HETATM   17  C18 UNL     1       1.292 -13.293 -24.128  1.00  0.00     0.067 C 
HETATM   18  C19 UNL     1       0.152 -13.298 -23.076  1.00  0.00    -0.036 C 
HETATM   19  C20 UNL     1       0.548 -12.559 -21.837  1.00  0.00     0.015 C 
HETATM   20  C21 UNL     1      -0.170 -14.731 -22.749  1.00  0.00     0.015 C 
HETATM   21  C22 UNL     1      -1.041 -12.683 -23.787  1.00  0.00     0.093 C 
HETATM   22  C23 UNL     1      -0.687 -11.271 -24.107  1.00  0.00     0.162 C 
HETATM   23  O3  UNL     1      -1.572 -10.377 -24.262  1.00  0.00    -0.292 OA
ENDROOT
BRANCH   1  24
HETATM   24  C3  UNL     1       5.664  -7.741 -23.379  1.00  0.00     0.032 C 
BRANCH  24  25
HETATM   25  C2  UNL     1       4.917  -6.437 -23.476  1.00  0.00    -0.002 C 
HETATM   26  C1  UNL     1       4.169  -6.128 -22.192  1.00  0.00     0.005 C 
ENDBRANCH  24  25
ENDBRANCH   1  24
BRANCH  13  27
HETATM   27  C15 UNL     1       7.536 -14.171 -24.942  1.00  0.00     0.266 C 
HETATM   28  N2  UNL     1       8.590 -13.881 -25.834  1.00  0.00    -0.057 NA
HETATM   29  O1  UNL     1       7.674 -15.202 -24.230  1.00  0.00    -0.271 OA
ENDBRANCH  13  27
TORSDOF 3
ENDMDL
