MODEL 3
REMARK VINA RESULT: -8.980685913      1.020      1.181
REMARK  3 active torsions:
REMARK  status: ('A' for Active; 'I' for Inactive)
REMARK    1  A    between atoms: N2_9  and  C8_10 
REMARK    2  A    between atoms: C8_10  and  C9_11 
REMARK    3  A    between atoms: C15_18  and  C16_19 
ROOT
HETATM    1  C1  UNL     1       3.027 -14.063 -24.428  1.00  0.00     0.051 C 
HETATM    2  C2  UNL     1       3.463 -12.670 -24.384  1.00  0.00    -0.023 A 
HETATM    3  C3  UNL     1       4.763 -12.228 -24.532  1.00  0.00     0.041 A 
HETATM    4  C4  UNL     1       4.796 -10.825 -24.435  1.00  0.00     0.032 A 
HETATM    5  N1  UNL     1       3.514 -10.496 -24.230  1.00  0.00    -0.315 N 
HETATM    6  C5  UNL     1       2.686 -11.556 -24.194  1.00  0.00     0.025 A 
HETATM    7  C6  UNL     1       1.194 -11.496 -24.011  1.00  0.00     0.078 C 
HETATM    8  C7  UNL     1       0.483 -10.700 -25.036  1.00  0.00     0.129 C 
HETATM    9  N2  UNL     1       0.817  -9.297 -25.141  1.00  0.00    -0.372 N 
HETATM   10  C13 UNL     1       1.907  -8.631 -24.499  1.00  0.00     0.059 A 
HETATM   11  C14 UNL     1       1.652  -7.306 -24.300  1.00  0.00     0.050 A 
HETATM   12  C15 UNL     1       2.611  -6.539 -23.674  1.00  0.00     0.053 A 
HETATM   13  C17 UNL     1       3.809  -7.071 -23.248  1.00  0.00     0.051 A 
HETATM   14 CL1  UNL     1       4.975  -6.039 -22.464  1.00  0.00    -0.083 Cl
HETATM   15  C18 UNL     1       4.099  -8.428 -23.436  1.00  0.00     0.057 A 
HETATM   16  C19 UNL     1       3.122  -9.150 -24.062  1.00  0.00     0.067 A 
HETATM   17  C20 UNL     1       6.098 -10.226 -24.627  1.00  0.00     0.067 C 
HETATM   18  C21 UNL     1       7.116 -10.910 -23.731  1.00  0.00    -0.036 C 
HETATM   19  C22 UNL     1       6.702 -11.063 -22.312  1.00  0.00     0.015 C 
HETATM   20  C23 UNL     1       8.409 -10.135 -23.873  1.00  0.00     0.015 C 
HETATM   21  C24 UNL     1       7.329 -12.331 -24.278  1.00  0.00     0.093 C 
HETATM   22  C25 UNL     1       6.040 -12.907 -24.746  1.00  0.00     0.162 C 
HETATM   23  O3  UNL     1       6.057 -14.001 -25.336  1.00  0.00    -0.292 OA
ENDROOT
BRANCH   9  24
HETATM   24  C8  UNL     1      -0.036  -8.474 -25.983  1.00  0.00     0.188 C 
BRANCH  24  25
HETATM   25  C9  UNL     1       0.548  -8.194 -27.322  1.00  0.00     0.070 A 
HETATM   26  C10 UNL     1      -0.102  -7.510 -28.325  1.00  0.00     0.036 A 
HETATM   27  C11 UNL     1       0.751  -7.451 -29.400  1.00  0.00     0.027 A 
HETATM   28  C12 UNL     1       1.888  -8.108 -28.990  1.00  0.00     0.142 A 
HETATM   29  O1  UNL     1       1.729  -8.526 -27.773  1.00  0.00    -0.325 OA
ENDBRANCH  24  25
ENDBRANCH   9  24
BRANCH  12  30
HETATM   30  C16 UNL     1       2.296  -5.132 -23.487  1.00  0.00     0.266 C 
HETATM   31  N3  UNL     1       2.466  -4.153 -24.472  1.00  0.00    -0.057 NA
HETATM   32  O2  UNL     1       1.844  -4.776 -22.369  1.00  0.00    -0.271 OA
ENDBRANCH  12  30
TORSDOF 3
ENDMDL
