MODEL 1
REMARK VINA RESULT: -9.388610806      0.000      0.000
REMARK  3 active torsions:
REMARK  status: ('A' for Active; 'I' for Inactive)
REMARK    1  A    between atoms: N2_9  and  C8_10 
REMARK    2  A    between atoms: C8_10  and  C9_11 
REMARK    3  A    between atoms: C15_18  and  C16_19 
ROOT
HETATM    1  C1  UNL     1       2.941 -13.238 -24.319  1.00  0.00     0.051 C 
HETATM    2  C2  UNL     1       3.444 -11.867 -24.298  1.00  0.00    -0.023 A 
HETATM    3  C3  UNL     1       4.774 -11.498 -24.254  1.00  0.00     0.041 A 
HETATM    4  C4  UNL     1       4.873 -10.096 -24.251  1.00  0.00     0.032 A 
HETATM    5  N1  UNL     1       3.596  -9.693 -24.289  1.00  0.00    -0.315 N 
HETATM    6  C5  UNL     1       2.714 -10.707 -24.321  1.00  0.00     0.025 A 
HETATM    7  C6  UNL     1       1.217 -10.564 -24.399  1.00  0.00     0.078 C 
HETATM    8  C7  UNL     1       0.734  -9.819 -25.582  1.00  0.00     0.129 C 
HETATM    9  N2  UNL     1       1.164  -8.445 -25.727  1.00  0.00    -0.372 N 
HETATM   10  C13 UNL     1       2.169  -7.782 -24.956  1.00  0.00     0.059 A 
HETATM   11  C14 UNL     1       1.963  -6.435 -24.896  1.00  0.00     0.050 A 
HETATM   12  C15 UNL     1       2.848  -5.666 -24.172  1.00  0.00     0.053 A 
HETATM   13  C17 UNL     1       3.925  -6.218 -23.512  1.00  0.00     0.051 A 
HETATM   14 CL1  UNL     1       5.004  -5.183 -22.615  1.00  0.00    -0.083 Cl
HETATM   15  C18 UNL     1       4.162  -7.598 -23.554  1.00  0.00     0.057 A 
HETATM   16  C19 UNL     1       3.262  -8.320 -24.285  1.00  0.00     0.067 A 
HETATM   17  C20 UNL     1       6.222  -9.574 -24.259  1.00  0.00     0.067 C 
HETATM   18  C21 UNL     1       7.035 -10.231 -23.158  1.00  0.00    -0.036 C 
HETATM   19  C22 UNL     1       6.383 -10.254 -21.824  1.00  0.00     0.015 C 
HETATM   20  C23 UNL     1       8.377  -9.531 -23.132  1.00  0.00     0.015 C 
HETATM   21  C24 UNL     1       7.253 -11.700 -23.561  1.00  0.00     0.093 C 
HETATM   22  C25 UNL     1       6.027 -12.251 -24.200  1.00  0.00     0.162 C 
HETATM   23  O3  UNL     1       6.078 -13.387 -24.701  1.00  0.00    -0.292 OA
ENDROOT
BRANCH   9  24
HETATM   24  C8  UNL     1       0.512  -7.652 -26.757  1.00  0.00     0.188 C 
BRANCH  24  25
HETATM   25  C9  UNL     1       1.221  -7.682 -28.063  1.00  0.00     0.070 A 
HETATM   26  C10 UNL     1       2.509  -8.135 -28.238  1.00  0.00     0.036 A 
HETATM   27  C11 UNL     1       2.812  -8.008 -29.571  1.00  0.00     0.027 A 
HETATM   28  C12 UNL     1       1.679  -7.479 -30.145  1.00  0.00     0.142 A 
HETATM   29  O1  UNL     1       0.775  -7.304 -29.232  1.00  0.00    -0.325 OA
ENDBRANCH  24  25
ENDBRANCH   9  24
BRANCH  12  30
HETATM   30  C16 UNL     1       2.590  -4.236 -24.138  1.00  0.00     0.266 C 
HETATM   31  N3  UNL     1       2.518  -3.426 -25.277  1.00  0.00    -0.057 NA
HETATM   32  O2  UNL     1       2.420  -3.696 -23.016  1.00  0.00    -0.271 OA
ENDBRANCH  12  30
TORSDOF 3
ENDMDL
