MODEL 2
REMARK VINA RESULT: -9.332355259      2.214      3.083
REMARK  3 active torsions:
REMARK  status: ('A' for Active; 'I' for Inactive)
REMARK    1  A    between atoms: N2_9  and  C8_10 
REMARK    2  A    between atoms: C8_10  and  C9_11 
REMARK    3  A    between atoms: C15_18  and  C16_19 
ROOT
HETATM    1  C1  UNL     1       2.082 -14.864 -24.463  1.00  0.00     0.051 C 
HETATM    2  C2  UNL     1       3.021 -13.758 -24.632  1.00  0.00    -0.023 A 
HETATM    3  C3  UNL     1       4.230 -13.823 -25.296  1.00  0.00     0.041 A 
HETATM    4  C4  UNL     1       4.855 -12.564 -25.258  1.00  0.00     0.032 A 
HETATM    5  N1  UNL     1       3.991 -11.808 -24.569  1.00  0.00    -0.315 N 
HETATM    6  C5  UNL     1       2.887 -12.471 -24.180  1.00  0.00     0.025 A 
HETATM    7  C6  UNL     1       1.731 -11.878 -23.421  1.00  0.00     0.078 C 
HETATM    8  C7  UNL     1       1.071 -10.741 -24.100  1.00  0.00     0.129 C 
HETATM    9  N2  UNL     1       1.873  -9.568 -24.367  1.00  0.00    -0.372 N 
HETATM   10  C13 UNL     1       3.292  -9.456 -24.228  1.00  0.00     0.059 A 
HETATM   11  C14 UNL     1       3.683  -8.174 -23.980  1.00  0.00     0.050 A 
HETATM   12  C15 UNL     1       5.026  -7.918 -23.807  1.00  0.00     0.053 A 
HETATM   13  C17 UNL     1       5.975  -8.914 -23.877  1.00  0.00     0.051 A 
HETATM   14 CL1  UNL     1       7.657  -8.516 -23.648  1.00  0.00    -0.083 Cl
HETATM   15  C18 UNL     1       5.604 -10.242 -24.128  1.00  0.00     0.057 A 
HETATM   16  C19 UNL     1       4.264 -10.449 -24.296  1.00  0.00     0.067 A 
HETATM   17  C20 UNL     1       6.113 -12.480 -25.966  1.00  0.00     0.067 C 
HETATM   18  C21 UNL     1       7.026 -13.612 -25.530  1.00  0.00    -0.036 C 
HETATM   19  C22 UNL     1       7.148 -13.790 -24.060  1.00  0.00     0.015 C 
HETATM   20  C23 UNL     1       8.365 -13.371 -26.194  1.00  0.00     0.015 C 
HETATM   21  C24 UNL     1       6.432 -14.920 -26.078  1.00  0.00     0.093 C 
HETATM   22  C25 UNL     1       4.947 -14.898 -25.981  1.00  0.00     0.162 C 
HETATM   23  O3  UNL     1       4.303 -15.826 -26.500  1.00  0.00    -0.292 OA
ENDROOT
BRANCH   9  24
HETATM   24  C8  UNL     1       1.174  -8.377 -24.823  1.00  0.00     0.188 C 
BRANCH  24  25
HETATM   25  C9  UNL     1       0.663  -8.488 -26.215  1.00  0.00     0.070 A 
HETATM   26  C10 UNL     1       1.321  -8.007 -27.325  1.00  0.00     0.036 A 
HETATM   27  C11 UNL     1       0.544  -8.297 -28.420  1.00  0.00     0.027 A 
HETATM   28  C12 UNL     1      -0.558  -8.946 -27.914  1.00  0.00     0.142 A 
HETATM   29  O1  UNL     1      -0.450  -9.038 -26.625  1.00  0.00    -0.325 OA
ENDBRANCH  24  25
ENDBRANCH   9  24
BRANCH  12  30
HETATM   30  C16 UNL     1       5.396  -6.536 -23.547  1.00  0.00     0.266 C 
HETATM   31  N3  UNL     1       6.179  -5.758 -24.409  1.00  0.00    -0.057 NA
HETATM   32  O2  UNL     1       4.985  -6.009 -22.483  1.00  0.00    -0.271 OA
ENDBRANCH  12  30
TORSDOF 3
ENDMDL
