MODEL 18
REMARK VINA RESULT: -7.251540256      2.103      4.705
REMARK  10 active torsions:
REMARK  status: ('A' for Active; 'I' for Inactive)
REMARK    1  A    between atoms: N4_17  and  C9_18 
REMARK    2  A    between atoms: C9_18  and  C10_19 
REMARK    3  A    between atoms: C10_19  and  O3_20 
REMARK    4  A    between atoms: C10_19  and  C11_22 
REMARK    5  A    between atoms: C11_22  and  O4_23 
REMARK    6  A    between atoms: C11_22  and  C12_25 
REMARK    7  A    between atoms: C12_25  and  O5_26 
REMARK    8  A    between atoms: C12_25  and  C13_28 
REMARK    9  A    between atoms: C13_28  and  O6_29 
REMARK   10  A    between atoms: O6_29  and  P1_30 
ROOT
HETATM    1  C1  UNL     1       5.592   9.676  26.407  1.00  0.00     0.049 C 
HETATM    2  C2  UNL     1       6.985   9.322  26.773  1.00  0.00    -0.054 A 
HETATM    3  C3  UNL     1       7.445   8.030  26.639  1.00  0.00     0.039 A 
HETATM    4  C4  UNL     1       8.742   7.671  26.973  1.00  0.00     0.060 A 
HETATM    5  N1  UNL     1       9.137   6.395  26.816  1.00  0.00    -0.347 N 
ATOM      6  H1  UNL     1       8.479   5.704  26.457  1.00  0.00     0.166 HD
HETATM    7  C5  UNL     1      10.385   6.023  27.125  1.00  0.00     0.146 A 
HETATM    8  C6  UNL     1      10.846   4.708  26.980  1.00  0.00     0.280 A 
HETATM    9  O1  UNL     1      10.047   3.860  26.543  1.00  0.00    -0.265 OA
HETATM   10  N2  UNL     1      12.124   4.403  27.314  1.00  0.00    -0.273 N 
ATOM     11  H2  UNL     1      12.464   3.446  27.210  1.00  0.00     0.173 HD
HETATM   12  C7  UNL     1      12.945   5.360  27.782  1.00  0.00     0.328 A 
HETATM   13  O2  UNL     1      14.118   5.009  28.073  1.00  0.00    -0.247 OA
HETATM   14  N3  UNL     1      12.537   6.654  27.940  1.00  0.00    -0.292 N 
ATOM     15  H3  UNL     1      13.196   7.345  28.298  1.00  0.00     0.172 HD
HETATM   16  C8  UNL     1      11.288   7.034  27.631  1.00  0.00     0.145 A 
HETATM   17  N4  UNL     1      10.842   8.320  27.775  1.00  0.00    -0.327 N 
HETATM   18  C14 UNL     1       9.587   8.677  27.459  1.00  0.00     0.063 A 
HETATM   19  C15 UNL     1       9.134   9.975  27.596  1.00  0.00     0.039 A 
HETATM   20  C16 UNL     1       7.835  10.299  27.253  1.00  0.00    -0.054 A 
HETATM   21  C17 UNL     1       7.331  11.688  27.394  1.00  0.00     0.049 C 
ENDROOT
BRANCH  17  22
HETATM   22  C9  UNL     1      11.785   9.292  28.284  1.00  0.00     0.165 C 
BRANCH  22  23
HETATM   23  C10 UNL     1      12.771   9.623  27.154  1.00  0.00     0.167 C 
BRANCH  23  24
HETATM   24  O3  UNL     1      14.065   9.279  27.426  1.00  0.00    -0.391 OA
ATOM     25  H3  UNL     1      14.708   9.760  26.920  1.00  0.00     0.210 HD
ENDBRANCH  23  24
BRANCH  23  26
HETATM   26  C11 UNL     1      12.639  10.980  26.627  1.00  0.00     0.179 C 
BRANCH  26  27
HETATM   27  O4  UNL     1      12.377  11.881  27.663  1.00  0.00    -0.390 OA
ATOM     28  H4  UNL     1      12.604  12.765  27.397  1.00  0.00     0.210 HD
ENDBRANCH  26  27
BRANCH  26  29
HETATM   29  C12 UNL     1      11.821  11.301  25.456  1.00  0.00     0.173 C 
BRANCH  29  30
HETATM   30  O5  UNL     1      11.888  10.113  24.636  1.00  0.00    -0.391 OA
ATOM     31  H5  UNL     1      11.004   9.766  24.652  1.00  0.00     0.210 HD
ENDBRANCH  29  30
BRANCH  29  32
HETATM   32  C13 UNL     1      12.386  12.357  24.512  1.00  0.00     0.217 C 
BRANCH  32  33
HETATM   33  O6  UNL     1      13.725  12.650  24.908  1.00  0.00    -0.280 OA
BRANCH  33  34
HETATM   34  P1  UNL     1      13.866  14.283  25.289  1.00  0.00     0.422 P 
HETATM   35  O7  UNL     1      13.650  14.452  26.756  1.00  0.00    -0.617 OA
HETATM   36  O8  UNL     1      12.739  15.225  24.458  1.00  0.00    -0.617 OA
HETATM   37  O9  UNL     1      15.414  14.877  24.917  1.00  0.00    -0.617 OA
ENDBRANCH  33  34
ENDBRANCH  32  33
ENDBRANCH  29  32
ENDBRANCH  26  29
ENDBRANCH  23  26
ENDBRANCH  22  23
ENDBRANCH  17  22
TORSDOF 10
ENDMDL
