MODEL 12
REMARK VINA RESULT: -7.648828498      2.979      5.393
REMARK  10 active torsions:
REMARK  status: ('A' for Active; 'I' for Inactive)
REMARK    1  A    between atoms: N4_17  and  C9_18 
REMARK    2  A    between atoms: C9_18  and  C10_19 
REMARK    3  A    between atoms: C10_19  and  O3_20 
REMARK    4  A    between atoms: C10_19  and  C11_22 
REMARK    5  A    between atoms: C11_22  and  O4_23 
REMARK    6  A    between atoms: C11_22  and  C12_25 
REMARK    7  A    between atoms: C12_25  and  O5_26 
REMARK    8  A    between atoms: C12_25  and  C13_28 
REMARK    9  A    between atoms: C13_28  and  O6_29 
REMARK   10  A    between atoms: O6_29  and  P1_30 
ROOT
HETATM    1  C1  UNL     1      10.061   2.840  25.882  1.00  0.00     0.049 C 
HETATM    2  C2  UNL     1      10.802   3.993  26.448  1.00  0.00    -0.054 A 
HETATM    3  C3  UNL     1      12.091   3.847  26.913  1.00  0.00     0.039 A 
HETATM    4  C4  UNL     1      12.806   4.908  27.447  1.00  0.00     0.060 A 
HETATM    5  N1  UNL     1      14.064   4.707  27.880  1.00  0.00    -0.347 N 
ATOM      6  H1  UNL     1      14.476   3.777  27.816  1.00  0.00     0.166 HD
HETATM    7  C5  UNL     1      14.779   5.715  28.395  1.00  0.00     0.146 A 
HETATM    8  C6  UNL     1      16.091   5.559  28.859  1.00  0.00     0.280 A 
HETATM    9  O1  UNL     1      16.601   4.426  28.784  1.00  0.00    -0.265 OA
HETATM   10  N2  UNL     1      16.756   6.625  29.369  1.00  0.00    -0.273 N 
ATOM     11  H2  UNL     1      17.712   6.515  29.709  1.00  0.00     0.173 HD
HETATM   12  C7  UNL     1      16.156   7.827  29.427  1.00  0.00     0.328 A 
HETATM   13  O2  UNL     1      16.829   8.775  29.910  1.00  0.00    -0.247 OA
HETATM   14  N3  UNL     1      14.879   8.025  28.985  1.00  0.00    -0.292 N 
ATOM     15  H3  UNL     1      14.466   8.955  29.049  1.00  0.00     0.172 HD
HETATM   16  C8  UNL     1      14.156   7.020  28.468  1.00  0.00     0.145 A 
HETATM   17  N4  UNL     1      12.874   7.177  28.015  1.00  0.00    -0.327 N 
HETATM   18  C14 UNL     1      12.171   6.155  27.501  1.00  0.00     0.063 A 
HETATM   19  C15 UNL     1      10.879   6.310  27.037  1.00  0.00     0.039 A 
HETATM   20  C16 UNL     1      10.194   5.232  26.510  1.00  0.00    -0.054 A 
HETATM   21  C17 UNL     1       8.806   5.380  26.006  1.00  0.00     0.049 C 
ENDROOT
BRANCH  17  22
HETATM   22  C9  UNL     1      12.300   8.501  28.110  1.00  0.00     0.165 C 
BRANCH  22  23
HETATM   23  C10 UNL     1      12.804   9.317  26.912  1.00  0.00     0.167 C 
BRANCH  23  24
HETATM   24  O3  UNL     1      13.754  10.246  27.231  1.00  0.00    -0.391 OA
ATOM     25  H3  UNL     1      14.575   9.872  27.529  1.00  0.00     0.210 HD
ENDBRANCH  23  24
BRANCH  23  26
HETATM   26  C11 UNL     1      11.740   9.856  26.067  1.00  0.00     0.179 C 
BRANCH  26  27
HETATM   27  O4  UNL     1      12.011   9.600  24.720  1.00  0.00    -0.390 OA
ATOM     28  H4  UNL     1      11.811  10.365  24.192  1.00  0.00     0.210 HD
ENDBRANCH  26  27
BRANCH  26  29
HETATM   29  C12 UNL     1      11.206  11.209  26.230  1.00  0.00     0.173 C 
BRANCH  29  30
HETATM   30  O5  UNL     1       9.793  11.071  25.960  1.00  0.00    -0.391 OA
ATOM     31  H5  UNL     1       9.715  10.221  25.544  1.00  0.00     0.210 HD
ENDBRANCH  29  30
BRANCH  29  32
HETATM   32  C13 UNL     1      11.622  12.226  25.171  1.00  0.00     0.217 C 
BRANCH  32  33
HETATM   33  O6  UNL     1      13.047  12.309  25.157  1.00  0.00    -0.280 OA
BRANCH  33  34
HETATM   34  P1  UNL     1      13.537  13.578  24.169  1.00  0.00     0.422 P 
HETATM   35  O7  UNL     1      12.922  13.399  22.820  1.00  0.00    -0.617 OA
HETATM   36  O8  UNL     1      15.216  13.637  24.001  1.00  0.00    -0.617 OA
HETATM   37  O9  UNL     1      13.025  15.078  24.782  1.00  0.00    -0.617 OA
ENDBRANCH  33  34
ENDBRANCH  32  33
ENDBRANCH  29  32
ENDBRANCH  26  29
ENDBRANCH  23  26
ENDBRANCH  22  23
ENDBRANCH  17  22
TORSDOF 10
ENDMDL
