MODEL 9
REMARK VINA RESULT: -8.352090093      1.008      1.739
REMARK  10 active torsions:
REMARK  status: ('A' for Active; 'I' for Inactive)
REMARK    1  A    between atoms: N4_17  and  C9_18 
REMARK    2  A    between atoms: C9_18  and  C10_19 
REMARK    3  A    between atoms: C10_19  and  O3_20 
REMARK    4  A    between atoms: C10_19  and  C11_22 
REMARK    5  A    between atoms: C11_22  and  O4_23 
REMARK    6  A    between atoms: C11_22  and  C12_25 
REMARK    7  A    between atoms: C12_25  and  O5_26 
REMARK    8  A    between atoms: C12_25  and  C13_28 
REMARK    9  A    between atoms: C13_28  and  O6_29 
REMARK   10  A    between atoms: O6_29  and  P1_30 
ROOT
HETATM    1  C1  UNL     1      10.530   3.332  26.650  1.00  0.00     0.049 C 
HETATM    2  C2  UNL     1      10.335   4.797  26.773  1.00  0.00    -0.054 A 
HETATM    3  C3  UNL     1       9.078   5.354  26.682  1.00  0.00     0.039 A 
HETATM    4  C4  UNL     1       8.868   6.720  26.793  1.00  0.00     0.060 A 
HETATM    5  N1  UNL     1       7.617   7.207  26.702  1.00  0.00    -0.347 N 
ATOM      6  H1  UNL     1       6.838   6.567  26.547  1.00  0.00     0.166 HD
HETATM    7  C5  UNL     1       7.384   8.520  26.811  1.00  0.00     0.146 A 
HETATM    8  C6  UNL     1       6.102   9.077  26.724  1.00  0.00     0.280 A 
HETATM    9  O1  UNL     1       5.147   8.302  26.535  1.00  0.00    -0.265 OA
HETATM   10  N2  UNL     1       5.941  10.418  26.844  1.00  0.00    -0.273 N 
ATOM     11  H2  UNL     1       5.009  10.827  26.780  1.00  0.00     0.173 HD
HETATM   12  C7  UNL     1       7.010  11.209  27.046  1.00  0.00     0.328 A 
HETATM   13  O2  UNL     1       6.791  12.444  27.149  1.00  0.00    -0.247 OA
HETATM   14  N3  UNL     1       8.278  10.708  27.138  1.00  0.00    -0.292 N 
ATOM     15  H3  UNL     1       9.057  11.348  27.293  1.00  0.00     0.172 HD
HETATM   16  C8  UNL     1       8.518   9.393  27.030  1.00  0.00     0.145 A 
HETATM   17  N4  UNL     1       9.773   8.853  27.116  1.00  0.00    -0.327 N 
HETATM   18  C14 UNL     1       9.988   7.533  27.005  1.00  0.00     0.063 A 
HETATM   19  C15 UNL     1      11.252   6.983  27.098  1.00  0.00     0.039 A 
HETATM   20  C16 UNL     1      11.428   5.617  26.983  1.00  0.00    -0.054 A 
HETATM   21  C17 UNL     1      12.778   5.008  27.080  1.00  0.00     0.049 C 
ENDROOT
BRANCH  17  22
HETATM   22  C9  UNL     1      10.871   9.770  27.336  1.00  0.00     0.165 C 
BRANCH  22  23
HETATM   23  C10 UNL     1      11.158  10.484  26.008  1.00  0.00     0.167 C 
BRANCH  23  24
HETATM   24  O3  UNL     1      11.815   9.711  25.092  1.00  0.00    -0.391 OA
ATOM     25  H3  UNL     1      12.551  10.145  24.676  1.00  0.00     0.210 HD
ENDBRANCH  23  24
BRANCH  23  26
HETATM   26  C11 UNL     1      11.745  11.813  26.161  1.00  0.00     0.179 C 
BRANCH  26  27
HETATM   27  O4  UNL     1      11.033  12.554  27.107  1.00  0.00    -0.390 OA
ATOM     28  H4  UNL     1      11.535  13.313  27.380  1.00  0.00     0.210 HD
ENDBRANCH  26  27
BRANCH  26  29
HETATM   29  C12 UNL     1      12.105  12.658  25.021  1.00  0.00     0.173 C 
BRANCH  29  30
HETATM   30  O5  UNL     1      13.254  12.003  24.438  1.00  0.00    -0.391 OA
ATOM     31  H5  UNL     1      13.873  11.934  25.155  1.00  0.00     0.210 HD
ENDBRANCH  29  30
BRANCH  29  32
HETATM   32  C13 UNL     1      12.673  14.033  25.357  1.00  0.00     0.217 C 
BRANCH  32  33
HETATM   33  O6  UNL     1      13.479  13.916  26.529  1.00  0.00    -0.280 OA
BRANCH  33  34
HETATM   34  P1  UNL     1      13.441  15.357  27.396  1.00  0.00     0.422 P 
HETATM   35  O7  UNL     1      12.218  15.369  28.251  1.00  0.00    -0.617 OA
HETATM   36  O8  UNL     1      13.411  16.705  26.380  1.00  0.00    -0.617 OA
HETATM   37  O9  UNL     1      14.793  15.506  28.414  1.00  0.00    -0.617 OA
ENDBRANCH  33  34
ENDBRANCH  32  33
ENDBRANCH  29  32
ENDBRANCH  26  29
ENDBRANCH  23  26
ENDBRANCH  22  23
ENDBRANCH  17  22
TORSDOF 10
ENDMDL
