MODEL 7
REMARK VINA RESULT: -8.464091028      1.617      2.438
REMARK  10 active torsions:
REMARK  status: ('A' for Active; 'I' for Inactive)
REMARK    1  A    between atoms: N4_17  and  C9_18 
REMARK    2  A    between atoms: C9_18  and  C10_19 
REMARK    3  A    between atoms: C10_19  and  O3_20 
REMARK    4  A    between atoms: C10_19  and  C11_22 
REMARK    5  A    between atoms: C11_22  and  O4_23 
REMARK    6  A    between atoms: C11_22  and  C12_25 
REMARK    7  A    between atoms: C12_25  and  O5_26 
REMARK    8  A    between atoms: C12_25  and  C13_28 
REMARK    9  A    between atoms: C13_28  and  O6_29 
REMARK   10  A    between atoms: O6_29  and  P1_30 
ROOT
HETATM    1  C1  UNL     1      10.617   3.296  26.644  1.00  0.00     0.049 C 
HETATM    2  C2  UNL     1      10.421   4.754  26.831  1.00  0.00    -0.054 A 
HETATM    3  C3  UNL     1       9.179   5.328  26.667  1.00  0.00     0.039 A 
HETATM    4  C4  UNL     1       8.968   6.689  26.836  1.00  0.00     0.060 A 
HETATM    5  N1  UNL     1       7.733   7.192  26.668  1.00  0.00    -0.347 N 
ATOM      6  H1  UNL     1       6.965   6.570  26.415  1.00  0.00     0.166 HD
HETATM    7  C5  UNL     1       7.499   8.500  26.830  1.00  0.00     0.146 A 
HETATM    8  C6  UNL     1       6.232   9.074  26.668  1.00  0.00     0.280 A 
HETATM    9  O1  UNL     1       5.291   8.321  26.359  1.00  0.00    -0.265 OA
HETATM   10  N2  UNL     1       6.070  10.408  26.847  1.00  0.00    -0.273 N 
ATOM     11  H2  UNL     1       5.148  10.831  26.729  1.00  0.00     0.173 HD
HETATM   12  C7  UNL     1       7.122  11.176  27.181  1.00  0.00     0.328 A 
HETATM   13  O2  UNL     1       6.903  12.406  27.333  1.00  0.00    -0.247 OA
HETATM   14  N3  UNL     1       8.375  10.658  27.349  1.00  0.00    -0.292 N 
ATOM     15  H3  UNL     1       9.143  11.280  27.602  1.00  0.00     0.172 HD
HETATM   16  C8  UNL     1       8.616   9.348  27.189  1.00  0.00     0.145 A 
HETATM   17  N4  UNL     1       9.856   8.792  27.349  1.00  0.00    -0.327 N 
HETATM   18  C14 UNL     1      10.072   7.477  27.183  1.00  0.00     0.063 A 
HETATM   19  C15 UNL     1      11.321   6.909  27.350  1.00  0.00     0.039 A 
HETATM   20  C16 UNL     1      11.497   5.550  27.175  1.00  0.00    -0.054 A 
HETATM   21  C17 UNL     1      12.831   4.923  27.349  1.00  0.00     0.049 C 
ENDROOT
BRANCH  17  22
HETATM   22  C9  UNL     1      10.937   9.683  27.709  1.00  0.00     0.165 C 
BRANCH  22  23
HETATM   23  C10 UNL     1      11.872   9.799  26.497  1.00  0.00     0.167 C 
BRANCH  23  24
HETATM   24  O3  UNL     1      13.199   9.842  26.820  1.00  0.00    -0.391 OA
ATOM     25  H3  UNL     1      13.546  10.722  26.914  1.00  0.00     0.210 HD
ENDBRANCH  23  24
BRANCH  23  26
HETATM   26  C11 UNL     1      11.483  10.833  25.541  1.00  0.00     0.179 C 
BRANCH  26  27
HETATM   27  O4  UNL     1      11.662  10.378  24.232  1.00  0.00    -0.390 OA
ATOM     28  H4  UNL     1      10.899   9.889  23.944  1.00  0.00     0.210 HD
ENDBRANCH  26  27
BRANCH  26  29
HETATM   29  C12 UNL     1      11.917  12.227  25.657  1.00  0.00     0.173 C 
BRANCH  29  30
HETATM   30  O5  UNL     1      13.319  12.194  25.311  1.00  0.00    -0.391 OA
ATOM     31  H5  UNL     1      13.595  13.102  25.363  1.00  0.00     0.210 HD
ENDBRANCH  29  30
BRANCH  29  32
HETATM   32  C13 UNL     1      11.964  12.799  27.070  1.00  0.00     0.217 C 
BRANCH  32  33
HETATM   33  O6  UNL     1      10.637  13.151  27.461  1.00  0.00    -0.280 OA
BRANCH  33  34
HETATM   34  P1  UNL     1      10.555  13.308  29.134  1.00  0.00     0.422 P 
HETATM   35  O7  UNL     1       9.357  12.565  29.626  1.00  0.00    -0.617 OA
HETATM   36  O8  UNL     1      10.431  14.922  29.612  1.00  0.00    -0.617 OA
HETATM   37  O9  UNL     1      11.927  12.648  29.889  1.00  0.00    -0.617 OA
ENDBRANCH  33  34
ENDBRANCH  32  33
ENDBRANCH  29  32
ENDBRANCH  26  29
ENDBRANCH  23  26
ENDBRANCH  22  23
ENDBRANCH  17  22
TORSDOF 10
ENDMDL
