MODEL 15
REMARK VINA RESULT: -7.476031718      2.904      5.303
REMARK  10 active torsions:
REMARK  status: ('A' for Active; 'I' for Inactive)
REMARK    1  A    between atoms: N4_17  and  C9_18 
REMARK    2  A    between atoms: C9_18  and  C10_19 
REMARK    3  A    between atoms: C10_19  and  O3_20 
REMARK    4  A    between atoms: C10_19  and  C11_22 
REMARK    5  A    between atoms: C11_22  and  O4_23 
REMARK    6  A    between atoms: C11_22  and  C12_25 
REMARK    7  A    between atoms: C12_25  and  O5_26 
REMARK    8  A    between atoms: C12_25  and  C13_28 
REMARK    9  A    between atoms: C13_28  and  O6_29 
REMARK   10  A    between atoms: O6_29  and  P1_30 
ROOT
HETATM    1  C1  UNL     1      10.130   2.973  25.867  1.00  0.00     0.049 C 
HETATM    2  C2  UNL     1      10.818   4.153  26.444  1.00  0.00    -0.054 A 
HETATM    3  C3  UNL     1      12.084   4.044  26.976  1.00  0.00     0.039 A 
HETATM    4  C4  UNL     1      12.750   5.132  27.522  1.00  0.00     0.060 A 
HETATM    5  N1  UNL     1      13.987   4.967  28.023  1.00  0.00    -0.347 N 
ATOM      6  H1  UNL     1      14.421   4.044  28.000  1.00  0.00     0.166 HD
HETATM    7  C5  UNL     1      14.655   6.000  28.550  1.00  0.00     0.146 A 
HETATM    8  C6  UNL     1      15.944   5.881  29.083  1.00  0.00     0.280 A 
HETATM    9  O1  UNL     1      16.480   4.758  29.060  1.00  0.00    -0.265 OA
HETATM   10  N2  UNL     1      16.561   6.972  29.602  1.00  0.00    -0.273 N 
ATOM     11  H2  UNL     1      17.500   6.890  29.992  1.00  0.00     0.173 HD
HETATM   12  C7  UNL     1      15.935   8.163  29.602  1.00  0.00     0.328 A 
HETATM   13  O2  UNL     1      16.564   9.135  30.098  1.00  0.00    -0.247 OA
HETATM   14  N3  UNL     1      14.679   8.324  29.092  1.00  0.00    -0.292 N 
ATOM     15  H3  UNL     1      14.245   9.246  29.114  1.00  0.00     0.172 HD
HETATM   16  C8  UNL     1      14.003   7.293  28.562  1.00  0.00     0.145 A 
HETATM   17  N4  UNL     1      12.743   7.413  28.042  1.00  0.00    -0.327 N 
HETATM   18  C14 UNL     1      12.088   6.366  27.516  1.00  0.00     0.063 A 
HETATM   19  C15 UNL     1      10.819   6.484  26.983  1.00  0.00     0.039 A 
HETATM   20  C16 UNL     1      10.183   5.380  26.447  1.00  0.00    -0.054 A 
HETATM   21  C17 UNL     1       8.819   5.488  25.871  1.00  0.00     0.049 C 
ENDROOT
BRANCH  17  22
HETATM   22  C9  UNL     1      12.138   8.727  28.077  1.00  0.00     0.165 C 
BRANCH  22  23
HETATM   23  C10 UNL     1      12.575   9.478  26.812  1.00  0.00     0.167 C 
BRANCH  23  24
HETATM   24  O3  UNL     1      13.567  10.394  27.023  1.00  0.00    -0.391 OA
ATOM     25  H3  UNL     1      13.610  11.077  26.363  1.00  0.00     0.210 HD
ENDBRANCH  23  24
BRANCH  23  26
HETATM   26  C11 UNL     1      11.466  10.007  26.021  1.00  0.00     0.179 C 
BRANCH  26  27
HETATM   27  O4  UNL     1      11.856  10.178  24.690  1.00  0.00    -0.390 OA
ATOM     28  H4  UNL     1      11.148   9.935  24.104  1.00  0.00     0.210 HD
ENDBRANCH  26  27
BRANCH  26  29
HETATM   29  C12 UNL     1      10.648  11.140  26.459  1.00  0.00     0.173 C 
BRANCH  29  30
HETATM   30  O5  UNL     1       9.330  10.849  25.942  1.00  0.00    -0.391 OA
ATOM     31  H5  UNL     1       8.810  11.605  26.188  1.00  0.00     0.210 HD
ENDBRANCH  29  30
BRANCH  29  32
HETATM   32  C13 UNL     1      10.949  12.481  25.797  1.00  0.00     0.217 C 
BRANCH  32  33
HETATM   33  O6  UNL     1      11.933  13.160  26.574  1.00  0.00    -0.280 OA
BRANCH  33  34
HETATM   34  P1  UNL     1      13.177  13.700  25.579  1.00  0.00     0.422 P 
HETATM   35  O7  UNL     1      14.325  14.122  26.435  1.00  0.00    -0.617 OA
HETATM   36  O8  UNL     1      12.700  15.006  24.623  1.00  0.00    -0.617 OA
HETATM   37  O9  UNL     1      13.723  12.470  24.542  1.00  0.00    -0.617 OA
ENDBRANCH  33  34
ENDBRANCH  32  33
ENDBRANCH  29  32
ENDBRANCH  26  29
ENDBRANCH  23  26
ENDBRANCH  22  23
ENDBRANCH  17  22
TORSDOF 10
ENDMDL
