MODEL 13
REMARK VINA RESULT: -7.622588395      1.901      2.931
REMARK  10 active torsions:
REMARK  status: ('A' for Active; 'I' for Inactive)
REMARK    1  A    between atoms: N4_17  and  C9_18 
REMARK    2  A    between atoms: C9_18  and  C10_19 
REMARK    3  A    between atoms: C10_19  and  O3_20 
REMARK    4  A    between atoms: C10_19  and  C11_22 
REMARK    5  A    between atoms: C11_22  and  O4_23 
REMARK    6  A    between atoms: C11_22  and  C12_25 
REMARK    7  A    between atoms: C12_25  and  O5_26 
REMARK    8  A    between atoms: C12_25  and  C13_28 
REMARK    9  A    between atoms: C13_28  and  O6_29 
REMARK   10  A    between atoms: O6_29  and  P1_30 
ROOT
HETATM    1  C1  UNL     1      10.287   3.145  26.392  1.00  0.00     0.049 C 
HETATM    2  C2  UNL     1      10.141   4.603  26.618  1.00  0.00    -0.054 A 
HETATM    3  C3  UNL     1       8.910   5.215  26.517  1.00  0.00     0.039 A 
HETATM    4  C4  UNL     1       8.745   6.577  26.723  1.00  0.00     0.060 A 
HETATM    5  N1  UNL     1       7.519   7.118  26.616  1.00  0.00    -0.347 N 
ATOM      6  H1  UNL     1       6.724   6.524  26.380  1.00  0.00     0.166 HD
HETATM    7  C5  UNL     1       7.329   8.428  26.816  1.00  0.00     0.146 A 
HETATM    8  C6  UNL     1       6.074   9.040  26.717  1.00  0.00     0.280 A 
HETATM    9  O1  UNL     1       5.100   8.321  26.428  1.00  0.00    -0.265 OA
HETATM   10  N2  UNL     1       5.957  10.374  26.932  1.00  0.00    -0.273 N 
ATOM     11  H2  UNL     1       5.044  10.825  26.860  1.00  0.00     0.173 HD
HETATM   12  C7  UNL     1       7.044  11.104  27.241  1.00  0.00     0.328 A 
HETATM   13  O2  UNL     1       6.866  12.336  27.429  1.00  0.00    -0.247 OA
HETATM   14  N3  UNL     1       8.287  10.548  27.348  1.00  0.00    -0.292 N 
ATOM     15  H3  UNL     1       9.081  11.142  27.585  1.00  0.00     0.172 HD
HETATM   16  C8  UNL     1       8.484   9.236  27.150  1.00  0.00     0.145 A 
HETATM   17  N4  UNL     1       9.712   8.642  27.248  1.00  0.00    -0.327 N 
HETATM   18  C14 UNL     1       9.884   7.325  27.045  1.00  0.00     0.063 A 
HETATM   19  C15 UNL     1      11.121   6.720  27.149  1.00  0.00     0.039 A 
HETATM   20  C16 UNL     1      11.252   5.360  26.937  1.00  0.00    -0.054 A 
HETATM   21  C17 UNL     1      12.573   4.693  27.045  1.00  0.00     0.049 C 
ENDROOT
BRANCH  17  22
HETATM   22  C9  UNL     1      10.832   9.494  27.585  1.00  0.00     0.165 C 
BRANCH  22  23
HETATM   23  C10 UNL     1      11.179  10.324  26.341  1.00  0.00     0.167 C 
BRANCH  23  24
HETATM   24  O3  UNL     1      11.699   9.592  25.311  1.00  0.00    -0.391 OA
ATOM     25  H3  UNL     1      11.707  10.049  24.477  1.00  0.00     0.210 HD
ENDBRANCH  23  24
BRANCH  23  26
HETATM   26  C11 UNL     1      11.947  11.534  26.627  1.00  0.00     0.179 C 
BRANCH  26  27
HETATM   27  O4  UNL     1      13.217  11.452  26.050  1.00  0.00    -0.390 OA
ATOM     28  H4  UNL     1      13.725  12.229  26.256  1.00  0.00     0.210 HD
ENDBRANCH  26  27
BRANCH  26  29
HETATM   29  C12 UNL     1      12.035  12.120  27.966  1.00  0.00     0.173 C 
BRANCH  29  30
HETATM   30  O5  UNL     1      12.012  13.546  27.734  1.00  0.00    -0.391 OA
ATOM     31  H5  UNL     1      11.950  13.925  28.603  1.00  0.00     0.210 HD
ENDBRANCH  29  30
BRANCH  29  32
HETATM   32  C13 UNL     1      13.367  11.948  28.688  1.00  0.00     0.217 C 
BRANCH  32  33
HETATM   33  O6  UNL     1      13.172  11.071  29.797  1.00  0.00    -0.280 OA
BRANCH  33  34
HETATM   34  P1  UNL     1      14.037   9.648  29.560  1.00  0.00     0.422 P 
HETATM   35  O7  UNL     1      13.234   8.506  30.089  1.00  0.00    -0.617 OA
HETATM   36  O8  UNL     1      15.530   9.677  30.348  1.00  0.00    -0.617 OA
HETATM   37  O9  UNL     1      14.327   9.363  27.910  1.00  0.00    -0.617 OA
ENDBRANCH  33  34
ENDBRANCH  32  33
ENDBRANCH  29  32
ENDBRANCH  26  29
ENDBRANCH  23  26
ENDBRANCH  22  23
ENDBRANCH  17  22
TORSDOF 10
ENDMDL
