MODEL 3
REMARK VINA RESULT: -9.954731876      3.321      7.645
REMARK  3 active torsions:
REMARK  status: ('A' for Active; 'I' for Inactive)
REMARK    1  A    between atoms: C2_2  and  C3_3 
REMARK    2  A    between atoms: C20_22  and  O3_24 
REMARK    3  A    between atoms: C41_49  and  O6_50 
ROOT
HETATM    1  C3  UNL     1      70.154  -6.911  15.107  1.00  0.00    -0.059 C 
HETATM    2  C4  UNL     1      69.745  -7.166  16.328  1.00  0.00     0.013 C 
HETATM    3  C5  UNL     1      70.201  -8.376  16.997  1.00  0.00    -0.034 C 
HETATM    4  C6  UNL     1      69.760  -8.622  18.354  1.00  0.00     0.187 C 
HETATM    5  O1  UNL     1      68.342  -8.679  18.332  1.00  0.00    -0.343 OA
HETATM    6  C7  UNL     1      67.940  -8.341  19.610  1.00  0.00     0.168 C 
HETATM    7  C8  UNL     1      66.908  -9.354  20.046  1.00  0.00     0.100 C 
HETATM    8  C9  UNL     1      67.492 -10.361  21.038  1.00  0.00     0.130 C 
HETATM    9  C10 UNL     1      67.000  -9.938  22.405  1.00  0.00     0.032 C 
HETATM   10  C11 UNL     1      65.626 -10.601  22.580  1.00  0.00     0.008 C 
HETATM   11  C12 UNL     1      65.908 -12.089  22.715  1.00  0.00     0.069 C 
HETATM   12  C13 UNL     1      66.975 -12.520  21.701  1.00  0.00     0.168 C 
HETATM   13  C14 UNL     1      66.534 -13.832  21.139  1.00  0.00     0.074 C 
HETATM   14  C15 UNL     1      67.457 -14.810  21.843  1.00  0.00     0.077 C 
HETATM   15  C16 UNL     1      68.664 -13.937  22.094  1.00  0.00     0.198 C 
HETATM   16  O2  UNL     1      69.464 -13.995  20.974  1.00  0.00    -0.347 OA
HETATM   17  C17 UNL     1      70.514 -14.870  21.048  1.00  0.00     0.129 C 
HETATM   18  C18 UNL     1      70.289 -16.079  21.887  1.00  0.00     0.035 C 
HETATM   19  C19 UNL     1      69.719 -15.804  23.242  1.00  0.00     0.046 C 
HETATM   20  C20 UNL     1      69.395 -14.345  23.354  1.00  0.00     0.110 C 
HETATM   21  C21 UNL     1      68.557 -14.041  24.552  1.00  0.00     0.051 C 
HETATM   22  C22 UNL     1      70.817 -15.335  19.622  1.00  0.00     0.065 C 
HETATM   23  C23 UNL     1      71.741 -14.416  18.927  1.00  0.00    -0.087 C 
HETATM   24  C24 UNL     1      72.990 -14.338  19.353  1.00  0.00     0.014 C 
HETATM   25  C25 UNL     1      71.341 -13.572  17.769  1.00  0.00     0.034 C 
HETATM   26  C26 UNL     1      71.610 -12.141  18.134  1.00  0.00     0.010 C 
HETATM   27  C27 UNL     1      71.356 -11.182  16.995  1.00  0.00     0.053 C 
HETATM   28  C28 UNL     1      72.026  -9.898  17.350  1.00  0.00    -0.005 C 
HETATM   29  N1  UNL     1      72.906 -10.016  18.263  1.00  0.00    -0.395 N 
ATOM     30  H1  UNL     1      73.013 -10.971  18.607  1.00  0.00     0.159 HD
HETATM   31  C29 UNL     1      73.764  -9.091  18.893  1.00  0.00     0.123 C 
HETATM   32  C30 UNL     1      74.655  -8.512  17.790  1.00  0.00     0.003 C 
HETATM   33  C31 UNL     1      75.870  -7.932  18.479  1.00  0.00     0.012 C 
HETATM   34  C32 UNL     1      73.930  -7.477  16.990  1.00  0.00    -0.012 C 
HETATM   35  C33 UNL     1      74.565  -7.392  15.629  1.00  0.00     0.010 C 
HETATM   36  C34 UNL     1      72.465  -7.473  17.056  1.00  0.00     0.025 C 
HETATM   37  C35 UNL     1      71.661  -8.625  16.668  1.00  0.00     0.025 C 
HETATM   38  C36 UNL     1      71.700  -8.855  15.169  1.00  0.00     0.025 C 
HETATM   39  C37 UNL     1      71.070  -7.791  14.353  1.00  0.00     0.040 C 
HETATM   40  O4  UNL     1      68.211 -12.658  22.258  1.00  0.00    -0.316 OA
HETATM   41  O5  UNL     1      67.053 -11.605  20.659  1.00  0.00    -0.349 OA
HETATM   42  C38 UNL     1      67.362  -6.944  19.637  1.00  0.00     0.075 C 
HETATM   43  C39 UNL     1      68.390  -5.879  19.578  1.00  0.00     0.018 C 
HETATM   44  C40 UNL     1      68.182  -4.888  20.723  1.00  0.00     0.012 C 
HETATM   45  C41 UNL     1      69.809  -6.348  19.505  1.00  0.00     0.154 C 
HETATM   46  C42 UNL     1      70.020  -7.797  19.504  1.00  0.00     0.187 C 
HETATM   47  O7  UNL     1      69.063  -8.329  20.424  1.00  0.00    -0.344 OA
ENDROOT
BRANCH  20  48
HETATM   48  O3  UNL     1      70.565 -13.597  23.438  1.00  0.00    -0.385 OA
ATOM     49  H3  UNL     1      71.116 -13.823  22.697  1.00  0.00     0.210 HD
ENDBRANCH  20  48
BRANCH  45  50
HETATM   50  O6  UNL     1      70.451  -5.847  20.673  1.00  0.00    -0.393 OA
ATOM     51  H6  UNL     1      71.333  -5.612  20.410  1.00  0.00     0.210 HD
ENDBRANCH  45  50
BRANCH   1  52
HETATM   52  C2  UNL     1      69.682  -5.693  14.459  1.00  0.00    -0.003 C 
HETATM   53  C1  UNL     1      68.993  -5.695  13.329  1.00  0.00     0.012 C 
ENDBRANCH   1  52
TORSDOF 3
ENDMDL
