MODEL 2
REMARK VINA RESULT: -10.165906453      1.018      1.102
REMARK  3 active torsions:
REMARK  status: ('A' for Active; 'I' for Inactive)
REMARK    1  A    between atoms: C2_2  and  C3_3 
REMARK    2  A    between atoms: C20_22  and  O3_24 
REMARK    3  A    between atoms: C41_49  and  O6_50 
ROOT
HETATM    1  C3  UNL     1      67.402 -10.606  19.335  1.00  0.00    -0.059 C 
HETATM    2  C4  UNL     1      68.491 -11.333  19.436  1.00  0.00     0.013 C 
HETATM    3  C5  UNL     1      69.782 -10.732  19.139  1.00  0.00    -0.034 C 
HETATM    4  C6  UNL     1      70.971 -11.546  19.284  1.00  0.00     0.187 C 
HETATM    5  O1  UNL     1      70.830 -12.657  18.414  1.00  0.00    -0.343 OA
HETATM    6  C7  UNL     1      71.621 -13.653  18.957  1.00  0.00     0.168 C 
HETATM    7  C8  UNL     1      72.446 -14.240  17.836  1.00  0.00     0.100 C 
HETATM    8  C9  UNL     1      73.895 -13.755  17.891  1.00  0.00     0.130 C 
HETATM    9  C10 UNL     1      74.699 -14.895  18.478  1.00  0.00     0.032 C 
HETATM   10  C11 UNL     1      75.072 -15.798  17.294  1.00  0.00     0.008 C 
HETATM   11  C12 UNL     1      76.076 -15.000  16.476  1.00  0.00     0.069 C 
HETATM   12  C13 UNL     1      75.626 -13.538  16.365  1.00  0.00     0.168 C 
HETATM   13  C14 UNL     1      75.885 -13.110  14.958  1.00  0.00     0.074 C 
HETATM   14  C15 UNL     1      77.123 -12.244  15.107  1.00  0.00     0.077 C 
HETATM   15  C16 UNL     1      76.951 -11.740  16.521  1.00  0.00     0.198 C 
HETATM   16  O2  UNL     1      76.171 -10.607  16.471  1.00  0.00    -0.347 OA
HETATM   17  C17 UNL     1      76.853  -9.422  16.500  1.00  0.00     0.129 C 
HETATM   18  C18 UNL     1      78.208  -9.442  15.881  1.00  0.00     0.035 C 
HETATM   19  C19 UNL     1      79.078 -10.577  16.315  1.00  0.00     0.046 C 
HETATM   20  C20 UNL     1      78.286 -11.499  17.192  1.00  0.00     0.110 C 
HETATM   21  C21 UNL     1      78.983 -12.798  17.424  1.00  0.00     0.051 C 
HETATM   22  C22 UNL     1      76.007  -8.392  15.750  1.00  0.00     0.065 C 
HETATM   23  C23 UNL     1      75.014  -7.745  16.632  1.00  0.00    -0.087 C 
HETATM   24  C24 UNL     1      75.451  -6.945  17.590  1.00  0.00     0.014 C 
HETATM   25  C25 UNL     1      73.546  -7.945  16.500  1.00  0.00     0.034 C 
HETATM   26  C26 UNL     1      73.041  -8.480  17.808  1.00  0.00     0.010 C 
HETATM   27  C27 UNL     1      71.537  -8.618  17.849  1.00  0.00     0.053 C 
HETATM   28  C28 UNL     1      71.152  -8.764  19.282  1.00  0.00    -0.005 C 
HETATM   29  N1  UNL     1      72.055  -8.380  20.096  1.00  0.00    -0.395 N 
ATOM     30  H1  UNL     1      72.898  -8.035  19.637  1.00  0.00     0.159 HD
HETATM   31  C29 UNL     1      72.122  -8.337  21.503  1.00  0.00     0.123 C 
HETATM   32  C30 UNL     1      70.994  -7.405  21.958  1.00  0.00     0.003 C 
HETATM   33  C31 UNL     1      71.348  -6.953  23.357  1.00  0.00     0.012 C 
HETATM   34  C32 UNL     1      69.667  -8.095  21.922  1.00  0.00    -0.012 C 
HETATM   35  C33 UNL     1      68.591  -7.056  21.775  1.00  0.00     0.010 C 
HETATM   36  C34 UNL     1      69.557  -9.308  21.105  1.00  0.00     0.025 C 
HETATM   37  C35 UNL     1      69.823  -9.312  19.671  1.00  0.00     0.025 C 
HETATM   38  C36 UNL     1      68.751  -8.565  18.901  1.00  0.00     0.025 C 
HETATM   39  C37 UNL     1      67.406  -9.184  18.934  1.00  0.00     0.040 C 
HETATM   40  O4  UNL     1      76.292 -12.712  17.220  1.00  0.00    -0.316 OA
HETATM   41  O5  UNL     1      74.263 -13.430  16.609  1.00  0.00    -0.349 OA
HETATM   42  C38 UNL     1      70.768 -14.719  19.608  1.00  0.00     0.075 C 
HETATM   43  C39 UNL     1      70.216 -14.312  20.920  1.00  0.00     0.018 C 
HETATM   44  C40 UNL     1      70.542 -15.369  21.974  1.00  0.00     0.012 C 
HETATM   45  C41 UNL     1      70.586 -12.938  21.385  1.00  0.00     0.154 C 
HETATM   46  C42 UNL     1      71.450 -12.158  20.496  1.00  0.00     0.187 C 
HETATM   47  O7  UNL     1      72.395 -13.087  19.959  1.00  0.00    -0.344 OA
ENDROOT
BRANCH  20  48
HETATM   48  O3  UNL     1      78.049 -10.903  18.427  1.00  0.00    -0.385 OA
ATOM     49  H3  UNL     1      78.847 -10.468  18.704  1.00  0.00     0.210 HD
ENDBRANCH  20  48
BRANCH  45  50
HETATM   50  O6  UNL     1      71.309 -13.113  22.599  1.00  0.00    -0.393 OA
ATOM     51  H6  UNL     1      71.370 -12.252  22.997  1.00  0.00     0.210 HD
ENDBRANCH  45  50
BRANCH   1  52
HETATM   52  C2  UNL     1      66.121 -11.231  19.638  1.00  0.00    -0.003 C 
HETATM   53  C1  UNL     1      65.969 -12.152  20.577  1.00  0.00     0.012 C 
ENDBRANCH   1  52
TORSDOF 3
ENDMDL
