MODEL 1
REMARK VINA RESULT: -11.189600347      0.000      0.000
REMARK  3 active torsions:
REMARK  status: ('A' for Active; 'I' for Inactive)
REMARK    1  A    between atoms: C2_2  and  C3_3 
REMARK    2  A    between atoms: C20_22  and  O3_24 
REMARK    3  A    between atoms: C41_49  and  O6_50 
ROOT
HETATM    1  C3  UNL     1      67.101  -9.070  18.904  1.00  0.00    -0.059 C 
HETATM    2  C4  UNL     1      68.027  -9.990  19.044  1.00  0.00     0.013 C 
HETATM    3  C5  UNL     1      69.428  -9.621  18.907  1.00  0.00    -0.034 C 
HETATM    4  C6  UNL     1      70.432 -10.648  19.094  1.00  0.00     0.187 C 
HETATM    5  O1  UNL     1      70.183 -11.661  18.133  1.00  0.00    -0.343 OA
HETATM    6  C7  UNL     1      70.726 -12.816  18.666  1.00  0.00     0.168 C 
HETATM    7  C8  UNL     1      71.540 -13.479  17.580  1.00  0.00     0.100 C 
HETATM    8  C9  UNL     1      73.040 -13.273  17.798  1.00  0.00     0.130 C 
HETATM    9  C10 UNL     1      73.565 -14.575  18.365  1.00  0.00     0.032 C 
HETATM   10  C11 UNL     1      73.888 -15.460  17.154  1.00  0.00     0.008 C 
HETATM   11  C12 UNL     1      75.094 -14.815  16.489  1.00  0.00     0.069 C 
HETATM   12  C13 UNL     1      74.925 -13.290  16.450  1.00  0.00     0.168 C 
HETATM   13  C14 UNL     1      75.395 -12.836  15.107  1.00  0.00     0.074 C 
HETATM   14  C15 UNL     1      76.746 -12.224  15.429  1.00  0.00     0.077 C 
HETATM   15  C16 UNL     1      76.528 -11.781  16.856  1.00  0.00     0.198 C 
HETATM   16  O2  UNL     1      75.970 -10.522  16.824  1.00  0.00    -0.347 OA
HETATM   17  C17 UNL     1      76.846  -9.486  17.002  1.00  0.00     0.129 C 
HETATM   18  C18 UNL     1      78.230  -9.720  16.503  1.00  0.00     0.035 C 
HETATM   19  C19 UNL     1      78.837 -11.020  16.925  1.00  0.00     0.046 C 
HETATM   20  C20 UNL     1      77.810 -11.829  17.658  1.00  0.00     0.110 C 
HETATM   21  C21 UNL     1      78.238 -13.246  17.850  1.00  0.00     0.051 C 
HETATM   22  C22 UNL     1      76.276  -8.276  16.261  1.00  0.00     0.065 C 
HETATM   23  C23 UNL     1      75.332  -7.510  17.099  1.00  0.00    -0.087 C 
HETATM   24  C24 UNL     1      75.807  -6.861  18.150  1.00  0.00     0.014 C 
HETATM   25  C25 UNL     1      73.872  -7.427  16.825  1.00  0.00     0.034 C 
HETATM   26  C26 UNL     1      73.152  -7.936  18.040  1.00  0.00     0.010 C 
HETATM   27  C27 UNL     1      71.651  -7.796  17.939  1.00  0.00     0.053 C 
HETATM   28  C28 UNL     1      71.106  -7.952  19.318  1.00  0.00    -0.005 C 
HETATM   29  N1  UNL     1      71.977  -7.789  20.234  1.00  0.00    -0.395 N 
ATOM     30  H1  UNL     1      72.910  -7.579  19.878  1.00  0.00     0.159 HD
HETATM   31  C29 UNL     1      71.910  -7.842  21.641  1.00  0.00     0.123 C 
HETATM   32  C30 UNL     1      70.926  -6.746  22.064  1.00  0.00     0.003 C 
HETATM   33  C31 UNL     1      71.214  -6.449  23.519  1.00  0.00     0.012 C 
HETATM   34  C32 UNL     1      69.508  -7.176  21.861  1.00  0.00    -0.012 C 
HETATM   35  C33 UNL     1      68.654  -5.949  21.699  1.00  0.00     0.010 C 
HETATM   36  C34 UNL     1      69.266  -8.297  20.948  1.00  0.00     0.025 C 
HETATM   37  C35 UNL     1      69.668  -8.267  19.547  1.00  0.00     0.025 C 
HETATM   38  C36 UNL     1      68.828  -7.291  18.744  1.00  0.00     0.025 C 
HETATM   39  C37 UNL     1      67.398  -7.652  18.613  1.00  0.00     0.040 C 
HETATM   40  O4  UNL     1      75.639 -12.653  17.420  1.00  0.00    -0.316 OA
HETATM   41  O5  UNL     1      73.586 -12.947  16.582  1.00  0.00    -0.349 OA
HETATM   42  C38 UNL     1      69.636 -13.742  19.158  1.00  0.00     0.075 C 
HETATM   43  C39 UNL     1      69.038 -13.318  20.444  1.00  0.00     0.018 C 
HETATM   44  C40 UNL     1      69.064 -14.477  21.440  1.00  0.00     0.012 C 
HETATM   45  C41 UNL     1      69.599 -12.065  21.042  1.00  0.00     0.154 C 
HETATM   46  C42 UNL     1      70.672 -11.407  20.293  1.00  0.00     0.187 C 
HETATM   47  O7  UNL     1      71.485 -12.462  19.771  1.00  0.00    -0.344 OA
ENDROOT
BRANCH  20  48
HETATM   48  O3  UNL     1      77.562 -11.273  18.908  1.00  0.00    -0.385 OA
ATOM     49  H3  UNL     1      78.282 -10.692  19.124  1.00  0.00     0.210 HD
ENDBRANCH  20  48
BRANCH  45  50
HETATM   50  O6  UNL     1      70.155 -12.441  22.297  1.00  0.00    -0.393 OA
ATOM     51  H6  UNL     1      71.096 -12.465  22.173  1.00  0.00     0.210 HD
ENDBRANCH  45  50
BRANCH   1  52
HETATM   52  C2  UNL     1      65.705  -9.465  19.046  1.00  0.00    -0.003 C 
HETATM   53  C1  UNL     1      65.251 -10.656  18.690  1.00  0.00     0.012 C 
ENDBRANCH   1  52
TORSDOF 3
ENDMDL
