MODEL 3
REMARK VINA RESULT: -10.540486384      0.862      6.429
REMARK  12 active torsions:
REMARK  status: ('A' for Active; 'I' for Inactive)
REMARK    1  A    between atoms: O1_2  and  C2_3 
REMARK    2  A    between atoms: C5_6  and  S1_7 
REMARK    3  A    between atoms: S1_7  and  N1_10 
REMARK    4  A    between atoms: N1_10  and  C6_11 
REMARK    5  A    between atoms: N1_10  and  C8_15 
REMARK    6  A    between atoms: C6_11  and  C7_12 
REMARK    7  A    between atoms: C11_18  and  N3_19 
REMARK    8  A    between atoms: N3_19  and  C12_20 
REMARK    9  A    between atoms: N3_19  and  S2_24 
REMARK   10  A    between atoms: C12_20  and  C13_21 
REMARK   11  A    between atoms: S2_24  and  C14_27 
REMARK   12  A    between atoms: C17_30  and  O8_31 
ROOT
HETATM    1  C8  UNL     1       3.028  -0.809 -21.966  1.00  0.00     0.061 A 
HETATM    2  C9  UNL     1       4.205  -0.136 -22.331  1.00  0.00     0.034 A 
HETATM    3  C10 UNL     1       4.520   1.113 -21.893  1.00  0.00     0.034 A 
HETATM    4  C11 UNL     1       3.647   1.774 -21.043  1.00  0.00     0.061 A 
HETATM    5  C21 UNL     1       2.494   1.162 -20.669  1.00  0.00     0.004 A 
HETATM    6  C22 UNL     1       1.561   1.801 -19.853  1.00  0.00     0.014 A 
HETATM    7  C23 UNL     1       0.376   1.192 -19.505  1.00  0.00     0.001 A 
HETATM    8  C24 UNL     1       0.070  -0.063 -19.952  1.00  0.00     0.001 A 
HETATM    9  C25 UNL     1       0.997  -0.687 -20.760  1.00  0.00     0.014 A 
HETATM   10  C26 UNL     1       2.187  -0.142 -21.138  1.00  0.00     0.004 A 
ENDROOT
BRANCH   1  11
HETATM   11  N1  UNL     1       2.813  -2.138 -22.404  1.00  0.00    -0.241 N 
BRANCH  11  12
HETATM   12  S1  UNL     1       2.013  -2.382 -23.928  1.00  0.00     0.269 S 
HETATM   13  O2  UNL     1       1.561  -3.778 -24.129  1.00  0.00    -0.200 OA
HETATM   14  O3  UNL     1       0.769  -1.515 -24.008  1.00  0.00    -0.200 OA
BRANCH  12  15
HETATM   15  C5  UNL     1       3.036  -1.871 -25.245  1.00  0.00     0.080 A 
HETATM   16  C4  UNL     1       3.731  -2.806 -25.970  1.00  0.00     0.028 A 
HETATM   17  C3  UNL     1       4.553  -2.423 -27.016  1.00  0.00     0.038 A 
HETATM   18  C2  UNL     1       4.683  -1.079 -27.342  1.00  0.00     0.068 A 
HETATM   19  C28 UNL     1       3.986  -0.139 -26.613  1.00  0.00     0.038 A 
HETATM   20  C27 UNL     1       3.172  -0.545 -25.575  1.00  0.00     0.028 A 
BRANCH  18  21
HETATM   21  O1  UNL     1       5.514  -0.687 -28.399  1.00  0.00    -0.356 OA
HETATM   22  C1  UNL     1       5.707  -1.491 -29.532  1.00  0.00     0.210 C 
ENDBRANCH  18  21
ENDBRANCH  12  15
ENDBRANCH  11  12
BRANCH  11  23
HETATM   23  C6  UNL     1       3.329  -3.300 -21.744  1.00  0.00     0.180 C 
BRANCH  23  24
HETATM   24  C7  UNL     1       2.459  -4.165 -21.008  1.00  0.00     0.271 C 
HETATM   25  N2  UNL     1       1.140  -3.955 -20.596  1.00  0.00    -0.057 NA
HETATM   26  O4  UNL     1       2.935  -5.322 -20.658  1.00  0.00    -0.270 OA
ENDBRANCH  23  24
ENDBRANCH  11  23
ENDBRANCH   1  11
BRANCH   4  27
HETATM   27  N3  UNL     1       4.023   3.053 -20.527  1.00  0.00    -0.241 N 
BRANCH  27  28
HETATM   28  C12 UNL     1       4.422   3.130 -19.151  1.00  0.00     0.180 C 
BRANCH  28  29
HETATM   29  C13 UNL     1       5.816   2.971 -18.802  1.00  0.00     0.271 C 
HETATM   30  N4  UNL     1       6.457   1.669 -18.875  1.00  0.00    -0.057 NA
HETATM   31  O5  UNL     1       6.552   3.889 -18.427  1.00  0.00    -0.270 OA
ENDBRANCH  28  29
ENDBRANCH  27  28
BRANCH  27  32
HETATM   32  S2  UNL     1       4.161   4.434 -21.570  1.00  0.00     0.269 S 
HETATM   33  O6  UNL     1       4.451   5.678 -20.788  1.00  0.00    -0.200 OA
HETATM   34  O7  UNL     1       2.944   4.634 -22.390  1.00  0.00    -0.200 OA
BRANCH  32  35
HETATM   35  C14 UNL     1       5.568   4.145 -22.601  1.00  0.00     0.080 A 
HETATM   36  C15 UNL     1       5.339   3.845 -23.928  1.00  0.00     0.028 A 
HETATM   37  C16 UNL     1       6.418   3.616 -24.746  1.00  0.00     0.038 A 
HETATM   38  C17 UNL     1       7.703   3.683 -24.254  1.00  0.00     0.068 A 
HETATM   39  C19 UNL     1       7.913   3.985 -22.925  1.00  0.00     0.038 A 
HETATM   40  C20 UNL     1       6.844   4.218 -22.087  1.00  0.00     0.028 A 
BRANCH  38  41
HETATM   41  O8  UNL     1       8.818   3.456 -25.058  1.00  0.00    -0.356 OA
HETATM   42  C18 UNL     1       9.271   4.472 -25.920  1.00  0.00     0.210 C 
ENDBRANCH  38  41
ENDBRANCH  32  35
ENDBRANCH  27  32
ENDBRANCH   4  27
TORSDOF 12
ENDMDL
