MODEL 1
REMARK VINA RESULT: -10.937577325      0.000      0.000
REMARK  12 active torsions:
REMARK  status: ('A' for Active; 'I' for Inactive)
REMARK    1  A    between atoms: O1_2  and  C2_3 
REMARK    2  A    between atoms: C5_6  and  S1_7 
REMARK    3  A    between atoms: S1_7  and  N1_10 
REMARK    4  A    between atoms: N1_10  and  C6_11 
REMARK    5  A    between atoms: N1_10  and  C8_15 
REMARK    6  A    between atoms: C6_11  and  C7_12 
REMARK    7  A    between atoms: C11_18  and  N3_19 
REMARK    8  A    between atoms: N3_19  and  C12_20 
REMARK    9  A    between atoms: N3_19  and  S2_24 
REMARK   10  A    between atoms: C12_20  and  C13_21 
REMARK   11  A    between atoms: S2_24  and  C14_27 
REMARK   12  A    between atoms: C17_30  and  O8_31 
ROOT
HETATM    1  C8  UNL     1       3.654   1.867 -20.907  1.00  0.00     0.061 A 
HETATM    2  C9  UNL     1       4.384   1.025 -21.762  1.00  0.00     0.034 A 
HETATM    3  C10 UNL     1       3.918  -0.170 -22.213  1.00  0.00     0.034 A 
HETATM    4  C11 UNL     1       2.658  -0.598 -21.821  1.00  0.00     0.061 A 
HETATM    5  C21 UNL     1       1.921   0.183 -20.992  1.00  0.00     0.004 A 
HETATM    6  C22 UNL     1       0.668  -0.222 -20.531  1.00  0.00     0.014 A 
HETATM    7  C23 UNL     1      -0.063   0.555 -19.661  1.00  0.00     0.001 A 
HETATM    8  C24 UNL     1       0.417   1.753 -19.213  1.00  0.00     0.001 A 
HETATM    9  C25 UNL     1       1.657   2.146 -19.671  1.00  0.00     0.014 A 
HETATM   10  C26 UNL     1       2.428   1.427 -20.534  1.00  0.00     0.004 A 
ENDROOT
BRANCH   1  11
HETATM   11  N1  UNL     1       4.181   3.130 -20.546  1.00  0.00    -0.241 N 
BRANCH  11  12
HETATM   12  S1  UNL     1       4.213   4.383 -21.751  1.00  0.00     0.269 S 
HETATM   13  O2  UNL     1       2.928   4.527 -22.473  1.00  0.00    -0.200 OA
HETATM   14  O3  UNL     1       4.487   5.727 -21.099  1.00  0.00    -0.200 OA
BRANCH  12  15
HETATM   15  C5  UNL     1       5.523   4.121 -22.873  1.00  0.00     0.080 A 
HETATM   16  C4  UNL     1       5.250   3.756 -24.166  1.00  0.00     0.028 A 
HETATM   17  C3  UNL     1       6.273   3.537 -25.072  1.00  0.00     0.038 A 
HETATM   18  C2  UNL     1       7.596   3.685 -24.675  1.00  0.00     0.068 A 
HETATM   19  C28 UNL     1       7.871   4.051 -23.374  1.00  0.00     0.038 A 
HETATM   20  C27 UNL     1       6.834   4.264 -22.490  1.00  0.00     0.028 A 
BRANCH  18  21
HETATM   21  O1  UNL     1       8.635   3.464 -25.588  1.00  0.00    -0.356 OA
HETATM   22  C1  UNL     1       9.569   4.460 -25.908  1.00  0.00     0.210 C 
ENDBRANCH  18  21
ENDBRANCH  12  15
ENDBRANCH  11  12
BRANCH  11  23
HETATM   23  C6  UNL     1       4.567   3.496 -19.216  1.00  0.00     0.180 C 
BRANCH  23  24
HETATM   24  C7  UNL     1       5.740   2.935 -18.619  1.00  0.00     0.271 C 
HETATM   25  N2  UNL     1       6.439   1.773 -18.956  1.00  0.00    -0.057 NA
HETATM   26  O4  UNL     1       6.256   3.579 -17.614  1.00  0.00    -0.270 OA
ENDBRANCH  23  24
ENDBRANCH  11  23
ENDBRANCH   1  11
BRANCH   4  27
HETATM   27  N3  UNL     1       2.146  -1.818 -22.364  1.00  0.00    -0.241 N 
BRANCH  27  28
HETATM   28  C12 UNL     1       2.177  -2.987 -21.533  1.00  0.00     0.180 C 
BRANCH  28  29
HETATM   29  C13 UNL     1       3.261  -3.933 -21.672  1.00  0.00     0.271 C 
HETATM   30  N4  UNL     1       3.156  -5.271 -21.118  1.00  0.00    -0.057 NA
HETATM   31  O5  UNL     1       4.326  -3.696 -22.250  1.00  0.00    -0.270 OA
ENDBRANCH  28  29
ENDBRANCH  27  28
BRANCH  27  32
HETATM   32  S2  UNL     1       1.355  -1.847 -23.909  1.00  0.00     0.269 S 
HETATM   33  O6  UNL     1       0.331  -0.758 -24.015  1.00  0.00    -0.200 OA
HETATM   34  O7  UNL     1       0.721  -3.156 -24.183  1.00  0.00    -0.200 OA
BRANCH  32  35
HETATM   35  C14 UNL     1       2.598  -1.491 -25.115  1.00  0.00     0.080 A 
HETATM   36  C15 UNL     1       3.248  -2.557 -25.700  1.00  0.00     0.028 A 
HETATM   37  C16 UNL     1       4.218  -2.303 -26.638  1.00  0.00     0.038 A 
HETATM   38  C17 UNL     1       4.537  -1.010 -26.989  1.00  0.00     0.068 A 
HETATM   39  C19 UNL     1       3.878   0.045 -26.394  1.00  0.00     0.038 A 
HETATM   40  C20 UNL     1       2.902  -0.189 -25.450  1.00  0.00     0.028 A 
BRANCH  38  41
HETATM   41  O8  UNL     1       5.516  -0.719 -27.937  1.00  0.00    -0.356 OA
HETATM   42  C18 UNL     1       6.636   0.046 -27.564  1.00  0.00     0.210 C 
ENDBRANCH  38  41
ENDBRANCH  32  35
ENDBRANCH  27  32
ENDBRANCH   4  27
TORSDOF 12
ENDMDL
