MODEL 2
REMARK VINA RESULT: -10.869383835      1.161      6.115
REMARK  12 active torsions:
REMARK  status: ('A' for Active; 'I' for Inactive)
REMARK    1  A    between atoms: O1_2  and  C2_3 
REMARK    2  A    between atoms: C5_6  and  S1_7 
REMARK    3  A    between atoms: S1_7  and  N1_10 
REMARK    4  A    between atoms: N1_10  and  C6_11 
REMARK    5  A    between atoms: N1_10  and  C8_15 
REMARK    6  A    between atoms: C6_11  and  C7_12 
REMARK    7  A    between atoms: C11_18  and  N3_19 
REMARK    8  A    between atoms: N3_19  and  C12_20 
REMARK    9  A    between atoms: N3_19  and  S2_24 
REMARK   10  A    between atoms: C12_20  and  C13_21 
REMARK   11  A    between atoms: S2_24  and  C14_27 
REMARK   12  A    between atoms: C17_30  and  O8_31 
ROOT
HETATM    1  C8  UNL     1       2.383  -0.382 -21.872  1.00  0.00     0.061 A 
HETATM    2  C9  UNL     1       3.733  -0.166 -22.194  1.00  0.00     0.034 A 
HETATM    3  C10 UNL     1       4.429   0.935 -21.802  1.00  0.00     0.034 A 
HETATM    4  C11 UNL     1       3.791   1.907 -21.045  1.00  0.00     0.061 A 
HETATM    5  C21 UNL     1       2.485   1.739 -20.715  1.00  0.00     0.004 A 
HETATM    6  C22 UNL     1       1.785   2.707 -19.995  1.00  0.00     0.014 A 
HETATM    7  C23 UNL     1       0.451   2.553 -19.694  1.00  0.00     0.001 A 
HETATM    8  C24 UNL     1      -0.238   1.442 -20.094  1.00  0.00     0.001 A 
HETATM    9  C25 UNL     1       0.461   0.491 -20.807  1.00  0.00     0.014 A 
HETATM   10  C26 UNL     1       1.779   0.582 -21.135  1.00  0.00     0.004 A 
ENDROOT
BRANCH   1  11
HETATM   11  N1  UNL     1       1.755  -1.592 -22.253  1.00  0.00    -0.241 N 
BRANCH  11  12
HETATM   12  S1  UNL     1       1.188  -1.743 -23.890  1.00  0.00     0.269 S 
HETATM   13  O2  UNL     1       0.408  -2.980 -24.123  1.00  0.00    -0.200 OA
HETATM   14  O3  UNL     1       0.263  -0.587 -24.230  1.00  0.00    -0.200 OA
BRANCH  12  15
HETATM   15  C5  UNL     1       2.519  -1.635 -25.012  1.00  0.00     0.080 A 
HETATM   16  C4  UNL     1       3.200  -2.770 -25.372  1.00  0.00     0.028 A 
HETATM   17  C3  UNL     1       4.263  -2.708 -26.256  1.00  0.00     0.038 A 
HETATM   18  C2  UNL     1       4.653  -1.486 -26.789  1.00  0.00     0.068 A 
HETATM   19  C28 UNL     1       3.970  -0.345 -26.426  1.00  0.00     0.038 A 
HETATM   20  C27 UNL     1       2.913  -0.432 -25.544  1.00  0.00     0.028 A 
BRANCH  18  21
HETATM   21  O1  UNL     1       5.729  -1.418 -27.684  1.00  0.00    -0.356 OA
HETATM   22  C1  UNL     1       5.540  -1.290 -29.067  1.00  0.00     0.210 C 
ENDBRANCH  18  21
ENDBRANCH  12  15
ENDBRANCH  11  12
BRANCH  11  23
HETATM   23  C6  UNL     1       1.671  -2.757 -21.425  1.00  0.00     0.180 C 
BRANCH  23  24
HETATM   24  C7  UNL     1       2.632  -3.810 -21.551  1.00  0.00     0.271 C 
HETATM   25  N2  UNL     1       3.963  -3.751 -21.970  1.00  0.00    -0.057 NA
HETATM   26  O4  UNL     1       2.238  -5.008 -21.236  1.00  0.00    -0.270 OA
ENDBRANCH  23  24
ENDBRANCH  11  23
ENDBRANCH   1  11
BRANCH   4  27
HETATM   27  N3  UNL     1       4.552   3.021 -20.572  1.00  0.00    -0.241 N 
BRANCH  27  28
HETATM   28  C12 UNL     1       5.301   2.855 -19.360  1.00  0.00     0.180 C 
BRANCH  28  29
HETATM   29  C13 UNL     1       6.493   2.038 -19.363  1.00  0.00     0.271 C 
HETATM   30  N4  UNL     1       7.335   1.956 -20.544  1.00  0.00    -0.057 NA
HETATM   31  O5  UNL     1       6.884   1.368 -18.402  1.00  0.00    -0.270 OA
ENDBRANCH  28  29
ENDBRANCH  27  28
BRANCH  27  32
HETATM   32  S2  UNL     1       4.705   4.467 -21.520  1.00  0.00     0.269 S 
HETATM   33  O6  UNL     1       5.805   5.342 -21.002  1.00  0.00    -0.200 OA
HETATM   34  O7  UNL     1       3.440   5.235 -21.570  1.00  0.00    -0.200 OA
BRANCH  32  35
HETATM   35  C14 UNL     1       5.188   3.955 -23.142  1.00  0.00     0.080 A 
HETATM   36  C15 UNL     1       6.533   3.983 -23.449  1.00  0.00     0.028 A 
HETATM   37  C16 UNL     1       6.930   3.590 -24.703  1.00  0.00     0.038 A 
HETATM   38  C17 UNL     1       6.006   3.176 -25.638  1.00  0.00     0.068 A 
HETATM   39  C19 UNL     1       4.666   3.155 -25.314  1.00  0.00     0.038 A 
HETATM   40  C20 UNL     1       4.247   3.545 -24.061  1.00  0.00     0.028 A 
BRANCH  38  41
HETATM   41  O8  UNL     1       6.376   2.772 -26.919  1.00  0.00    -0.356 OA
HETATM   42  C18 UNL     1       7.230   1.665 -27.077  1.00  0.00     0.210 C 
ENDBRANCH  38  41
ENDBRANCH  32  35
ENDBRANCH  27  32
ENDBRANCH   4  27
TORSDOF 12
ENDMDL
