MODEL 4
REMARK VINA RESULT: -10.531593855      0.866      6.409
REMARK  12 active torsions:
REMARK  status: ('A' for Active; 'I' for Inactive)
REMARK    1  A    between atoms: O1_2  and  C2_3 
REMARK    2  A    between atoms: C5_6  and  S1_7 
REMARK    3  A    between atoms: S1_7  and  N1_10 
REMARK    4  A    between atoms: N1_10  and  C6_11 
REMARK    5  A    between atoms: N1_10  and  C8_15 
REMARK    6  A    between atoms: C6_11  and  C7_12 
REMARK    7  A    between atoms: C11_18  and  N3_19 
REMARK    8  A    between atoms: N3_19  and  C12_20 
REMARK    9  A    between atoms: N3_19  and  S2_24 
REMARK   10  A    between atoms: C12_20  and  C13_21 
REMARK   11  A    between atoms: S2_24  and  C14_27 
REMARK   12  A    between atoms: C17_30  and  O8_31 
ROOT
HETATM    1  C8  UNL     1       3.007  -0.727 -22.050  1.00  0.00     0.061 A 
HETATM    2  C9  UNL     1       4.176  -0.032 -22.400  1.00  0.00     0.034 A 
HETATM    3  C10 UNL     1       4.492   1.197 -21.910  1.00  0.00     0.034 A 
HETATM    4  C11 UNL     1       3.628   1.814 -21.018  1.00  0.00     0.061 A 
HETATM    5  C21 UNL     1       2.484   1.179 -20.655  1.00  0.00     0.004 A 
HETATM    6  C22 UNL     1       1.560   1.775 -19.797  1.00  0.00     0.014 A 
HETATM    7  C23 UNL     1       0.384   1.145 -19.460  1.00  0.00     0.001 A 
HETATM    8  C24 UNL     1       0.077  -0.090 -19.960  1.00  0.00     0.001 A 
HETATM    9  C25 UNL     1       0.994  -0.671 -20.809  1.00  0.00     0.014 A 
HETATM   10  C26 UNL     1       2.176  -0.103 -21.179  1.00  0.00     0.004 A 
ENDROOT
BRANCH   1  11
HETATM   11  N1  UNL     1       2.791  -2.035 -22.545  1.00  0.00    -0.241 N 
BRANCH  11  12
HETATM   12  S1  UNL     1       1.985  -2.212 -24.076  1.00  0.00     0.269 S 
HETATM   13  O2  UNL     1       1.373  -3.548 -24.259  1.00  0.00    -0.200 OA
HETATM   14  O3  UNL     1       0.853  -1.206 -24.187  1.00  0.00    -0.200 OA
BRANCH  12  15
HETATM   15  C5  UNL     1       3.076  -1.851 -25.388  1.00  0.00     0.080 A 
HETATM   16  C4  UNL     1       3.706  -2.873 -26.051  1.00  0.00     0.028 A 
HETATM   17  C3  UNL     1       4.580  -2.609 -27.091  1.00  0.00     0.038 A 
HETATM   18  C2  UNL     1       4.830  -1.297 -27.474  1.00  0.00     0.068 A 
HETATM   19  C28 UNL     1       4.198  -0.270 -26.807  1.00  0.00     0.038 A 
HETATM   20  C27 UNL     1       3.330  -0.557 -25.774  1.00  0.00     0.028 A 
BRANCH  18  21
HETATM   21  O1  UNL     1       5.714  -1.026 -28.526  1.00  0.00    -0.356 OA
HETATM   22  C1  UNL     1       5.522  -1.549 -29.813  1.00  0.00     0.210 C 
ENDBRANCH  18  21
ENDBRANCH  12  15
ENDBRANCH  11  12
BRANCH  11  23
HETATM   23  C6  UNL     1       3.310  -3.225 -21.940  1.00  0.00     0.180 C 
BRANCH  23  24
HETATM   24  C7  UNL     1       4.405  -3.927 -22.538  1.00  0.00     0.271 C 
HETATM   25  N2  UNL     1       4.425  -5.181 -23.153  1.00  0.00    -0.057 NA
HETATM   26  O4  UNL     1       5.562  -3.336 -22.523  1.00  0.00    -0.270 OA
ENDBRANCH  23  24
ENDBRANCH  11  23
ENDBRANCH   1  11
BRANCH   4  27
HETATM   27  N3  UNL     1       4.007   3.069 -20.448  1.00  0.00    -0.241 N 
BRANCH  27  28
HETATM   28  C12 UNL     1       4.410   3.087 -19.071  1.00  0.00     0.180 C 
BRANCH  28  29
HETATM   29  C13 UNL     1       5.809   2.952 -18.735  1.00  0.00     0.271 C 
HETATM   30  N4  UNL     1       6.502   1.690 -18.930  1.00  0.00    -0.057 NA
HETATM   31  O5  UNL     1       6.508   3.859 -18.274  1.00  0.00    -0.270 OA
ENDBRANCH  28  29
ENDBRANCH  27  28
BRANCH  27  32
HETATM   32  S2  UNL     1       4.142   4.494 -21.432  1.00  0.00     0.269 S 
HETATM   33  O6  UNL     1       4.440   5.702 -20.598  1.00  0.00    -0.200 OA
HETATM   34  O7  UNL     1       2.922   4.731 -22.235  1.00  0.00    -0.200 OA
BRANCH  32  35
HETATM   35  C14 UNL     1       5.542   4.246 -22.482  1.00  0.00     0.080 A 
HETATM   36  C15 UNL     1       5.306   3.997 -23.818  1.00  0.00     0.028 A 
HETATM   37  C16 UNL     1       6.379   3.801 -24.651  1.00  0.00     0.038 A 
HETATM   38  C17 UNL     1       7.668   3.851 -24.165  1.00  0.00     0.068 A 
HETATM   39  C19 UNL     1       7.886   4.101 -22.827  1.00  0.00     0.038 A 
HETATM   40  C20 UNL     1       6.822   4.300 -21.974  1.00  0.00     0.028 A 
BRANCH  38  41
HETATM   41  O8  UNL     1       8.778   3.656 -24.984  1.00  0.00    -0.356 OA
HETATM   42  C18 UNL     1       8.602   3.543 -26.375  1.00  0.00     0.210 C 
ENDBRANCH  38  41
ENDBRANCH  32  35
ENDBRANCH  27  32
ENDBRANCH   4  27
TORSDOF 12
ENDMDL
