MODEL 5
REMARK VINA RESULT: -10.446980466      1.084      1.416
REMARK  12 active torsions:
REMARK  status: ('A' for Active; 'I' for Inactive)
REMARK    1  A    between atoms: O1_2  and  C2_3 
REMARK    2  A    between atoms: C5_6  and  S1_7 
REMARK    3  A    between atoms: S1_7  and  N1_10 
REMARK    4  A    between atoms: N1_10  and  C6_11 
REMARK    5  A    between atoms: N1_10  and  C8_15 
REMARK    6  A    between atoms: C6_11  and  C7_12 
REMARK    7  A    between atoms: C11_18  and  N3_19 
REMARK    8  A    between atoms: N3_19  and  C12_20 
REMARK    9  A    between atoms: N3_19  and  S2_24 
REMARK   10  A    between atoms: C12_20  and  C13_21 
REMARK   11  A    between atoms: S2_24  and  C14_27 
REMARK   12  A    between atoms: C17_30  and  O8_31 
ROOT
HETATM    1  C8  UNL     1       3.610   1.845 -20.850  1.00  0.00     0.061 A 
HETATM    2  C9  UNL     1       4.299   0.891 -21.617  1.00  0.00     0.034 A 
HETATM    3  C10 UNL     1       3.726  -0.250 -22.084  1.00  0.00     0.034 A 
HETATM    4  C11 UNL     1       2.392  -0.505 -21.800  1.00  0.00     0.061 A 
HETATM    5  C21 UNL     1       1.690   0.390 -21.058  1.00  0.00     0.004 A 
HETATM    6  C22 UNL     1       0.360   0.159 -20.706  1.00  0.00     0.014 A 
HETATM    7  C23 UNL     1      -0.339   1.049 -19.923  1.00  0.00     0.001 A 
HETATM    8  C24 UNL     1       0.248   2.192 -19.458  1.00  0.00     0.001 A 
HETATM    9  C25 UNL     1       1.564   2.411 -19.809  1.00  0.00     0.014 A 
HETATM   10  C26 UNL     1       2.310   1.574 -20.582  1.00  0.00     0.004 A 
ENDROOT
BRANCH   1  11
HETATM   11  N1  UNL     1       4.260   3.043 -20.469  1.00  0.00    -0.241 N 
BRANCH  11  12
HETATM   12  S1  UNL     1       4.522   4.259 -21.684  1.00  0.00     0.269 S 
HETATM   13  O2  UNL     1       3.340   5.124 -21.904  1.00  0.00    -0.200 OA
HETATM   14  O3  UNL     1       5.652   5.182 -21.262  1.00  0.00    -0.200 OA
BRANCH  12  15
HETATM   15  C5  UNL     1       5.037   3.528 -23.181  1.00  0.00     0.080 A 
HETATM   16  C4  UNL     1       4.122   3.298 -24.177  1.00  0.00     0.028 A 
HETATM   17  C3  UNL     1       4.507   2.713 -25.371  1.00  0.00     0.038 A 
HETATM   18  C2  UNL     1       5.833   2.351 -25.572  1.00  0.00     0.068 A 
HETATM   19  C28 UNL     1       6.752   2.581 -24.571  1.00  0.00     0.038 A 
HETATM   20  C27 UNL     1       6.345   3.165 -23.390  1.00  0.00     0.028 A 
BRANCH  18  21
HETATM   21  O1  UNL     1       6.226   1.759 -26.779  1.00  0.00    -0.356 OA
HETATM   22  C1  UNL     1       7.540   1.319 -26.999  1.00  0.00     0.210 C 
ENDBRANCH  18  21
ENDBRANCH  12  15
ENDBRANCH  11  12
BRANCH  11  23
HETATM   23  C6  UNL     1       4.598   3.386 -19.120  1.00  0.00     0.180 C 
BRANCH  23  24
HETATM   24  C7  UNL     1       5.806   2.901 -18.527  1.00  0.00     0.271 C 
HETATM   25  N2  UNL     1       6.529   1.739 -18.809  1.00  0.00    -0.057 NA
HETATM   26  O4  UNL     1       6.333   3.625 -17.585  1.00  0.00    -0.270 OA
ENDBRANCH  23  24
ENDBRANCH  11  23
ENDBRANCH   1  11
BRANCH   4  27
HETATM   27  N3  UNL     1       1.778  -1.667 -22.362  1.00  0.00    -0.241 N 
BRANCH  27  28
HETATM   28  C12 UNL     1       1.551  -2.789 -21.497  1.00  0.00     0.180 C 
BRANCH  28  29
HETATM   29  C13 UNL     1       2.554  -3.824 -21.391  1.00  0.00     0.271 C 
HETATM   30  N4  UNL     1       2.213  -5.142 -20.883  1.00  0.00    -0.057 NA
HETATM   31  O5  UNL     1       3.739  -3.684 -21.710  1.00  0.00    -0.270 OA
ENDBRANCH  28  29
ENDBRANCH  27  28
BRANCH  27  32
HETATM   32  S2  UNL     1       1.171  -1.661 -23.988  1.00  0.00     0.269 S 
HETATM   33  O6  UNL     1       0.536  -0.347 -24.325  1.00  0.00    -0.200 OA
HETATM   34  O7  UNL     1       0.205  -2.757 -24.224  1.00  0.00    -0.200 OA
BRANCH  32  35
HETATM   35  C14 UNL     1       2.576  -1.830 -25.048  1.00  0.00     0.080 A 
HETATM   36  C15 UNL     1       2.977  -0.721 -25.762  1.00  0.00     0.028 A 
HETATM   37  C16 UNL     1       4.066  -0.830 -26.592  1.00  0.00     0.038 A 
HETATM   38  C17 UNL     1       4.745  -2.023 -26.711  1.00  0.00     0.068 A 
HETATM   39  C19 UNL     1       4.330  -3.122 -25.989  1.00  0.00     0.038 A 
HETATM   40  C20 UNL     1       3.241  -3.033 -25.151  1.00  0.00     0.028 A 
BRANCH  38  41
HETATM   41  O8  UNL     1       5.853  -2.166 -27.544  1.00  0.00    -0.356 OA
HETATM   42  C18 UNL     1       5.891  -1.479 -28.771  1.00  0.00     0.210 C 
ENDBRANCH  38  41
ENDBRANCH  32  35
ENDBRANCH  27  32
ENDBRANCH   4  27
TORSDOF 12
ENDMDL
