MODEL 1
REMARK VINA RESULT: -7.001123374      0.000      0.000
REMARK  7 active torsions:
REMARK  status: ('A' for Active; 'I' for Inactive)
REMARK    1  A    between atoms: C2_2  and  C5_5 
REMARK    2  A    between atoms: C10_10  and  O1_11 
REMARK    3  A    between atoms: O1_11  and  C11_12 
REMARK    4  A    between atoms: C15_18  and  N2_19 
REMARK       I    between atoms: N2_19  and  C16_21 
REMARK       I    between atoms: C16_21  and  N3_23 
REMARK    5  A    between atoms: N3_23  and  C17_25 
REMARK    6  A    between atoms: C20_28  and  O3_29 
REMARK    7  A    between atoms: O3_29  and  C21_30 
ROOT
HETATM    1  C11 UNL     1     -22.782  33.509   1.463  1.00  0.00     0.175 A 
HETATM    2  N1  UNL     1     -21.680  33.720   0.734  1.00  0.00    -0.345 N 
ATOM      3  H1  UNL     1     -21.421  33.001   0.059  1.00  0.00     0.167 HD
HETATM    4  C12 UNL     1     -20.910  34.771   0.817  1.00  0.00     0.090 A 
HETATM    5  C13 UNL     1     -21.183  35.783   1.698  1.00  0.00     0.019 A 
HETATM    6  C14 UNL     1     -22.318  35.622   2.486  1.00  0.00     0.035 A 
HETATM    7  C15 UNL     1     -23.114  34.523   2.391  1.00  0.00     0.088 A 
ENDROOT
BRANCH   7   8
HETATM    8  N2  UNL     1     -24.258  34.385   3.181  1.00  0.00    -0.305 N 
HETATM    9  C16 UNL     1     -24.405  33.866   4.490  1.00  0.00     0.325 C 
HETATM   10  O2  UNL     1     -23.375  33.458   5.055  1.00  0.00    -0.247 OA
HETATM   11  N3  UNL     1     -25.688  33.817   5.124  1.00  0.00    -0.309 N 
ATOM     12  H3  UNL     1     -26.499  34.162   4.612  1.00  0.00     0.170 HD
ATOM     13  H2  UNL     1     -25.123  34.709   2.747  1.00  0.00     0.171 HD
BRANCH  11  14
HETATM   14  C17 UNL     1     -25.877  33.315   6.424  1.00  0.00     0.036 A 
HETATM   15  C18 UNL     1     -26.262  31.966   6.553  1.00  0.00     0.032 A 
HETATM   16  C19 UNL     1     -26.491  31.367   7.764  1.00  0.00     0.039 A 
HETATM   17  C20 UNL     1     -26.357  32.058   8.946  1.00  0.00     0.078 A 
HETATM   18  C22 UNL     1     -25.982  33.374   8.853  1.00  0.00     0.039 A 
HETATM   19  C23 UNL     1     -25.748  33.988   7.608  1.00  0.00     0.032 A 
BRANCH  17  20
HETATM   20  O3  UNL     1     -26.584  31.468  10.178  1.00  0.00    -0.255 OA
BRANCH  20  21
HETATM   21  C21 UNL     1     -25.572  31.253  11.129  1.00  0.00     0.530 C 
HETATM   22  F1  UNL     1     -24.542  30.497  10.555  1.00  0.00    -0.144 F 
HETATM   23  F2  UNL     1     -25.079  32.424  11.667  1.00  0.00    -0.144 F 
HETATM   24  F3  UNL     1     -26.119  30.453  12.125  1.00  0.00    -0.144 F 
ENDBRANCH  20  21
ENDBRANCH  17  20
ENDBRANCH  11  14
ENDBRANCH   7   8
BRANCH   1  25
HETATM   25  O1  UNL     1     -23.537  32.420   1.343  1.00  0.00    -0.291 OA
BRANCH  25  26
HETATM   26  C10 UNL     1     -24.685  31.803   1.310  1.00  0.00     0.085 A 
HETATM   27  C5  UNL     1     -25.482  31.825   0.158  1.00  0.00    -0.017 A 
HETATM   28  C6  UNL     1     -26.678  31.144   0.210  1.00  0.00     0.011 A 
HETATM   29  C7  UNL     1     -27.113  30.452   1.339  1.00  0.00     0.001 A 
HETATM   30  C8  UNL     1     -26.315  30.444   2.460  1.00  0.00     0.003 A 
HETATM   31  C9  UNL     1     -25.132  31.095   2.463  1.00  0.00     0.038 A 
BRANCH  27  32
HETATM   32  C2  UNL     1     -25.164  32.528  -1.076  1.00  0.00    -0.021 C 
HETATM   33  C1  UNL     1     -26.285  32.247  -2.094  1.00  0.00     0.019 C 
HETATM   34  C3  UNL     1     -23.920  31.977  -1.735  1.00  0.00     0.019 C 
HETATM   35  C4  UNL     1     -25.072  34.007  -0.991  1.00  0.00     0.019 C 
ENDBRANCH  27  32
ENDBRANCH  25  26
ENDBRANCH   1  25
TORSDOF 7
ENDMDL
