MODEL 17
REMARK VINA RESULT: -6.483328876      7.786     10.468
REMARK  7 active torsions:
REMARK  status: ('A' for Active; 'I' for Inactive)
REMARK    1  A    between atoms: C2_2  and  C5_5 
REMARK    2  A    between atoms: C10_10  and  O1_11 
REMARK    3  A    between atoms: O1_11  and  C11_12 
REMARK    4  A    between atoms: C15_18  and  N2_19 
REMARK       I    between atoms: N2_19  and  C16_21 
REMARK       I    between atoms: C16_21  and  N3_23 
REMARK    5  A    between atoms: N3_23  and  C17_25 
REMARK    6  A    between atoms: C20_28  and  O3_29 
REMARK    7  A    between atoms: O3_29  and  C21_30 
ROOT
HETATM    1  C11 UNL     1     -14.488  34.948   3.706  1.00  0.00     0.175 A 
HETATM    2  N1  UNL     1     -13.994  35.420   2.556  1.00  0.00    -0.345 N 
ATOM      3  H1  UNL     1     -12.980  35.503   2.481  1.00  0.00     0.167 HD
HETATM    4  C12 UNL     1     -14.703  35.783   1.522  1.00  0.00     0.090 A 
HETATM    5  C13 UNL     1     -16.071  35.706   1.536  1.00  0.00     0.019 A 
HETATM    6  C14 UNL     1     -16.646  35.221   2.707  1.00  0.00     0.035 A 
HETATM    7  C15 UNL     1     -15.897  34.845   3.779  1.00  0.00     0.088 A 
ENDROOT
BRANCH   7   8
HETATM    8  N2  UNL     1     -16.492  34.348   4.941  1.00  0.00    -0.305 N 
HETATM    9  C16 UNL     1     -17.473  34.926   5.783  1.00  0.00     0.325 C 
HETATM   10  O2  UNL     1     -17.892  36.054   5.469  1.00  0.00    -0.247 OA
HETATM   11  N3  UNL     1     -17.952  34.234   6.941  1.00  0.00    -0.309 N 
ATOM     12  H3  UNL     1     -17.569  33.313   7.152  1.00  0.00     0.170 HD
ATOM     13  H2  UNL     1     -16.169  33.424   5.228  1.00  0.00     0.171 HD
BRANCH  11  14
HETATM   14  C17 UNL     1     -18.928  34.769   7.799  1.00  0.00     0.036 A 
HETATM   15  C18 UNL     1     -18.674  34.726   9.184  1.00  0.00     0.032 A 
HETATM   16  C19 UNL     1     -19.555  35.201  10.120  1.00  0.00     0.039 A 
HETATM   17  C20 UNL     1     -20.760  35.758   9.758  1.00  0.00     0.078 A 
HETATM   18  C22 UNL     1     -21.035  35.814   8.416  1.00  0.00     0.039 A 
HETATM   19  C23 UNL     1     -20.129  35.325   7.455  1.00  0.00     0.032 A 
BRANCH  17  20
HETATM   20  O3  UNL     1     -21.660  36.243  10.691  1.00  0.00    -0.255 OA
BRANCH  20  21
HETATM   21  C21 UNL     1     -22.881  35.613  10.986  1.00  0.00     0.530 C 
HETATM   22  F1  UNL     1     -23.885  36.122  10.152  1.00  0.00    -0.144 F 
HETATM   23  F2  UNL     1     -22.816  34.238  10.892  1.00  0.00    -0.144 F 
HETATM   24  F3  UNL     1     -23.231  35.996  12.276  1.00  0.00    -0.144 F 
ENDBRANCH  20  21
ENDBRANCH  17  20
ENDBRANCH  11  14
ENDBRANCH   7   8
BRANCH   1  25
HETATM   25  O1  UNL     1     -13.724  34.590   4.735  1.00  0.00    -0.291 OA
BRANCH  25  26
HETATM   26  C10 UNL     1     -12.596  34.209   5.265  1.00  0.00     0.085 A 
HETATM   27  C5  UNL     1     -12.179  34.705   6.507  1.00  0.00    -0.017 A 
HETATM   28  C6  UNL     1     -10.975  34.247   6.993  1.00  0.00     0.011 A 
HETATM   29  C7  UNL     1     -10.175  33.332   6.310  1.00  0.00     0.001 A 
HETATM   30  C8  UNL     1     -10.603  32.859   5.091  1.00  0.00     0.003 A 
HETATM   31  C9  UNL     1     -11.776  33.274   4.569  1.00  0.00     0.038 A 
BRANCH  27  32
HETATM   32  C2  UNL     1     -12.899  35.680   7.312  1.00  0.00    -0.021 C 
HETATM   33  C1  UNL     1     -12.112  35.906   8.616  1.00  0.00     0.019 C 
HETATM   34  C3  UNL     1     -14.238  35.153   7.776  1.00  0.00     0.019 C 
HETATM   35  C4  UNL     1     -13.072  37.030   6.719  1.00  0.00     0.019 C 
ENDBRANCH  27  32
ENDBRANCH  25  26
ENDBRANCH   1  25
TORSDOF 7
ENDMDL
