MODEL 2
REMARK VINA RESULT: -6.922444538      1.205      1.810
REMARK  7 active torsions:
REMARK  status: ('A' for Active; 'I' for Inactive)
REMARK    1  A    between atoms: C2_2  and  C5_5 
REMARK    2  A    between atoms: C10_10  and  O1_11 
REMARK    3  A    between atoms: O1_11  and  C11_12 
REMARK    4  A    between atoms: C15_18  and  N2_19 
REMARK       I    between atoms: N2_19  and  C16_21 
REMARK       I    between atoms: C16_21  and  N3_23 
REMARK    5  A    between atoms: N3_23  and  C17_25 
REMARK    6  A    between atoms: C20_28  and  O3_29 
REMARK    7  A    between atoms: O3_29  and  C21_30 
ROOT
HETATM    1  C11 UNL     1     -23.123  33.220   1.871  1.00  0.00     0.175 A 
HETATM    2  N1  UNL     1     -22.131  33.295   0.978  1.00  0.00    -0.345 N 
ATOM      3  H1  UNL     1     -21.933  32.460   0.427  1.00  0.00     0.167 HD
HETATM    4  C12 UNL     1     -21.395  34.351   0.753  1.00  0.00     0.090 A 
HETATM    5  C13 UNL     1     -21.592  35.514   1.450  1.00  0.00     0.019 A 
HETATM    6  C14 UNL     1     -22.613  35.498   2.396  1.00  0.00     0.035 A 
HETATM    7  C15 UNL     1     -23.373  34.393   2.621  1.00  0.00     0.088 A 
ENDROOT
BRANCH   7   8
HETATM    8  N2  UNL     1     -24.402  34.401   3.565  1.00  0.00    -0.305 N 
HETATM    9  C16 UNL     1     -24.386  34.042   4.935  1.00  0.00     0.325 C 
HETATM   10  O2  UNL     1     -23.302  33.652   5.404  1.00  0.00    -0.247 OA
HETATM   11  N3  UNL     1     -25.571  34.127   5.733  1.00  0.00    -0.309 N 
ATOM     12  H3  UNL     1     -26.434  34.449   5.295  1.00  0.00     0.170 HD
ATOM     13  H2  UNL     1     -25.307  34.715   3.213  1.00  0.00     0.171 HD
BRANCH  11  14
HETATM   14  C17 UNL     1     -25.597  33.786   7.097  1.00  0.00     0.036 A 
HETATM   15  C18 UNL     1     -26.199  32.562   7.452  1.00  0.00     0.032 A 
HETATM   16  C19 UNL     1     -26.299  32.127   8.748  1.00  0.00     0.039 A 
HETATM   17  C20 UNL     1     -25.810  32.871   9.797  1.00  0.00     0.078 A 
HETATM   18  C22 UNL     1     -25.219  34.067   9.482  1.00  0.00     0.039 A 
HETATM   19  C23 UNL     1     -25.117  34.513   8.151  1.00  0.00     0.032 A 
BRANCH  17  20
HETATM   20  O3  UNL     1     -25.903  32.446  11.111  1.00  0.00    -0.255 OA
BRANCH  20  21
HETATM   21  C21 UNL     1     -25.646  31.125  11.516  1.00  0.00     0.530 C 
HETATM   22  F1  UNL     1     -26.795  30.346  11.328  1.00  0.00    -0.144 F 
HETATM   23  F2  UNL     1     -24.563  30.564  10.870  1.00  0.00    -0.144 F 
HETATM   24  F3  UNL     1     -25.431  31.158  12.888  1.00  0.00    -0.144 F 
ENDBRANCH  20  21
ENDBRANCH  17  20
ENDBRANCH  11  14
ENDBRANCH   7   8
BRANCH   1  25
HETATM   25  O1  UNL     1     -23.847  32.120   2.065  1.00  0.00    -0.291 OA
BRANCH  25  26
HETATM   26  C10 UNL     1     -24.607  31.344   2.787  1.00  0.00     0.085 A 
HETATM   27  C5  UNL     1     -25.926  31.069   2.404  1.00  0.00    -0.017 A 
HETATM   28  C6  UNL     1     -26.655  30.237   3.223  1.00  0.00     0.011 A 
HETATM   29  C7  UNL     1     -26.142  29.673   4.390  1.00  0.00     0.001 A 
HETATM   30  C8  UNL     1     -24.843  29.957   4.748  1.00  0.00     0.003 A 
HETATM   31  C9  UNL     1     -24.084  30.767   3.980  1.00  0.00     0.038 A 
BRANCH  27  32
HETATM   32  C2  UNL     1     -26.596  31.610   1.231  1.00  0.00    -0.021 C 
HETATM   33  C1  UNL     1     -28.009  31.001   1.158  1.00  0.00     0.019 C 
HETATM   34  C3  UNL     1     -25.935  31.162  -0.053  1.00  0.00     0.019 C 
HETATM   35  C4  UNL     1     -26.799  33.079   1.202  1.00  0.00     0.019 C 
ENDBRANCH  27  32
ENDBRANCH  25  26
ENDBRANCH   1  25
TORSDOF 7
ENDMDL
