MODEL 8
REMARK VINA RESULT: -6.682941087      7.784     10.399
REMARK  7 active torsions:
REMARK  status: ('A' for Active; 'I' for Inactive)
REMARK    1  A    between atoms: C2_2  and  C5_5 
REMARK    2  A    between atoms: C10_10  and  O1_11 
REMARK    3  A    between atoms: O1_11  and  C11_12 
REMARK    4  A    between atoms: C15_18  and  N2_19 
REMARK       I    between atoms: N2_19  and  C16_21 
REMARK       I    between atoms: C16_21  and  N3_23 
REMARK    5  A    between atoms: N3_23  and  C17_25 
REMARK    6  A    between atoms: C20_28  and  O3_29 
REMARK    7  A    between atoms: O3_29  and  C21_30 
ROOT
HETATM    1  C11 UNL     1     -14.408  34.792   3.132  1.00  0.00     0.175 A 
HETATM    2  N1  UNL     1     -14.036  35.309   1.955  1.00  0.00    -0.345 N 
ATOM      3  H1  UNL     1     -13.082  35.127   1.645  1.00  0.00     0.167 HD
HETATM    4  C12 UNL     1     -14.796  36.026   1.172  1.00  0.00     0.090 A 
HETATM    5  C13 UNL     1     -16.090  36.320   1.512  1.00  0.00     0.019 A 
HETATM    6  C14 UNL     1     -16.536  35.810   2.727  1.00  0.00     0.035 A 
HETATM    7  C15 UNL     1     -15.736  35.063   3.536  1.00  0.00     0.088 A 
ENDROOT
BRANCH   7   8
HETATM    8  N2  UNL     1     -16.207  34.548   4.746  1.00  0.00    -0.305 N 
HETATM    9  C16 UNL     1     -17.238  35.015   5.597  1.00  0.00     0.325 C 
HETATM   10  O2  UNL     1     -17.839  36.045   5.242  1.00  0.00    -0.247 OA
HETATM   11  N3  UNL     1     -17.564  34.326   6.808  1.00  0.00    -0.309 N 
ATOM     12  H3  UNL     1     -17.034  33.489   7.051  1.00  0.00     0.170 HD
ATOM     13  H2  UNL     1     -15.733  33.703   5.067  1.00  0.00     0.171 HD
BRANCH  11  14
HETATM   14  C17 UNL     1     -18.583  34.753   7.677  1.00  0.00     0.036 A 
HETATM   15  C18 UNL     1     -18.358  34.621   9.062  1.00  0.00     0.032 A 
HETATM   16  C19 UNL     1     -19.281  34.986  10.007  1.00  0.00     0.039 A 
HETATM   17  C20 UNL     1     -20.502  35.513   9.655  1.00  0.00     0.078 A 
HETATM   18  C22 UNL     1     -20.750  35.654   8.314  1.00  0.00     0.039 A 
HETATM   19  C23 UNL     1     -19.801  35.277   7.344  1.00  0.00     0.032 A 
BRANCH  17  20
HETATM   20  O3  UNL     1     -21.445  35.888  10.597  1.00  0.00    -0.255 OA
BRANCH  20  21
HETATM   21  C21 UNL     1     -22.692  35.255  10.736  1.00  0.00     0.530 C 
HETATM   22  F1  UNL     1     -23.545  35.668   9.703  1.00  0.00    -0.144 F 
HETATM   23  F2  UNL     1     -22.598  33.879  10.773  1.00  0.00    -0.144 F 
HETATM   24  F3  UNL     1     -23.259  35.735  11.910  1.00  0.00    -0.144 F 
ENDBRANCH  20  21
ENDBRANCH  17  20
ENDBRANCH  11  14
ENDBRANCH   7   8
BRANCH   1  25
HETATM   25  O1  UNL     1     -13.598  34.066   3.897  1.00  0.00    -0.291 OA
BRANCH  25  26
HETATM   26  C10 UNL     1     -12.472  33.455   4.143  1.00  0.00     0.085 A 
HETATM   27  C5  UNL     1     -11.691  33.804   5.252  1.00  0.00    -0.017 A 
HETATM   28  C6  UNL     1     -10.519  33.106   5.437  1.00  0.00     0.011 A 
HETATM   29  C7  UNL     1     -10.092  32.091   4.582  1.00  0.00     0.001 A 
HETATM   30  C8  UNL     1     -10.875  31.765   3.498  1.00  0.00     0.003 A 
HETATM   31  C9  UNL     1     -12.035  32.418   3.270  1.00  0.00     0.038 A 
BRANCH  27  32
HETATM   32  C2  UNL     1     -12.001  34.857   6.207  1.00  0.00    -0.021 C 
HETATM   33  C1  UNL     1     -10.833  34.964   7.205  1.00  0.00     0.019 C 
HETATM   34  C3  UNL     1     -13.192  34.506   7.069  1.00  0.00     0.019 C 
HETATM   35  C4  UNL     1     -12.170  36.224   5.653  1.00  0.00     0.019 C 
ENDBRANCH  27  32
ENDBRANCH  25  26
ENDBRANCH   1  25
TORSDOF 7
ENDMDL
