MODEL 3
REMARK VINA RESULT: -6.907386030      0.789      2.165
REMARK  7 active torsions:
REMARK  status: ('A' for Active; 'I' for Inactive)
REMARK    1  A    between atoms: C2_2  and  C5_5 
REMARK    2  A    between atoms: C10_10  and  O1_11 
REMARK    3  A    between atoms: O1_11  and  C11_12 
REMARK    4  A    between atoms: C15_18  and  N2_19 
REMARK       I    between atoms: N2_19  and  C16_21 
REMARK       I    between atoms: C16_21  and  N3_23 
REMARK    5  A    between atoms: N3_23  and  C17_25 
REMARK    6  A    between atoms: C20_28  and  O3_29 
REMARK    7  A    between atoms: O3_29  and  C21_30 
ROOT
HETATM    1  C11 UNL     1     -22.585  34.153   1.671  1.00  0.00     0.175 A 
HETATM    2  N1  UNL     1     -21.457  34.275   0.963  1.00  0.00    -0.345 N 
ATOM      3  H1  UNL     1     -21.355  33.682   0.140  1.00  0.00     0.167 HD
HETATM    4  C12 UNL     1     -20.476  35.092   1.239  1.00  0.00     0.090 A 
HETATM    5  C13 UNL     1     -20.530  35.923   2.327  1.00  0.00     0.019 A 
HETATM    6  C14 UNL     1     -21.681  35.843   3.105  1.00  0.00     0.035 A 
HETATM    7  C15 UNL     1     -22.696  34.989   2.808  1.00  0.00     0.088 A 
ENDROOT
BRANCH   7   8
HETATM    8  N2  UNL     1     -23.850  34.932   3.593  1.00  0.00    -0.305 N 
HETATM    9  C16 UNL     1     -24.080  34.286   4.832  1.00  0.00     0.325 C 
HETATM   10  O2  UNL     1     -23.126  33.659   5.327  1.00  0.00    -0.247 OA
HETATM   11  N3  UNL     1     -25.356  34.357   5.475  1.00  0.00    -0.309 N 
ATOM     12  H3  UNL     1     -26.104  34.882   5.021  1.00  0.00     0.170 HD
ATOM     13  H2  UNL     1     -24.653  35.435   3.215  1.00  0.00     0.171 HD
BRANCH  11  14
HETATM   14  C17 UNL     1     -25.624  33.735   6.707  1.00  0.00     0.036 A 
HETATM   15  C18 UNL     1     -26.165  32.435   6.678  1.00  0.00     0.032 A 
HETATM   16  C19 UNL     1     -26.483  31.732   7.811  1.00  0.00     0.039 A 
HETATM   17  C20 UNL     1     -26.289  32.263   9.066  1.00  0.00     0.078 A 
HETATM   18  C22 UNL     1     -25.763  33.527   9.126  1.00  0.00     0.039 A 
HETATM   19  C23 UNL     1     -25.438  34.248   7.961  1.00  0.00     0.032 A 
BRANCH  17  20
HETATM   20  O3  UNL     1     -26.604  31.566  10.220  1.00  0.00    -0.255 OA
BRANCH  20  21
HETATM   21  C21 UNL     1     -25.661  31.250  11.212  1.00  0.00     0.530 C 
HETATM   22  F1  UNL     1     -24.554  30.623  10.625  1.00  0.00    -0.144 F 
HETATM   23  F2  UNL     1     -25.268  32.347  11.952  1.00  0.00    -0.144 F 
HETATM   24  F3  UNL     1     -26.246  30.294  12.034  1.00  0.00    -0.144 F 
ENDBRANCH  20  21
ENDBRANCH  17  20
ENDBRANCH  11  14
ENDBRANCH   7   8
BRANCH   1  25
HETATM   25  O1  UNL     1     -23.559  33.305   1.351  1.00  0.00    -0.291 OA
BRANCH  25  26
HETATM   26  C10 UNL     1     -24.285  32.643   0.494  1.00  0.00     0.085 A 
HETATM   27  C5  UNL     1     -25.314  31.795   0.925  1.00  0.00    -0.017 A 
HETATM   28  C6  UNL     1     -26.031  31.136  -0.048  1.00  0.00     0.011 A 
HETATM   29  C7  UNL     1     -25.777  31.278  -1.411  1.00  0.00     0.001 A 
HETATM   30  C8  UNL     1     -24.761  32.115  -1.812  1.00  0.00     0.003 A 
HETATM   31  C9  UNL     1     -24.027  32.786  -0.900  1.00  0.00     0.038 A 
BRANCH  27  32
HETATM   32  C2  UNL     1     -25.668  31.534   2.312  1.00  0.00    -0.021 C 
HETATM   33  C1  UNL     1     -26.593  30.303   2.351  1.00  0.00     0.019 C 
HETATM   34  C3  UNL     1     -26.509  32.645   2.899  1.00  0.00     0.019 C 
HETATM   35  C4  UNL     1     -24.549  31.214   3.233  1.00  0.00     0.019 C 
ENDBRANCH  27  32
ENDBRANCH  25  26
ENDBRANCH   1  25
TORSDOF 7
ENDMDL
