MODEL 4
REMARK VINA RESULT: -6.869869650      8.271     10.843
REMARK  7 active torsions:
REMARK  status: ('A' for Active; 'I' for Inactive)
REMARK    1  A    between atoms: C2_2  and  C5_5 
REMARK    2  A    between atoms: C10_10  and  O1_11 
REMARK    3  A    between atoms: O1_11  and  C11_12 
REMARK    4  A    between atoms: C15_18  and  N2_19 
REMARK       I    between atoms: N2_19  and  C16_21 
REMARK       I    between atoms: C16_21  and  N3_23 
REMARK    5  A    between atoms: N3_23  and  C17_25 
REMARK    6  A    between atoms: C20_28  and  O3_29 
REMARK    7  A    between atoms: O3_29  and  C21_30 
ROOT
HETATM    1  C11 UNL     1     -14.087  34.895   3.250  1.00  0.00     0.175 A 
HETATM    2  N1  UNL     1     -14.023  35.019   1.920  1.00  0.00    -0.345 N 
ATOM      3  H1  UNL     1     -13.306  34.482   1.434  1.00  0.00     0.167 HD
HETATM    4  C12 UNL     1     -14.805  35.771   1.194  1.00  0.00     0.090 A 
HETATM    5  C13 UNL     1     -15.795  36.527   1.765  1.00  0.00     0.019 A 
HETATM    6  C14 UNL     1     -15.912  36.440   3.149  1.00  0.00     0.035 A 
HETATM    7  C15 UNL     1     -15.092  35.653   3.896  1.00  0.00     0.088 A 
ENDROOT
BRANCH   7   8
HETATM    8  N2  UNL     1     -15.233  35.568   5.283  1.00  0.00    -0.305 N 
HETATM    9  C16 UNL     1     -16.404  35.528   6.079  1.00  0.00     0.325 C 
HETATM   10  O2  UNL     1     -17.495  35.575   5.483  1.00  0.00    -0.247 OA
HETATM   11  N3  UNL     1     -16.323  35.438   7.506  1.00  0.00    -0.309 N 
ATOM     12  H3  UNL     1     -15.402  35.407   7.941  1.00  0.00     0.170 HD
ATOM     13  H2  UNL     1     -14.357  35.530   5.804  1.00  0.00     0.171 HD
BRANCH  11  14
HETATM   14  C17 UNL     1     -17.459  35.389   8.332  1.00  0.00     0.036 A 
HETATM   15  C18 UNL     1     -18.094  36.609   8.641  1.00  0.00     0.032 A 
HETATM   16  C19 UNL     1     -19.199  36.692   9.448  1.00  0.00     0.039 A 
HETATM   17  C20 UNL     1     -19.764  35.573  10.013  1.00  0.00     0.078 A 
HETATM   18  C22 UNL     1     -19.169  34.371   9.730  1.00  0.00     0.039 A 
HETATM   19  C23 UNL     1     -18.033  34.286   8.902  1.00  0.00     0.032 A 
BRANCH  17  20
HETATM   20  O3  UNL     1     -20.881  35.640  10.829  1.00  0.00    -0.255 OA
BRANCH  20  21
HETATM   21  C21 UNL     1     -22.167  35.260  10.411  1.00  0.00     0.530 C 
HETATM   22  F1  UNL     1     -22.263  35.383   9.018  1.00  0.00    -0.144 F 
HETATM   23  F2  UNL     1     -22.511  33.986  10.814  1.00  0.00    -0.144 F 
HETATM   24  F3  UNL     1     -23.054  36.192  10.936  1.00  0.00    -0.144 F 
ENDBRANCH  20  21
ENDBRANCH  17  20
ENDBRANCH  11  14
ENDBRANCH   7   8
BRANCH   1  25
HETATM   25  O1  UNL     1     -13.267  34.114   3.950  1.00  0.00    -0.291 OA
BRANCH  25  26
HETATM   26  C10 UNL     1     -12.197  33.382   4.085  1.00  0.00     0.085 A 
HETATM   27  C5  UNL     1     -11.352  33.538   5.191  1.00  0.00    -0.017 A 
HETATM   28  C6  UNL     1     -10.245  32.722   5.255  1.00  0.00     0.011 A 
HETATM   29  C7  UNL     1      -9.943  31.769   4.283  1.00  0.00     0.001 A 
HETATM   30  C8  UNL     1     -10.787  31.633   3.204  1.00  0.00     0.003 A 
HETATM   31  C9  UNL     1     -11.886  32.408   3.093  1.00  0.00     0.038 A 
BRANCH  27  32
HETATM   32  C2  UNL     1     -11.531  34.508   6.261  1.00  0.00    -0.021 C 
HETATM   33  C1  UNL     1     -10.287  34.464   7.167  1.00  0.00     0.019 C 
HETATM   34  C3  UNL     1     -12.670  34.130   7.181  1.00  0.00     0.019 C 
HETATM   35  C4  UNL     1     -11.670  35.928   5.852  1.00  0.00     0.019 C 
ENDBRANCH  27  32
ENDBRANCH  25  26
ENDBRANCH   1  25
TORSDOF 7
ENDMDL
