MODEL 7
REMARK VINA RESULT: -5.756210014      0.819      1.597
REMARK  12 active torsions:
REMARK  status: ('A' for Active; 'I' for Inactive)
REMARK    1  A    between atoms: C2_2  and  C3_3 
REMARK    2  A    between atoms: C3_3  and  C4_4 
REMARK    3  A    between atoms: C4_4  and  C5_5 
REMARK    4  A    between atoms: C5_5  and  C6_6 
REMARK    5  A    between atoms: C6_6  and  C7_7 
REMARK    6  A    between atoms: C7_7  and  O1_8 
REMARK    7  A    between atoms: O1_8  and  C8_9 
REMARK    8  A    between atoms: C9_11  and  C10_12 
REMARK    9  A    between atoms: C10_12  and  O3_13 
REMARK   10  A    between atoms: C11_15  and  O4_16 
REMARK   11  A    between atoms: C12_18  and  O5_19 
REMARK   12  A    between atoms: C13_21  and  O6_22 
ROOT
HETATM    1  C8  UNL     1     -18.837  -5.462 -13.205  1.00  0.00     0.291 C 
HETATM    2  O2  UNL     1     -20.080  -4.970 -13.477  1.00  0.00    -0.348 OA
HETATM    3  C9  UNL     1     -21.147  -5.610 -12.985  1.00  0.00     0.179 C 
HETATM    4  C11 UNL     1     -20.980  -6.544 -11.855  1.00  0.00     0.180 C 
HETATM    5  C12 UNL     1     -19.620  -7.168 -11.728  1.00  0.00     0.183 C 
HETATM    6  C13 UNL     1     -18.940  -6.969 -13.090  1.00  0.00     0.204 C 
ENDROOT
BRANCH   1   7
HETATM    7  O1  UNL     1     -17.946  -5.058 -14.164  1.00  0.00    -0.359 OA
BRANCH   7   8
HETATM    8  C7  UNL     1     -18.556  -4.911 -15.391  1.00  0.00     0.171 C 
BRANCH   8   9
HETATM    9  C6  UNL     1     -18.086  -5.878 -16.423  1.00  0.00     0.026 C 
BRANCH   9  10
HETATM   10  C5  UNL     1     -19.183  -6.801 -16.908  1.00  0.00     0.002 C 
BRANCH  10  11
HETATM   11  C4  UNL     1     -20.546  -6.190 -16.774  1.00  0.00     0.000 C 
BRANCH  11  12
HETATM   12  C3  UNL     1     -21.289  -6.121 -18.085  1.00  0.00    -0.000 C 
BRANCH  12  13
HETATM   13  C2  UNL     1     -20.748  -5.072 -19.001  1.00  0.00    -0.005 C 
HETATM   14  C1  UNL     1     -20.752  -3.753 -18.261  1.00  0.00     0.005 C 
ENDBRANCH  12  13
ENDBRANCH  11  12
ENDBRANCH  10  11
ENDBRANCH   9  10
ENDBRANCH   8   9
ENDBRANCH   7   8
ENDBRANCH   1   7
BRANCH   6  15
HETATM   15  O6  UNL     1     -17.732  -7.610 -13.159  1.00  0.00    -0.388 OA
ATOM     16  H6  UNL     1     -17.803  -8.540 -13.341  1.00  0.00     0.210 HD
ENDBRANCH   6  15
BRANCH   3  17
HETATM   17  C10 UNL     1     -22.209  -4.576 -12.584  1.00  0.00     0.198 C 
BRANCH  17  18
HETATM   18  O3  UNL     1     -22.222  -4.529 -11.182  1.00  0.00    -0.398 OA
ATOM     19  H3  UNL     1     -23.105  -4.292 -10.922  1.00  0.00     0.209 HD
ENDBRANCH  17  18
ENDBRANCH   3  17
BRANCH   5  20
HETATM   20  O5  UNL     1     -18.841  -6.416 -10.820  1.00  0.00    -0.390 OA
ATOM     21  H5  UNL     1     -18.812  -5.509 -11.103  1.00  0.00     0.210 HD
ENDBRANCH   5  20
BRANCH   4  22
HETATM   22  O4  UNL     1     -21.902  -7.612 -11.964  1.00  0.00    -0.390 OA
ATOM     23  H4  UNL     1     -21.439  -8.434 -12.080  1.00  0.00     0.210 HD
ENDBRANCH   4  22
TORSDOF 12
ENDMDL
