MODEL 10
REMARK VINA RESULT: -5.552103082      1.578      2.323
REMARK  12 active torsions:
REMARK  status: ('A' for Active; 'I' for Inactive)
REMARK    1  A    between atoms: C2_2  and  C3_3 
REMARK    2  A    between atoms: C3_3  and  C4_4 
REMARK    3  A    between atoms: C4_4  and  C5_5 
REMARK    4  A    between atoms: C5_5  and  C6_6 
REMARK    5  A    between atoms: C6_6  and  C7_7 
REMARK    6  A    between atoms: C7_7  and  O1_8 
REMARK    7  A    between atoms: O1_8  and  C8_9 
REMARK    8  A    between atoms: C9_11  and  C10_12 
REMARK    9  A    between atoms: C10_12  and  O3_13 
REMARK   10  A    between atoms: C11_15  and  O4_16 
REMARK   11  A    between atoms: C12_18  and  O5_19 
REMARK   12  A    between atoms: C13_21  and  O6_22 
ROOT
HETATM    1  C8  UNL     1     -19.658  -5.530 -13.822  1.00  0.00     0.291 C 
HETATM    2  O2  UNL     1     -21.000  -5.325 -13.694  1.00  0.00    -0.348 OA
HETATM    3  C9  UNL     1     -21.678  -6.046 -12.793  1.00  0.00     0.179 C 
HETATM    4  C11 UNL     1     -20.950  -6.716 -11.698  1.00  0.00     0.180 C 
HETATM    5  C12 UNL     1     -19.515  -7.054 -11.988  1.00  0.00     0.183 C 
HETATM    6  C13 UNL     1     -19.371  -6.985 -13.515  1.00  0.00     0.204 C 
ENDROOT
BRANCH   1   7
HETATM    7  O1  UNL     1     -19.237  -5.153 -15.071  1.00  0.00    -0.359 OA
BRANCH   7   8
HETATM    8  C7  UNL     1     -20.085  -4.221 -15.629  1.00  0.00     0.171 C 
BRANCH   8   9
HETATM    9  C6  UNL     1     -20.383  -4.459 -17.071  1.00  0.00     0.026 C 
BRANCH   9  10
HETATM   10  C5  UNL     1     -20.929  -5.844 -17.338  1.00  0.00     0.002 C 
BRANCH  10  11
HETATM   11  C4  UNL     1     -21.309  -6.042 -18.776  1.00  0.00     0.000 C 
BRANCH  11  12
HETATM   12  C3  UNL     1     -20.600  -5.090 -19.706  1.00  0.00    -0.000 C 
BRANCH  12  13
HETATM   13  C2  UNL     1     -21.524  -4.444 -20.687  1.00  0.00    -0.005 C 
HETATM   14  C1  UNL     1     -21.591  -2.967 -20.369  1.00  0.00     0.005 C 
ENDBRANCH  12  13
ENDBRANCH  11  12
ENDBRANCH  10  11
ENDBRANCH   9  10
ENDBRANCH   8   9
ENDBRANCH   7   8
ENDBRANCH   1   7
BRANCH   6  15
HETATM   15  O6  UNL     1     -18.135  -7.402 -13.933  1.00  0.00    -0.388 OA
ATOM     16  H6  UNL     1     -17.428  -7.146 -13.351  1.00  0.00     0.210 HD
ENDBRANCH   6  15
BRANCH   3  17
HETATM   17  C10 UNL     1     -22.764  -5.163 -12.160  1.00  0.00     0.198 C 
BRANCH  17  18
HETATM   18  O3  UNL     1     -22.118  -4.317 -11.246  1.00  0.00    -0.398 OA
ATOM     19  H3  UNL     1     -22.675  -4.265 -10.478  1.00  0.00     0.209 HD
ENDBRANCH  17  18
ENDBRANCH   3  17
BRANCH   5  20
HETATM   20  O5  UNL     1     -18.681  -6.024 -11.498  1.00  0.00    -0.390 OA
ATOM     21  H5  UNL     1     -18.986  -5.751 -10.640  1.00  0.00     0.210 HD
ENDBRANCH   5  20
BRANCH   4  22
HETATM   22  O4  UNL     1     -21.587  -7.934 -11.361  1.00  0.00    -0.390 OA
ATOM     23  H4  UNL     1     -21.432  -8.583 -12.037  1.00  0.00     0.210 HD
ENDBRANCH   4  22
TORSDOF 12
ENDMDL
