MODEL 3
REMARK VINA RESULT: -6.249469732      1.120      1.564
REMARK  12 active torsions:
REMARK  status: ('A' for Active; 'I' for Inactive)
REMARK    1  A    between atoms: C2_2  and  C3_3 
REMARK    2  A    between atoms: C3_3  and  C4_4 
REMARK    3  A    between atoms: C4_4  and  C5_5 
REMARK    4  A    between atoms: C5_5  and  C6_6 
REMARK    5  A    between atoms: C6_6  and  C7_7 
REMARK    6  A    between atoms: C7_7  and  O1_8 
REMARK    7  A    between atoms: O1_8  and  C8_9 
REMARK    8  A    between atoms: C9_11  and  C10_12 
REMARK    9  A    between atoms: C10_12  and  O3_13 
REMARK   10  A    between atoms: C11_15  and  O4_16 
REMARK   11  A    between atoms: C12_18  and  O5_19 
REMARK   12  A    between atoms: C13_21  and  O6_22 
ROOT
HETATM    1  C8  UNL     1     -56.974  -3.004   2.209  1.00  0.00     0.291 C 
HETATM    2  O2  UNL     1     -56.730  -2.752   3.527  1.00  0.00    -0.348 OA
HETATM    3  C9  UNL     1     -57.295  -3.541   4.448  1.00  0.00     0.179 C 
HETATM    4  C11 UNL     1     -57.804  -4.870   4.057  1.00  0.00     0.180 C 
HETATM    5  C12 UNL     1     -58.206  -5.010   2.617  1.00  0.00     0.183 C 
HETATM    6  C13 UNL     1     -58.371  -3.578   2.089  1.00  0.00     0.204 C 
ENDROOT
BRANCH   1   7
HETATM    7  O1  UNL     1     -56.798  -1.865   1.467  1.00  0.00    -0.359 OA
BRANCH   7   8
HETATM    8  C7  UNL     1     -57.193  -0.743   2.162  1.00  0.00     0.171 C 
BRANCH   8   9
HETATM    9  C6  UNL     1     -56.787   0.541   1.523  1.00  0.00     0.026 C 
BRANCH   9  10
HETATM   10  C5  UNL     1     -57.342   1.755   2.236  1.00  0.00     0.002 C 
BRANCH  10  11
HETATM   11  C4  UNL     1     -56.408   2.280   3.285  1.00  0.00     0.000 C 
BRANCH  11  12
HETATM   12  C3  UNL     1     -57.101   2.580   4.591  1.00  0.00    -0.000 C 
BRANCH  12  13
HETATM   13  C2  UNL     1     -58.585   2.691   4.445  1.00  0.00    -0.005 C 
HETATM   14  C1  UNL     1     -59.005   4.056   4.939  1.00  0.00     0.005 C 
ENDBRANCH  12  13
ENDBRANCH  11  12
ENDBRANCH  10  11
ENDBRANCH   9  10
ENDBRANCH   8   9
ENDBRANCH   7   8
ENDBRANCH   1   7
BRANCH   6  15
HETATM   15  O6  UNL     1     -58.867  -3.556   0.812  1.00  0.00    -0.388 OA
ATOM     16  H6  UNL     1     -59.687  -4.025   0.713  1.00  0.00     0.210 HD
ENDBRANCH   6  15
BRANCH   3  17
HETATM   17  C10 UNL     1     -56.308  -3.741   5.608  1.00  0.00     0.198 C 
BRANCH  17  18
HETATM   18  O3  UNL     1     -55.384  -4.712   5.192  1.00  0.00    -0.398 OA
ATOM     19  H3  UNL     1     -54.555  -4.264   5.061  1.00  0.00     0.209 HD
ENDBRANCH  17  18
ENDBRANCH   3  17
BRANCH   5  20
HETATM   20  O5  UNL     1     -57.128  -5.547   1.878  1.00  0.00    -0.390 OA
ATOM     21  H5  UNL     1     -57.224  -5.311   0.962  1.00  0.00     0.210 HD
ENDBRANCH   5  20
BRANCH   4  22
HETATM   22  O4  UNL     1     -58.946  -5.201   4.825  1.00  0.00    -0.390 OA
ATOM     23  H4  UNL     1     -58.684  -5.578   5.657  1.00  0.00     0.210 HD
ENDBRANCH   4  22
TORSDOF 12
ENDMDL
