MODEL 15
REMARK VINA RESULT: -5.430115103      1.836      2.556
REMARK  12 active torsions:
REMARK  status: ('A' for Active; 'I' for Inactive)
REMARK    1  A    between atoms: C2_2  and  C3_3 
REMARK    2  A    between atoms: C3_3  and  C4_4 
REMARK    3  A    between atoms: C4_4  and  C5_5 
REMARK    4  A    between atoms: C5_5  and  C6_6 
REMARK    5  A    between atoms: C6_6  and  C7_7 
REMARK    6  A    between atoms: C7_7  and  O1_8 
REMARK    7  A    between atoms: O1_8  and  C8_9 
REMARK    8  A    between atoms: C9_11  and  C10_12 
REMARK    9  A    between atoms: C10_12  and  O3_13 
REMARK   10  A    between atoms: C11_15  and  O4_16 
REMARK   11  A    between atoms: C12_18  and  O5_19 
REMARK   12  A    between atoms: C13_21  and  O6_22 
ROOT
HETATM    1  C8  UNL     1     -57.986  -1.902   2.391  1.00  0.00     0.291 C 
HETATM    2  O2  UNL     1     -57.011  -1.994   3.341  1.00  0.00    -0.348 OA
HETATM    3  C9  UNL     1     -56.976  -3.078   4.124  1.00  0.00     0.179 C 
HETATM    4  C11 UNL     1     -57.683  -4.304   3.705  1.00  0.00     0.180 C 
HETATM    5  C12 UNL     1     -58.851  -4.093   2.785  1.00  0.00     0.183 C 
HETATM    6  C13 UNL     1     -59.220  -2.608   2.912  1.00  0.00     0.204 C 
ENDROOT
BRANCH   1   7
HETATM    7  O1  UNL     1     -58.215  -0.589   2.072  1.00  0.00    -0.359 OA
BRANCH   7   8
HETATM    8  C7  UNL     1     -57.125   0.201   2.368  1.00  0.00     0.171 C 
BRANCH   8   9
HETATM    9  C6  UNL     1     -57.478   1.569   2.842  1.00  0.00     0.026 C 
BRANCH   9  10
HETATM   10  C5  UNL     1     -56.480   2.125   3.834  1.00  0.00     0.002 C 
BRANCH  10  11
HETATM   11  C4  UNL     1     -57.141   2.866   4.958  1.00  0.00     0.000 C 
BRANCH  11  12
HETATM   12  C3  UNL     1     -58.641   2.929   4.815  1.00  0.00    -0.000 C 
BRANCH  12  13
HETATM   13  C2  UNL     1     -59.190   4.294   5.082  1.00  0.00    -0.005 C 
HETATM   14  C1  UNL     1     -59.127   5.087   3.796  1.00  0.00     0.005 C 
ENDBRANCH  12  13
ENDBRANCH  11  12
ENDBRANCH  10  11
ENDBRANCH   9  10
ENDBRANCH   8   9
ENDBRANCH   7   8
ENDBRANCH   1   7
BRANCH   6  15
HETATM   15  O6  UNL     1     -60.362  -2.302   2.221  1.00  0.00    -0.388 OA
ATOM     16  H6  UNL     1     -60.901  -1.645   2.645  1.00  0.00     0.210 HD
ENDBRANCH   6  15
BRANCH   3  17
HETATM   17  C10 UNL     1     -55.511  -3.453   4.394  1.00  0.00     0.198 C 
BRANCH  17  18
HETATM   18  O3  UNL     1     -55.526  -4.517   5.309  1.00  0.00    -0.398 OA
ATOM     19  H3  UNL     1     -55.319  -4.150   6.161  1.00  0.00     0.209 HD
ENDBRANCH  17  18
ENDBRANCH   3  17
BRANCH   5  20
HETATM   20  O5  UNL     1     -58.429  -4.249   1.445  1.00  0.00    -0.390 OA
ATOM     21  H5  UNL     1     -57.584  -4.684   1.428  1.00  0.00     0.210 HD
ENDBRANCH   5  20
BRANCH   4  22
HETATM   22  O4  UNL     1     -58.183  -4.990   4.837  1.00  0.00    -0.390 OA
ATOM     23  H4  UNL     1     -59.102  -5.200   4.713  1.00  0.00     0.210 HD
ENDBRANCH   4  22
TORSDOF 12
ENDMDL
