MODEL 7
REMARK VINA RESULT: -5.889917158      1.481      1.950
REMARK  12 active torsions:
REMARK  status: ('A' for Active; 'I' for Inactive)
REMARK    1  A    between atoms: C2_2  and  C3_3 
REMARK    2  A    between atoms: C3_3  and  C4_4 
REMARK    3  A    between atoms: C4_4  and  C5_5 
REMARK    4  A    between atoms: C5_5  and  C6_6 
REMARK    5  A    between atoms: C6_6  and  C7_7 
REMARK    6  A    between atoms: C7_7  and  O1_8 
REMARK    7  A    between atoms: O1_8  and  C8_9 
REMARK    8  A    between atoms: C9_11  and  C10_12 
REMARK    9  A    between atoms: C10_12  and  O3_13 
REMARK   10  A    between atoms: C11_15  and  O4_16 
REMARK   11  A    between atoms: C12_18  and  O5_19 
REMARK   12  A    between atoms: C13_21  and  O6_22 
ROOT
HETATM    1  C8  UNL     1     -56.993  -2.873   2.224  1.00  0.00     0.291 C 
HETATM    2  O2  UNL     1     -56.774  -2.644   3.551  1.00  0.00    -0.348 OA
HETATM    3  C9  UNL     1     -57.309  -3.484   4.446  1.00  0.00     0.179 C 
HETATM    4  C11 UNL     1     -57.748  -4.825   4.015  1.00  0.00     0.180 C 
HETATM    5  C12 UNL     1     -58.129  -4.946   2.567  1.00  0.00     0.183 C 
HETATM    6  C13 UNL     1     -58.359  -3.511   2.074  1.00  0.00     0.204 C 
ENDROOT
BRANCH   1   7
HETATM    7  O1  UNL     1     -56.865  -1.708   1.514  1.00  0.00    -0.359 OA
BRANCH   7   8
HETATM    8  C7  UNL     1     -57.588  -0.685   2.087  1.00  0.00     0.171 C 
BRANCH   8   9
HETATM    9  C6  UNL     1     -56.911   0.642   2.033  1.00  0.00     0.026 C 
BRANCH   9  10
HETATM   10  C5  UNL     1     -56.787   1.296   3.392  1.00  0.00     0.002 C 
BRANCH  10  11
HETATM   11  C4  UNL     1     -57.358   2.682   3.414  1.00  0.00     0.000 C 
BRANCH  11  12
HETATM   12  C3  UNL     1     -58.863   2.698   3.303  1.00  0.00    -0.000 C 
BRANCH  12  13
HETATM   13  C2  UNL     1     -59.345   3.426   2.090  1.00  0.00    -0.005 C 
HETATM   14  C1  UNL     1     -60.084   2.440   1.214  1.00  0.00     0.005 C 
ENDBRANCH  12  13
ENDBRANCH  11  12
ENDBRANCH  10  11
ENDBRANCH   9  10
ENDBRANCH   8   9
ENDBRANCH   7   8
ENDBRANCH   1   7
BRANCH   6  15
HETATM   15  O6  UNL     1     -58.843  -3.479   0.793  1.00  0.00    -0.388 OA
ATOM     16  H6  UNL     1     -59.081  -2.609   0.496  1.00  0.00     0.210 HD
ENDBRANCH   6  15
BRANCH   3  17
HETATM   17  C10 UNL     1     -56.324  -3.666   5.610  1.00  0.00     0.198 C 
BRANCH  17  18
HETATM   18  O3  UNL     1     -55.382  -4.622   5.201  1.00  0.00    -0.398 OA
ATOM     19  H3  UNL     1     -54.783  -4.747   5.928  1.00  0.00     0.209 HD
ENDBRANCH  17  18
ENDBRANCH   3  17
BRANCH   5  20
HETATM   20  O5  UNL     1     -57.019  -5.411   1.826  1.00  0.00    -0.390 OA
ATOM     21  H5  UNL     1     -57.011  -6.361   1.831  1.00  0.00     0.210 HD
ENDBRANCH   5  20
BRANCH   4  22
HETATM   22  O4  UNL     1     -58.880  -5.231   4.761  1.00  0.00    -0.390 OA
ATOM     23  H4  UNL     1     -58.951  -4.716   5.556  1.00  0.00     0.210 HD
ENDBRANCH   4  22
TORSDOF 12
ENDMDL
