MODEL 2
REMARK VINA RESULT: -6.325375961      1.077      1.454
REMARK  12 active torsions:
REMARK  status: ('A' for Active; 'I' for Inactive)
REMARK    1  A    between atoms: C2_2  and  C3_3 
REMARK    2  A    between atoms: C3_3  and  C4_4 
REMARK    3  A    between atoms: C4_4  and  C5_5 
REMARK    4  A    between atoms: C5_5  and  C6_6 
REMARK    5  A    between atoms: C6_6  and  C7_7 
REMARK    6  A    between atoms: C7_7  and  O1_8 
REMARK    7  A    between atoms: O1_8  and  C8_9 
REMARK    8  A    between atoms: C9_11  and  C10_12 
REMARK    9  A    between atoms: C10_12  and  O3_13 
REMARK   10  A    between atoms: C11_15  and  O4_16 
REMARK   11  A    between atoms: C12_18  and  O5_19 
REMARK   12  A    between atoms: C13_21  and  O6_22 
ROOT
HETATM    1  C8  UNL     1     -56.959  -2.981   2.196  1.00  0.00     0.291 C 
HETATM    2  O2  UNL     1     -56.723  -2.721   3.514  1.00  0.00    -0.348 OA
HETATM    3  C9  UNL     1     -57.284  -3.512   4.436  1.00  0.00     0.179 C 
HETATM    4  C11 UNL     1     -57.776  -4.849   4.048  1.00  0.00     0.180 C 
HETATM    5  C12 UNL     1     -58.170  -4.999   2.606  1.00  0.00     0.183 C 
HETATM    6  C13 UNL     1     -58.348  -3.571   2.072  1.00  0.00     0.204 C 
ENDROOT
BRANCH   1   7
HETATM    7  O1  UNL     1     -56.791  -1.843   1.450  1.00  0.00    -0.359 OA
BRANCH   7   8
HETATM    8  C7  UNL     1     -57.148  -0.717   2.159  1.00  0.00     0.171 C 
BRANCH   8   9
HETATM    9  C6  UNL     1     -56.895   0.562   1.436  1.00  0.00     0.026 C 
BRANCH   9  10
HETATM   10  C5  UNL     1     -56.464   1.683   2.356  1.00  0.00     0.002 C 
BRANCH  10  11
HETATM   11  C4  UNL     1     -57.365   1.825   3.547  1.00  0.00     0.000 C 
BRANCH  11  12
HETATM   12  C3  UNL     1     -56.673   2.448   4.734  1.00  0.00    -0.000 C 
BRANCH  12  13
HETATM   13  C2  UNL     1     -55.906   3.680   4.375  1.00  0.00    -0.005 C 
HETATM   14  C1  UNL     1     -55.135   4.127   5.596  1.00  0.00     0.005 C 
ENDBRANCH  12  13
ENDBRANCH  11  12
ENDBRANCH  10  11
ENDBRANCH   9  10
ENDBRANCH   8   9
ENDBRANCH   7   8
ENDBRANCH   1   7
BRANCH   6  15
HETATM   15  O6  UNL     1     -58.839  -3.559   0.793  1.00  0.00    -0.388 OA
ATOM     16  H6  UNL     1     -59.625  -4.081   0.680  1.00  0.00     0.210 HD
ENDBRANCH   6  15
BRANCH   3  17
HETATM   17  C10 UNL     1     -56.300  -3.697   5.601  1.00  0.00     0.198 C 
BRANCH  17  18
HETATM   18  O3  UNL     1     -55.372  -4.669   5.199  1.00  0.00    -0.398 OA
ATOM     19  H3  UNL     1     -55.280  -5.278   5.923  1.00  0.00     0.209 HD
ENDBRANCH  17  18
ENDBRANCH   3  17
BRANCH   5  20
HETATM   20  O5  UNL     1     -57.083  -5.526   1.874  1.00  0.00    -0.390 OA
ATOM     21  H5  UNL     1     -56.801  -6.343   2.271  1.00  0.00     0.210 HD
ENDBRANCH   5  20
BRANCH   4  22
HETATM   22  O4  UNL     1     -58.918  -5.189   4.812  1.00  0.00    -0.390 OA
ATOM     23  H4  UNL     1     -59.345  -5.952   4.441  1.00  0.00     0.210 HD
ENDBRANCH   4  22
TORSDOF 12
ENDMDL
