MODEL 1
REMARK VINA RESULT: -6.345015580      0.000      0.000
REMARK  12 active torsions:
REMARK  status: ('A' for Active; 'I' for Inactive)
REMARK    1  A    between atoms: C2_2  and  C3_3 
REMARK    2  A    between atoms: C3_3  and  C4_4 
REMARK    3  A    between atoms: C4_4  and  C5_5 
REMARK    4  A    between atoms: C5_5  and  C6_6 
REMARK    5  A    between atoms: C6_6  and  C7_7 
REMARK    6  A    between atoms: C7_7  and  O1_8 
REMARK    7  A    between atoms: O1_8  and  C8_9 
REMARK    8  A    between atoms: C9_11  and  C10_12 
REMARK    9  A    between atoms: C10_12  and  O3_13 
REMARK   10  A    between atoms: C11_15  and  O4_16 
REMARK   11  A    between atoms: C12_18  and  O5_19 
REMARK   12  A    between atoms: C13_21  and  O6_22 
ROOT
HETATM    1  C8  UNL     1     -56.795  -3.766   1.571  1.00  0.00     0.291 C 
HETATM    2  O2  UNL     1     -56.325  -3.148   2.692  1.00  0.00    -0.348 OA
HETATM    3  C9  UNL     1     -56.862  -3.467   3.876  1.00  0.00     0.179 C 
HETATM    4  C11 UNL     1     -57.619  -4.726   4.017  1.00  0.00     0.180 C 
HETATM    5  C12 UNL     1     -58.245  -5.249   2.756  1.00  0.00     0.183 C 
HETATM    6  C13 UNL     1     -58.265  -4.066   1.778  1.00  0.00     0.204 C 
ENDROOT
BRANCH   1   7
HETATM    7  O1  UNL     1     -56.558  -2.990   0.466  1.00  0.00    -0.359 OA
BRANCH   7   8
HETATM    8  C7  UNL     1     -56.242  -1.695   0.817  1.00  0.00     0.171 C 
BRANCH   8   9
HETATM    9  C6  UNL     1     -57.298  -0.699   0.476  1.00  0.00     0.026 C 
BRANCH   9  10
HETATM   10  C5  UNL     1     -58.030  -0.176   1.693  1.00  0.00     0.002 C 
BRANCH  10  11
HETATM   11  C4  UNL     1     -57.111   0.498   2.668  1.00  0.00     0.000 C 
BRANCH  11  12
HETATM   12  C3  UNL     1     -56.486   1.753   2.112  1.00  0.00    -0.000 C 
BRANCH  12  13
HETATM   13  C2  UNL     1     -56.090   2.723   3.179  1.00  0.00    -0.005 C 
HETATM   14  C1  UNL     1     -56.751   2.298   4.470  1.00  0.00     0.005 C 
ENDBRANCH  12  13
ENDBRANCH  11  12
ENDBRANCH  10  11
ENDBRANCH   9  10
ENDBRANCH   8   9
ENDBRANCH   7   8
ENDBRANCH   1   7
BRANCH   6  15
HETATM   15  O6  UNL     1     -58.934  -4.367   0.622  1.00  0.00    -0.388 OA
ATOM     16  H6  UNL     1     -59.689  -4.929   0.752  1.00  0.00     0.210 HD
ENDBRANCH   6  15
BRANCH   3  17
HETATM   17  C10 UNL     1     -55.757  -3.464   4.943  1.00  0.00     0.198 C 
BRANCH  17  18
HETATM   18  O3  UNL     1     -55.543  -4.801   5.311  1.00  0.00    -0.398 OA
ATOM     19  H3  UNL     1     -55.683  -4.853   6.250  1.00  0.00     0.209 HD
ENDBRANCH  17  18
ENDBRANCH   3  17
BRANCH   5  20
HETATM   20  O5  UNL     1     -57.381  -6.196   2.161  1.00  0.00    -0.390 OA
ATOM     21  H5  UNL     1     -57.856  -7.005   2.008  1.00  0.00     0.210 HD
ENDBRANCH   5  20
BRANCH   4  22
HETATM   22  O4  UNL     1     -58.673  -4.560   4.947  1.00  0.00    -0.390 OA
ATOM     23  H4  UNL     1     -59.501  -4.808   4.553  1.00  0.00     0.210 HD
ENDBRANCH   4  22
TORSDOF 12
ENDMDL
