MODEL 13
REMARK VINA RESULT: -5.524163435      2.141      3.826
REMARK  12 active torsions:
REMARK  status: ('A' for Active; 'I' for Inactive)
REMARK    1  A    between atoms: C2_2  and  C3_3 
REMARK    2  A    between atoms: C3_3  and  C4_4 
REMARK    3  A    between atoms: C4_4  and  C5_5 
REMARK    4  A    between atoms: C5_5  and  C6_6 
REMARK    5  A    between atoms: C6_6  and  C7_7 
REMARK    6  A    between atoms: C7_7  and  O1_8 
REMARK    7  A    between atoms: O1_8  and  C8_9 
REMARK    8  A    between atoms: C9_11  and  C10_12 
REMARK    9  A    between atoms: C10_12  and  O3_13 
REMARK   10  A    between atoms: C11_15  and  O4_16 
REMARK   11  A    between atoms: C12_18  and  O5_19 
REMARK   12  A    between atoms: C13_21  and  O6_22 
ROOT
HETATM    1  C8  UNL     1     -56.727  -3.788   1.797  1.00  0.00     0.291 C 
HETATM    2  O2  UNL     1     -56.327  -3.173   2.947  1.00  0.00    -0.348 OA
HETATM    3  C9  UNL     1     -56.977  -3.449   4.084  1.00  0.00     0.179 C 
HETATM    4  C11 UNL     1     -57.799  -4.672   4.176  1.00  0.00     0.180 C 
HETATM    5  C12 UNL     1     -58.337  -5.188   2.872  1.00  0.00     0.183 C 
HETATM    6  C13 UNL     1     -58.221  -4.021   1.881  1.00  0.00     0.204 C 
ENDROOT
BRANCH   1   7
HETATM    7  O1  UNL     1     -56.361  -3.041   0.708  1.00  0.00    -0.359 OA
BRANCH   7   8
HETATM    8  C7  UNL     1     -56.468  -1.691   0.962  1.00  0.00     0.171 C 
BRANCH   8   9
HETATM    9  C6  UNL     1     -56.373  -0.835  -0.255  1.00  0.00     0.026 C 
BRANCH   9  10
HETATM   10  C5  UNL     1     -54.998  -0.858  -0.885  1.00  0.00     0.002 C 
BRANCH  10  11
HETATM   11  C4  UNL     1     -55.047  -1.149  -2.356  1.00  0.00     0.000 C 
BRANCH  11  12
HETATM   12  C3  UNL     1     -56.229  -2.001  -2.745  1.00  0.00    -0.000 C 
BRANCH  12  13
HETATM   13  C2  UNL     1     -56.030  -2.705  -4.048  1.00  0.00    -0.005 C 
HETATM   14  C1  UNL     1     -54.544  -2.784  -4.318  1.00  0.00     0.005 C 
ENDBRANCH  12  13
ENDBRANCH  11  12
ENDBRANCH  10  11
ENDBRANCH   9  10
ENDBRANCH   8   9
ENDBRANCH   7   8
ENDBRANCH   1   7
BRANCH   6  15
HETATM   15  O6  UNL     1     -58.801  -4.312   0.675  1.00  0.00    -0.388 OA
ATOM     16  H6  UNL     1     -59.739  -4.456   0.727  1.00  0.00     0.210 HD
ENDBRANCH   6  15
BRANCH   3  17
HETATM   17  C10 UNL     1     -55.970  -3.475   5.243  1.00  0.00     0.198 C 
BRANCH  17  18
HETATM   18  O3  UNL     1     -55.390  -4.753   5.248  1.00  0.00    -0.398 OA
ATOM     19  H3  UNL     1     -55.857  -5.264   5.899  1.00  0.00     0.209 HD
ENDBRANCH  17  18
ENDBRANCH   3  17
BRANCH   5  20
HETATM   20  O5  UNL     1     -57.468  -6.181   2.366  1.00  0.00    -0.390 OA
ATOM     21  H5  UNL     1     -57.681  -6.352   1.455  1.00  0.00     0.210 HD
ENDBRANCH   5  20
BRANCH   4  22
HETATM   22  O4  UNL     1     -58.920  -4.445   5.009  1.00  0.00    -0.390 OA
ATOM     23  H4  UNL     1     -58.959  -5.102   5.694  1.00  0.00     0.210 HD
ENDBRANCH   4  22
TORSDOF 12
ENDMDL
