MODEL 11
REMARK VINA RESULT: -5.594663654      2.313      4.151
REMARK  12 active torsions:
REMARK  status: ('A' for Active; 'I' for Inactive)
REMARK    1  A    between atoms: C2_2  and  C3_3 
REMARK    2  A    between atoms: C3_3  and  C4_4 
REMARK    3  A    between atoms: C4_4  and  C5_5 
REMARK    4  A    between atoms: C5_5  and  C6_6 
REMARK    5  A    between atoms: C6_6  and  C7_7 
REMARK    6  A    between atoms: C7_7  and  O1_8 
REMARK    7  A    between atoms: O1_8  and  C8_9 
REMARK    8  A    between atoms: C9_11  and  C10_12 
REMARK    9  A    between atoms: C10_12  and  O3_13 
REMARK   10  A    between atoms: C11_15  and  O4_16 
REMARK   11  A    between atoms: C12_18  and  O5_19 
REMARK   12  A    between atoms: C13_21  and  O6_22 
ROOT
HETATM    1  C8  UNL     1      -8.254 -56.604  -7.147  1.00  0.00     0.291 C 
HETATM    2  O2  UNL     1      -9.588 -56.689  -7.417  1.00  0.00    -0.348 OA
HETATM    3  C9  UNL     1     -10.413 -57.119  -6.455  1.00  0.00     0.179 C 
HETATM    4  C11 UNL     1      -9.969 -57.095  -5.048  1.00  0.00     0.180 C 
HETATM    5  C12 UNL     1      -8.484 -57.172  -4.838  1.00  0.00     0.183 C 
HETATM    6  C13 UNL     1      -7.902 -57.696  -6.158  1.00  0.00     0.204 C 
ENDROOT
BRANCH   1   7
HETATM    7  O1  UNL     1      -7.529 -56.678  -8.307  1.00  0.00    -0.359 OA
BRANCH   7   8
HETATM    8  C7  UNL     1      -8.138 -57.499  -9.232  1.00  0.00     0.171 C 
BRANCH   8   9
HETATM    9  C6  UNL     1      -7.313 -57.764 -10.445  1.00  0.00     0.026 C 
BRANCH   9  10
HETATM   10  C5  UNL     1      -7.311 -56.607 -11.420  1.00  0.00     0.002 C 
BRANCH  10  11
HETATM   11  C4  UNL     1      -5.945 -56.016 -11.605  1.00  0.00     0.000 C 
BRANCH  11  12
HETATM   12  C3  UNL     1      -4.919 -56.608 -10.670  1.00  0.00    -0.000 C 
BRANCH  12  13
HETATM   13  C2  UNL     1      -3.628 -55.856 -10.678  1.00  0.00    -0.005 C 
HETATM   14  C1  UNL     1      -3.864 -54.522 -11.348  1.00  0.00     0.005 C 
ENDBRANCH  12  13
ENDBRANCH  11  12
ENDBRANCH  10  11
ENDBRANCH   9  10
ENDBRANCH   8   9
ENDBRANCH   7   8
ENDBRANCH   1   7
BRANCH   6  15
HETATM   15  O6  UNL     1      -6.558 -57.942  -6.065  1.00  0.00    -0.388 OA
ATOM     16  H6  UNL     1      -6.349 -58.788  -5.687  1.00  0.00     0.210 HD
ENDBRANCH   6  15
BRANCH   3  17
HETATM   17  C10 UNL     1     -11.733 -56.340  -6.543  1.00  0.00     0.198 C 
BRANCH  17  18
HETATM   18  O3  UNL     1     -11.722 -55.403  -5.498  1.00  0.00    -0.398 OA
ATOM     19  H3  UNL     1     -12.157 -55.810  -4.758  1.00  0.00     0.209 HD
ENDBRANCH  17  18
ENDBRANCH   3  17
BRANCH   5  20
HETATM   20  O5  UNL     1      -7.960 -55.867  -4.704  1.00  0.00    -0.390 OA
ATOM     21  H5  UNL     1      -7.965 -55.617  -3.787  1.00  0.00     0.210 HD
ENDBRANCH   5  20
BRANCH   4  22
HETATM   22  O4  UNL     1     -10.530 -58.184  -4.340  1.00  0.00    -0.390 OA
ATOM     23  H4  UNL     1     -10.042 -58.342  -3.540  1.00  0.00     0.210 HD
ENDBRANCH   4  22
TORSDOF 12
ENDMDL
