MODEL 2
REMARK VINA RESULT: -6.527084459      1.114      1.522
REMARK  12 active torsions:
REMARK  status: ('A' for Active; 'I' for Inactive)
REMARK    1  A    between atoms: C2_2  and  C3_3 
REMARK    2  A    between atoms: C3_3  and  C4_4 
REMARK    3  A    between atoms: C4_4  and  C5_5 
REMARK    4  A    between atoms: C5_5  and  C6_6 
REMARK    5  A    between atoms: C6_6  and  C7_7 
REMARK    6  A    between atoms: C7_7  and  O1_8 
REMARK    7  A    between atoms: O1_8  and  C8_9 
REMARK    8  A    between atoms: C9_11  and  C10_12 
REMARK    9  A    between atoms: C10_12  and  O3_13 
REMARK   10  A    between atoms: C11_15  and  O4_16 
REMARK   11  A    between atoms: C12_18  and  O5_19 
REMARK   12  A    between atoms: C13_21  and  O6_22 
ROOT
HETATM    1  C8  UNL     1      -8.927 -57.505  -7.641  1.00  0.00     0.291 C 
HETATM    2  O2  UNL     1     -10.271 -57.534  -7.410  1.00  0.00    -0.348 OA
HETATM    3  C9  UNL     1     -10.708 -57.465  -6.147  1.00  0.00     0.179 C 
HETATM    4  C11 UNL     1      -9.812 -56.951  -5.093  1.00  0.00     0.180 C 
HETATM    5  C12 UNL     1      -8.343 -57.111  -5.359  1.00  0.00     0.183 C 
HETATM    6  C13 UNL     1      -8.231 -58.165  -6.469  1.00  0.00     0.204 C 
ENDROOT
BRANCH   1   7
HETATM    7  O1  UNL     1      -8.639 -58.102  -8.841  1.00  0.00    -0.359 OA
BRANCH   7   8
HETATM    8  C7  UNL     1      -9.556 -59.083  -9.150  1.00  0.00     0.171 C 
BRANCH   8   9
HETATM    9  C6  UNL     1      -9.477 -59.566 -10.558  1.00  0.00     0.026 C 
BRANCH   9  10
HETATM   10  C5  UNL     1     -10.836 -59.831 -11.168  1.00  0.00     0.002 C 
BRANCH  10  11
HETATM   11  C4  UNL     1     -11.773 -60.502 -10.208  1.00  0.00     0.000 C 
BRANCH  11  12
HETATM   12  C3  UNL     1     -13.201 -60.512 -10.694  1.00  0.00    -0.000 C 
BRANCH  12  13
HETATM   13  C2  UNL     1     -13.304 -60.606 -12.182  1.00  0.00    -0.005 C 
HETATM   14  C1  UNL     1     -14.715 -60.235 -12.581  1.00  0.00     0.005 C 
ENDBRANCH  12  13
ENDBRANCH  11  12
ENDBRANCH  10  11
ENDBRANCH   9  10
ENDBRANCH   8   9
ENDBRANCH   7   8
ENDBRANCH   1   7
BRANCH   6  15
HETATM   15  O6  UNL     1      -6.930 -58.508  -6.723  1.00  0.00    -0.388 OA
ATOM     16  H6  UNL     1      -6.599 -59.197  -6.159  1.00  0.00     0.210 HD
ENDBRANCH   6  15
BRANCH   3  17
HETATM   17  C10 UNL     1     -11.999 -56.633  -6.110  1.00  0.00     0.198 C 
BRANCH  17  18
HETATM   18  O3  UNL     1     -11.670 -55.398  -5.530  1.00  0.00    -0.398 OA
ATOM     19  H3  UNL     1     -11.134 -54.932  -6.162  1.00  0.00     0.209 HD
ENDBRANCH  17  18
ENDBRANCH   3  17
BRANCH   5  20
HETATM   20  O5  UNL     1      -7.838 -55.923  -5.935  1.00  0.00    -0.390 OA
ATOM     21  H5  UNL     1      -8.043 -55.186  -5.371  1.00  0.00     0.210 HD
ENDBRANCH   5  20
BRANCH   4  22
HETATM   22  O4  UNL     1     -10.070 -57.612  -3.868  1.00  0.00    -0.390 OA
ATOM     23  H4  UNL     1      -9.904 -57.027  -3.138  1.00  0.00     0.210 HD
ENDBRANCH   4  22
TORSDOF 12
ENDMDL
