MODEL 3
REMARK VINA RESULT: -6.471358223      0.990      1.185
REMARK  12 active torsions:
REMARK  status: ('A' for Active; 'I' for Inactive)
REMARK    1  A    between atoms: C2_2  and  C3_3 
REMARK    2  A    between atoms: C3_3  and  C4_4 
REMARK    3  A    between atoms: C4_4  and  C5_5 
REMARK    4  A    between atoms: C5_5  and  C6_6 
REMARK    5  A    between atoms: C6_6  and  C7_7 
REMARK    6  A    between atoms: C7_7  and  O1_8 
REMARK    7  A    between atoms: O1_8  and  C8_9 
REMARK    8  A    between atoms: C9_11  and  C10_12 
REMARK    9  A    between atoms: C10_12  and  O3_13 
REMARK   10  A    between atoms: C11_15  and  O4_16 
REMARK   11  A    between atoms: C12_18  and  O5_19 
REMARK   12  A    between atoms: C13_21  and  O6_22 
ROOT
HETATM    1  C8  UNL     1      -8.862 -57.457  -7.482  1.00  0.00     0.291 C 
HETATM    2  O2  UNL     1     -10.200 -57.538  -7.233  1.00  0.00    -0.348 OA
HETATM    3  C9  UNL     1     -10.623 -57.475  -5.964  1.00  0.00     0.179 C 
HETATM    4  C11 UNL     1      -9.735 -56.917  -4.926  1.00  0.00     0.180 C 
HETATM    5  C12 UNL     1      -8.264 -57.019  -5.211  1.00  0.00     0.183 C 
HETATM    6  C13 UNL     1      -8.125 -58.078  -6.314  1.00  0.00     0.204 C 
ENDROOT
BRANCH   1   7
HETATM    7  O1  UNL     1      -8.565 -58.053  -8.680  1.00  0.00    -0.359 OA
BRANCH   7   8
HETATM    8  C7  UNL     1      -9.502 -59.006  -9.016  1.00  0.00     0.171 C 
BRANCH   8   9
HETATM    9  C6  UNL     1      -8.916 -60.304  -9.457  1.00  0.00     0.026 C 
BRANCH   9  10
HETATM   10  C5  UNL     1      -9.584 -60.860 -10.696  1.00  0.00     0.002 C 
BRANCH  10  11
HETATM   11  C4  UNL     1     -10.174 -59.786 -11.560  1.00  0.00     0.000 C 
BRANCH  11  12
HETATM   12  C3  UNL     1     -11.620 -60.042 -11.906  1.00  0.00    -0.000 C 
BRANCH  12  13
HETATM   13  C2  UNL     1     -12.424 -60.499 -10.732  1.00  0.00    -0.005 C 
HETATM   14  C1  UNL     1     -13.884 -60.475 -11.123  1.00  0.00     0.005 C 
ENDBRANCH  12  13
ENDBRANCH  11  12
ENDBRANCH  10  11
ENDBRANCH   9  10
ENDBRANCH   8   9
ENDBRANCH   7   8
ENDBRANCH   1   7
BRANCH   6  15
HETATM   15  O6  UNL     1      -6.814 -58.371  -6.582  1.00  0.00    -0.388 OA
ATOM     16  H6  UNL     1      -6.385 -57.729  -7.137  1.00  0.00     0.210 HD
ENDBRANCH   6  15
BRANCH   3  17
HETATM   17  C10 UNL     1     -11.946 -56.696  -5.916  1.00  0.00     0.198 C 
BRANCH  17  18
HETATM   18  O3  UNL     1     -11.632 -55.388  -5.518  1.00  0.00    -0.398 OA
ATOM     19  H3  UNL     1     -12.369 -54.841  -5.767  1.00  0.00     0.209 HD
ENDBRANCH  17  18
ENDBRANCH   3  17
BRANCH   5  20
HETATM   20  O5  UNL     1      -7.815 -55.818  -5.804  1.00  0.00    -0.390 OA
ATOM     21  H5  UNL     1      -6.921 -55.929  -6.107  1.00  0.00     0.210 HD
ENDBRANCH   5  20
BRANCH   4  22
HETATM   22  O4  UNL     1      -9.950 -57.578  -3.693  1.00  0.00    -0.390 OA
ATOM     23  H4  UNL     1      -9.131 -57.665  -3.220  1.00  0.00     0.210 HD
ENDBRANCH   4  22
TORSDOF 12
ENDMDL
