MODEL 5
REMARK VINA RESULT: -7.228499527      1.736      2.750
REMARK  7 active torsions:
REMARK  status: ('A' for Active; 'I' for Inactive)
REMARK    1  A    between atoms: C9_11  and  C10_12 
REMARK    2  A    between atoms: C10_12  and  C11_13 
REMARK       I    between atoms: C11_13  and  N2_15 
REMARK    3  A    between atoms: N2_15  and  C12_17 
REMARK    4  A    between atoms: C12_17  and  C13_18 
REMARK    5  A    between atoms: C12_17  and  C20_25 
REMARK    6  A    between atoms: C13_18  and  C14_19 
REMARK       I    between atoms: C20_25  and  N3_27 
REMARK    7  A    between atoms: N3_27  and  C22_29 
ROOT
HETATM    1  C12 UNL     1      29.117  -1.981  -1.713  1.00  0.00     0.181 C 
ENDROOT
BRANCH   1   2
HETATM    2  N2  UNL     1      28.930  -0.919  -0.704  1.00  0.00    -0.347 N 
HETATM    3  C11 UNL     1      29.989  -0.424   0.100  1.00  0.00     0.222 C 
HETATM    4  O1  UNL     1      31.136  -0.927  -0.097  1.00  0.00    -0.273 OA
ATOM      5  H2  UNL     1      27.999  -0.522  -0.580  1.00  0.00     0.163 HD
BRANCH   3   6
HETATM    6  C10 UNL     1      29.759   0.640   1.121  1.00  0.00     0.144 C 
BRANCH   6   7
HETATM    7  C9  UNL     1      30.067   0.133   2.482  1.00  0.00    -0.015 A 
HETATM    8  C2  UNL     1      29.405  -0.748   3.277  1.00  0.00     0.013 A 
HETATM    9  C1  UNL     1      28.128  -1.435   2.987  1.00  0.00     0.068 C 
HETATM   10  N1  UNL     1      30.092  -0.910   4.428  1.00  0.00    -0.359 N 
HETATM   11  C3  UNL     1      31.202  -0.153   4.421  1.00  0.00     0.043 A 
ATOM     12  H1  UNL     1      29.810  -1.521   5.195  1.00  0.00     0.166 HD
HETATM   13  C4  UNL     1      32.210   0.033   5.341  1.00  0.00     0.030 A 
HETATM   14  C8  UNL     1      31.209   0.509   3.216  1.00  0.00    -0.001 A 
HETATM   15  C5  UNL     1      33.224   0.908   5.000  1.00  0.00     0.002 A 
HETATM   16  C6  UNL     1      33.241   1.581   3.789  1.00  0.00     0.001 A 
HETATM   17  C7  UNL     1      32.227   1.391   2.871  1.00  0.00     0.014 A 
ENDBRANCH   6   7
ENDBRANCH   3   6
ENDBRANCH   1   2
BRANCH   1  18
HETATM   18  C13 UNL     1      27.943  -2.909  -1.718  1.00  0.00     0.073 C 
BRANCH  18  19
HETATM   19  C14 UNL     1      28.075  -4.028  -0.787  1.00  0.00    -0.056 A 
HETATM   20  C15 UNL     1      27.624  -3.928   0.503  1.00  0.00     0.007 A 
HETATM   21  C16 UNL     1      27.729  -5.009   1.390  1.00  0.00     0.001 A 
HETATM   22  C17 UNL     1      28.289  -6.189   0.982  1.00  0.00     0.000 A 
HETATM   23  C18 UNL     1      28.749  -6.299  -0.318  1.00  0.00     0.001 A 
HETATM   24  C19 UNL     1      28.633  -5.213  -1.182  1.00  0.00     0.007 A 
ENDBRANCH  18  19
ENDBRANCH   1  18
BRANCH   1  25
HETATM   25  C20 UNL     1      29.386  -1.333  -3.017  1.00  0.00     0.247 C 
HETATM   26  O2  UNL     1      28.736  -0.312  -3.335  1.00  0.00    -0.271 OA
HETATM   27  N3  UNL     1      30.357  -1.838  -3.899  1.00  0.00    -0.321 N 
HETATM   28  C21 UNL     1      30.559  -1.121  -5.171  1.00  0.00     0.159 C 
BRANCH  27  29
HETATM   29  C22 UNL     1      31.174  -2.973  -3.702  1.00  0.00     0.036 A 
HETATM   30  C23 UNL     1      30.663  -4.185  -4.165  1.00  0.00     0.029 A 
HETATM   31  C24 UNL     1      31.385  -5.347  -4.002  1.00  0.00     0.002 A 
HETATM   32  C25 UNL     1      32.618  -5.350  -3.386  1.00  0.00     0.000 A 
HETATM   33  C26 UNL     1      33.125  -4.160  -2.931  1.00  0.00     0.002 A 
HETATM   34  C27 UNL     1      32.403  -2.982  -3.092  1.00  0.00     0.029 A 
ENDBRANCH  27  29
ENDBRANCH   1  25
TORSDOF 7
ENDMDL
