MODEL 3
REMARK VINA RESULT: -7.540656666      2.944      7.456
REMARK  7 active torsions:
REMARK  status: ('A' for Active; 'I' for Inactive)
REMARK    1  A    between atoms: C9_11  and  C10_12 
REMARK    2  A    between atoms: C10_12  and  C11_13 
REMARK       I    between atoms: C11_13  and  N2_15 
REMARK    3  A    between atoms: N2_15  and  C12_17 
REMARK    4  A    between atoms: C12_17  and  C13_18 
REMARK    5  A    between atoms: C12_17  and  C20_25 
REMARK    6  A    between atoms: C13_18  and  C14_19 
REMARK       I    between atoms: C20_25  and  N3_27 
REMARK    7  A    between atoms: N3_27  and  C22_29 
ROOT
HETATM    1  C12 UNL     1      29.073  -2.584  -2.530  1.00  0.00     0.181 C 
ENDROOT
BRANCH   1   2
HETATM    2  N2  UNL     1      30.183  -3.555  -2.446  1.00  0.00    -0.347 N 
HETATM    3  C11 UNL     1      30.767  -4.160  -3.588  1.00  0.00     0.222 C 
HETATM    4  O1  UNL     1      30.303  -3.813  -4.716  1.00  0.00    -0.273 OA
ATOM      5  H2  UNL     1      30.546  -3.801  -1.525  1.00  0.00     0.163 HD
BRANCH   3   6
HETATM    6  C10 UNL     1      31.879  -5.149  -3.462  1.00  0.00     0.144 C 
BRANCH   6   7
HETATM    7  C9  UNL     1      33.177  -4.523  -3.815  1.00  0.00    -0.015 A 
HETATM    8  C2  UNL     1      33.898  -3.552  -3.194  1.00  0.00     0.013 A 
HETATM    9  C1  UNL     1      33.536  -2.813  -1.966  1.00  0.00     0.068 C 
HETATM   10  N1  UNL     1      35.035  -3.331  -3.888  1.00  0.00    -0.359 N 
HETATM   11  C3  UNL     1      35.089  -4.133  -4.965  1.00  0.00     0.043 A 
ATOM     12  H1  UNL     1      35.751  -2.650  -3.633  1.00  0.00     0.166 HD
HETATM   13  C4  UNL     1      36.021  -4.286  -5.967  1.00  0.00     0.030 A 
HETATM   14  C8  UNL     1      33.940  -4.887  -4.941  1.00  0.00    -0.001 A 
HETATM   15  C5  UNL     1      35.751  -5.228  -6.943  1.00  0.00     0.002 A 
HETATM   16  C6  UNL     1      34.597  -5.993  -6.929  1.00  0.00     0.001 A 
HETATM   17  C7  UNL     1      33.666  -5.835  -5.922  1.00  0.00     0.014 A 
ENDBRANCH   6   7
ENDBRANCH   3   6
ENDBRANCH   1   2
BRANCH   1  18
HETATM   18  C13 UNL     1      27.796  -3.209  -2.063  1.00  0.00     0.073 C 
BRANCH  18  19
HETATM   19  C14 UNL     1      27.976  -4.161  -0.969  1.00  0.00    -0.056 A 
HETATM   20  C15 UNL     1      27.633  -3.830   0.317  1.00  0.00     0.007 A 
HETATM   21  C16 UNL     1      27.782  -4.750   1.363  1.00  0.00     0.001 A 
HETATM   22  C17 UNL     1      28.278  -6.003   1.120  1.00  0.00     0.000 A 
HETATM   23  C18 UNL     1      28.628  -6.346  -0.174  1.00  0.00     0.001 A 
HETATM   24  C19 UNL     1      28.470  -5.416  -1.197  1.00  0.00     0.007 A 
ENDBRANCH  18  19
ENDBRANCH   1  18
BRANCH   1  25
HETATM   25  C20 UNL     1      29.468  -1.370  -1.780  1.00  0.00     0.247 C 
HETATM   26  O2  UNL     1      29.707  -1.463  -0.555  1.00  0.00    -0.271 OA
HETATM   27  N3  UNL     1      29.582  -0.122  -2.416  1.00  0.00    -0.321 N 
HETATM   28  C21 UNL     1      29.987   1.029  -1.587  1.00  0.00     0.159 C 
BRANCH  27  29
HETATM   29  C22 UNL     1      29.349   0.161  -3.779  1.00  0.00     0.036 A 
HETATM   30  C23 UNL     1      30.405  -0.106  -4.651  1.00  0.00     0.029 A 
HETATM   31  C24 UNL     1      30.271   0.154  -5.998  1.00  0.00     0.002 A 
HETATM   32  C25 UNL     1      29.108   0.676  -6.520  1.00  0.00     0.000 A 
HETATM   33  C26 UNL     1      28.067   0.937  -5.667  1.00  0.00     0.002 A 
HETATM   34  C27 UNL     1      28.192   0.678  -4.305  1.00  0.00     0.029 A 
ENDBRANCH  27  29
ENDBRANCH   1  25
TORSDOF 7
ENDMDL
