MODEL 6
REMARK VINA RESULT: -7.135857487      3.369      6.596
REMARK  7 active torsions:
REMARK  status: ('A' for Active; 'I' for Inactive)
REMARK    1  A    between atoms: C9_11  and  C10_12 
REMARK    2  A    between atoms: C10_12  and  C11_13 
REMARK       I    between atoms: C11_13  and  N2_15 
REMARK    3  A    between atoms: N2_15  and  C12_17 
REMARK    4  A    between atoms: C12_17  and  C13_18 
REMARK    5  A    between atoms: C12_17  and  C20_25 
REMARK    6  A    between atoms: C13_18  and  C14_19 
REMARK       I    between atoms: C20_25  and  N3_27 
REMARK    7  A    between atoms: N3_27  and  C22_29 
ROOT
HETATM    1  C12 UNL     1      33.554  -4.042  -3.462  1.00  0.00     0.181 C 
ENDROOT
BRANCH   1   2
HETATM    2  N2  UNL     1      32.093  -4.205  -3.317  1.00  0.00    -0.347 N 
HETATM    3  C11 UNL     1      31.187  -3.115  -3.370  1.00  0.00     0.222 C 
HETATM    4  O1  UNL     1      31.688  -1.967  -3.572  1.00  0.00    -0.273 OA
ATOM      5  H2  UNL     1      31.719  -5.142  -3.173  1.00  0.00     0.163 HD
BRANCH   3   6
HETATM    6  C10 UNL     1      29.717  -3.315  -3.204  1.00  0.00     0.144 C 
BRANCH   6   7
HETATM    7  C9  UNL     1      29.314  -3.081  -1.795  1.00  0.00    -0.015 A 
HETATM    8  C2  UNL     1      29.256  -1.938  -1.061  1.00  0.00     0.013 A 
HETATM    9  C1  UNL     1      29.628  -0.574  -1.494  1.00  0.00     0.068 C 
HETATM   10  N1  UNL     1      28.805  -2.229   0.178  1.00  0.00    -0.359 N 
HETATM   11  C3  UNL     1      28.562  -3.546   0.290  1.00  0.00     0.043 A 
ATOM     12  H1  UNL     1      28.668  -1.546   0.924  1.00  0.00     0.166 HD
HETATM   13  C4  UNL     1      28.102  -4.323   1.330  1.00  0.00     0.030 A 
HETATM   14  C8  UNL     1      28.873  -4.100  -0.929  1.00  0.00    -0.001 A 
HETATM   15  C5  UNL     1      27.968  -5.679   1.093  1.00  0.00     0.002 A 
HETATM   16  C6  UNL     1      28.278  -6.248  -0.130  1.00  0.00     0.001 A 
HETATM   17  C7  UNL     1      28.739  -5.464  -1.169  1.00  0.00     0.014 A 
ENDBRANCH   6   7
ENDBRANCH   3   6
ENDBRANCH   1   2
BRANCH   1  18
HETATM   18  C13 UNL     1      34.259  -4.550  -2.243  1.00  0.00     0.073 C 
BRANCH  18  19
HETATM   19  C14 UNL     1      35.077  -3.539  -1.576  1.00  0.00    -0.056 A 
HETATM   20  C15 UNL     1      34.760  -2.208  -1.661  1.00  0.00     0.007 A 
HETATM   21  C16 UNL     1      35.530  -1.240  -1.002  1.00  0.00     0.001 A 
HETATM   22  C17 UNL     1      36.619  -1.608  -0.259  1.00  0.00     0.000 A 
HETATM   23  C18 UNL     1      36.948  -2.948  -0.167  1.00  0.00     0.001 A 
HETATM   24  C19 UNL     1      36.168  -3.893  -0.830  1.00  0.00     0.007 A 
ENDBRANCH  18  19
ENDBRANCH   1  18
BRANCH   1  25
HETATM   25  C20 UNL     1      33.966  -4.702  -4.723  1.00  0.00     0.247 C 
HETATM   26  O2  UNL     1      33.228  -5.584  -5.216  1.00  0.00    -0.271 OA
HETATM   27  N3  UNL     1      35.162  -4.354  -5.374  1.00  0.00    -0.321 N 
HETATM   28  C21 UNL     1      35.485  -5.061  -6.627  1.00  0.00     0.159 C 
BRANCH  27  29
HETATM   29  C22 UNL     1      36.105  -3.390  -4.957  1.00  0.00     0.036 A 
HETATM   30  C23 UNL     1      37.267  -3.884  -4.363  1.00  0.00     0.029 A 
HETATM   31  C24 UNL     1      38.236  -3.014  -3.913  1.00  0.00     0.002 A 
HETATM   32  C25 UNL     1      38.093  -1.649  -4.033  1.00  0.00     0.000 A 
HETATM   33  C26 UNL     1      36.954  -1.159  -4.618  1.00  0.00     0.002 A 
HETATM   34  C27 UNL     1      35.969  -2.030  -5.077  1.00  0.00     0.029 A 
ENDBRANCH  27  29
ENDBRANCH   1  25
TORSDOF 7
ENDMDL
