MODEL 8
REMARK VINA RESULT: -7.075115751      2.966      6.815
REMARK  7 active torsions:
REMARK  status: ('A' for Active; 'I' for Inactive)
REMARK    1  A    between atoms: C9_11  and  C10_12 
REMARK    2  A    between atoms: C10_12  and  C11_13 
REMARK       I    between atoms: C11_13  and  N2_15 
REMARK    3  A    between atoms: N2_15  and  C12_17 
REMARK    4  A    between atoms: C12_17  and  C13_18 
REMARK    5  A    between atoms: C12_17  and  C20_25 
REMARK    6  A    between atoms: C13_18  and  C14_19 
REMARK       I    between atoms: C20_25  and  N3_27 
REMARK    7  A    between atoms: N3_27  and  C22_29 
ROOT
HETATM    1  C12 UNL     1      29.163  -2.668  -2.494  1.00  0.00     0.181 C 
ENDROOT
BRANCH   1   2
HETATM    2  N2  UNL     1      30.245  -3.669  -2.404  1.00  0.00    -0.347 N 
HETATM    3  C11 UNL     1      30.824  -4.283  -3.543  1.00  0.00     0.222 C 
HETATM    4  O1  UNL     1      30.382  -3.917  -4.674  1.00  0.00    -0.273 OA
ATOM      5  H2  UNL     1      30.591  -3.931  -1.481  1.00  0.00     0.163 HD
BRANCH   3   6
HETATM    6  C10 UNL     1      31.906  -5.304  -3.412  1.00  0.00     0.144 C 
BRANCH   6   7
HETATM    7  C9  UNL     1      33.197  -4.762  -3.905  1.00  0.00    -0.015 A 
HETATM    8  C2  UNL     1      33.937  -5.077  -5.001  1.00  0.00     0.013 A 
HETATM    9  C1  UNL     1      33.645  -6.113  -6.013  1.00  0.00     0.068 C 
HETATM   10  N1  UNL     1      35.034  -4.289  -5.035  1.00  0.00    -0.359 N 
HETATM   11  C3  UNL     1      35.045  -3.455  -3.983  1.00  0.00     0.043 A 
ATOM     12  H1  UNL     1      35.753  -4.323  -5.759  1.00  0.00     0.166 HD
HETATM   13  C4  UNL     1      35.929  -2.481  -3.574  1.00  0.00     0.030 A 
HETATM   14  C8  UNL     1      33.908  -3.730  -3.261  1.00  0.00    -0.001 A 
HETATM   15  C5  UNL     1      35.622  -1.796  -2.413  1.00  0.00     0.002 A 
HETATM   16  C6  UNL     1      34.480  -2.066  -1.677  1.00  0.00     0.001 A 
HETATM   17  C7  UNL     1      33.598  -3.044  -2.092  1.00  0.00     0.014 A 
ENDBRANCH   6   7
ENDBRANCH   3   6
ENDBRANCH   1   2
BRANCH   1  18
HETATM   18  C13 UNL     1      27.861  -3.264  -2.060  1.00  0.00     0.073 C 
BRANCH  18  19
HETATM   19  C14 UNL     1      27.988  -4.204  -0.949  1.00  0.00    -0.056 A 
HETATM   20  C15 UNL     1      27.602  -3.852   0.319  1.00  0.00     0.007 A 
HETATM   21  C16 UNL     1      27.702  -4.760   1.382  1.00  0.00     0.001 A 
HETATM   22  C17 UNL     1      28.190  -6.022   1.173  1.00  0.00     0.000 A 
HETATM   23  C18 UNL     1      28.583  -6.386  -0.103  1.00  0.00     0.001 A 
HETATM   24  C19 UNL     1      28.475  -5.468  -1.143  1.00  0.00     0.007 A 
ENDBRANCH  18  19
ENDBRANCH   1  18
BRANCH   1  25
HETATM   25  C20 UNL     1      29.575  -1.476  -1.717  1.00  0.00     0.247 C 
HETATM   26  O2  UNL     1      29.785  -1.593  -0.489  1.00  0.00    -0.271 OA
HETATM   27  N3  UNL     1      29.739  -0.222  -2.332  1.00  0.00    -0.321 N 
HETATM   28  C21 UNL     1      30.158   0.904  -1.477  1.00  0.00     0.159 C 
BRANCH  27  29
HETATM   29  C22 UNL     1      29.544   0.086  -3.695  1.00  0.00     0.036 A 
HETATM   30  C23 UNL     1      30.673   0.008  -4.511  1.00  0.00     0.029 A 
HETATM   31  C24 UNL     1      30.578   0.307  -5.852  1.00  0.00     0.002 A 
HETATM   32  C25 UNL     1      29.383   0.687  -6.424  1.00  0.00     0.000 A 
HETATM   33  C26 UNL     1      28.271   0.763  -5.627  1.00  0.00     0.002 A 
HETATM   34  C27 UNL     1      28.356   0.462  -4.271  1.00  0.00     0.029 A 
ENDBRANCH  27  29
ENDBRANCH   1  25
TORSDOF 7
ENDMDL
