MODEL 3
REMARK VINA RESULT: -9.334012307      2.997      3.911
REMARK  2 active torsions:
REMARK  status: ('A' for Active; 'I' for Inactive)
REMARK    1  A    between atoms: C2_5  and  C3_6 
REMARK    2  A    between atoms: C10_16  and  C11_17 
ROOT
HETATM    1  N1  UNL     1     -12.045 -29.145 -69.677  1.00  0.00    -0.075 NA
HETATM    2  C1  UNL     1     -10.735 -28.563 -69.790  1.00  0.00     0.151 C 
HETATM    3  N2  UNL     1     -10.070 -28.223 -68.780  1.00  0.00    -0.357 N 
ATOM      4  H2  UNL     1     -10.534 -28.394 -67.888  1.00  0.00     0.162 HD
HETATM    5  C2  UNL     1      -8.761 -27.633 -68.672  1.00  0.00     0.088 C 
HETATM    6  C9  UNL     1      -7.807 -28.785 -68.461  1.00  0.00     0.205 C 
HETATM    7  O1  UNL     1      -6.536 -28.606 -68.877  1.00  0.00    -0.378 OA
HETATM    8  C10 UNL     1      -5.990 -27.379 -69.002  1.00  0.00     0.157 C 
HETATM    9  C14 UNL     1      -6.892 -26.429 -69.693  1.00  0.00     0.045 C 
HETATM   10  C15 UNL     1      -8.297 -26.925 -69.904  1.00  0.00     0.033 C 
HETATM   11  C16 UNL     1      -8.271 -27.895 -71.068  1.00  0.00     0.089 C 
HETATM   12  S1  UNL     1     -10.010 -28.305 -71.403  1.00  0.00    -0.097 SA
ENDROOT
BRANCH   5  13
HETATM   13  C3  UNL     1      -8.805 -26.797 -67.473  1.00  0.00     0.011 A 
HETATM   14  C4  UNL     1      -8.077 -27.131 -66.368  1.00  0.00     0.016 A 
HETATM   15  C5  UNL     1      -8.098 -26.345 -65.204  1.00  0.00     0.043 A 
HETATM   16  C6  UNL     1      -8.872 -25.212 -65.178  1.00  0.00     0.119 A 
HETATM   17  F1  UNL     1      -8.892 -24.455 -64.054  1.00  0.00    -0.206 F 
HETATM   18  C7  UNL     1      -9.620 -24.862 -66.302  1.00  0.00     0.085 A 
HETATM   19  C8  UNL     1      -9.583 -25.642 -67.419  1.00  0.00     0.128 A 
HETATM   20  F2  UNL     1     -10.289 -25.337 -68.517  1.00  0.00    -0.205 F 
ENDBRANCH   5  13
BRANCH   8  21
HETATM   21  C11 UNL     1      -4.717 -27.573 -69.809  1.00  0.00     0.004 A 
HETATM   22  C12 UNL     1      -4.518 -28.591 -70.731  1.00  0.00     0.118 A 
HETATM   23  N3  UNL     1      -3.282 -28.456 -71.238  1.00  0.00    -0.312 N 
HETATM   24  N4  UNL     1      -2.695 -27.411 -70.686  1.00  0.00    -0.312 N 
ATOM     25  H3  UNL     1      -2.862 -29.066 -71.939  1.00  0.00     0.186 HD
HETATM   26  C13 UNL     1      -3.560 -26.843 -69.794  1.00  0.00     0.118 A 
ATOM     27  H4  UNL     1      -1.752 -27.081 -70.892  1.00  0.00     0.186 HD
ENDBRANCH   8  21
TORSDOF 2
ENDMDL
