MODEL 1
REMARK VINA RESULT: -9.395993996      0.000      0.000
REMARK  2 active torsions:
REMARK  status: ('A' for Active; 'I' for Inactive)
REMARK    1  A    between atoms: C2_5  and  C3_6 
REMARK    2  A    between atoms: C10_16  and  C11_17 
ROOT
HETATM    1  N1  UNL     1      -8.405 -32.077 -71.508  1.00  0.00    -0.075 NA
HETATM    2  C1  UNL     1      -7.858 -30.799 -71.138  1.00  0.00     0.151 C 
HETATM    3  N2  UNL     1      -8.531 -29.947 -70.506  1.00  0.00    -0.357 N 
ATOM      4  H2  UNL     1      -9.484 -30.237 -70.284  1.00  0.00     0.162 HD
HETATM    5  C2  UNL     1      -8.182 -28.629 -70.044  1.00  0.00     0.088 C 
HETATM    6  C9  UNL     1      -7.733 -28.801 -68.612  1.00  0.00     0.205 C 
HETATM    7  O1  UNL     1      -6.857 -27.892 -68.136  1.00  0.00    -0.378 OA
HETATM    8  C10 UNL     1      -6.754 -26.654 -68.661  1.00  0.00     0.157 C 
HETATM    9  C14 UNL     1      -6.717 -26.671 -70.141  1.00  0.00     0.045 C 
HETATM   10  C15 UNL     1      -7.035 -28.001 -70.769  1.00  0.00     0.033 C 
HETATM   11  C16 UNL     1      -5.807 -28.879 -70.633  1.00  0.00     0.089 C 
HETATM   12  S1  UNL     1      -6.175 -30.388 -71.578  1.00  0.00    -0.097 SA
ENDROOT
BRANCH   5  13
HETATM   13  C3  UNL     1      -9.423 -27.856 -70.088  1.00  0.00     0.011 A 
HETATM   14  C4  UNL     1     -10.058 -27.499 -68.934  1.00  0.00     0.016 A 
HETATM   15  C5  UNL     1     -11.248 -26.754 -68.946  1.00  0.00     0.043 A 
HETATM   16  C6  UNL     1     -11.788 -26.376 -70.151  1.00  0.00     0.119 A 
HETATM   17  F1  UNL     1     -12.936 -25.658 -70.161  1.00  0.00    -0.206 F 
HETATM   18  C7  UNL     1     -11.145 -26.736 -71.335  1.00  0.00     0.085 A 
HETATM   19  C8  UNL     1      -9.991 -27.460 -71.297  1.00  0.00     0.128 A 
HETATM   20  F2  UNL     1      -9.348 -27.824 -72.415  1.00  0.00    -0.205 F 
ENDBRANCH   5  13
BRANCH   8  21
HETATM   21  C11 UNL     1      -5.459 -26.079 -68.111  1.00  0.00     0.004 A 
HETATM   22  C12 UNL     1      -5.312 -25.553 -66.835  1.00  0.00     0.118 A 
HETATM   23  N3  UNL     1      -4.043 -25.132 -66.704  1.00  0.00    -0.312 N 
HETATM   24  N4  UNL     1      -3.387 -25.365 -67.825  1.00  0.00    -0.312 N 
ATOM     25  H3  UNL     1      -3.649 -24.700 -65.869  1.00  0.00     0.186 HD
HETATM   26  C13 UNL     1      -4.239 -25.951 -68.717  1.00  0.00     0.118 A 
ATOM     27  H4  UNL     1      -2.406 -25.144 -67.996  1.00  0.00     0.186 HD
ENDBRANCH   8  21
TORSDOF 2
ENDMDL
