MODEL 2
REMARK VINA RESULT: -9.384830270      2.809      4.809
REMARK  2 active torsions:
REMARK  status: ('A' for Active; 'I' for Inactive)
REMARK    1  A    between atoms: C2_5  and  C3_6 
REMARK    2  A    between atoms: C10_16  and  C11_17 
ROOT
HETATM    1  N1  UNL     1     -10.360 -27.074 -73.827  1.00  0.00    -0.075 NA
HETATM    2  C1  UNL     1      -9.924 -27.255 -72.469  1.00  0.00     0.151 C 
HETATM    3  N2  UNL     1      -8.732 -27.535 -72.187  1.00  0.00    -0.357 N 
ATOM      4  H2  UNL     1      -8.113 -27.621 -72.993  1.00  0.00     0.162 HD
HETATM    5  C2  UNL     1      -8.095 -27.755 -70.914  1.00  0.00     0.088 C 
HETATM    6  C9  UNL     1      -7.493 -26.426 -70.521  1.00  0.00     0.205 C 
HETATM    7  O1  UNL     1      -7.344 -26.194 -69.201  1.00  0.00    -0.378 OA
HETATM    8  C10 UNL     1      -7.243 -27.196 -68.304  1.00  0.00     0.157 C 
HETATM    9  C14 UNL     1      -8.257 -28.253 -68.524  1.00  0.00     0.045 C 
HETATM   10  C15 UNL     1      -9.028 -28.135 -69.810  1.00  0.00     0.033 C 
HETATM   11  C16 UNL     1     -10.066 -27.045 -69.625  1.00  0.00     0.089 C 
HETATM   12  S1  UNL     1     -11.091 -27.083 -71.126  1.00  0.00    -0.097 SA
ENDROOT
BRANCH   5  13
HETATM   13  C3  UNL     1      -7.032 -28.726 -71.170  1.00  0.00     0.011 A 
HETATM   14  C4  UNL     1      -5.721 -28.350 -71.119  1.00  0.00     0.016 A 
HETATM   15  C5  UNL     1      -4.681 -29.263 -71.358  1.00  0.00     0.043 A 
HETATM   16  C6  UNL     1      -4.991 -30.567 -71.650  1.00  0.00     0.119 A 
HETATM   17  F1  UNL     1      -3.986 -31.446 -71.880  1.00  0.00    -0.206 F 
HETATM   18  C7  UNL     1      -6.327 -30.962 -71.704  1.00  0.00     0.085 A 
HETATM   19  C8  UNL     1      -7.319 -30.057 -71.470  1.00  0.00     0.128 A 
HETATM   20  F2  UNL     1      -8.614 -30.401 -71.514  1.00  0.00    -0.205 F 
ENDBRANCH   5  13
BRANCH   8  21
HETATM   21  C11 UNL     1      -7.443 -26.554 -66.941  1.00  0.00     0.004 A 
HETATM   22  C12 UNL     1      -8.551 -26.759 -66.131  1.00  0.00     0.118 A 
HETATM   23  N3  UNL     1      -8.390 -26.026 -65.016  1.00  0.00    -0.312 N 
HETATM   24  N4  UNL     1      -7.245 -25.375 -65.082  1.00  0.00    -0.312 N 
ATOM     25  H3  UNL     1      -9.051 -25.981 -64.241  1.00  0.00     0.186 HD
HETATM   26  C13 UNL     1      -6.635 -25.681 -66.265  1.00  0.00     0.118 A 
ATOM     27  H4  UNL     1      -6.876 -24.748 -64.368  1.00  0.00     0.186 HD
ENDBRANCH   8  21
TORSDOF 2
ENDMDL
