MODEL 1
REMARK VINA RESULT: -9.064326351      0.000      0.000
REMARK  2 active torsions:
REMARK  status: ('A' for Active; 'I' for Inactive)
REMARK    1  A    between atoms: C5_6  and  C6_7 
REMARK    2  A    between atoms: C8_9  and  C9_10 
ROOT
HETATM    1  C6  UNL     1      11.359  -0.352  28.429  1.00  0.00     0.135 C 
HETATM    2  C7  UNL     1      12.101   0.455  29.466  1.00  0.00     0.063 C 
HETATM    3  C8  UNL     1      13.588   0.270  29.162  1.00  0.00     0.163 C 
HETATM    4  N1  UNL     1      13.870   1.053  27.992  1.00  0.00    -0.101 N 
HETATM    5  N2  UNL     1      14.745   1.917  27.556  1.00  0.00    -0.209 N 
ATOM      6  H2  UNL     1      15.543   2.246  28.099  1.00  0.00     0.206 HD
HETATM    7  N3  UNL     1      14.471   2.313  26.327  1.00  0.00     0.009 NA
HETATM    8  N4  UNL     1      13.375   1.679  25.955  1.00  0.00    -0.113 N 
ATOM      9  H4  UNL     1      12.906   1.771  25.053  1.00  0.00     0.203 HD
HETATM   10  C15 UNL     1      12.987   0.899  26.960  1.00  0.00     0.710 A 
HETATM   11  N5  UNL     1      11.881  -0.003  27.122  1.00  0.00    -0.215 N 
ATOM     12  H5  UNL     1      11.449  -0.410  26.293  1.00  0.00     0.178 HD
ENDROOT
BRANCH   1  13
HETATM   13  C5  UNL     1       9.901  -0.207  28.527  1.00  0.00    -0.034 A 
HETATM   14  C4  UNL     1       9.105  -1.331  28.504  1.00  0.00     0.009 A 
HETATM   15  C3  UNL     1       7.717  -1.269  28.592  1.00  0.00     0.002 A 
HETATM   16  C2  UNL     1       7.121  -0.034  28.705  1.00  0.00     0.019 A 
HETATM   17  C1  UNL     1       7.898   1.109  28.730  1.00  0.00     0.011 A 
HETATM   18 BR1  UNL     1       7.011   2.792  28.889  1.00  0.00    -0.051 Br
HETATM   19  C16 UNL     1       9.273   1.017  28.641  1.00  0.00     0.028 A 
ENDBRANCH   1  13
BRANCH   3  20
HETATM   20  C9  UNL     1      14.439   0.547  30.308  1.00  0.00    -0.031 A 
HETATM   21  C10 UNL     1      14.549   1.764  30.950  1.00  0.00     0.009 A 
HETATM   22  C11 UNL     1      15.381   1.953  32.035  1.00  0.00     0.002 A 
HETATM   23  C12 UNL     1      16.139   0.929  32.523  1.00  0.00     0.019 A 
HETATM   24  C13 UNL     1      16.056  -0.307  31.905  1.00  0.00     0.011 A 
HETATM   25 BR2  UNL     1      17.098  -1.792  32.543  1.00  0.00    -0.051 Br
HETATM   26  C14 UNL     1      15.221  -0.484  30.821  1.00  0.00     0.028 A 
ENDBRANCH   3  20
TORSDOF 2
ENDMDL
