MODEL 2
REMARK VINA RESULT: -8.637203084      1.040      1.434
REMARK  2 active torsions:
REMARK  status: ('A' for Active; 'I' for Inactive)
REMARK    1  A    between atoms: C5_6  and  C6_7 
REMARK    2  A    between atoms: C8_9  and  C9_10 
ROOT
HETATM    1  C6  UNL     1      11.363  -0.079  28.416  1.00  0.00     0.135 C 
HETATM    2  C7  UNL     1      12.174   0.687  29.432  1.00  0.00     0.063 C 
HETATM    3  C8  UNL     1      13.637   0.342  29.152  1.00  0.00     0.163 C 
HETATM    4  N1  UNL     1      14.007   1.050  27.958  1.00  0.00    -0.101 N 
HETATM    5  N2  UNL     1      14.968   1.804  27.502  1.00  0.00    -0.209 N 
ATOM      6  H2  UNL     1      15.790   2.071  28.042  1.00  0.00     0.206 HD
HETATM    7  N3  UNL     1      14.746   2.180  26.256  1.00  0.00     0.009 NA
HETATM    8  N4  UNL     1      13.594   1.647  25.894  1.00  0.00    -0.113 N 
ATOM      9  H4  UNL     1      13.144   1.753  24.984  1.00  0.00     0.203 HD
HETATM   10  C15 UNL     1      13.121   0.948  26.922  1.00  0.00     0.710 A 
HETATM   11  N5  UNL     1      11.928   0.168  27.104  1.00  0.00    -0.215 N 
ATOM     12  H5  UNL     1      11.464  -0.224  26.284  1.00  0.00     0.178 HD
ENDROOT
BRANCH   1  13
HETATM   13  C5  UNL     1       9.926   0.216  28.491  1.00  0.00    -0.034 A 
HETATM   14  C4  UNL     1       9.510   1.497  28.780  1.00  0.00     0.009 A 
HETATM   15  C3  UNL     1       8.166   1.848  28.867  1.00  0.00     0.002 A 
HETATM   16  C2  UNL     1       7.219   0.873  28.656  1.00  0.00     0.019 A 
HETATM   17  C1  UNL     1       7.610  -0.420  28.365  1.00  0.00     0.011 A 
HETATM   18 BR1  UNL     1       6.247  -1.727  28.082  1.00  0.00    -0.051 Br
HETATM   19  C16 UNL     1       8.951  -0.739  28.285  1.00  0.00     0.028 A 
ENDBRANCH   1  13
BRANCH   3  20
HETATM   20  C9  UNL     1      14.503   0.574  30.297  1.00  0.00    -0.031 A 
HETATM   21  C10 UNL     1      14.640   1.772  30.969  1.00  0.00     0.009 A 
HETATM   22  C11 UNL     1      15.485   1.918  32.052  1.00  0.00     0.002 A 
HETATM   23  C12 UNL     1      16.228   0.868  32.507  1.00  0.00     0.019 A 
HETATM   24  C13 UNL     1      16.117  -0.350  31.858  1.00  0.00     0.011 A 
HETATM   25 BR2  UNL     1      17.136  -1.869  32.448  1.00  0.00    -0.051 Br
HETATM   26  C14 UNL     1      15.270  -0.484  30.777  1.00  0.00     0.028 A 
ENDBRANCH   3  20
TORSDOF 2
ENDMDL
