MODEL 6
REMARK VINA RESULT: -6.200138118      1.091      1.505
REMARK  2 active torsions:
REMARK  status: ('A' for Active; 'I' for Inactive)
REMARK    1  A    between atoms: C5_6  and  C6_7 
REMARK    2  A    between atoms: C8_9  and  C9_10 
ROOT
HETATM    1  C6  UNL     1      11.103  -0.600  28.219  1.00  0.00     0.135 C 
HETATM    2  C7  UNL     1      11.970  -0.145  29.367  1.00  0.00     0.063 C 
HETATM    3  C8  UNL     1      13.416  -0.317  28.899  1.00  0.00     0.163 C 
HETATM    4  N1  UNL     1      13.674   0.739  27.960  1.00  0.00    -0.101 N 
HETATM    5  N2  UNL     1      14.578   1.642  27.697  1.00  0.00    -0.209 N 
ATOM      6  H2  UNL     1      15.433   1.769  28.238  1.00  0.00     0.206 HD
HETATM    7  N3  UNL     1      14.251   2.370  26.646  1.00  0.00     0.009 NA
HETATM    8  N4  UNL     1      13.088   1.919  26.213  1.00  0.00    -0.113 N 
ATOM      9  H4  UNL     1      12.567   2.277  25.412  1.00  0.00     0.203 HD
HETATM   10  C15 UNL     1      12.714   0.917  27.004  1.00  0.00     0.710 A 
HETATM   11  N5  UNL     1      11.558   0.063  27.013  1.00  0.00    -0.215 N 
ATOM     12  H5  UNL     1      11.043  -0.080  26.145  1.00  0.00     0.178 HD
ENDROOT
BRANCH   1  13
HETATM   13  C5  UNL     1       9.669  -0.411  28.476  1.00  0.00    -0.034 A 
HETATM   14  C4  UNL     1       8.847  -1.512  28.577  1.00  0.00     0.009 A 
HETATM   15  C3  UNL     1       7.480  -1.408  28.819  1.00  0.00     0.002 A 
HETATM   16  C2  UNL     1       6.933  -0.155  28.961  1.00  0.00     0.019 A 
HETATM   17  C1  UNL     1       7.736   0.966  28.862  1.00  0.00     0.011 A 
HETATM   18 BR1  UNL     1       6.915   2.678  29.069  1.00  0.00    -0.051 Br
HETATM   19  C16 UNL     1       9.088   0.833  28.622  1.00  0.00     0.028 A 
ENDBRANCH   1  13
BRANCH   3  20
HETATM   20  C9  UNL     1      14.361  -0.407  30.000  1.00  0.00    -0.031 A 
HETATM   21  C10 UNL     1      15.217  -1.463  30.238  1.00  0.00     0.009 A 
HETATM   22  C11 UNL     1      16.090  -1.479  31.307  1.00  0.00     0.002 A 
HETATM   23  C12 UNL     1      16.142  -0.435  32.183  1.00  0.00     0.019 A 
HETATM   24  C13 UNL     1      15.299   0.643  31.977  1.00  0.00     0.011 A 
HETATM   25 BR2  UNL     1      15.322   2.146  33.176  1.00  0.00    -0.051 Br
HETATM   26  C14 UNL     1      14.430   0.647  30.906  1.00  0.00     0.028 A 
ENDBRANCH   3  20
TORSDOF 2
ENDMDL
