MODEL 4
REMARK VINA RESULT: -7.564345896      1.587      6.510
REMARK  2 active torsions:
REMARK  status: ('A' for Active; 'I' for Inactive)
REMARK    1  A    between atoms: C5_6  and  C6_7 
REMARK    2  A    between atoms: C8_9  and  C9_10 
ROOT
HETATM    1  C6  UNL     1      13.479   0.963  29.872  1.00  0.00     0.135 C 
HETATM    2  C7  UNL     1      12.206   0.269  29.457  1.00  0.00     0.063 C 
HETATM    3  C8  UNL     1      11.323   1.346  28.826  1.00  0.00     0.163 C 
HETATM    4  N1  UNL     1      11.882   1.632  27.533  1.00  0.00    -0.101 N 
HETATM    5  N2  UNL     1      11.505   1.779  26.294  1.00  0.00    -0.209 N 
ATOM      6  H2  UNL     1      10.539   1.694  25.976  1.00  0.00     0.206 HD
HETATM    7  N3  UNL     1      12.524   2.052  25.501  1.00  0.00     0.009 NA
HETATM    8  N4  UNL     1      13.603   2.081  26.260  1.00  0.00    -0.113 N 
ATOM      9  H4  UNL     1      14.555   2.266  25.942  1.00  0.00     0.203 HD
HETATM   10  C15 UNL     1      13.234   1.827  27.513  1.00  0.00     0.710 A 
HETATM   11  N5  UNL     1      13.968   1.732  28.745  1.00  0.00    -0.215 N 
ATOM     12  H5  UNL     1      14.860   2.219  28.827  1.00  0.00     0.178 HD
ENDROOT
BRANCH   1  13
HETATM   13  C5  UNL     1      14.482   0.040  30.420  1.00  0.00    -0.034 A 
HETATM   14  C4  UNL     1      14.653  -1.197  29.840  1.00  0.00     0.009 A 
HETATM   15  C3  UNL     1      15.584  -2.122  30.306  1.00  0.00     0.002 A 
HETATM   16  C2  UNL     1      16.360  -1.782  31.390  1.00  0.00     0.019 A 
HETATM   17  C1  UNL     1      16.207  -0.547  31.991  1.00  0.00     0.011 A 
HETATM   18 BR1  UNL     1      17.315  -0.136  33.491  1.00  0.00    -0.051 Br
HETATM   19  C16 UNL     1      15.276   0.350  31.507  1.00  0.00     0.028 A 
ENDBRANCH   1  13
BRANCH   3  20
HETATM   20  C9  UNL     1       9.913   0.993  28.822  1.00  0.00    -0.031 A 
HETATM   21  C10 UNL     1       8.884   1.795  29.274  1.00  0.00     0.009 A 
HETATM   22  C11 UNL     1       7.565   1.392  29.240  1.00  0.00     0.002 A 
HETATM   23  C12 UNL     1       7.220   0.166  28.750  1.00  0.00     0.019 A 
HETATM   24  C13 UNL     1       8.224  -0.666  28.287  1.00  0.00     0.011 A 
HETATM   25 BR2  UNL     1       7.806  -2.406  27.584  1.00  0.00    -0.051 Br
HETATM   26  C14 UNL     1       9.540  -0.253  28.327  1.00  0.00     0.028 A 
ENDBRANCH   3  20
TORSDOF 2
ENDMDL
