MODEL 3
REMARK VINA RESULT: -7.856083969      1.081      6.730
REMARK  2 active torsions:
REMARK  status: ('A' for Active; 'I' for Inactive)
REMARK    1  A    between atoms: C5_6  and  C6_7 
REMARK    2  A    between atoms: C8_9  and  C9_10 
ROOT
HETATM    1  C6  UNL     1      13.747   0.771  30.025  1.00  0.00     0.135 C 
HETATM    2  C7  UNL     1      12.558   0.008  29.495  1.00  0.00     0.063 C 
HETATM    3  C8  UNL     1      11.637   1.049  28.859  1.00  0.00     0.163 C 
HETATM    4  N1  UNL     1      12.251   1.442  27.621  1.00  0.00    -0.101 N 
HETATM    5  N2  UNL     1      11.941   1.625  26.367  1.00  0.00    -0.209 N 
ATOM      6  H2  UNL     1      11.006   1.486  25.983  1.00  0.00     0.206 HD
HETATM    7  N3  UNL     1      12.984   2.012  25.657  1.00  0.00     0.009 NA
HETATM    8  N4  UNL     1      14.008   2.080  26.486  1.00  0.00    -0.113 N 
ATOM      9  H4  UNL     1      14.961   2.351  26.240  1.00  0.00     0.203 HD
HETATM   10  C15 UNL     1      13.583   1.735  27.698  1.00  0.00     0.710 A 
HETATM   11  N5  UNL     1      14.245   1.630  28.969  1.00  0.00    -0.215 N 
ATOM     12  H5  UNL     1      15.090   2.176  29.133  1.00  0.00     0.178 HD
ENDROOT
BRANCH   1  13
HETATM   13  C5  UNL     1      14.781  -0.104  30.593  1.00  0.00    -0.034 A 
HETATM   14  C4  UNL     1      15.014  -1.337  30.026  1.00  0.00     0.009 A 
HETATM   15  C3  UNL     1      15.978  -2.216  30.511  1.00  0.00     0.002 A 
HETATM   16  C2  UNL     1      16.723  -1.836  31.602  1.00  0.00     0.019 A 
HETATM   17  C1  UNL     1      16.508  -0.603  32.191  1.00  0.00     0.011 A 
HETATM   18 BR1  UNL     1      17.577  -0.134  33.702  1.00  0.00    -0.051 Br
HETATM   19  C16 UNL     1      15.546   0.248  31.688  1.00  0.00     0.028 A 
ENDBRANCH   1  13
BRANCH   3  20
HETATM   20  C9  UNL     1      10.260   0.594  28.746  1.00  0.00    -0.031 A 
HETATM   21  C10 UNL     1       9.863  -0.677  28.385  1.00  0.00     0.009 A 
HETATM   22  C11 UNL     1       8.533  -1.038  28.298  1.00  0.00     0.002 A 
HETATM   23  C12 UNL     1       7.545  -0.138  28.571  1.00  0.00     0.019 A 
HETATM   24  C13 UNL     1       7.904   1.147  28.936  1.00  0.00     0.011 A 
HETATM   25 BR2  UNL     1       6.560   2.464  29.333  1.00  0.00    -0.051 Br
HETATM   26  C14 UNL     1       9.237   1.497  29.019  1.00  0.00     0.028 A 
ENDBRANCH   3  20
TORSDOF 2
ENDMDL
