MODEL 5
REMARK VINA RESULT: -6.243997400      1.099      1.349
REMARK  2 active torsions:
REMARK  status: ('A' for Active; 'I' for Inactive)
REMARK    1  A    between atoms: C5_6  and  C6_7 
REMARK    2  A    between atoms: C8_9  and  C9_10 
ROOT
HETATM    1  C6  UNL     1      11.372   0.474  28.210  1.00  0.00     0.135 C 
HETATM    2  C7  UNL     1      12.250   1.174  29.217  1.00  0.00     0.063 C 
HETATM    3  C8  UNL     1      13.643   0.562  29.061  1.00  0.00     0.163 C 
HETATM    4  N1  UNL     1      14.192   1.093  27.845  1.00  0.00    -0.101 N 
HETATM    5  N2  UNL     1      15.293   1.631  27.398  1.00  0.00    -0.209 N 
ATOM      6  H2  UNL     1      16.120   1.799  27.970  1.00  0.00     0.206 HD
HETATM    7  N3  UNL     1      15.205   1.932  26.115  1.00  0.00     0.009 NA
HETATM    8  N4  UNL     1      13.998   1.574  25.719  1.00  0.00    -0.113 N 
ATOM      9  H4  UNL     1      13.622   1.677  24.776  1.00  0.00     0.203 HD
HETATM   10  C15 UNL     1      13.357   1.055  26.763  1.00  0.00     0.710 A 
HETATM   11  N5  UNL     1      12.038   0.508  26.923  1.00  0.00    -0.215 N 
ATOM     12  H5  UNL     1      11.557   0.133  26.107  1.00  0.00     0.178 HD
ENDROOT
BRANCH   1  13
HETATM   13  C5  UNL     1      10.007   1.013  28.168  1.00  0.00    -0.034 A 
HETATM   14  C4  UNL     1       9.539   1.587  27.006  1.00  0.00     0.009 A 
HETATM   15  C3  UNL     1       8.257   2.118  26.895  1.00  0.00     0.002 A 
HETATM   16  C2  UNL     1       7.428   2.067  27.991  1.00  0.00     0.019 A 
HETATM   17  C1  UNL     1       7.874   1.498  29.169  1.00  0.00     0.011 A 
HETATM   18 BR1  UNL     1       6.675   1.457  30.654  1.00  0.00    -0.051 Br
HETATM   19  C16 UNL     1       9.150   0.979  29.251  1.00  0.00     0.028 A 
ENDBRANCH   1  13
BRANCH   3  20
HETATM   20  C9  UNL     1      14.475   0.740  30.240  1.00  0.00    -0.031 A 
HETATM   21  C10 UNL     1      14.660   1.927  30.920  1.00  0.00     0.009 A 
HETATM   22  C11 UNL     1      15.468   2.020  32.036  1.00  0.00     0.002 A 
HETATM   23  C12 UNL     1      16.125   0.926  32.517  1.00  0.00     0.019 A 
HETATM   24  C13 UNL     1      15.965  -0.282  31.862  1.00  0.00     0.011 A 
HETATM   25 BR2  UNL     1      16.864  -1.863  32.489  1.00  0.00    -0.051 Br
HETATM   26  C14 UNL     1      15.155  -0.364  30.747  1.00  0.00     0.028 A 
ENDBRANCH   3  20
TORSDOF 2
ENDMDL
