MODEL 7
REMARK VINA RESULT: -5.802560002      1.017      6.784
REMARK  2 active torsions:
REMARK  status: ('A' for Active; 'I' for Inactive)
REMARK    1  A    between atoms: C5_6  and  C6_7 
REMARK    2  A    between atoms: C8_9  and  C9_10 
ROOT
HETATM    1  C6  UNL     1      13.921   1.361  30.096  1.00  0.00     0.135 C 
HETATM    2  C7  UNL     1      12.876   0.385  29.614  1.00  0.00     0.063 C 
HETATM    3  C8  UNL     1      11.903   1.196  28.756  1.00  0.00     0.163 C 
HETATM    4  N1  UNL     1      12.576   1.469  27.517  1.00  0.00    -0.101 N 
HETATM    5  N2  UNL     1      12.359   1.420  26.232  1.00  0.00    -0.209 N 
ATOM      6  H2  UNL     1      11.483   1.110  25.811  1.00  0.00     0.206 HD
HETATM    7  N3  UNL     1      13.411   1.822  25.542  1.00  0.00     0.009 NA
HETATM    8  N4  UNL     1      14.345   2.141  26.419  1.00  0.00    -0.113 N 
ATOM      9  H4  UNL     1      15.279   2.487  26.199  1.00  0.00     0.203 HD
HETATM   10  C15 UNL     1      13.855   1.934  27.638  1.00  0.00     0.710 A 
HETATM   11  N5  UNL     1      14.410   2.105  28.952  1.00  0.00    -0.215 N 
ATOM     12  H5  UNL     1      15.172   2.770  29.084  1.00  0.00     0.178 HD
ENDROOT
BRANCH   1  13
HETATM   13  C5  UNL     1      14.992   0.717  30.867  1.00  0.00    -0.034 A 
HETATM   14  C4  UNL     1      16.124   1.435  31.187  1.00  0.00     0.009 A 
HETATM   15  C3  UNL     1      17.177   0.889  31.915  1.00  0.00     0.002 A 
HETATM   16  C2  UNL     1      17.081  -0.418  32.329  1.00  0.00     0.019 A 
HETATM   17  C1  UNL     1      15.955  -1.161  32.021  1.00  0.00     0.011 A 
HETATM   18 BR1  UNL     1      15.882  -2.970  32.626  1.00  0.00    -0.051 Br
HETATM   19  C16 UNL     1      14.926  -0.593  31.298  1.00  0.00     0.028 A 
ENDBRANCH   1  13
BRANCH   3  20
HETATM   20  C9  UNL     1      10.601   0.563  28.623  1.00  0.00    -0.031 A 
HETATM   21  C10 UNL     1      10.382  -0.783  28.408  1.00  0.00     0.009 A 
HETATM   22  C11 UNL     1       9.114  -1.315  28.291  1.00  0.00     0.002 A 
HETATM   23  C12 UNL     1       8.010  -0.519  28.385  1.00  0.00     0.019 A 
HETATM   24  C13 UNL     1       8.189   0.836  28.600  1.00  0.00     0.011 A 
HETATM   25 BR2  UNL     1       6.676   2.014  28.742  1.00  0.00    -0.051 Br
HETATM   26  C14 UNL     1       9.462   1.357  28.715  1.00  0.00     0.028 A 
ENDBRANCH   3  20
TORSDOF 2
ENDMDL
