MODEL 3
REMARK VINA RESULT: -10.435858240      4.431      5.645
REMARK  10 active torsions:
REMARK  status: ('A' for Active; 'I' for Inactive)
REMARK    1  A    between atoms: N5_13  and  C6_14 
REMARK    2  A    between atoms: C9_17  and  C10_18 
REMARK    3  A    between atoms: C10_18  and  N6_19 
REMARK    4  A    between atoms: N6_19  and  S1_21 
REMARK    5  A    between atoms: S1_21  and  N7_24 
REMARK       I    between atoms: N7_24  and  C11_26 
REMARK    6  A    between atoms: C11_26  and  C12_28 
REMARK    7  A    between atoms: C12_28  and  C13_29 
REMARK    8  A    between atoms: C13_29  and  C14_30 
REMARK    9  A    between atoms: C14_30  and  C15_31 
REMARK   10  A    between atoms: C15_31  and  C16_32 
ROOT
HETATM    1  S1  UNL     1      -3.201  -3.545   6.944  1.00  0.00     0.321 S 
HETATM    2  O1  UNL     1      -1.954  -4.251   6.492  1.00  0.00    -0.182 OA
HETATM    3  O2  UNL     1      -2.767  -2.230   7.534  1.00  0.00    -0.182 OA
ENDROOT
BRANCH   1   4
HETATM    4  N6  UNL     1      -4.224  -3.347   5.588  1.00  0.00    -0.302 N 
ATOM      5  H6  UNL     1      -4.396  -4.083   4.904  1.00  0.00     0.173 HD
BRANCH   4   6
HETATM    6  C10 UNL     1      -4.814  -2.048   5.507  1.00  0.00     0.138 C 
BRANCH   6   7
HETATM    7  C9  UNL     1      -6.292  -2.060   5.313  1.00  0.00     0.006 C 
HETATM    8  C8  UNL     1      -6.751  -2.709   4.049  1.00  0.00     0.008 C 
HETATM    9  C7  UNL     1      -7.962  -1.907   3.565  1.00  0.00     0.026 C 
HETATM   10  C6  UNL     1      -8.290  -1.009   4.716  1.00  0.00     0.092 C 
HETATM   11  C21 UNL     1      -6.893  -0.674   5.254  1.00  0.00     0.032 C 
BRANCH  10  12
HETATM   12  N5  UNL     1      -9.021   0.162   4.339  1.00  0.00    -0.322 N 
HETATM   13  C3  UNL     1     -10.240   0.481   4.769  1.00  0.00     0.140 A 
HETATM   14  N3  UNL     1     -11.086  -0.153   5.622  1.00  0.00    -0.336 N 
HETATM   15  C4  UNL     1     -10.652   1.679   4.209  1.00  0.00     0.119 A 
HETATM   16  C2  UNL     1     -12.287   0.399   5.893  1.00  0.00     0.183 A 
ATOM     17  H3  UNL     1     -10.817  -1.038   6.052  1.00  0.00     0.168 HD
HETATM   18  N2  UNL     1     -12.675   1.563   5.342  1.00  0.00    -0.339 N 
HETATM   19  C1  UNL     1     -11.877   2.251   4.480  1.00  0.00     0.148 A 
ATOM     20  H2  UNL     1     -13.593   1.941   5.576  1.00  0.00     0.167 HD
HETATM   21  N1  UNL     1     -12.298   3.476   3.907  1.00  0.00    -0.080 NA
HETATM   22  N4  UNL     1      -9.628   2.063   3.426  1.00  0.00    -0.346 N 
HETATM   23  C5  UNL     1      -8.644   1.150   3.502  1.00  0.00     0.185 A 
ATOM     24  H4  UNL     1      -9.603   2.913   2.863  1.00  0.00     0.167 HD
ENDBRANCH  10  12
ENDBRANCH   6   7
ENDBRANCH   4   6
ENDBRANCH   1   4
BRANCH   1  25
HETATM   25  N7  UNL     1      -3.923  -4.490   8.184  1.00  0.00    -0.237 N 
HETATM   26  C11 UNL     1      -4.349  -5.820   7.934  1.00  0.00     0.232 C 
HETATM   27  O3  UNL     1      -4.178  -6.280   6.778  1.00  0.00    -0.273 OA
ATOM     28  H7  UNL     1      -4.047  -4.088   9.113  1.00  0.00     0.183 HD
BRANCH  26  29
HETATM   29  C12 UNL     1      -4.982  -6.646   9.024  1.00  0.00     0.104 C 
BRANCH  29  30
HETATM   30  C13 UNL     1      -4.066  -7.731   9.479  1.00  0.00     0.009 C 
BRANCH  30  31
HETATM   31  C14 UNL     1      -3.849  -7.699  10.961  1.00  0.00     0.002 C 
BRANCH  31  32
HETATM   32  C15 UNL     1      -3.004  -8.838  11.420  1.00  0.00     0.017 C 
BRANCH  32  33
HETATM   33  C16 UNL     1      -3.653  -9.500  12.652  1.00  0.00     0.072 C 
HETATM   34  S2  UNL     1      -4.219  -8.091  13.687  1.00  0.00    -0.160 SA
HETATM   35  C17 UNL     1      -3.096  -8.378  15.114  1.00  0.00     0.101 C 
HETATM   36  C18 UNL     1      -2.757  -9.820  14.908  1.00  0.00     0.119 C 
HETATM   37  N8  UNL     1      -1.390 -10.004  15.422  1.00  0.00    -0.336 N 
HETATM   38  C20 UNL     1      -2.575 -10.105  13.460  1.00  0.00     0.123 C 
HETATM   39  C19 UNL     1      -0.512  -9.659  14.325  1.00  0.00     0.316 C 
ATOM     40  H8  UNL     1      -1.118 -10.311  16.356  1.00  0.00     0.164 HD
HETATM   41  O4  UNL     1       0.693  -9.339  14.483  1.00  0.00    -0.247 OA
HETATM   42  N9  UNL     1      -1.245  -9.754  13.115  1.00  0.00    -0.335 N 
ATOM     43  H9  UNL     1      -0.884  -9.598  12.174  1.00  0.00     0.164 HD
ENDBRANCH  32  33
ENDBRANCH  31  32
ENDBRANCH  30  31
ENDBRANCH  29  30
ENDBRANCH  26  29
ENDBRANCH   1  25
TORSDOF 10
ENDMDL
