MODEL 1
REMARK VINA RESULT: -11.833484399      0.000      0.000
REMARK  10 active torsions:
REMARK  status: ('A' for Active; 'I' for Inactive)
REMARK    1  A    between atoms: N5_13  and  C6_14 
REMARK    2  A    between atoms: C9_17  and  C10_18 
REMARK    3  A    between atoms: C10_18  and  N6_19 
REMARK    4  A    between atoms: N6_19  and  S1_21 
REMARK    5  A    between atoms: S1_21  and  N7_24 
REMARK       I    between atoms: N7_24  and  C11_26 
REMARK    6  A    between atoms: C11_26  and  C12_28 
REMARK    7  A    between atoms: C12_28  and  C13_29 
REMARK    8  A    between atoms: C13_29  and  C14_30 
REMARK    9  A    between atoms: C14_30  and  C15_31 
REMARK   10  A    between atoms: C15_31  and  C16_32 
ROOT
HETATM    1  S1  UNL     1      -3.750  -4.639   6.175  1.00  0.00     0.321 S 
HETATM    2  O1  UNL     1      -4.211  -4.758   4.751  1.00  0.00    -0.182 OA
HETATM    3  O2  UNL     1      -2.248  -4.543   6.140  1.00  0.00    -0.182 OA
ENDROOT
BRANCH   1   4
HETATM    4  N6  UNL     1      -4.476  -3.249   6.858  1.00  0.00    -0.302 N 
ATOM      5  H6  UNL     1      -5.299  -3.286   7.460  1.00  0.00     0.173 HD
BRANCH   4   6
HETATM    6  C10 UNL     1      -3.818  -2.032   6.504  1.00  0.00     0.138 C 
BRANCH   6   7
HETATM    7  C9  UNL     1      -4.095  -0.896   7.428  1.00  0.00     0.006 C 
HETATM    8  C8  UNL     1      -2.901  -0.074   7.785  1.00  0.00     0.008 C 
HETATM    9  C7  UNL     1      -3.081   0.341   9.248  1.00  0.00     0.026 C 
HETATM   10  C6  UNL     1      -4.492  -0.043   9.566  1.00  0.00     0.092 C 
HETATM   11  C21 UNL     1      -4.647  -1.341   8.764  1.00  0.00     0.032 C 
BRANCH  10  12
HETATM   12  N5  UNL     1      -4.732  -0.237  10.963  1.00  0.00    -0.322 N 
HETATM   13  C3  UNL     1      -5.923  -0.446  11.519  1.00  0.00     0.140 A 
HETATM   14  N3  UNL     1      -7.166  -0.530  10.974  1.00  0.00    -0.336 N 
HETATM   15  C4  UNL     1      -5.799  -0.593  12.890  1.00  0.00     0.119 A 
HETATM   16  C2  UNL     1      -8.225  -0.754  11.779  1.00  0.00     0.183 A 
ATOM     17  H3  UNL     1      -7.296  -0.425   9.968  1.00  0.00     0.168 HD
HETATM   18  N2  UNL     1      -8.090  -0.895  13.110  1.00  0.00    -0.339 N 
HETATM   19  C1  UNL     1      -6.876  -0.822  13.721  1.00  0.00     0.148 A 
ATOM     20  H2  UNL     1      -8.921  -1.063  13.678  1.00  0.00     0.167 HD
HETATM   21  N1  UNL     1      -6.748  -0.973  15.123  1.00  0.00    -0.080 NA
HETATM   22  N4  UNL     1      -4.482  -0.464  13.132  1.00  0.00    -0.346 N 
HETATM   23  C5  UNL     1      -3.837  -0.249  11.972  1.00  0.00     0.185 A 
ATOM     24  H4  UNL     1      -4.043  -0.520  14.051  1.00  0.00     0.167 HD
ENDBRANCH  10  12
ENDBRANCH   6   7
ENDBRANCH   4   6
ENDBRANCH   1   4
BRANCH   1  25
HETATM   25  N7  UNL     1      -4.188  -6.084   6.995  1.00  0.00    -0.237 N 
HETATM   26  C11 UNL     1      -4.112  -6.173   8.409  1.00  0.00     0.232 C 
HETATM   27  O3  UNL     1      -3.714  -5.160   9.037  1.00  0.00    -0.273 OA
ATOM     28  H7  UNL     1      -4.508  -6.889   6.457  1.00  0.00     0.183 HD
BRANCH  26  29
HETATM   29  C12 UNL     1      -4.497  -7.442   9.125  1.00  0.00     0.104 C 
BRANCH  29  30
HETATM   30  C13 UNL     1      -3.576  -7.720  10.263  1.00  0.00     0.009 C 
BRANCH  30  31
HETATM   31  C14 UNL     1      -4.279  -7.659  11.584  1.00  0.00     0.002 C 
BRANCH  31  32
HETATM   32  C15 UNL     1      -3.330  -7.814  12.723  1.00  0.00     0.017 C 
BRANCH  32  33
HETATM   33  C16 UNL     1      -3.734  -9.037  13.571  1.00  0.00     0.072 C 
HETATM   34  S2  UNL     1      -3.791  -8.403  15.294  1.00  0.00    -0.160 SA
HETATM   35  C17 UNL     1      -2.397  -9.399  15.960  1.00  0.00     0.101 C 
HETATM   36  C18 UNL     1      -2.347 -10.506  14.955  1.00  0.00     0.119 C 
HETATM   37  N8  UNL     1      -0.939 -10.925  14.865  1.00  0.00    -0.336 N 
HETATM   38  C20 UNL     1      -2.590  -9.971  13.589  1.00  0.00     0.123 C 
HETATM   39  C19 UNL     1      -0.331 -10.040  13.895  1.00  0.00     0.316 C 
ATOM     40  H8  UNL     1      -0.486 -11.681  15.378  1.00  0.00     0.164 HD
HETATM   41  O4  UNL     1       0.908  -9.844  13.826  1.00  0.00    -0.247 OA
HETATM   42  N9  UNL     1      -1.356  -9.479  13.093  1.00  0.00    -0.335 N 
ATOM     43  H9  UNL     1      -1.230  -8.842  12.306  1.00  0.00     0.164 HD
ENDBRANCH  32  33
ENDBRANCH  31  32
ENDBRANCH  30  31
ENDBRANCH  29  30
ENDBRANCH  26  29
ENDBRANCH   1  25
TORSDOF 10
ENDMDL
