MODEL 4
REMARK VINA RESULT: -10.316542139      2.982      4.885
REMARK  10 active torsions:
REMARK  status: ('A' for Active; 'I' for Inactive)
REMARK    1  A    between atoms: N5_13  and  C6_14 
REMARK    2  A    between atoms: C9_17  and  C10_18 
REMARK    3  A    between atoms: C10_18  and  N6_19 
REMARK    4  A    between atoms: N6_19  and  S1_21 
REMARK    5  A    between atoms: S1_21  and  N7_24 
REMARK       I    between atoms: N7_24  and  C11_26 
REMARK    6  A    between atoms: C11_26  and  C12_28 
REMARK    7  A    between atoms: C12_28  and  C13_29 
REMARK    8  A    between atoms: C13_29  and  C14_30 
REMARK    9  A    between atoms: C14_30  and  C15_31 
REMARK   10  A    between atoms: C15_31  and  C16_32 
ROOT
HETATM    1  S1  UNL     1      -3.142  -3.543   6.905  1.00  0.00     0.321 S 
HETATM    2  O1  UNL     1      -4.118  -3.413   5.771  1.00  0.00    -0.182 OA
HETATM    3  O2  UNL     1      -1.964  -4.319   6.379  1.00  0.00    -0.182 OA
ENDROOT
BRANCH   1   4
HETATM    4  N6  UNL     1      -2.709  -1.970   7.420  1.00  0.00    -0.302 N 
ATOM      5  H6  UNL     1      -2.064  -1.371   6.906  1.00  0.00     0.173 HD
BRANCH   4   6
HETATM    6  C10 UNL     1      -3.339  -1.579   8.641  1.00  0.00     0.138 C 
BRANCH   6   7
HETATM    7  C9  UNL     1      -4.344  -0.489   8.487  1.00  0.00     0.006 C 
HETATM    8  C8  UNL     1      -5.609  -0.692   9.254  1.00  0.00     0.008 C 
HETATM    9  C7  UNL     1      -6.739  -0.138   8.381  1.00  0.00     0.026 C 
HETATM   10  C6  UNL     1      -6.030   0.591   7.283  1.00  0.00     0.092 C 
HETATM   11  C21 UNL     1      -4.806  -0.306   7.059  1.00  0.00     0.032 C 
BRANCH  10  12
HETATM   12  N5  UNL     1      -6.815   0.744   6.097  1.00  0.00    -0.322 N 
HETATM   13  C3  UNL     1      -7.116  -0.231   5.242  1.00  0.00     0.140 A 
HETATM   14  N3  UNL     1      -6.796  -1.551   5.236  1.00  0.00    -0.336 N 
HETATM   15  C4  UNL     1      -7.890   0.259   4.204  1.00  0.00     0.119 A 
HETATM   16  C2  UNL     1      -7.239  -2.334   4.230  1.00  0.00     0.183 A 
ATOM     17  H3  UNL     1      -6.225  -1.947   5.984  1.00  0.00     0.168 HD
HETATM   18  N2  UNL     1      -7.991  -1.845   3.227  1.00  0.00    -0.339 N 
HETATM   19  C1  UNL     1      -8.349  -0.533   3.171  1.00  0.00     0.148 A 
ATOM     20  H2  UNL     1      -8.303  -2.476   2.488  1.00  0.00     0.167 HD
HETATM   21  N1  UNL     1      -9.141  -0.032   2.110  1.00  0.00    -0.080 NA
HETATM   22  N4  UNL     1      -8.041   1.568   4.474  1.00  0.00    -0.346 N 
HETATM   23  C5  UNL     1      -7.393   1.862   5.615  1.00  0.00     0.185 A 
ATOM     24  H4  UNL     1      -8.564   2.232   3.903  1.00  0.00     0.167 HD
ENDBRANCH  10  12
ENDBRANCH   6   7
ENDBRANCH   4   6
ENDBRANCH   1   4
BRANCH   1  25
HETATM   25  N7  UNL     1      -3.894  -4.462   8.147  1.00  0.00    -0.237 N 
HETATM   26  C11 UNL     1      -4.259  -5.816   7.934  1.00  0.00     0.232 C 
HETATM   27  O3  UNL     1      -4.013  -6.317   6.808  1.00  0.00    -0.273 OA
ATOM     28  H7  UNL     1      -4.080  -4.027   9.050  1.00  0.00     0.183 HD
BRANCH  26  29
HETATM   29  C12 UNL     1      -4.918  -6.619   9.026  1.00  0.00     0.104 C 
BRANCH  29  30
HETATM   30  C13 UNL     1      -4.030  -7.720   9.496  1.00  0.00     0.009 C 
BRANCH  30  31
HETATM   31  C14 UNL     1      -3.957  -7.785  10.991  1.00  0.00     0.002 C 
BRANCH  31  32
HETATM   32  C15 UNL     1      -3.047  -8.871  11.453  1.00  0.00     0.017 C 
BRANCH  32  33
HETATM   33  C16 UNL     1      -3.631  -9.531  12.718  1.00  0.00     0.072 C 
HETATM   34  S2  UNL     1      -4.157  -8.122  13.772  1.00  0.00    -0.160 SA
HETATM   35  C17 UNL     1      -2.965  -8.392  15.145  1.00  0.00     0.101 C 
HETATM   36  C18 UNL     1      -2.624  -9.833  14.930  1.00  0.00     0.119 C 
HETATM   37  N8  UNL     1      -1.232 -10.004  15.378  1.00  0.00    -0.336 N 
HETATM   38  C20 UNL     1      -2.511 -10.124  13.476  1.00  0.00     0.123 C 
HETATM   39  C19 UNL     1      -0.412  -9.658  14.238  1.00  0.00     0.316 C 
ATOM     40  H8  UNL     1      -0.913 -10.304  16.299  1.00  0.00     0.164 HD
HETATM   41  O4  UNL     1       0.797  -9.328  14.336  1.00  0.00    -0.247 OA
HETATM   42  N9  UNL     1      -1.201  -9.765  13.066  1.00  0.00    -0.335 N 
ATOM     43  H9  UNL     1      -0.887  -9.611  12.108  1.00  0.00     0.164 HD
ENDBRANCH  32  33
ENDBRANCH  31  32
ENDBRANCH  30  31
ENDBRANCH  29  30
ENDBRANCH  26  29
ENDBRANCH   1  25
TORSDOF 10
ENDMDL
