MODEL 5
REMARK VINA RESULT: -10.273424717      3.679      5.296
REMARK  10 active torsions:
REMARK  status: ('A' for Active; 'I' for Inactive)
REMARK    1  A    between atoms: N5_13  and  C6_14 
REMARK    2  A    between atoms: C9_17  and  C10_18 
REMARK    3  A    between atoms: C10_18  and  N6_19 
REMARK    4  A    between atoms: N6_19  and  S1_21 
REMARK    5  A    between atoms: S1_21  and  N7_24 
REMARK       I    between atoms: N7_24  and  C11_26 
REMARK    6  A    between atoms: C11_26  and  C12_28 
REMARK    7  A    between atoms: C12_28  and  C13_29 
REMARK    8  A    between atoms: C13_29  and  C14_30 
REMARK    9  A    between atoms: C14_30  and  C15_31 
REMARK   10  A    between atoms: C15_31  and  C16_32 
ROOT
HETATM    1  S1  UNL     1      -3.646  -3.854   6.957  1.00  0.00     0.321 S 
HETATM    2  O1  UNL     1      -4.704  -4.031   5.905  1.00  0.00    -0.182 OA
HETATM    3  O2  UNL     1      -2.339  -4.261   6.332  1.00  0.00    -0.182 OA
ENDROOT
BRANCH   1   4
HETATM    4  N6  UNL     1      -3.651  -2.217   7.450  1.00  0.00    -0.302 N 
ATOM      5  H6  UNL     1      -3.005  -1.519   7.082  1.00  0.00     0.173 HD
BRANCH   4   6
HETATM    6  C10 UNL     1      -4.649  -1.921   8.430  1.00  0.00     0.138 C 
BRANCH   6   7
HETATM    7  C9  UNL     1      -5.422  -0.677   8.157  1.00  0.00     0.006 C 
HETATM    8  C8  UNL     1      -6.443  -0.335   9.191  1.00  0.00     0.008 C 
HETATM    9  C7  UNL     1      -7.636   0.266   8.442  1.00  0.00     0.026 C 
HETATM   10  C6  UNL     1      -7.125   0.479   7.052  1.00  0.00     0.092 C 
HETATM   11  C21 UNL     1      -6.211  -0.739   6.868  1.00  0.00     0.032 C 
BRANCH  10  12
HETATM   12  N5  UNL     1      -8.158   0.536   6.064  1.00  0.00    -0.322 N 
HETATM   13  C3  UNL     1      -7.997   0.930   4.803  1.00  0.00     0.140 A 
HETATM   14  N3  UNL     1      -6.899   1.362   4.130  1.00  0.00    -0.336 N 
HETATM   15  C4  UNL     1      -9.199   0.863   4.119  1.00  0.00     0.119 A 
HETATM   16  C2  UNL     1      -7.013   1.706   2.830  1.00  0.00     0.183 A 
ATOM     17  H3  UNL     1      -5.997   1.426   4.602  1.00  0.00     0.168 HD
HETATM   18  N2  UNL     1      -8.188   1.636   2.177  1.00  0.00    -0.339 N 
HETATM   19  C1  UNL     1      -9.327   1.212   2.790  1.00  0.00     0.148 A 
ATOM     20  H2  UNL     1      -8.225   1.908   1.194  1.00  0.00     0.167 HD
HETATM   21  N1  UNL     1     -10.556   1.143   2.090  1.00  0.00    -0.080 NA
HETATM   22  N4  UNL     1     -10.086   0.411   5.023  1.00  0.00    -0.346 N 
HETATM   23  C5  UNL     1      -9.461   0.214   6.197  1.00  0.00     0.185 A 
ATOM     24  H4  UNL     1     -11.077   0.245   4.846  1.00  0.00     0.167 HD
ENDBRANCH  10  12
ENDBRANCH   6   7
ENDBRANCH   4   6
ENDBRANCH   1   4
BRANCH   1  25
HETATM   25  N7  UNL     1      -3.997  -4.934   8.246  1.00  0.00    -0.237 N 
HETATM   26  C11 UNL     1      -4.186  -6.320   8.007  1.00  0.00     0.232 C 
HETATM   27  O3  UNL     1      -4.087  -6.726   6.822  1.00  0.00    -0.273 OA
ATOM     28  H7  UNL     1      -4.071  -4.573   9.197  1.00  0.00     0.183 HD
BRANCH  26  29
HETATM   29  C12 UNL     1      -4.493  -7.264   9.140  1.00  0.00     0.104 C 
BRANCH  29  30
HETATM   30  C13 UNL     1      -3.717  -6.911  10.363  1.00  0.00     0.009 C 
BRANCH  30  31
HETATM   31  C14 UNL     1      -4.167  -7.691  11.560  1.00  0.00     0.002 C 
BRANCH  31  32
HETATM   32  C15 UNL     1      -3.349  -8.920  11.757  1.00  0.00     0.017 C 
BRANCH  32  33
HETATM   33  C16 UNL     1      -3.712  -9.573  13.106  1.00  0.00     0.072 C 
HETATM   34  S2  UNL     1      -3.922  -8.158  14.259  1.00  0.00    -0.160 SA
HETATM   35  C17 UNL     1      -2.502  -8.537  15.363  1.00  0.00     0.101 C 
HETATM   36  C18 UNL     1      -2.309  -9.991  15.069  1.00  0.00     0.119 C 
HETATM   37  N8  UNL     1      -0.870 -10.261  15.227  1.00  0.00    -0.336 N 
HETATM   38  C20 UNL     1      -2.506 -10.253  13.618  1.00  0.00     0.123 C 
HETATM   39  C19 UNL     1      -0.271  -9.940  13.950  1.00  0.00     0.316 C 
ATOM     40  H8  UNL     1      -0.395 -10.602  16.063  1.00  0.00     0.164 HD
HETATM   41  O4  UNL     1       0.952  -9.690  13.808  1.00  0.00    -0.247 OA
HETATM   42  N9  UNL     1      -1.283  -9.968  12.958  1.00  0.00    -0.335 N 
ATOM     43  H9  UNL     1      -1.156  -9.812  11.959  1.00  0.00     0.164 HD
ENDBRANCH  32  33
ENDBRANCH  31  32
ENDBRANCH  30  31
ENDBRANCH  29  30
ENDBRANCH  26  29
ENDBRANCH   1  25
TORSDOF 10
ENDMDL
