MODEL 8
REMARK VINA RESULT: -10.737170104      3.083      4.809
REMARK  14 active torsions:
REMARK  status: ('A' for Active; 'I' for Inactive)
REMARK    1  A    between atoms: N1_1  and  N2_4 
REMARK    2  A    between atoms: N2_4  and  N3_5 
REMARK    3  A    between atoms: N3_5  and  C1_7 
REMARK    4  A    between atoms: C2_8  and  O1_9 
REMARK    5  A    between atoms: C3_11  and  C4_12 
REMARK    6  A    between atoms: C4_12  and  N4_13 
REMARK    7  A    between atoms: N4_13  and  S1_15 
REMARK    8  A    between atoms: S1_15  and  N5_18 
REMARK       I    between atoms: N5_18  and  C5_20 
REMARK    9  A    between atoms: C5_20  and  C6_22 
REMARK   10  A    between atoms: C6_22  and  C7_23 
REMARK   11  A    between atoms: C7_23  and  C8_24 
REMARK   12  A    between atoms: C8_24  and  C9_25 
REMARK   13  A    between atoms: C9_25  and  C10_26 
REMARK   14  A    between atoms: C15_38  and  N8_39 
ROOT
HETATM    1  C1  UNL     1      -6.195  -0.313   7.918  1.00  0.00     0.195 C 
HETATM    2  C2  UNL     1      -5.239  -1.438   8.241  1.00  0.00     0.178 C 
HETATM    3  C3  UNL     1      -4.058  -1.131   7.336  1.00  0.00     0.173 C 
HETATM    4  O6  UNL     1      -4.630  -0.498   6.220  1.00  0.00    -0.354 OA
HETATM    5  C15 UNL     1      -5.540   0.414   6.761  1.00  0.00     0.258 C 
ENDROOT
BRANCH   3   6
HETATM    6  C4  UNL     1      -3.511  -2.462   6.867  1.00  0.00     0.168 C 
BRANCH   6   7
HETATM    7  N4  UNL     1      -4.375  -3.549   7.180  1.00  0.00    -0.300 N 
ATOM      8  H4  UNL     1      -5.158  -3.474   7.828  1.00  0.00     0.173 HD
BRANCH   7   9
HETATM    9  S1  UNL     1      -3.970  -4.988   6.364  1.00  0.00     0.321 S 
HETATM   10  O2  UNL     1      -2.792  -4.753   5.444  1.00  0.00    -0.182 OA
HETATM   11  O3  UNL     1      -5.111  -5.409   5.443  1.00  0.00    -0.182 OA
BRANCH   9  12
HETATM   12  N5  UNL     1      -3.597  -6.300   7.400  1.00  0.00    -0.237 N 
HETATM   13  C5  UNL     1      -4.342  -6.545   8.583  1.00  0.00     0.232 C 
HETATM   14  O4  UNL     1      -5.286  -5.734   8.827  1.00  0.00    -0.273 OA
ATOM     15  H5  UNL     1      -2.821  -6.918   7.162  1.00  0.00     0.183 HD
BRANCH  13  16
HETATM   16  C6  UNL     1      -4.001  -7.683   9.441  1.00  0.00     0.104 C 
BRANCH  16  17
HETATM   17  C7  UNL     1      -3.278  -7.239  10.662  1.00  0.00     0.009 C 
BRANCH  17  18
HETATM   18  C8  UNL     1      -3.843  -7.609  11.973  1.00  0.00     0.002 C 
BRANCH  18  19
HETATM   19  C9  UNL     1      -2.909  -7.811  13.123  1.00  0.00     0.017 C 
BRANCH  19  20
HETATM   20  C10 UNL     1      -3.360  -8.892  14.020  1.00  0.00     0.072 C 
HETATM   21  S2  UNL     1      -3.466  -8.501  15.770  1.00  0.00    -0.160 SA
HETATM   22  C11 UNL     1      -2.777 -10.083  16.403  1.00  0.00     0.101 C 
HETATM   23  C12 UNL     1      -2.020 -10.571  15.229  1.00  0.00     0.119 C 
HETATM   24  N6  UNL     1      -0.616 -10.260  15.219  1.00  0.00    -0.336 N 
HETATM   25  C14 UNL     1      -2.616 -10.184  13.950  1.00  0.00     0.123 C 
HETATM   26  C13 UNL     1      -0.294  -9.943  13.865  1.00  0.00     0.316 C 
ATOM     27  H6  UNL     1       0.020 -10.265  16.017  1.00  0.00     0.164 HD
HETATM   28  O5  UNL     1       0.883  -9.654  13.480  1.00  0.00    -0.247 OA
HETATM   29  N7  UNL     1      -1.473 -10.008  13.070  1.00  0.00    -0.335 N 
ATOM     30  H7  UNL     1      -1.510  -9.942  12.053  1.00  0.00     0.164 HD
ENDBRANCH  19  20
ENDBRANCH  18  19
ENDBRANCH  17  18
ENDBRANCH  16  17
ENDBRANCH  13  16
ENDBRANCH   9  12
ENDBRANCH   7   9
ENDBRANCH   6   7
ENDBRANCH   3   6
BRANCH   2  31
HETATM   31  O1  UNL     1      -4.804  -1.391   9.558  1.00  0.00    -0.391 OA
ATOM     32  H1  UNL     1      -5.103  -2.140  10.059  1.00  0.00     0.210 HD
ENDBRANCH   2  31
BRANCH   1  33
HETATM   33  N3  UNL     1      -6.325   0.563   9.058  1.00  0.00    -0.241 N 
ATOM     34  H3  UNL     1      -5.959   1.514   9.007  1.00  0.00     0.197 HD
BRANCH  33  35
HETATM   35  N2  UNL     1      -6.877   0.174  10.099  1.00  0.00    -0.248 NA
BRANCH  35  36
HETATM   36  N1  UNL     1      -7.655  -0.400  10.846  1.00  0.00    -0.261 N 
ATOM     37  H12 UNL     1      -7.830  -1.198  10.235  1.00  0.00     0.193 HD
ATOM     38  H11 UNL     1      -8.234  -0.604  11.662  1.00  0.00     0.193 HD
ENDBRANCH  35  36
ENDBRANCH  33  35
ENDBRANCH   1  33
BRANCH   5  39
HETATM   39  N8  UNL     1      -6.560   0.672   5.771  1.00  0.00    -0.297 N 
HETATM   40  C16 UNL     1      -7.275   1.808   5.702  1.00  0.00     0.188 A 
HETATM   41  N9  UNL     1      -8.139   1.735   4.661  1.00  0.00    -0.346 N 
HETATM   42  C17 UNL     1      -7.948   0.549   4.095  1.00  0.00     0.119 A 
ATOM     43  H9  UNL     1      -8.806   2.450   4.369  1.00  0.00     0.167 HD
HETATM   44  C18 UNL     1      -8.539  -0.081   2.997  1.00  0.00     0.148 A 
HETATM   45  C20 UNL     1      -6.968  -0.135   4.768  1.00  0.00     0.142 A 
HETATM   46  N10 UNL     1      -9.562   0.604   2.276  1.00  0.00    -0.080 NA
HETATM   47  N11 UNL     1      -8.112  -1.303   2.680  1.00  0.00    -0.339 N 
HETATM   48  C19 UNL     1      -7.156  -1.942   3.354  1.00  0.00     0.183 A 
ATOM     49  H11 UNL     1      -8.537  -1.773   1.881  1.00  0.00     0.167 HD
HETATM   50  N12 UNL     1      -6.560  -1.357   4.427  1.00  0.00    -0.336 N 
ATOM     51  H12 UNL     1      -5.828  -1.836   4.951  1.00  0.00     0.168 HD
ENDBRANCH   5  39
TORSDOF 14
ENDMDL
