MODEL 9
REMARK VINA RESULT: -10.709966441      3.212      5.376
REMARK  14 active torsions:
REMARK  status: ('A' for Active; 'I' for Inactive)
REMARK    1  A    between atoms: N1_1  and  N2_4 
REMARK    2  A    between atoms: N2_4  and  N3_5 
REMARK    3  A    between atoms: N3_5  and  C1_7 
REMARK    4  A    between atoms: C2_8  and  O1_9 
REMARK    5  A    between atoms: C3_11  and  C4_12 
REMARK    6  A    between atoms: C4_12  and  N4_13 
REMARK    7  A    between atoms: N4_13  and  S1_15 
REMARK    8  A    between atoms: S1_15  and  N5_18 
REMARK       I    between atoms: N5_18  and  C5_20 
REMARK    9  A    between atoms: C5_20  and  C6_22 
REMARK   10  A    between atoms: C6_22  and  C7_23 
REMARK   11  A    between atoms: C7_23  and  C8_24 
REMARK   12  A    between atoms: C8_24  and  C9_25 
REMARK   13  A    between atoms: C9_25  and  C10_26 
REMARK   14  A    between atoms: C15_38  and  N8_39 
ROOT
HETATM    1  C1  UNL     1      -6.128  -0.251   6.673  1.00  0.00     0.195 C 
HETATM    2  C2  UNL     1      -5.396  -1.264   7.523  1.00  0.00     0.178 C 
HETATM    3  C3  UNL     1      -3.976  -1.169   6.992  1.00  0.00     0.173 C 
HETATM    4  O6  UNL     1      -4.133  -0.817   5.640  1.00  0.00    -0.354 OA
HETATM    5  C15 UNL     1      -5.101   0.190   5.650  1.00  0.00     0.258 C 
ENDROOT
BRANCH   3   6
HETATM    6  C4  UNL     1      -3.403  -2.569   7.028  1.00  0.00     0.168 C 
BRANCH   6   7
HETATM    7  N4  UNL     1      -4.410  -3.570   7.126  1.00  0.00    -0.300 N 
ATOM      8  H4  UNL     1      -5.288  -3.435   7.628  1.00  0.00     0.173 HD
BRANCH   7   9
HETATM    9  S1  UNL     1      -4.004  -5.016   6.322  1.00  0.00     0.321 S 
HETATM   10  O2  UNL     1      -2.845  -4.782   5.380  1.00  0.00    -0.182 OA
HETATM   11  O3  UNL     1      -5.156  -5.460   5.427  1.00  0.00    -0.182 OA
BRANCH   9  12
HETATM   12  N5  UNL     1      -3.601  -6.310   7.370  1.00  0.00    -0.237 N 
HETATM   13  C5  UNL     1      -4.338  -6.560   8.557  1.00  0.00     0.232 C 
HETATM   14  O4  UNL     1      -5.298  -5.767   8.796  1.00  0.00    -0.273 OA
ATOM     15  H5  UNL     1      -2.813  -6.913   7.135  1.00  0.00     0.183 HD
BRANCH  13  16
HETATM   16  C6  UNL     1      -3.970  -7.683   9.424  1.00  0.00     0.104 C 
BRANCH  16  17
HETATM   17  C7  UNL     1      -3.461  -7.204  10.737  1.00  0.00     0.009 C 
BRANCH  17  18
HETATM   18  C8  UNL     1      -3.916  -7.906  11.951  1.00  0.00     0.002 C 
BRANCH  18  19
HETATM   19  C9  UNL     1      -3.004  -7.947  13.137  1.00  0.00     0.017 C 
BRANCH  19  20
HETATM   20  C10 UNL     1      -3.392  -9.000  14.096  1.00  0.00     0.072 C 
HETATM   21  S2  UNL     1      -3.511  -8.516  15.822  1.00  0.00    -0.160 SA
HETATM   22  C11 UNL     1      -2.734 -10.021  16.538  1.00  0.00     0.101 C 
HETATM   23  C12 UNL     1      -1.957 -10.532  15.387  1.00  0.00     0.119 C 
HETATM   24  N6  UNL     1      -0.572 -10.146  15.350  1.00  0.00    -0.336 N 
HETATM   25  C14 UNL     1      -2.579 -10.250  14.093  1.00  0.00     0.123 C 
HETATM   26  C13 UNL     1      -0.274  -9.889  13.977  1.00  0.00     0.316 C 
ATOM     27  H6  UNL     1       0.067 -10.071  16.142  1.00  0.00     0.164 HD
HETATM   28  O5  UNL     1       0.884  -9.559  13.568  1.00  0.00    -0.247 OA
HETATM   29  N7  UNL     1      -1.451 -10.063  13.196  1.00  0.00    -0.335 N 
ATOM     30  H7  UNL     1      -1.496 -10.057  12.177  1.00  0.00     0.164 HD
ENDBRANCH  19  20
ENDBRANCH  18  19
ENDBRANCH  17  18
ENDBRANCH  16  17
ENDBRANCH  13  16
ENDBRANCH   9  12
ENDBRANCH   7   9
ENDBRANCH   6   7
ENDBRANCH   3   6
BRANCH   2  31
HETATM   31  O1  UNL     1      -5.385  -0.909   8.864  1.00  0.00    -0.391 OA
ATOM     32  H1  UNL     1      -6.180  -0.458   9.121  1.00  0.00     0.210 HD
ENDBRANCH   2  31
BRANCH   1  33
HETATM   33  N3  UNL     1      -6.543   0.866   7.489  1.00  0.00    -0.241 N 
ATOM     34  H3  UNL     1      -6.018   1.739   7.451  1.00  0.00     0.197 HD
BRANCH  33  35
HETATM   35  N2  UNL     1      -7.530   0.776   8.235  1.00  0.00    -0.248 NA
BRANCH  35  36
HETATM   36  N1  UNL     1      -8.239   0.874   9.226  1.00  0.00    -0.261 N 
ATOM     37  H12 UNL     1      -7.904   1.793   9.514  1.00  0.00     0.193 HD
ATOM     38  H11 UNL     1      -8.932   0.647   9.940  1.00  0.00     0.193 HD
ENDBRANCH  35  36
ENDBRANCH  33  35
ENDBRANCH   1  33
BRANCH   5  39
HETATM   39  N8  UNL     1      -5.747   0.205   4.358  1.00  0.00    -0.297 N 
HETATM   40  C16 UNL     1      -5.915   1.308   3.610  1.00  0.00     0.188 A 
HETATM   41  N9  UNL     1      -6.548   0.980   2.457  1.00  0.00    -0.346 N 
HETATM   42  C17 UNL     1      -6.767  -0.328   2.506  1.00  0.00     0.119 A 
ATOM     43  H9  UNL     1      -6.806   1.614   1.700  1.00  0.00     0.167 HD
HETATM   44  C18 UNL     1      -7.373  -1.220   1.617  1.00  0.00     0.148 A 
HETATM   45  C20 UNL     1      -6.277  -0.837   3.682  1.00  0.00     0.142 A 
HETATM   46  N10 UNL     1      -7.892  -0.721   0.386  1.00  0.00    -0.080 NA
HETATM   47  N11 UNL     1      -7.435  -2.503   1.974  1.00  0.00    -0.339 N 
HETATM   48  C19 UNL     1      -6.950  -2.968   3.124  1.00  0.00     0.183 A 
ATOM     49  H11 UNL     1      -7.877  -3.163   1.333  1.00  0.00     0.167 HD
HETATM   50  N12 UNL     1      -6.354  -2.127   4.011  1.00  0.00    -0.336 N 
ATOM     51  H12 UNL     1      -5.978  -2.471   4.895  1.00  0.00     0.168 HD
ENDBRANCH   5  39
TORSDOF 14
ENDMDL
