MODEL 1
REMARK VINA RESULT: -11.904273074      0.000      0.000
REMARK  14 active torsions:
REMARK  status: ('A' for Active; 'I' for Inactive)
REMARK    1  A    between atoms: N1_1  and  N2_4 
REMARK    2  A    between atoms: N2_4  and  N3_5 
REMARK    3  A    between atoms: N3_5  and  C1_7 
REMARK    4  A    between atoms: C2_8  and  O1_9 
REMARK    5  A    between atoms: C3_11  and  C4_12 
REMARK    6  A    between atoms: C4_12  and  N4_13 
REMARK    7  A    between atoms: N4_13  and  S1_15 
REMARK    8  A    between atoms: S1_15  and  N5_18 
REMARK       I    between atoms: N5_18  and  C5_20 
REMARK    9  A    between atoms: C5_20  and  C6_22 
REMARK   10  A    between atoms: C6_22  and  C7_23 
REMARK   11  A    between atoms: C7_23  and  C8_24 
REMARK   12  A    between atoms: C8_24  and  C9_25 
REMARK   13  A    between atoms: C9_25  and  C10_26 
REMARK   14  A    between atoms: C15_38  and  N8_39 
ROOT
HETATM    1  C1  UNL     1      -2.739   0.227   9.291  1.00  0.00     0.195 C 
HETATM    2  C2  UNL     1      -2.215  -0.673   8.195  1.00  0.00     0.178 C 
HETATM    3  C3  UNL     1      -3.491  -1.275   7.632  1.00  0.00     0.173 C 
HETATM    4  O6  UNL     1      -4.368  -1.320   8.729  1.00  0.00    -0.354 OA
HETATM    5  C15 UNL     1      -4.222  -0.075   9.347  1.00  0.00     0.258 C 
ENDROOT
BRANCH   3   6
HETATM    6  C4  UNL     1      -3.168  -2.705   7.256  1.00  0.00     0.168 C 
BRANCH   6   7
HETATM    7  N4  UNL     1      -4.333  -3.473   6.977  1.00  0.00    -0.300 N 
ATOM      8  H4  UNL     1      -5.279  -3.154   7.187  1.00  0.00     0.173 HD
BRANCH   7   9
HETATM    9  S1  UNL     1      -3.991  -4.978   6.256  1.00  0.00     0.321 S 
HETATM   10  O2  UNL     1      -2.869  -4.834   5.253  1.00  0.00    -0.182 OA
HETATM   11  O3  UNL     1      -5.190  -5.455   5.441  1.00  0.00    -0.182 OA
BRANCH   9  12
HETATM   12  N5  UNL     1      -3.569  -6.208   7.371  1.00  0.00    -0.237 N 
HETATM   13  C5  UNL     1      -4.376  -6.492   8.503  1.00  0.00     0.232 C 
HETATM   14  O4  UNL     1      -5.414  -5.777   8.642  1.00  0.00    -0.273 OA
ATOM     15  H5  UNL     1      -2.718  -6.749   7.217  1.00  0.00     0.183 HD
BRANCH  13  16
HETATM   16  C6  UNL     1      -3.989  -7.559   9.431  1.00  0.00     0.104 C 
BRANCH  16  17
HETATM   17  C7  UNL     1      -3.478  -7.000  10.711  1.00  0.00     0.009 C 
BRANCH  17  18
HETATM   18  C8  UNL     1      -3.922  -7.632  11.966  1.00  0.00     0.002 C 
BRANCH  18  19
HETATM   19  C9  UNL     1      -2.910  -7.876  13.041  1.00  0.00     0.017 C 
BRANCH  19  20
HETATM   20  C10 UNL     1      -3.341  -8.932  13.978  1.00  0.00     0.072 C 
HETATM   21  S2  UNL     1      -3.474  -8.473  15.709  1.00  0.00    -0.160 SA
HETATM   22  C11 UNL     1      -2.749 -10.009  16.412  1.00  0.00     0.101 C 
HETATM   23  C12 UNL     1      -1.968 -10.523  15.265  1.00  0.00     0.119 C 
HETATM   24  N6  UNL     1      -0.573 -10.174  15.255  1.00  0.00    -0.336 N 
HETATM   25  C14 UNL     1      -2.562 -10.204  13.967  1.00  0.00     0.123 C 
HETATM   26  C13 UNL     1      -0.247  -9.904  13.892  1.00  0.00     0.316 C 
ATOM     27  H6  UNL     1       0.055 -10.129  16.058  1.00  0.00     0.164 HD
HETATM   28  O5  UNL     1       0.926  -9.599  13.505  1.00  0.00    -0.247 OA
HETATM   29  N7  UNL     1      -1.416 -10.033  13.090  1.00  0.00    -0.335 N 
ATOM     30  H7  UNL     1      -1.444 -10.010  12.071  1.00  0.00     0.164 HD
ENDBRANCH  19  20
ENDBRANCH  18  19
ENDBRANCH  17  18
ENDBRANCH  16  17
ENDBRANCH  13  16
ENDBRANCH   9  12
ENDBRANCH   7   9
ENDBRANCH   6   7
ENDBRANCH   3   6
BRANCH   2  31
HETATM   31  O1  UNL     1      -1.588   0.043   7.187  1.00  0.00    -0.391 OA
ATOM     32  H1  UNL     1      -0.651  -0.114   7.166  1.00  0.00     0.210 HD
ENDBRANCH   2  31
BRANCH   1  33
HETATM   33  N3  UNL     1      -2.516   1.609   8.938  1.00  0.00    -0.241 N 
ATOM     34  H3  UNL     1      -2.665   1.913   7.976  1.00  0.00     0.197 HD
BRANCH  33  35
HETATM   35  N2  UNL     1      -2.147   2.432   9.790  1.00  0.00    -0.248 NA
BRANCH  35  36
HETATM   36  N1  UNL     1      -2.157   3.154  10.776  1.00  0.00    -0.261 N 
ATOM     37  H12 UNL     1      -1.709   2.490  11.407  1.00  0.00     0.193 HD
ATOM     38  H11 UNL     1      -2.315   3.967  11.372  1.00  0.00     0.193 HD
ENDBRANCH  35  36
ENDBRANCH  33  35
ENDBRANCH   1  33
BRANCH   5  39
HETATM   39  N8  UNL     1      -4.589  -0.218  10.737  1.00  0.00    -0.297 N 
HETATM   40  C16 UNL     1      -3.712  -0.199  11.755  1.00  0.00     0.188 A 
HETATM   41  N9  UNL     1      -4.377  -0.351  12.926  1.00  0.00    -0.346 N 
HETATM   42  C17 UNL     1      -5.663  -0.463  12.618  1.00  0.00     0.119 A 
ATOM     43  H9  UNL     1      -3.970  -0.374  13.861  1.00  0.00     0.167 HD
HETATM   44  C18 UNL     1      -6.811  -0.636  13.396  1.00  0.00     0.148 A 
HETATM   45  C20 UNL     1      -5.824  -0.384  11.258  1.00  0.00     0.142 A 
HETATM   46  N10 UNL     1      -6.678  -0.723  14.814  1.00  0.00    -0.080 NA
HETATM   47  N11 UNL     1      -7.982  -0.715  12.763  1.00  0.00    -0.339 N 
HETATM   48  C19 UNL     1      -8.106  -0.634  11.439  1.00  0.00     0.183 A 
ATOM     49  H11 UNL     1      -8.826  -0.843  13.321  1.00  0.00     0.167 HD
HETATM   50  N12 UNL     1      -7.009  -0.465  10.653  1.00  0.00    -0.336 N 
ATOM     51  H12 UNL     1      -7.091  -0.402   9.638  1.00  0.00     0.168 HD
ENDBRANCH   5  39
TORSDOF 14
ENDMDL
