MODEL 2
REMARK VINA RESULT: -11.458084629      1.632      1.948
REMARK  14 active torsions:
REMARK  status: ('A' for Active; 'I' for Inactive)
REMARK    1  A    between atoms: N1_1  and  N2_4 
REMARK    2  A    between atoms: N2_4  and  N3_5 
REMARK    3  A    between atoms: N3_5  and  C1_7 
REMARK    4  A    between atoms: C2_8  and  O1_9 
REMARK    5  A    between atoms: C3_11  and  C4_12 
REMARK    6  A    between atoms: C4_12  and  N4_13 
REMARK    7  A    between atoms: N4_13  and  S1_15 
REMARK    8  A    between atoms: S1_15  and  N5_18 
REMARK       I    between atoms: N5_18  and  C5_20 
REMARK    9  A    between atoms: C5_20  and  C6_22 
REMARK   10  A    between atoms: C6_22  and  C7_23 
REMARK   11  A    between atoms: C7_23  and  C8_24 
REMARK   12  A    between atoms: C8_24  and  C9_25 
REMARK   13  A    between atoms: C9_25  and  C10_26 
REMARK   14  A    between atoms: C15_38  and  N8_39 
ROOT
HETATM    1  C1  UNL     1      -4.726   0.628   7.466  1.00  0.00     0.195 C 
HETATM    2  C2  UNL     1      -4.226  -0.170   6.284  1.00  0.00     0.178 C 
HETATM    3  C3  UNL     1      -5.110  -1.404   6.326  1.00  0.00     0.173 C 
HETATM    4  O6  UNL     1      -5.402  -1.577   7.690  1.00  0.00    -0.354 OA
HETATM    5  C15 UNL     1      -5.718  -0.294   8.147  1.00  0.00     0.258 C 
ENDROOT
BRANCH   3   6
HETATM    6  C4  UNL     1      -4.249  -2.573   5.901  1.00  0.00     0.168 C 
BRANCH   6   7
HETATM    7  N4  UNL     1      -4.205  -3.605   6.879  1.00  0.00    -0.300 N 
ATOM      8  H4  UNL     1      -4.236  -3.428   7.883  1.00  0.00     0.173 HD
BRANCH   7   9
HETATM    9  S1  UNL     1      -4.094  -5.167   6.207  1.00  0.00     0.321 S 
HETATM   10  O2  UNL     1      -3.083  -5.180   5.082  1.00  0.00    -0.182 OA
HETATM   11  O3  UNL     1      -5.417  -5.553   5.553  1.00  0.00    -0.182 OA
BRANCH   9  12
HETATM   12  N5  UNL     1      -3.669  -6.385   7.334  1.00  0.00    -0.237 N 
HETATM   13  C5  UNL     1      -4.436  -6.610   8.506  1.00  0.00     0.232 C 
HETATM   14  O4  UNL     1      -5.440  -5.853   8.671  1.00  0.00    -0.273 OA
ATOM     15  H5  UNL     1      -2.846  -6.961   7.158  1.00  0.00     0.183 HD
BRANCH  13  16
HETATM   16  C6  UNL     1      -4.048  -7.669   9.443  1.00  0.00     0.104 C 
BRANCH  16  17
HETATM   17  C7  UNL     1      -3.374  -7.105  10.643  1.00  0.00     0.009 C 
BRANCH  17  18
HETATM   18  C8  UNL     1      -3.857  -7.530  11.970  1.00  0.00     0.002 C 
BRANCH  18  19
HETATM   19  C9  UNL     1      -2.850  -7.835  13.033  1.00  0.00     0.017 C 
BRANCH  19  20
HETATM   20  C10 UNL     1      -3.303  -8.914  13.931  1.00  0.00     0.072 C 
HETATM   21  S2  UNL     1      -3.461  -8.504  15.673  1.00  0.00    -0.160 SA
HETATM   22  C11 UNL     1      -2.759 -10.065  16.343  1.00  0.00     0.101 C 
HETATM   23  C12 UNL     1      -1.962 -10.552  15.195  1.00  0.00     0.119 C 
HETATM   24  N6  UNL     1      -0.565 -10.213  15.217  1.00  0.00    -0.336 N 
HETATM   25  C14 UNL     1      -2.532 -10.191  13.897  1.00  0.00     0.123 C 
HETATM   26  C13 UNL     1      -0.214  -9.906  13.868  1.00  0.00     0.316 C 
ATOM     27  H6  UNL     1       0.050 -10.196  16.031  1.00  0.00     0.164 HD
HETATM   28  O5  UNL     1       0.967  -9.598  13.509  1.00  0.00    -0.247 OA
HETATM   29  N7  UNL     1      -1.371 -10.003  13.044  1.00  0.00    -0.335 N 
ATOM     30  H7  UNL     1      -1.382  -9.951  12.026  1.00  0.00     0.164 HD
ENDBRANCH  19  20
ENDBRANCH  18  19
ENDBRANCH  17  18
ENDBRANCH  16  17
ENDBRANCH  13  16
ENDBRANCH   9  12
ENDBRANCH   7   9
ENDBRANCH   6   7
ENDBRANCH   3   6
BRANCH   2  31
HETATM   31  O1  UNL     1      -4.446   0.484   5.081  1.00  0.00    -0.391 OA
ATOM     32  H1  UNL     1      -4.241  -0.064   4.333  1.00  0.00     0.210 HD
ENDBRANCH   2  31
BRANCH   1  33
HETATM   33  N3  UNL     1      -5.385   1.827   7.004  1.00  0.00    -0.241 N 
ATOM     34  H3  UNL     1      -4.921   2.729   7.110  1.00  0.00     0.197 HD
BRANCH  33  35
HETATM   35  N2  UNL     1      -6.508   1.774   6.478  1.00  0.00    -0.248 NA
BRANCH  35  36
HETATM   36  N1  UNL     1      -7.398   1.876   5.648  1.00  0.00    -0.261 N 
ATOM     37  H12 UNL     1      -7.188   1.010   5.151  1.00  0.00     0.193 HD
ATOM     38  H11 UNL     1      -8.196   2.248   5.133  1.00  0.00     0.193 HD
ENDBRANCH  35  36
ENDBRANCH  33  35
ENDBRANCH   1  33
BRANCH   5  39
HETATM   39  N8  UNL     1      -5.458  -0.245   9.567  1.00  0.00    -0.297 N 
HETATM   40  C16 UNL     1      -4.248  -0.018  10.106  1.00  0.00     0.188 A 
HETATM   41  N9  UNL     1      -4.347  -0.030  11.458  1.00  0.00    -0.346 N 
HETATM   42  C17 UNL     1      -5.622  -0.267  11.740  1.00  0.00     0.119 A 
ATOM     43  H9  UNL     1      -3.590   0.114  12.126  1.00  0.00     0.167 HD
HETATM   44  C18 UNL     1      -6.316  -0.390  12.947  1.00  0.00     0.148 A 
HETATM   45  C20 UNL     1      -6.338  -0.406  10.578  1.00  0.00     0.142 A 
HETATM   46  N10 UNL     1      -5.600  -0.251  14.173  1.00  0.00    -0.080 NA
HETATM   47  N11 UNL     1      -7.625  -0.636  12.886  1.00  0.00    -0.339 N 
HETATM   48  C19 UNL     1      -8.293  -0.765  11.740  1.00  0.00     0.183 A 
ATOM     49  H11 UNL     1      -8.141  -0.729  13.760  1.00  0.00     0.167 HD
HETATM   50  N12 UNL     1      -7.648  -0.651  10.549  1.00  0.00    -0.336 N 
ATOM     51  H12 UNL     1      -8.148  -0.748   9.665  1.00  0.00     0.168 HD
ENDBRANCH   5  39
TORSDOF 14
ENDMDL
