MODEL 4
REMARK VINA RESULT: -11.134387188      0.876      1.567
REMARK  14 active torsions:
REMARK  status: ('A' for Active; 'I' for Inactive)
REMARK    1  A    between atoms: N1_1  and  N2_4 
REMARK    2  A    between atoms: N2_4  and  N3_5 
REMARK    3  A    between atoms: N3_5  and  C1_7 
REMARK    4  A    between atoms: C2_8  and  O1_9 
REMARK    5  A    between atoms: C3_11  and  C4_12 
REMARK    6  A    between atoms: C4_12  and  N4_13 
REMARK    7  A    between atoms: N4_13  and  S1_15 
REMARK    8  A    between atoms: S1_15  and  N5_18 
REMARK       I    between atoms: N5_18  and  C5_20 
REMARK    9  A    between atoms: C5_20  and  C6_22 
REMARK   10  A    between atoms: C6_22  and  C7_23 
REMARK   11  A    between atoms: C7_23  and  C8_24 
REMARK   12  A    between atoms: C8_24  and  C9_25 
REMARK   13  A    between atoms: C9_25  and  C10_26 
REMARK   14  A    between atoms: C15_38  and  N8_39 
ROOT
HETATM    1  C1  UNL     1      -3.741  -0.228   8.841  1.00  0.00     0.195 C 
HETATM    2  C2  UNL     1      -3.347  -1.130   7.694  1.00  0.00     0.178 C 
HETATM    3  C3  UNL     1      -4.582  -1.094   6.812  1.00  0.00     0.173 C 
HETATM    4  O6  UNL     1      -5.646  -0.906   7.711  1.00  0.00    -0.354 OA
HETATM    5  C15 UNL     1      -5.199   0.093   8.581  1.00  0.00     0.258 C 
ENDROOT
BRANCH   3   6
HETATM    6  C4  UNL     1      -4.735  -2.478   6.219  1.00  0.00     0.168 C 
BRANCH   6   7
HETATM    7  N4  UNL     1      -3.988  -3.461   6.926  1.00  0.00    -0.300 N 
ATOM      8  H4  UNL     1      -3.528  -3.282   7.818  1.00  0.00     0.173 HD
BRANCH   7   9
HETATM    9  S1  UNL     1      -3.939  -4.969   6.134  1.00  0.00     0.321 S 
HETATM   10  O2  UNL     1      -2.886  -4.954   5.048  1.00  0.00    -0.182 OA
HETATM   11  O3  UNL     1      -5.254  -5.222   5.404  1.00  0.00    -0.182 OA
BRANCH   9  12
HETATM   12  N5  UNL     1      -3.630  -6.295   7.172  1.00  0.00    -0.237 N 
HETATM   13  C5  UNL     1      -4.291  -6.429   8.421  1.00  0.00     0.232 C 
HETATM   14  O4  UNL     1      -5.109  -5.507   8.721  1.00  0.00    -0.273 OA
ATOM     15  H5  UNL     1      -2.956  -7.005   6.887  1.00  0.00     0.183 HD
BRANCH  13  16
HETATM   16  C6  UNL     1      -4.010  -7.583   9.280  1.00  0.00     0.104 C 
BRANCH  16  17
HETATM   17  C7  UNL     1      -3.420  -7.158  10.577  1.00  0.00     0.009 C 
BRANCH  17  18
HETATM   18  C8  UNL     1      -3.874  -7.845  11.800  1.00  0.00     0.002 C 
BRANCH  18  19
HETATM   19  C9  UNL     1      -2.925  -7.958  12.951  1.00  0.00     0.017 C 
BRANCH  19  20
HETATM   20  C10 UNL     1      -3.349  -8.990  13.918  1.00  0.00     0.072 C 
HETATM   21  S2  UNL     1      -3.501  -8.476  15.632  1.00  0.00    -0.160 SA
HETATM   22  C11 UNL     1      -2.761  -9.978  16.391  1.00  0.00     0.101 C 
HETATM   23  C12 UNL     1      -1.964 -10.519  15.267  1.00  0.00     0.119 C 
HETATM   24  N6  UNL     1      -0.574 -10.151  15.256  1.00  0.00    -0.336 N 
HETATM   25  C14 UNL     1      -2.552 -10.250  13.954  1.00  0.00     0.123 C 
HETATM   26  C13 UNL     1      -0.241  -9.921  13.887  1.00  0.00     0.316 C 
ATOM     27  H6  UNL     1       0.047 -10.071  16.061  1.00  0.00     0.164 HD
HETATM   28  O5  UNL     1       0.931  -9.612  13.499  1.00  0.00    -0.247 OA
HETATM   29  N7  UNL     1      -1.402 -10.092  13.081  1.00  0.00    -0.335 N 
ATOM     30  H7  UNL     1      -1.422 -10.102  12.062  1.00  0.00     0.164 HD
ENDBRANCH  19  20
ENDBRANCH  18  19
ENDBRANCH  17  18
ENDBRANCH  16  17
ENDBRANCH  13  16
ENDBRANCH   9  12
ENDBRANCH   7   9
ENDBRANCH   6   7
ENDBRANCH   3   6
BRANCH   2  31
HETATM   31  O1  UNL     1      -2.279  -0.619   6.972  1.00  0.00    -0.391 OA
ATOM     32  H1  UNL     1      -1.565  -1.241   6.902  1.00  0.00     0.210 HD
ENDBRANCH   2  31
BRANCH   1  33
HETATM   33  N3  UNL     1      -2.944   0.976   8.814  1.00  0.00    -0.241 N 
ATOM     34  H3  UNL     1      -3.221   1.749   8.209  1.00  0.00     0.197 HD
BRANCH  33  35
HETATM   35  N2  UNL     1      -1.928   1.082   9.518  1.00  0.00    -0.248 NA
BRANCH  35  36
HETATM   36  N1  UNL     1      -0.831   0.846  10.002  1.00  0.00    -0.261 N 
ATOM     37  H12 UNL     1      -0.359   1.662   9.613  1.00  0.00     0.193 HD
ATOM     38  H11 UNL     1      -0.090   0.380  10.527  1.00  0.00     0.193 HD
ENDBRANCH  35  36
ENDBRANCH  33  35
ENDBRANCH   1  33
BRANCH   5  39
HETATM   39  N8  UNL     1      -5.909  -0.048   9.830  1.00  0.00    -0.297 N 
HETATM   40  C16 UNL     1      -7.248  -0.070   9.939  1.00  0.00     0.188 A 
HETATM   41  N9  UNL     1      -7.593  -0.221  11.242  1.00  0.00    -0.346 N 
HETATM   42  C17 UNL     1      -6.458  -0.290  11.926  1.00  0.00     0.119 A 
ATOM     43  H9  UNL     1      -8.539  -0.270  11.621  1.00  0.00     0.167 HD
HETATM   44  C18 UNL     1      -6.182  -0.445  13.287  1.00  0.00     0.148 A 
HETATM   45  C20 UNL     1      -5.391  -0.185  11.070  1.00  0.00     0.142 A 
HETATM   46  N10 UNL     1      -7.270  -0.556  14.204  1.00  0.00    -0.080 NA
HETATM   47  N11 UNL     1      -4.903  -0.477  13.660  1.00  0.00    -0.339 N 
HETATM   48  C19 UNL     1      -3.887  -0.372  12.804  1.00  0.00     0.183 A 
ATOM     49  H11 UNL     1      -4.690  -0.588  14.651  1.00  0.00     0.167 HD
HETATM   50  N12 UNL     1      -4.121  -0.222  11.472  1.00  0.00    -0.336 N 
ATOM     51  H12 UNL     1      -3.352  -0.141  10.807  1.00  0.00     0.168 HD
ENDBRANCH   5  39
TORSDOF 14
ENDMDL
