MODEL 20
REMARK VINA RESULT: -10.041407193      1.318      1.581
REMARK  14 active torsions:
REMARK  status: ('A' for Active; 'I' for Inactive)
REMARK    1  A    between atoms: N1_1  and  N2_4 
REMARK    2  A    between atoms: N2_4  and  N3_5 
REMARK    3  A    between atoms: N3_5  and  C1_7 
REMARK    4  A    between atoms: C2_8  and  O1_9 
REMARK    5  A    between atoms: C3_11  and  C4_12 
REMARK    6  A    between atoms: C4_12  and  N4_13 
REMARK    7  A    between atoms: N4_13  and  S1_15 
REMARK    8  A    between atoms: S1_15  and  N5_18 
REMARK       I    between atoms: N5_18  and  C5_20 
REMARK    9  A    between atoms: C5_20  and  C6_22 
REMARK   10  A    between atoms: C6_22  and  C7_23 
REMARK   11  A    between atoms: C7_23  and  C8_24 
REMARK   12  A    between atoms: C8_24  and  C9_25 
REMARK   13  A    between atoms: C9_25  and  C10_26 
REMARK   14  A    between atoms: C15_38  and  N8_39 
ROOT
HETATM    1  C1  UNL     1      -2.797   0.210   9.366  1.00  0.00     0.195 C 
HETATM    2  C2  UNL     1      -2.259  -0.703   8.288  1.00  0.00     0.178 C 
HETATM    3  C3  UNL     1      -3.521  -1.362   7.760  1.00  0.00     0.173 C 
HETATM    4  O6  UNL     1      -4.382  -1.405   8.869  1.00  0.00    -0.354 OA
HETATM    5  C15 UNL     1      -4.269  -0.139   9.452  1.00  0.00     0.258 C 
ENDROOT
BRANCH   3   6
HETATM    6  C4  UNL     1      -3.157  -2.790   7.418  1.00  0.00     0.168 C 
BRANCH   6   7
HETATM    7  N4  UNL     1      -4.299  -3.628   7.284  1.00  0.00    -0.300 N 
ATOM      8  H4  UNL     1      -5.229  -3.365   7.609  1.00  0.00     0.173 HD
BRANCH   7   9
HETATM    9  S1  UNL     1      -3.959  -5.115   6.524  1.00  0.00     0.321 S 
HETATM   10  O2  UNL     1      -2.796  -4.959   5.570  1.00  0.00    -0.182 OA
HETATM   11  O3  UNL     1      -5.133  -5.539   5.648  1.00  0.00    -0.182 OA
BRANCH   9  12
HETATM   12  N5  UNL     1      -3.604  -6.390   7.611  1.00  0.00    -0.237 N 
HETATM   13  C5  UNL     1      -4.391  -6.618   8.770  1.00  0.00     0.232 C 
HETATM   14  O4  UNL     1      -5.358  -5.818   8.954  1.00  0.00    -0.273 OA
ATOM     15  H5  UNL     1      -2.808  -7.000   7.420  1.00  0.00     0.183 HD
BRANCH  13  16
HETATM   16  C6  UNL     1      -4.063  -7.726   9.672  1.00  0.00     0.104 C 
BRANCH  16  17
HETATM   17  C7  UNL     1      -3.600  -7.225  10.994  1.00  0.00     0.009 C 
BRANCH  17  18
HETATM   18  C8  UNL     1      -4.314  -7.689  12.197  1.00  0.00     0.002 C 
BRANCH  18  19
HETATM   19  C9  UNL     1      -3.714  -8.799  13.001  1.00  0.00     0.017 C 
BRANCH  19  20
HETATM   20  C10 UNL     1      -2.254  -8.649  13.148  1.00  0.00     0.072 C 
HETATM   21  S2  UNL     1      -1.233  -9.949  12.446  1.00  0.00    -0.160 SA
HETATM   22  C11 UNL     1      -0.012 -10.050  13.817  1.00  0.00     0.101 C 
HETATM   23  C12 UNL     1      -0.778  -9.471  14.943  1.00  0.00     0.119 C 
HETATM   24  N6  UNL     1      -1.437 -10.418  15.801  1.00  0.00    -0.336 N 
HETATM   25  C14 UNL     1      -1.730  -8.440  14.529  1.00  0.00     0.123 C 
HETATM   26  C13 UNL     1      -2.696  -9.834  16.135  1.00  0.00     0.316 C 
ATOM     27  H6  UNL     1      -1.078 -11.322  16.108  1.00  0.00     0.164 HD
HETATM   28  O5  UNL     1      -3.532 -10.386  16.919  1.00  0.00    -0.247 OA
HETATM   29  N7  UNL     1      -2.833  -8.586  15.464  1.00  0.00    -0.335 N 
ATOM     30  H7  UNL     1      -3.579  -7.908  15.615  1.00  0.00     0.164 HD
ENDBRANCH  19  20
ENDBRANCH  18  19
ENDBRANCH  17  18
ENDBRANCH  16  17
ENDBRANCH  13  16
ENDBRANCH   9  12
ENDBRANCH   7   9
ENDBRANCH   6   7
ENDBRANCH   3   6
BRANCH   2  31
HETATM   31  O1  UNL     1      -1.669   0.005   7.252  1.00  0.00    -0.391 OA
ATOM     32  H1  UNL     1      -0.845  -0.381   6.979  1.00  0.00     0.210 HD
ENDBRANCH   2  31
BRANCH   1  33
HETATM   33  N3  UNL     1      -2.625   1.588   8.972  1.00  0.00    -0.241 N 
ATOM     34  H3  UNL     1      -3.208   1.977   8.232  1.00  0.00     0.197 HD
BRANCH  33  35
HETATM   35  N2  UNL     1      -1.775   2.306   9.523  1.00  0.00    -0.248 NA
BRANCH  35  36
HETATM   36  N1  UNL     1      -1.143   3.298   9.853  1.00  0.00    -0.261 N 
ATOM     37  H12 UNL     1      -1.357   3.243  10.848  1.00  0.00     0.193 HD
ATOM     38  H11 UNL     1      -0.554   4.129   9.790  1.00  0.00     0.193 HD
ENDBRANCH  35  36
ENDBRANCH  33  35
ENDBRANCH   1  33
BRANCH   5  39
HETATM   39  N8  UNL     1      -4.612  -0.255  10.850  1.00  0.00    -0.297 N 
HETATM   40  C16 UNL     1      -3.720  -0.205  11.853  1.00  0.00     0.188 A 
HETATM   41  N9  UNL     1      -4.364  -0.338  13.038  1.00  0.00    -0.346 N 
HETATM   42  C17 UNL     1      -5.654  -0.469  12.752  1.00  0.00     0.119 A 
ATOM     43  H9  UNL     1      -3.942  -0.338  13.967  1.00  0.00     0.167 HD
HETATM   44  C18 UNL     1      -6.788  -0.636  13.553  1.00  0.00     0.148 A 
HETATM   45  C20 UNL     1      -5.837  -0.421  11.394  1.00  0.00     0.142 A 
HETATM   46  N10 UNL     1      -6.631  -0.691  14.969  1.00  0.00    -0.080 NA
HETATM   47  N11 UNL     1      -7.967  -0.740  12.941  1.00  0.00    -0.339 N 
HETATM   48  C19 UNL     1      -8.113  -0.689  11.617  1.00  0.00     0.183 A 
ATOM     49  H11 UNL     1      -8.802  -0.863  13.515  1.00  0.00     0.167 HD
HETATM   50  N12 UNL     1      -7.031  -0.526  10.810  1.00  0.00    -0.336 N 
ATOM     51  H12 UNL     1      -7.129  -0.486   9.796  1.00  0.00     0.168 HD
ENDBRANCH   5  39
TORSDOF 14
ENDMDL
