MODEL 12
REMARK VINA RESULT: -10.423052670      3.324      4.924
REMARK  14 active torsions:
REMARK  status: ('A' for Active; 'I' for Inactive)
REMARK    1  A    between atoms: N1_1  and  N2_4 
REMARK    2  A    between atoms: N2_4  and  N3_5 
REMARK    3  A    between atoms: N3_5  and  C1_7 
REMARK    4  A    between atoms: C2_8  and  O1_9 
REMARK    5  A    between atoms: C3_11  and  C4_12 
REMARK    6  A    between atoms: C4_12  and  N4_13 
REMARK    7  A    between atoms: N4_13  and  S1_15 
REMARK    8  A    between atoms: S1_15  and  N5_18 
REMARK       I    between atoms: N5_18  and  C5_20 
REMARK    9  A    between atoms: C5_20  and  C6_22 
REMARK   10  A    between atoms: C6_22  and  C7_23 
REMARK   11  A    between atoms: C7_23  and  C8_24 
REMARK   12  A    between atoms: C8_24  and  C9_25 
REMARK   13  A    between atoms: C9_25  and  C10_26 
REMARK   14  A    between atoms: C15_38  and  N8_39 
ROOT
HETATM    1  C1  UNL     1      -4.962   0.219   6.862  1.00  0.00     0.195 C 
HETATM    2  C2  UNL     1      -4.175  -0.703   7.765  1.00  0.00     0.178 C 
HETATM    3  C3  UNL     1      -3.257  -1.413   6.785  1.00  0.00     0.173 C 
HETATM    4  O6  UNL     1      -3.991  -1.455   5.588  1.00  0.00    -0.354 OA
HETATM    5  C15 UNL     1      -4.533  -0.173   5.462  1.00  0.00     0.258 C 
ENDROOT
BRANCH   3   6
HETATM    6  C4  UNL     1      -3.114  -2.837   7.275  1.00  0.00     0.168 C 
BRANCH   6   7
HETATM    7  N4  UNL     1      -4.297  -3.603   7.081  1.00  0.00    -0.300 N 
ATOM      8  H4  UNL     1      -5.221  -3.296   7.386  1.00  0.00     0.173 HD
BRANCH   7   9
HETATM    9  S1  UNL     1      -4.019  -5.085   6.289  1.00  0.00     0.321 S 
HETATM   10  O2  UNL     1      -2.882  -4.943   5.301  1.00  0.00    -0.182 OA
HETATM   11  O3  UNL     1      -5.230  -5.466   5.444  1.00  0.00    -0.182 OA
BRANCH   9  12
HETATM   12  N5  UNL     1      -3.662  -6.387   7.344  1.00  0.00    -0.237 N 
HETATM   13  C5  UNL     1      -4.351  -6.554   8.574  1.00  0.00     0.232 C 
HETATM   14  O4  UNL     1      -5.231  -5.682   8.844  1.00  0.00    -0.273 OA
ATOM     15  H5  UNL     1      -2.939  -7.057   7.082  1.00  0.00     0.183 HD
BRANCH  13  16
HETATM   16  C6  UNL     1      -4.027  -7.686   9.447  1.00  0.00     0.104 C 
BRANCH  16  17
HETATM   17  C7  UNL     1      -3.320  -7.233  10.675  1.00  0.00     0.009 C 
BRANCH  17  18
HETATM   18  C8  UNL     1      -3.876  -7.635  11.980  1.00  0.00     0.002 C 
BRANCH  18  19
HETATM   19  C9  UNL     1      -2.939  -7.814  13.132  1.00  0.00     0.017 C 
BRANCH  19  20
HETATM   20  C10 UNL     1      -3.366  -8.905  14.029  1.00  0.00     0.072 C 
HETATM   21  S2  UNL     1      -3.478  -8.516  15.779  1.00  0.00    -0.160 SA
HETATM   22  C11 UNL     1      -2.756 -10.083  16.411  1.00  0.00     0.101 C 
HETATM   23  C12 UNL     1      -1.989 -10.555  15.236  1.00  0.00     0.119 C 
HETATM   24  N6  UNL     1      -0.592 -10.213  15.226  1.00  0.00    -0.336 N 
HETATM   25  C14 UNL     1      -2.594 -10.180  13.958  1.00  0.00     0.123 C 
HETATM   26  C13 UNL     1      -0.278  -9.890  13.871  1.00  0.00     0.316 C 
ATOM     27  H6  UNL     1       0.044 -10.205  16.023  1.00  0.00     0.164 HD
HETATM   28  O5  UNL     1       0.892  -9.575  13.485  1.00  0.00    -0.247 OA
HETATM   29  N7  UNL     1      -1.456  -9.980  13.077  1.00  0.00    -0.335 N 
ATOM     30  H7  UNL     1      -1.495  -9.915  12.060  1.00  0.00     0.164 HD
ENDBRANCH  19  20
ENDBRANCH  18  19
ENDBRANCH  17  18
ENDBRANCH  16  17
ENDBRANCH  13  16
ENDBRANCH   9  12
ENDBRANCH   7   9
ENDBRANCH   6   7
ENDBRANCH   3   6
BRANCH   2  31
HETATM   31  O1  UNL     1      -3.391  -0.003   8.670  1.00  0.00    -0.391 OA
ATOM     32  H1  UNL     1      -2.473  -0.236   8.602  1.00  0.00     0.210 HD
ENDBRANCH   2  31
BRANCH   1  33
HETATM   33  N3  UNL     1      -4.608   1.592   7.135  1.00  0.00    -0.241 N 
ATOM     34  H3  UNL     1      -5.254   2.184   7.656  1.00  0.00     0.197 HD
BRANCH  33  35
HETATM   35  N2  UNL     1      -3.528   2.060   6.742  1.00  0.00    -0.248 NA
BRANCH  35  36
HETATM   36  N1  UNL     1      -2.328   2.269   6.650  1.00  0.00    -0.261 N 
ATOM     37  H12 UNL     1      -2.241   1.994   5.672  1.00  0.00     0.193 HD
ATOM     38  H11 UNL     1      -1.374   2.531   6.901  1.00  0.00     0.193 HD
ENDBRANCH  35  36
ENDBRANCH  33  35
ENDBRANCH   1  33
BRANCH   5  39
HETATM   39  N8  UNL     1      -5.722  -0.265   4.648  1.00  0.00    -0.297 N 
HETATM   40  C16 UNL     1      -6.409  -1.401   4.440  1.00  0.00     0.188 A 
HETATM   41  N9  UNL     1      -7.472  -1.146   3.639  1.00  0.00    -0.346 N 
HETATM   42  C17 UNL     1      -7.431   0.151   3.360  1.00  0.00     0.119 A 
ATOM     43  H9  UNL     1      -8.167  -1.818   3.314  1.00  0.00     0.167 HD
HETATM   44  C18 UNL     1      -8.253   0.980   2.592  1.00  0.00     0.148 A 
HETATM   45  C20 UNL     1      -6.349   0.725   3.977  1.00  0.00     0.142 A 
HETATM   46  N10 UNL     1      -9.387   0.413   1.937  1.00  0.00    -0.080 NA
HETATM   47  N11 UNL     1      -7.929   2.270   2.510  1.00  0.00    -0.339 N 
HETATM   48  C19 UNL     1      -6.870   2.799   3.122  1.00  0.00     0.183 A 
ATOM     49  H11 UNL     1      -8.521   2.884   1.952  1.00  0.00     0.167 HD
HETATM   50  N12 UNL     1      -6.050   2.021   3.877  1.00  0.00    -0.336 N 
ATOM     51  H12 UNL     1      -5.236   2.414   4.351  1.00  0.00     0.168 HD
ENDBRANCH   5  39
TORSDOF 14
ENDMDL
