MODEL 1
REMARK VINA RESULT: -11.336589027      0.000      0.000
REMARK  14 active torsions:
REMARK  status: ('A' for Active; 'I' for Inactive)
REMARK    1  A    between atoms: N1_1  and  N2_4 
REMARK    2  A    between atoms: N2_4  and  N3_6 
REMARK    3  A    between atoms: N3_6  and  C1_8 
REMARK    4  A    between atoms: C2_9  and  O1_10 
REMARK    5  A    between atoms: C3_12  and  C4_13 
REMARK    6  A    between atoms: C4_13  and  O2_14 
REMARK    7  A    between atoms: O2_14  and  S1_15 
REMARK    8  A    between atoms: S1_15  and  N4_18 
REMARK       I    between atoms: N4_18  and  C5_20 
REMARK    9  A    between atoms: C5_20  and  C6_22 
REMARK   10  A    between atoms: C6_22  and  C7_23 
REMARK   11  A    between atoms: C7_23  and  C8_24 
REMARK   12  A    between atoms: C8_24  and  C9_25 
REMARK   13  A    between atoms: C9_25  and  C10_26 
REMARK   14  A    between atoms: C15_38  and  N7_39 
ROOT
HETATM    1  C1  UNL     1      -3.579   0.212   7.693  1.00  0.00     0.181 C 
HETATM    2  C2  UNL     1      -3.741  -0.244   6.260  1.00  0.00     0.177 C 
HETATM    3  C3  UNL     1      -5.105  -0.855   6.243  1.00  0.00     0.180 C 
HETATM    4  O7  UNL     1      -5.523  -0.941   7.571  1.00  0.00    -0.354 OA
HETATM    5  C15 UNL     1      -4.997   0.185   8.203  1.00  0.00     0.257 C 
ENDROOT
BRANCH   3   6
HETATM    6  C4  UNL     1      -4.998  -2.269   5.713  1.00  0.00     0.226 C 
BRANCH   6   7
HETATM    7  O2  UNL     1      -4.563  -3.159   6.669  1.00  0.00    -0.257 OA
BRANCH   7   8
HETATM    8  S1  UNL     1      -4.266  -4.645   6.009  1.00  0.00     0.364 S 
HETATM    9  O3  UNL     1      -2.798  -4.742   5.621  1.00  0.00    -0.175 OA
HETATM   10  O4  UNL     1      -5.030  -4.738   4.700  1.00  0.00    -0.175 OA
BRANCH   8  11
HETATM   11  N4  UNL     1      -4.622  -5.971   7.011  1.00  0.00    -0.231 N 
HETATM   12  C5  UNL     1      -4.257  -6.028   8.404  1.00  0.00     0.232 C 
HETATM   13  O5  UNL     1      -3.649  -5.028   8.853  1.00  0.00    -0.273 OA
ATOM     14  H4  UNL     1      -5.119  -6.764   6.606  1.00  0.00     0.183 HD
BRANCH  12  15
HETATM   15  C6  UNL     1      -4.610  -7.234   9.210  1.00  0.00     0.104 C 
BRANCH  15  16
HETATM   16  C7  UNL     1      -3.826  -7.351  10.461  1.00  0.00     0.009 C 
BRANCH  16  17
HETATM   17  C8  UNL     1      -4.216  -8.324  11.473  1.00  0.00     0.002 C 
BRANCH  17  18
HETATM   18  C9  UNL     1      -4.191  -8.063  12.916  1.00  0.00     0.017 C 
BRANCH  18  19
HETATM   19  C10 UNL     1      -3.950  -9.201  13.849  1.00  0.00     0.072 C 
HETATM   20  S2  UNL     1      -3.767  -8.431  15.547  1.00  0.00    -0.160 SA
HETATM   21  C11 UNL     1      -2.658  -9.694  16.219  1.00  0.00     0.101 C 
HETATM   22  C12 UNL     1      -2.385 -10.575  15.059  1.00  0.00     0.119 C 
HETATM   23  N5  UNL     1      -0.929 -10.743  15.003  1.00  0.00    -0.336 N 
HETATM   24  C14 UNL     1      -2.574  -9.796  13.758  1.00  0.00     0.123 C 
HETATM   25  C13 UNL     1      -0.405  -9.590  14.373  1.00  0.00     0.316 C 
ATOM     26  H5  UNL     1      -0.395 -11.538  15.353  1.00  0.00     0.164 HD
HETATM   27  O6  UNL     1       0.812  -9.279  14.374  1.00  0.00    -0.247 OA
HETATM   28  N6  UNL     1      -1.496  -8.873  13.756  1.00  0.00    -0.335 N 
ATOM     29  H6  UNL     1      -1.493  -7.918  13.399  1.00  0.00     0.164 HD
ENDBRANCH  18  19
ENDBRANCH  17  18
ENDBRANCH  16  17
ENDBRANCH  15  16
ENDBRANCH  12  15
ENDBRANCH   8  11
ENDBRANCH   7   8
ENDBRANCH   6   7
ENDBRANCH   3   6
BRANCH   2  30
HETATM   30  O1  UNL     1      -3.751   0.865   5.409  1.00  0.00    -0.391 OA
ATOM     31  H1  UNL     1      -4.641   1.056   5.140  1.00  0.00     0.210 HD
ENDBRANCH   2  30
BRANCH   1  32
HETATM   32  N3  UNL     1      -2.813  -0.762   8.437  1.00  0.00    -0.311 N 
ATOM     33  H3  UNL     1      -2.663  -0.604   9.433  1.00  0.00     0.182 HD
BRANCH  32  34
HETATM   34  N2  UNL     1      -2.331  -1.779   7.921  1.00  0.00    -0.253 N 
ATOM     35  H2  UNL     1      -2.076  -1.454   6.988  1.00  0.00     0.207 HD
BRANCH  34  36
HETATM   36  N1  UNL     1      -1.981  -2.972   7.895  1.00  0.00    -0.331 N 
ATOM     37  H12 UNL     1      -2.857  -3.418   8.170  1.00  0.00     0.178 HD
ATOM     38  H11 UNL     1      -1.325  -3.741   7.756  1.00  0.00     0.178 HD
ENDBRANCH  34  36
ENDBRANCH  32  34
ENDBRANCH   1  32
BRANCH   5  39
HETATM   39  N7  UNL     1      -5.031   0.038   9.632  1.00  0.00    -0.298 N 
HETATM   40  C16 UNL     1      -3.984   0.071  10.468  1.00  0.00     0.188 A 
HETATM   41  N8  UNL     1      -4.402  -0.103  11.733  1.00  0.00    -0.346 N 
HETATM   42  C17 UNL     1      -5.748  -0.253  11.721  1.00  0.00     0.119 A 
ATOM     43  H8  UNL     1      -3.807  -0.120  12.562  1.00  0.00     0.167 HD
HETATM   44  C18 UNL     1      -6.709  -0.458  12.690  1.00  0.00     0.148 A 
HETATM   45  C20 UNL     1      -6.116  -0.160  10.397  1.00  0.00     0.142 A 
HETATM   46  N9  UNL     1      -6.288  -0.547  14.043  1.00  0.00    -0.080 NA
HETATM   47  N10 UNL     1      -8.019  -0.569  12.341  1.00  0.00    -0.339 N 
HETATM   48  C19 UNL     1      -8.374  -0.480  11.061  1.00  0.00     0.183 A 
ATOM     49  H10 UNL     1      -8.728  -0.721  13.059  1.00  0.00     0.167 HD
HETATM   50  N11 UNL     1      -7.443  -0.281  10.121  1.00  0.00    -0.336 N 
ATOM     51  H11 UNL     1      -7.743  -0.217   9.148  1.00  0.00     0.168 HD
ENDBRANCH   5  39
TORSDOF 14
ENDMDL
