MODEL 2
REMARK VINA RESULT: -10.711626210      2.673      4.331
REMARK  14 active torsions:
REMARK  status: ('A' for Active; 'I' for Inactive)
REMARK    1  A    between atoms: N1_1  and  N2_4 
REMARK    2  A    between atoms: N2_4  and  N3_6 
REMARK    3  A    between atoms: N3_6  and  C1_8 
REMARK    4  A    between atoms: C2_9  and  O1_10 
REMARK    5  A    between atoms: C3_12  and  C4_13 
REMARK    6  A    between atoms: C4_13  and  O2_14 
REMARK    7  A    between atoms: O2_14  and  S1_15 
REMARK    8  A    between atoms: S1_15  and  N4_18 
REMARK       I    between atoms: N4_18  and  C5_20 
REMARK    9  A    between atoms: C5_20  and  C6_22 
REMARK   10  A    between atoms: C6_22  and  C7_23 
REMARK   11  A    between atoms: C7_23  and  C8_24 
REMARK   12  A    between atoms: C8_24  and  C9_25 
REMARK   13  A    between atoms: C9_25  and  C10_26 
REMARK   14  A    between atoms: C15_38  and  N7_39 
ROOT
HETATM    1  C1  UNL     1      -5.403   0.510   8.214  1.00  0.00     0.181 C 
HETATM    2  C2  UNL     1      -4.359  -0.365   8.871  1.00  0.00     0.177 C 
HETATM    3  C3  UNL     1      -3.749  -1.097   7.719  1.00  0.00     0.180 C 
HETATM    4  O7  UNL     1      -4.544  -0.830   6.605  1.00  0.00    -0.354 OA
HETATM    5  C15 UNL     1      -4.985   0.484   6.766  1.00  0.00     0.257 C 
ENDROOT
BRANCH   3   6
HETATM    6  C4  UNL     1      -3.836  -2.584   7.987  1.00  0.00     0.226 C 
BRANCH   6   7
HETATM    7  O2  UNL     1      -4.572  -3.250   7.033  1.00  0.00    -0.257 OA
BRANCH   7   8
HETATM    8  S1  UNL     1      -3.826  -4.652   6.577  1.00  0.00     0.364 S 
HETATM    9  O3  UNL     1      -2.427  -4.339   6.065  1.00  0.00    -0.175 OA
HETATM   10  O4  UNL     1      -4.572  -5.211   5.378  1.00  0.00    -0.175 OA
BRANCH   8  11
HETATM   11  N4  UNL     1      -3.677  -5.828   7.795  1.00  0.00    -0.231 N 
HETATM   12  C5  UNL     1      -4.788  -6.607   8.281  1.00  0.00     0.232 C 
HETATM   13  O5  UNL     1      -5.898  -6.371   7.749  1.00  0.00    -0.273 OA
ATOM     14  H4  UNL     1      -2.756  -5.989   8.203  1.00  0.00     0.183 HD
BRANCH  12  15
HETATM   15  C6  UNL     1      -4.566  -7.619   9.356  1.00  0.00     0.104 C 
BRANCH  15  16
HETATM   16  C7  UNL     1      -3.896  -7.062  10.554  1.00  0.00     0.009 C 
BRANCH  16  17
HETATM   17  C8  UNL     1      -4.070  -7.707  11.848  1.00  0.00     0.002 C 
BRANCH  17  18
HETATM   18  C9  UNL     1      -4.102  -9.160  12.043  1.00  0.00     0.017 C 
BRANCH  18  19
HETATM   19  C10 UNL     1      -3.886  -9.707  13.414  1.00  0.00     0.072 C 
HETATM   20  S2  UNL     1      -3.740  -8.213  14.535  1.00  0.00    -0.160 SA
HETATM   21  C11 UNL     1      -2.652  -8.988  15.756  1.00  0.00     0.101 C 
HETATM   22  C12 UNL     1      -2.355 -10.316  15.170  1.00  0.00     0.119 C 
HETATM   23  N5  UNL     1      -0.899 -10.478  15.234  1.00  0.00    -0.336 N 
HETATM   24  C14 UNL     1      -2.511 -10.261  13.652  1.00  0.00     0.123 C 
HETATM   25  C13 UNL     1      -0.357  -9.768  14.139  1.00  0.00     0.316 C 
ATOM     26  H5  UNL     1      -0.376 -11.003  15.935  1.00  0.00     0.164 HD
HETATM   27  O6  UNL     1       0.861  -9.485  14.016  1.00  0.00    -0.247 OA
HETATM   28  N6  UNL     1      -1.430  -9.445  13.229  1.00  0.00    -0.335 N 
ATOM     29  H6  UNL     1      -1.415  -8.780  12.456  1.00  0.00     0.164 HD
ENDBRANCH  18  19
ENDBRANCH  17  18
ENDBRANCH  16  17
ENDBRANCH  15  16
ENDBRANCH  12  15
ENDBRANCH   8  11
ENDBRANCH   7   8
ENDBRANCH   6   7
ENDBRANCH   3   6
BRANCH   2  30
HETATM   30  O1  UNL     1      -3.369   0.434   9.452  1.00  0.00    -0.391 OA
ATOM     31  H1  UNL     1      -2.527   0.001   9.386  1.00  0.00     0.210 HD
ENDBRANCH   2  30
BRANCH   1  32
HETATM   32  N3  UNL     1      -6.704  -0.110   8.320  1.00  0.00    -0.311 N 
ATOM     33  H3  UNL     1      -6.855  -1.007   7.858  1.00  0.00     0.182 HD
BRANCH  32  34
HETATM   34  N2  UNL     1      -7.645   0.396   8.947  1.00  0.00    -0.253 N 
ATOM     35  H2  UNL     1      -7.372   0.241   9.918  1.00  0.00     0.207 HD
BRANCH  34  36
HETATM   36  N1  UNL     1      -8.734   0.985   9.064  1.00  0.00    -0.331 N 
ATOM     37  H12 UNL     1      -8.450   1.931   8.807  1.00  0.00     0.178 HD
ATOM     38  H11 UNL     1      -9.730   1.054   9.269  1.00  0.00     0.178 HD
ENDBRANCH  34  36
ENDBRANCH  32  34
ENDBRANCH   1  32
BRANCH   5  39
HETATM   39  N7  UNL     1      -6.097   0.764   5.901  1.00  0.00    -0.298 N 
HETATM   40  C16 UNL     1      -6.654   1.961   5.671  1.00  0.00     0.188 A 
HETATM   41  N8  UNL     1      -7.673   1.834   4.804  1.00  0.00    -0.346 N 
HETATM   42  C17 UNL     1      -7.782   0.528   4.463  1.00  0.00     0.119 A 
ATOM     43  H8  UNL     1      -8.264   2.592   4.461  1.00  0.00     0.167 HD
HETATM   44  C18 UNL     1      -8.618  -0.191   3.633  1.00  0.00     0.148 A 
HETATM   45  C20 UNL     1      -6.786  -0.119   5.161  1.00  0.00     0.142 A 
HETATM   46  N9  UNL     1      -9.632   0.513   2.930  1.00  0.00    -0.080 NA
HETATM   47  N10 UNL     1      -8.463  -1.536   3.503  1.00  0.00    -0.339 N 
HETATM   48  C19 UNL     1      -7.500  -2.160   4.179  1.00  0.00     0.183 A 
ATOM     49  H10 UNL     1      -9.082  -2.065   2.890  1.00  0.00     0.167 HD
HETATM   50  N11 UNL     1      -6.689  -1.464   4.983  1.00  0.00    -0.336 N 
ATOM     51  H11 UNL     1      -5.960  -1.968   5.489  1.00  0.00     0.168 HD
ENDBRANCH   5  39
TORSDOF 14
ENDMDL
