MODEL 5
REMARK VINA RESULT: -10.437543213      3.555      4.792
REMARK  14 active torsions:
REMARK  status: ('A' for Active; 'I' for Inactive)
REMARK    1  A    between atoms: N1_1  and  N2_4 
REMARK    2  A    between atoms: N2_4  and  N3_6 
REMARK    3  A    between atoms: N3_6  and  C1_8 
REMARK    4  A    between atoms: C2_9  and  O1_10 
REMARK    5  A    between atoms: C3_12  and  C4_13 
REMARK    6  A    between atoms: C4_13  and  O2_14 
REMARK    7  A    between atoms: O2_14  and  S1_15 
REMARK    8  A    between atoms: S1_15  and  N4_18 
REMARK       I    between atoms: N4_18  and  C5_20 
REMARK    9  A    between atoms: C5_20  and  C6_22 
REMARK   10  A    between atoms: C6_22  and  C7_23 
REMARK   11  A    between atoms: C7_23  and  C8_24 
REMARK   12  A    between atoms: C8_24  and  C9_25 
REMARK   13  A    between atoms: C9_25  and  C10_26 
REMARK   14  A    between atoms: C15_38  and  N7_39 
ROOT
HETATM    1  C1  UNL     1      -5.331   1.248   4.594  1.00  0.00     0.181 C 
HETATM    2  C2  UNL     1      -4.322   0.219   5.054  1.00  0.00     0.177 C 
HETATM    3  C3  UNL     1      -5.002  -1.081   4.770  1.00  0.00     0.180 C 
HETATM    4  O7  UNL     1      -6.320  -0.781   4.429  1.00  0.00    -0.354 OA
HETATM    5  C15 UNL     1      -6.262   0.429   3.737  1.00  0.00     0.257 C 
ENDROOT
BRANCH   3   6
HETATM    6  C4  UNL     1      -5.042  -1.898   6.043  1.00  0.00     0.226 C 
BRANCH   6   7
HETATM    7  O2  UNL     1      -4.724  -3.220   5.832  1.00  0.00    -0.257 OA
BRANCH   7   8
HETATM    8  S1  UNL     1      -3.487  -3.701   6.817  1.00  0.00     0.364 S 
HETATM    9  O3  UNL     1      -2.747  -2.477   7.334  1.00  0.00    -0.175 OA
HETATM   10  O4  UNL     1      -2.475  -4.449   5.968  1.00  0.00    -0.175 OA
BRANCH   8  11
HETATM   11  N4  UNL     1      -3.948  -4.630   8.164  1.00  0.00    -0.231 N 
HETATM   12  C5  UNL     1      -4.686  -5.864   8.056  1.00  0.00     0.232 C 
HETATM   13  O5  UNL     1      -4.980  -6.228   6.894  1.00  0.00    -0.273 OA
ATOM     14  H4  UNL     1      -3.690  -4.299   9.093  1.00  0.00     0.183 HD
BRANCH  12  15
HETATM   15  C6  UNL     1      -5.050  -6.616   9.294  1.00  0.00     0.104 C 
BRANCH  15  16
HETATM   16  C7  UNL     1      -3.874  -7.128  10.034  1.00  0.00     0.009 C 
BRANCH  16  17
HETATM   17  C8  UNL     1      -4.051  -8.139  11.067  1.00  0.00     0.002 C 
BRANCH  17  18
HETATM   18  C9  UNL     1      -4.097  -7.846  12.503  1.00  0.00     0.017 C 
BRANCH  18  19
HETATM   19  C10 UNL     1      -4.003  -8.977  13.472  1.00  0.00     0.072 C 
HETATM   20  S2  UNL     1      -3.733  -8.184  15.147  1.00  0.00    -0.160 SA
HETATM   21  C11 UNL     1      -2.793  -9.554  15.865  1.00  0.00     0.101 C 
HETATM   22  C12 UNL     1      -2.627 -10.498  14.735  1.00  0.00     0.119 C 
HETATM   23  N5  UNL     1      -1.203 -10.847  14.696  1.00  0.00    -0.336 N 
HETATM   24  C14 UNL     1      -2.712  -9.741  13.410  1.00  0.00     0.123 C 
HETATM   25  C13 UNL     1      -0.537  -9.788  14.035  1.00  0.00     0.316 C 
ATOM     26  H5  UNL     1      -0.774 -11.691  15.073  1.00  0.00     0.164 HD
HETATM   27  O6  UNL     1       0.709  -9.631  14.037  1.00  0.00    -0.247 OA
HETATM   28  N6  UNL     1      -1.527  -8.960  13.388  1.00  0.00    -0.335 N 
ATOM     29  H6  UNL     1      -1.403  -8.024  13.003  1.00  0.00     0.164 HD
ENDBRANCH  18  19
ENDBRANCH  17  18
ENDBRANCH  16  17
ENDBRANCH  15  16
ENDBRANCH  12  15
ENDBRANCH   8  11
ENDBRANCH   7   8
ENDBRANCH   6   7
ENDBRANCH   3   6
BRANCH   2  30
HETATM   30  O1  UNL     1      -3.174   0.293   4.260  1.00  0.00    -0.391 OA
ATOM     31  H1  UNL     1      -2.443   0.604   4.780  1.00  0.00     0.210 HD
ENDBRANCH   2  30
BRANCH   1  32
HETATM   32  N3  UNL     1      -6.079   1.747   5.726  1.00  0.00    -0.311 N 
ATOM     33  H3  UNL     1      -6.607   1.081   6.290  1.00  0.00     0.182 HD
BRANCH  32  34
HETATM   34  N2  UNL     1      -6.108   2.943   6.042  1.00  0.00    -0.253 N 
ATOM     35  H2  UNL     1      -5.407   2.992   6.782  1.00  0.00     0.207 HD
BRANCH  34  36
HETATM   36  N1  UNL     1      -6.507   4.119   5.971  1.00  0.00    -0.331 N 
ATOM     37  H12 UNL     1      -7.445   3.964   5.601  1.00  0.00     0.178 HD
ATOM     38  H11 UNL     1      -6.426   5.131   6.071  1.00  0.00     0.178 HD
ENDBRANCH  34  36
ENDBRANCH  32  34
ENDBRANCH   1  32
BRANCH   5  39
HETATM   39  N7  UNL     1      -7.561   1.039   3.654  1.00  0.00    -0.298 N 
HETATM   40  C16 UNL     1      -7.894   2.124   2.942  1.00  0.00     0.188 A 
HETATM   41  N8  UNL     1      -9.199   2.399   3.110  1.00  0.00    -0.346 N 
HETATM   42  C17 UNL     1      -9.726   1.475   3.948  1.00  0.00     0.119 A 
ATOM     43  H8  UNL     1      -9.706   3.173   2.679  1.00  0.00     0.167 HD
HETATM   44  C18 UNL     1     -10.980   1.248   4.475  1.00  0.00     0.148 A 
HETATM   45  C20 UNL     1      -8.681   0.636   4.273  1.00  0.00     0.142 A 
HETATM   46  N9  UNL     1     -12.029   2.134   4.115  1.00  0.00    -0.080 NA
HETATM   47  N10 UNL     1     -11.189   0.199   5.315  1.00  0.00    -0.339 N 
HETATM   48  C19 UNL     1     -10.180  -0.611   5.629  1.00  0.00     0.183 A 
ATOM     49  H10 UNL     1     -12.118   0.033   5.704  1.00  0.00     0.167 HD
HETATM   50  N11 UNL     1      -8.963  -0.391   5.118  1.00  0.00    -0.336 N 
ATOM     51  H11 UNL     1      -8.208  -1.027   5.376  1.00  0.00     0.168 HD
ENDBRANCH   5  39
TORSDOF 14
ENDMDL
