MODEL 4
REMARK VINA RESULT: -10.537421678      2.845      4.911
REMARK  14 active torsions:
REMARK  status: ('A' for Active; 'I' for Inactive)
REMARK    1  A    between atoms: N1_1  and  N2_4 
REMARK    2  A    between atoms: N2_4  and  N3_6 
REMARK    3  A    between atoms: N3_6  and  C1_8 
REMARK    4  A    between atoms: C2_9  and  O1_10 
REMARK    5  A    between atoms: C3_12  and  C4_13 
REMARK    6  A    between atoms: C4_13  and  O2_14 
REMARK    7  A    between atoms: O2_14  and  S1_15 
REMARK    8  A    between atoms: S1_15  and  N4_18 
REMARK       I    between atoms: N4_18  and  C5_20 
REMARK    9  A    between atoms: C5_20  and  C6_22 
REMARK   10  A    between atoms: C6_22  and  C7_23 
REMARK   11  A    between atoms: C7_23  and  C8_24 
REMARK   12  A    between atoms: C8_24  and  C9_25 
REMARK   13  A    between atoms: C9_25  and  C10_26 
REMARK   14  A    between atoms: C15_38  and  N7_39 
ROOT
HETATM    1  C1  UNL     1      -5.573   0.875   6.516  1.00  0.00     0.181 C 
HETATM    2  C2  UNL     1      -4.652   0.541   7.669  1.00  0.00     0.177 C 
HETATM    3  C3  UNL     1      -3.796  -0.555   7.121  1.00  0.00     0.180 C 
HETATM    4  O7  UNL     1      -4.358  -0.933   5.902  1.00  0.00    -0.354 OA
HETATM    5  C15 UNL     1      -4.869   0.239   5.345  1.00  0.00     0.257 C 
ENDROOT
BRANCH   3   6
HETATM    6  C4  UNL     1      -3.883  -1.749   8.046  1.00  0.00     0.226 C 
BRANCH   6   7
HETATM    7  O2  UNL     1      -4.587  -2.794   7.493  1.00  0.00    -0.257 OA
BRANCH   7   8
HETATM    8  S1  UNL     1      -3.586  -4.057   7.123  1.00  0.00     0.364 S 
HETATM    9  O3  UNL     1      -2.143  -3.574   7.116  1.00  0.00    -0.175 OA
HETATM   10  O4  UNL     1      -3.872  -4.477   5.691  1.00  0.00    -0.175 OA
BRANCH   8  11
HETATM   11  N4  UNL     1      -3.678  -5.391   8.172  1.00  0.00    -0.231 N 
HETATM   12  C5  UNL     1      -4.742  -6.362   8.123  1.00  0.00     0.232 C 
HETATM   13  O5  UNL     1      -5.619  -6.171   7.248  1.00  0.00    -0.273 OA
ATOM     14  H4  UNL     1      -2.944  -5.510   8.870  1.00  0.00     0.183 HD
BRANCH  12  15
HETATM   15  C6  UNL     1      -4.744  -7.504   9.085  1.00  0.00     0.104 C 
BRANCH  15  16
HETATM   16  C7  UNL     1      -4.131  -7.169  10.391  1.00  0.00     0.009 C 
BRANCH  16  17
HETATM   17  C8  UNL     1      -3.960  -8.206  11.400  1.00  0.00     0.002 C 
BRANCH  17  18
HETATM   18  C9  UNL     1      -4.154  -7.993  12.837  1.00  0.00     0.017 C 
BRANCH  18  19
HETATM   19  C10 UNL     1      -3.968  -9.145  13.767  1.00  0.00     0.072 C 
HETATM   20  S2  UNL     1      -3.793  -8.393  15.473  1.00  0.00    -0.160 SA
HETATM   21  C11 UNL     1      -2.739  -9.696  16.157  1.00  0.00     0.101 C 
HETATM   22  C12 UNL     1      -2.473 -10.578  14.996  1.00  0.00     0.119 C 
HETATM   23  N5  UNL     1      -1.022 -10.793  14.967  1.00  0.00    -0.336 N 
HETATM   24  C14 UNL     1      -2.611  -9.785  13.698  1.00  0.00     0.123 C 
HETATM   25  C13 UNL     1      -0.449  -9.655  14.355  1.00  0.00     0.316 C 
ATOM     26  H5  UNL     1      -0.522 -11.608  15.321  1.00  0.00     0.164 HD
HETATM   27  O6  UNL     1       0.777  -9.384  14.382  1.00  0.00    -0.247 OA
HETATM   28  N6  UNL     1      -1.504  -8.898  13.723  1.00  0.00    -0.335 N 
ATOM     29  H6  UNL     1      -1.462  -7.941  13.373  1.00  0.00     0.164 HD
ENDBRANCH  18  19
ENDBRANCH  17  18
ENDBRANCH  16  17
ENDBRANCH  15  16
ENDBRANCH  12  15
ENDBRANCH   8  11
ENDBRANCH   7   8
ENDBRANCH   6   7
ENDBRANCH   3   6
BRANCH   2  30
HETATM   30  O1  UNL     1      -3.830   1.636   7.951  1.00  0.00    -0.391 OA
ATOM     31  H1  UNL     1      -2.970   1.333   8.213  1.00  0.00     0.210 HD
ENDBRANCH   2  30
BRANCH   1  32
HETATM   32  N3  UNL     1      -6.845   0.213   6.693  1.00  0.00    -0.311 N 
ATOM     33  H3  UNL     1      -6.966  -0.721   6.301  1.00  0.00     0.182 HD
BRANCH  32  34
HETATM   34  N2  UNL     1      -7.795   0.726   7.299  1.00  0.00    -0.253 N 
ATOM     35  H2  UNL     1      -8.216   1.322   6.586  1.00  0.00     0.207 HD
BRANCH  34  36
HETATM   36  N1  UNL     1      -8.527   0.927   8.284  1.00  0.00    -0.331 N 
ATOM     37  H12 UNL     1      -7.928   0.566   9.026  1.00  0.00     0.178 HD
ATOM     38  H11 UNL     1      -9.373   1.244   8.758  1.00  0.00     0.178 HD
ENDBRANCH  34  36
ENDBRANCH  32  34
ENDBRANCH   1  32
BRANCH   5  39
HETATM   39  N7  UNL     1      -5.792  -0.054   4.283  1.00  0.00    -0.298 N 
HETATM   40  C16 UNL     1      -6.387   0.829   3.470  1.00  0.00     0.188 A 
HETATM   41  N8  UNL     1      -7.185   0.185   2.600  1.00  0.00    -0.346 N 
HETATM   42  C17 UNL     1      -7.107  -1.143   2.852  1.00  0.00     0.119 A 
ATOM     43  H8  UNL     1      -7.753   0.623   1.874  1.00  0.00     0.167 HD
HETATM   44  C18 UNL     1      -7.684  -2.269   2.302  1.00  0.00     0.148 A 
HETATM   45  C20 UNL     1      -6.231  -1.266   3.908  1.00  0.00     0.142 A 
HETATM   46  N9  UNL     1      -8.582  -2.100   1.215  1.00  0.00    -0.080 NA
HETATM   47  N10 UNL     1      -7.390  -3.500   2.799  1.00  0.00    -0.339 N 
HETATM   48  C19 UNL     1      -6.544  -3.619   3.819  1.00  0.00     0.183 A 
ATOM     49  H10 UNL     1      -7.818  -4.332   2.391  1.00  0.00     0.167 HD
HETATM   50  N11 UNL     1      -5.983  -2.527   4.354  1.00  0.00    -0.336 N 
ATOM     51  H11 UNL     1      -5.338  -2.647   5.135  1.00  0.00     0.168 HD
ENDBRANCH   5  39
TORSDOF 14
ENDMDL
