MODEL 2
REMARK VINA RESULT: -11.879620207      0.999      1.164
REMARK  11 active torsions:
REMARK  status: ('A' for Active; 'I' for Inactive)
REMARK    1  A    between atoms: N5_13  and  C6_14 
REMARK    2  A    between atoms: C7_16  and  C8_17 
REMARK    3  A    between atoms: C8_17  and  N6_18 
REMARK    4  A    between atoms: N6_18  and  S1_20 
REMARK    5  A    between atoms: S1_20  and  N7_23 
REMARK       I    between atoms: N7_23  and  C9_25 
REMARK    6  A    between atoms: C9_25  and  C10_27 
REMARK    7  A    between atoms: C10_27  and  C11_28 
REMARK    8  A    between atoms: C11_28  and  C12_29 
REMARK    9  A    between atoms: C12_29  and  C13_30 
REMARK   10  A    between atoms: C13_30  and  C14_31 
REMARK   11  A    between atoms: C19_42  and  O6_43 
ROOT
HETATM    1  N6  UNL     1      -4.211  -3.585   7.077  1.00  0.00    -0.300 N 
ATOM      2  H6  UNL     1      -4.512  -3.500   8.048  1.00  0.00     0.173 HD
ENDROOT
BRANCH   1   3
HETATM    3  C8  UNL     1      -3.888  -2.480   6.188  1.00  0.00     0.168 C 
BRANCH   3   4
HETATM    4  C7  UNL     1      -5.144  -1.674   5.965  1.00  0.00     0.174 C 
HETATM    5  O1  UNL     1      -5.965  -1.614   7.050  1.00  0.00    -0.354 OA
HETATM    6  C6  UNL     1      -6.028  -0.358   7.567  1.00  0.00     0.267 C 
HETATM    7  C20 UNL     1      -5.381   0.589   6.598  1.00  0.00     0.250 C 
HETATM    8  C19 UNL     1      -4.880  -0.293   5.492  1.00  0.00     0.187 C 
HETATM    9  F1  UNL     1      -6.260   1.531   6.118  1.00  0.00    -0.242 F 
BRANCH   6  10
HETATM   10  N5  UNL     1      -5.416  -0.273   8.875  1.00  0.00    -0.297 N 
HETATM   11  C3  UNL     1      -6.065  -0.301  10.048  1.00  0.00     0.142 A 
HETATM   12  N3  UNL     1      -7.367  -0.413  10.316  1.00  0.00    -0.336 N 
HETATM   13  C4  UNL     1      -5.096  -0.183  11.023  1.00  0.00     0.119 A 
HETATM   14  C2  UNL     1      -7.733  -0.409  11.625  1.00  0.00     0.183 A 
ATOM     15  H3  UNL     1      -8.059  -0.499   9.570  1.00  0.00     0.168 HD
HETATM   16  N2  UNL     1      -6.819  -0.296  12.609  1.00  0.00    -0.339 N 
HETATM   17  C1  UNL     1      -5.520  -0.184  12.323  1.00  0.00     0.148 A 
ATOM     18  H2  UNL     1      -7.122  -0.297  13.583  1.00  0.00     0.167 HD
HETATM   19  N1  UNL     1      -4.581  -0.060  13.382  1.00  0.00    -0.080 NA
HETATM   20  N4  UNL     1      -3.896  -0.088  10.422  1.00  0.00    -0.346 N 
HETATM   21  C5  UNL     1      -4.101  -0.143   9.102  1.00  0.00     0.188 A 
ATOM     22  H4  UNL     1      -2.994   0.010  10.889  1.00  0.00     0.167 HD
ENDBRANCH   6  10
BRANCH   8  23
HETATM   23  O6  UNL     1      -5.623   0.004   4.341  1.00  0.00    -0.390 OA
ATOM     24  H6  UNL     1      -5.570   0.927   4.123  1.00  0.00     0.210 HD
ENDBRANCH   8  23
ENDBRANCH   3   4
ENDBRANCH   1   3
BRANCH   1  25
HETATM   25  S1  UNL     1      -3.996  -5.070   6.209  1.00  0.00     0.321 S 
HETATM   26  O2  UNL     1      -5.292  -5.421   5.545  1.00  0.00    -0.182 OA
HETATM   27  O3  UNL     1      -2.940  -4.902   5.187  1.00  0.00    -0.182 OA
BRANCH  25  28
HETATM   28  N7  UNL     1      -3.659  -6.358   7.335  1.00  0.00    -0.237 N 
HETATM   29  C9  UNL     1      -4.393  -6.466   8.547  1.00  0.00     0.232 C 
HETATM   30  O4  UNL     1      -5.293  -5.566   8.714  1.00  0.00    -0.273 OA
ATOM     31  H7  UNL     1      -2.929  -7.037   7.122  1.00  0.00     0.183 HD
BRANCH  29  32
HETATM   32  C10 UNL     1      -4.173  -7.513   9.563  1.00  0.00     0.104 C 
BRANCH  32  33
HETATM   33  C11 UNL     1      -3.579  -6.941  10.837  1.00  0.00     0.009 C 
BRANCH  33  34
HETATM   34  C12 UNL     1      -4.166  -7.641  12.056  1.00  0.00     0.002 C 
BRANCH  34  35
HETATM   35  C13 UNL     1      -3.827  -9.125  11.996  1.00  0.00     0.017 C 
BRANCH  35  36
HETATM   36  C14 UNL     1      -3.672  -9.637  13.374  1.00  0.00     0.072 C 
HETATM   37  S2  UNL     1      -3.689  -8.350  14.649  1.00  0.00    -0.160 SA
HETATM   38  C15 UNL     1      -2.281  -8.957  15.654  1.00  0.00     0.101 C 
HETATM   39  C16 UNL     1      -2.064 -10.338  15.074  1.00  0.00     0.119 C 
HETATM   40  N8  UNL     1      -0.631 -10.570  15.100  1.00  0.00    -0.336 N 
HETATM   41  C18 UNL     1      -2.327 -10.263  13.610  1.00  0.00     0.123 C 
HETATM   42  C17 UNL     1      -0.121  -9.814  14.009  1.00  0.00     0.316 C 
ATOM     43  H8  UNL     1      -0.105 -11.148  15.756  1.00  0.00     0.164 HD
HETATM   44  O5  UNL     1       1.077  -9.508  13.839  1.00  0.00    -0.247 OA
HETATM   45  N9  UNL     1      -1.218  -9.463  13.138  1.00  0.00    -0.335 N 
ATOM     46  H9  UNL     1      -1.212  -8.799  12.363  1.00  0.00     0.164 HD
ENDBRANCH  35  36
ENDBRANCH  34  35
ENDBRANCH  33  34
ENDBRANCH  32  33
ENDBRANCH  29  32
ENDBRANCH  25  28
ENDBRANCH   1  25
TORSDOF 11
ENDMDL
