MODEL 3
REMARK VINA RESULT: -11.731272263      1.894      2.373
REMARK  11 active torsions:
REMARK  status: ('A' for Active; 'I' for Inactive)
REMARK    1  A    between atoms: N5_13  and  C6_14 
REMARK    2  A    between atoms: C7_16  and  C8_17 
REMARK    3  A    between atoms: C8_17  and  N6_18 
REMARK    4  A    between atoms: N6_18  and  S1_20 
REMARK    5  A    between atoms: S1_20  and  N7_23 
REMARK       I    between atoms: N7_23  and  C9_25 
REMARK    6  A    between atoms: C9_25  and  C10_27 
REMARK    7  A    between atoms: C10_27  and  C11_28 
REMARK    8  A    between atoms: C11_28  and  C12_29 
REMARK    9  A    between atoms: C12_29  and  C13_30 
REMARK   10  A    between atoms: C13_30  and  C14_31 
REMARK   11  A    between atoms: C19_42  and  O6_43 
ROOT
HETATM    1  N6  UNL     1      -4.210  -2.641   6.390  1.00  0.00    -0.300 N 
ATOM      2  H6  UNL     1      -4.516  -2.167   5.540  1.00  0.00     0.173 HD
ENDROOT
BRANCH   1   3
HETATM    3  C8  UNL     1      -4.149  -2.050   7.716  1.00  0.00     0.168 C 
BRANCH   3   4
HETATM    4  C7  UNL     1      -3.605  -0.648   7.583  1.00  0.00     0.174 C 
HETATM    5  O1  UNL     1      -4.327   0.292   8.255  1.00  0.00    -0.354 OA
HETATM    6  C6  UNL     1      -3.628   0.817   9.296  1.00  0.00     0.267 C 
HETATM    7  C20 UNL     1      -2.198   0.372   9.182  1.00  0.00     0.250 C 
HETATM    8  C19 UNL     1      -2.182  -0.528   7.981  1.00  0.00     0.187 C 
HETATM    9  F1  UNL     1      -1.331   1.428   9.019  1.00  0.00    -0.242 F 
BRANCH   6  10
HETATM   10  N5  UNL     1      -4.193   0.450  10.576  1.00  0.00    -0.297 N 
HETATM   11  C3  UNL     1      -5.474   0.132  10.806  1.00  0.00     0.142 A 
HETATM   12  N3  UNL     1      -6.515   0.066   9.972  1.00  0.00    -0.336 N 
HETATM   13  C4  UNL     1      -5.565  -0.137  12.157  1.00  0.00     0.119 A 
HETATM   14  C2  UNL     1      -7.714  -0.288  10.505  1.00  0.00     0.183 A 
ATOM     15  H3  UNL     1      -6.414   0.272   8.978  1.00  0.00     0.168 HD
HETATM   16  N2  UNL     1      -7.846  -0.560  11.819  1.00  0.00    -0.339 N 
HETATM   17  C1  UNL     1      -6.795  -0.487  12.639  1.00  0.00     0.148 A 
ATOM     18  H2  UNL     1      -8.759  -0.824  12.191  1.00  0.00     0.167 HD
HETATM   19  N1  UNL     1      -6.967  -0.773  14.020  1.00  0.00    -0.080 NA
HETATM   20  N4  UNL     1      -4.346   0.023  12.705  1.00  0.00    -0.346 N 
HETATM   21  C5  UNL     1      -3.509   0.383  11.728  1.00  0.00     0.188 A 
ATOM     22  H4  UNL     1      -4.106  -0.108  13.688  1.00  0.00     0.167 HD
ENDBRANCH   6  10
BRANCH   8  23
HETATM   23  O6  UNL     1      -1.424   0.104   6.985  1.00  0.00    -0.390 OA
ATOM     24  H6  UNL     1      -1.184  -0.503   6.295  1.00  0.00     0.210 HD
ENDBRANCH   8  23
ENDBRANCH   3   4
ENDBRANCH   1   3
BRANCH   1  25
HETATM   25  S1  UNL     1      -3.674  -4.286   6.495  1.00  0.00     0.321 S 
HETATM   26  O2  UNL     1      -4.381  -5.082   5.442  1.00  0.00    -0.182 OA
HETATM   27  O3  UNL     1      -2.213  -4.350   6.274  1.00  0.00    -0.182 OA
BRANCH  25  28
HETATM   28  N7  UNL     1      -4.162  -4.959   8.028  1.00  0.00    -0.237 N 
HETATM   29  C9  UNL     1      -4.142  -6.364   8.237  1.00  0.00     0.232 C 
HETATM   30  O4  UNL     1      -3.739  -7.053   7.232  1.00  0.00    -0.273 OA
ATOM     31  H7  UNL     1      -4.465  -4.339   8.779  1.00  0.00     0.183 HD
BRANCH  29  32
HETATM   32  C10 UNL     1      -4.545  -7.025   9.493  1.00  0.00     0.104 C 
BRANCH  32  33
HETATM   33  C11 UNL     1      -3.455  -6.938  10.546  1.00  0.00     0.009 C 
BRANCH  33  34
HETATM   34  C12 UNL     1      -3.943  -7.527  11.863  1.00  0.00     0.002 C 
BRANCH  34  35
HETATM   35  C13 UNL     1      -3.743  -9.037  11.844  1.00  0.00     0.017 C 
BRANCH  35  36
HETATM   36  C14 UNL     1      -3.675  -9.530  13.236  1.00  0.00     0.072 C 
HETATM   37  S2  UNL     1      -3.723  -8.221  14.488  1.00  0.00    -0.160 SA
HETATM   38  C15 UNL     1      -2.388  -8.848  15.576  1.00  0.00     0.101 C 
HETATM   39  C16 UNL     1      -2.179 -10.246  15.030  1.00  0.00     0.119 C 
HETATM   40  N8  UNL     1      -0.757 -10.516  15.136  1.00  0.00    -0.336 N 
HETATM   41  C18 UNL     1      -2.362 -10.188  13.553  1.00  0.00     0.123 C 
HETATM   42  C17 UNL     1      -0.169  -9.792  14.063  1.00  0.00     0.316 C 
ATOM     43  H8  UNL     1      -0.283 -11.096  15.828  1.00  0.00     0.164 HD
HETATM   44  O5  UNL     1       1.044  -9.522  13.952  1.00  0.00    -0.247 OA
HETATM   45  N9  UNL     1      -1.208  -9.426  13.129  1.00  0.00    -0.335 N 
ATOM     46  H9  UNL     1      -1.142  -8.777  12.345  1.00  0.00     0.164 HD
ENDBRANCH  35  36
ENDBRANCH  34  35
ENDBRANCH  33  34
ENDBRANCH  32  33
ENDBRANCH  29  32
ENDBRANCH  25  28
ENDBRANCH   1  25
TORSDOF 11
ENDMDL
