MODEL 8
REMARK VINA RESULT: -11.007842960      2.588      4.477
REMARK  11 active torsions:
REMARK  status: ('A' for Active; 'I' for Inactive)
REMARK    1  A    between atoms: N5_13  and  C6_14 
REMARK    2  A    between atoms: C7_16  and  C8_17 
REMARK    3  A    between atoms: C8_17  and  N6_18 
REMARK    4  A    between atoms: N6_18  and  S1_20 
REMARK    5  A    between atoms: S1_20  and  N7_23 
REMARK       I    between atoms: N7_23  and  C9_25 
REMARK    6  A    between atoms: C9_25  and  C10_27 
REMARK    7  A    between atoms: C10_27  and  C11_28 
REMARK    8  A    between atoms: C11_28  and  C12_29 
REMARK    9  A    between atoms: C12_29  and  C13_30 
REMARK   10  A    between atoms: C13_30  and  C14_31 
REMARK   11  A    between atoms: C19_42  and  O6_43 
ROOT
HETATM    1  N6  UNL     1      -2.926  -2.134   7.136  1.00  0.00    -0.300 N 
ATOM      2  H6  UNL     1      -2.188  -1.883   7.794  1.00  0.00     0.173 HD
ENDROOT
BRANCH   1   3
HETATM    3  C8  UNL     1      -3.785  -1.199   6.427  1.00  0.00     0.168 C 
BRANCH   3   4
HETATM    4  C7  UNL     1      -4.399  -0.263   7.439  1.00  0.00     0.174 C 
HETATM    5  O1  UNL     1      -5.105   0.763   6.886  1.00  0.00    -0.354 OA
HETATM    6  C6  UNL     1      -6.436   0.655   7.143  1.00  0.00     0.267 C 
HETATM    7  C20 UNL     1      -6.637  -0.414   8.178  1.00  0.00     0.250 C 
HETATM    8  C19 UNL     1      -5.259  -0.951   8.431  1.00  0.00     0.187 C 
HETATM    9  F1  UNL     1      -7.197   0.073   9.335  1.00  0.00    -0.242 F 
BRANCH   6  10
HETATM   10  N5  UNL     1      -7.204   0.383   5.948  1.00  0.00    -0.297 N 
HETATM   11  C3  UNL     1      -7.388   1.227   4.923  1.00  0.00     0.142 A 
HETATM   12  N3  UNL     1      -6.937   2.469   4.732  1.00  0.00    -0.336 N 
HETATM   13  C4  UNL     1      -8.186   0.561   4.017  1.00  0.00     0.119 A 
HETATM   14  C2  UNL     1      -7.297   3.088   3.576  1.00  0.00     0.183 A 
ATOM     15  H3  UNL     1      -6.349   2.935   5.424  1.00  0.00     0.168 HD
HETATM   16  N2  UNL     1      -8.074   2.472   2.663  1.00  0.00    -0.339 N 
HETATM   17  C1  UNL     1      -8.517   1.230   2.871  1.00  0.00     0.148 A 
ATOM     18  H2  UNL     1      -8.328   2.960   1.804  1.00  0.00     0.167 HD
HETATM   19  N1  UNL     1      -9.340   0.610   1.894  1.00  0.00    -0.080 NA
HETATM   20  N4  UNL     1      -8.462  -0.660   4.510  1.00  0.00    -0.346 N 
HETATM   21  C5  UNL     1      -7.857  -0.762   5.697  1.00  0.00     0.188 A 
ATOM     22  H4  UNL     1      -9.032  -1.377   4.060  1.00  0.00     0.167 HD
ENDBRANCH   6  10
BRANCH   8  23
HETATM   23  O6  UNL     1      -4.902  -0.606   9.743  1.00  0.00    -0.390 OA
ATOM     24  H6  UNL     1      -5.348   0.183  10.027  1.00  0.00     0.210 HD
ENDBRANCH   8  23
ENDBRANCH   3   4
ENDBRANCH   1   3
BRANCH   1  25
HETATM   25  S1  UNL     1      -3.368  -3.745   6.676  1.00  0.00     0.321 S 
HETATM   26  O2  UNL     1      -4.612  -3.675   5.844  1.00  0.00    -0.182 OA
HETATM   27  O3  UNL     1      -2.274  -4.357   5.890  1.00  0.00    -0.182 OA
BRANCH  25  28
HETATM   28  N7  UNL     1      -3.782  -4.663   8.100  1.00  0.00    -0.237 N 
HETATM   29  C9  UNL     1      -4.116  -6.040   7.997  1.00  0.00     0.232 C 
HETATM   30  O4  UNL     1      -4.076  -6.517   6.806  1.00  0.00    -0.273 OA
ATOM     31  H7  UNL     1      -3.784  -4.208   9.012  1.00  0.00     0.183 HD
BRANCH  29  32
HETATM   32  C10 UNL     1      -4.488  -6.895   9.141  1.00  0.00     0.104 C 
BRANCH  32  33
HETATM   33  C11 UNL     1      -3.435  -6.857  10.233  1.00  0.00     0.009 C 
BRANCH  33  34
HETATM   34  C12 UNL     1      -3.975  -7.484  11.512  1.00  0.00     0.002 C 
BRANCH  34  35
HETATM   35  C13 UNL     1      -3.569  -8.951  11.563  1.00  0.00     0.017 C 
BRANCH  35  36
HETATM   36  C14 UNL     1      -3.674  -9.431  12.957  1.00  0.00     0.072 C 
HETATM   37  S2  UNL     1      -3.934  -8.114  14.174  1.00  0.00    -0.160 SA
HETATM   38  C15 UNL     1      -2.739  -8.687  15.440  1.00  0.00     0.101 C 
HETATM   39  C16 UNL     1      -2.412 -10.080  14.946  1.00  0.00     0.119 C 
HETATM   40  N8  UNL     1      -1.009 -10.301  15.246  1.00  0.00    -0.336 N 
HETATM   41  C18 UNL     1      -2.396 -10.041  13.457  1.00  0.00     0.123 C 
HETATM   42  C17 UNL     1      -0.305  -9.566  14.253  1.00  0.00     0.316 C 
ATOM     43  H8  UNL     1      -0.615 -10.859  16.003  1.00  0.00     0.164 HD
HETATM   44  O5  UNL     1       0.902  -9.255  14.304  1.00  0.00    -0.247 OA
HETATM   45  N9  UNL     1      -1.220  -9.244  13.182  1.00  0.00    -0.335 N 
ATOM     46  H9  UNL     1      -1.070  -8.598  12.407  1.00  0.00     0.164 HD
ENDBRANCH  35  36
ENDBRANCH  34  35
ENDBRANCH  33  34
ENDBRANCH  32  33
ENDBRANCH  29  32
ENDBRANCH  25  28
ENDBRANCH   1  25
TORSDOF 11
ENDMDL
