MODEL 6
REMARK VINA RESULT: -11.112282769      2.456      4.579
REMARK  11 active torsions:
REMARK  status: ('A' for Active; 'I' for Inactive)
REMARK    1  A    between atoms: N5_13  and  C6_14 
REMARK    2  A    between atoms: C7_16  and  C8_17 
REMARK    3  A    between atoms: C8_17  and  N6_18 
REMARK    4  A    between atoms: N6_18  and  S1_20 
REMARK    5  A    between atoms: S1_20  and  N7_23 
REMARK       I    between atoms: N7_23  and  C9_25 
REMARK    6  A    between atoms: C9_25  and  C10_27 
REMARK    7  A    between atoms: C10_27  and  C11_28 
REMARK    8  A    between atoms: C11_28  and  C12_29 
REMARK    9  A    between atoms: C12_29  and  C13_30 
REMARK   10  A    between atoms: C13_30  and  C14_31 
REMARK   11  A    between atoms: C19_42  and  O6_43 
ROOT
HETATM    1  N6  UNL     1      -2.872  -2.113   7.404  1.00  0.00    -0.300 N 
ATOM      2  H6  UNL     1      -2.366  -1.918   8.268  1.00  0.00     0.173 HD
ENDROOT
BRANCH   1   3
HETATM    3  C8  UNL     1      -3.334  -1.120   6.448  1.00  0.00     0.168 C 
BRANCH   3   4
HETATM    4  C7  UNL     1      -4.127  -0.077   7.197  1.00  0.00     0.174 C 
HETATM    5  O1  UNL     1      -4.995   0.625   6.417  1.00  0.00    -0.354 OA
HETATM    6  C6  UNL     1      -6.289   0.352   6.731  1.00  0.00     0.267 C 
HETATM    7  C20 UNL     1      -6.315  -0.428   8.015  1.00  0.00     0.250 C 
HETATM    8  C19 UNL     1      -4.867  -0.624   8.359  1.00  0.00     0.187 C 
HETATM    9  F1  UNL     1      -6.976   0.238   9.020  1.00  0.00    -0.242 F 
BRANCH   6  10
HETATM   10  N5  UNL     1      -6.973  -0.357   5.671  1.00  0.00    -0.297 N 
HETATM   11  C3  UNL     1      -6.551  -0.471   4.404  1.00  0.00     0.142 A 
HETATM   12  N3  UNL     1      -5.454   0.003   3.809  1.00  0.00    -0.336 N 
HETATM   13  C4  UNL     1      -7.510  -1.215   3.747  1.00  0.00     0.119 A 
HETATM   14  C2  UNL     1      -5.295  -0.277   2.488  1.00  0.00     0.183 A 
ATOM     15  H3  UNL     1      -4.764   0.551   4.324  1.00  0.00     0.168 HD
HETATM   16  N2  UNL     1      -6.207  -1.001   1.810  1.00  0.00    -0.339 N 
HETATM   17  C1  UNL     1      -7.300  -1.466   2.420  1.00  0.00     0.148 A 
ATOM     18  H2  UNL     1      -6.061  -1.196   0.819  1.00  0.00     0.167 HD
HETATM   19  N1  UNL     1      -8.246  -2.221   1.676  1.00  0.00    -0.080 NA
HETATM   20  N4  UNL     1      -8.479  -1.531   4.626  1.00  0.00    -0.346 N 
HETATM   21  C5  UNL     1      -8.142  -1.001   5.805  1.00  0.00     0.188 A 
ATOM     22  H4  UNL     1      -9.317  -2.077   4.427  1.00  0.00     0.167 HD
ENDBRANCH   6  10
BRANCH   8  23
HETATM   23  O6  UNL     1      -4.604   0.111   9.525  1.00  0.00    -0.390 OA
ATOM     24  H6  UNL     1      -3.724  -0.050   9.844  1.00  0.00     0.210 HD
ENDBRANCH   8  23
ENDBRANCH   3   4
ENDBRANCH   1   3
BRANCH   1  25
HETATM   25  S1  UNL     1      -3.329  -3.684   6.830  1.00  0.00     0.321 S 
HETATM   26  O2  UNL     1      -4.551  -3.539   5.976  1.00  0.00    -0.182 OA
HETATM   27  O3  UNL     1      -2.226  -4.262   6.030  1.00  0.00    -0.182 OA
BRANCH  25  28
HETATM   28  N7  UNL     1      -3.791  -4.685   8.181  1.00  0.00    -0.237 N 
HETATM   29  C9  UNL     1      -4.095  -6.059   7.988  1.00  0.00     0.232 C 
HETATM   30  O4  UNL     1      -3.992  -6.469   6.777  1.00  0.00    -0.273 OA
ATOM     31  H7  UNL     1      -3.843  -4.281   9.116  1.00  0.00     0.183 HD
BRANCH  29  32
HETATM   32  C10 UNL     1      -4.503  -6.980   9.066  1.00  0.00     0.104 C 
BRANCH  32  33
HETATM   33  C11 UNL     1      -3.649  -6.803  10.307  1.00  0.00     0.009 C 
BRANCH  33  34
HETATM   34  C12 UNL     1      -4.198  -7.643  11.453  1.00  0.00     0.002 C 
BRANCH  34  35
HETATM   35  C13 UNL     1      -3.385  -8.925  11.573  1.00  0.00     0.017 C 
BRANCH  35  36
HETATM   36  C14 UNL     1      -3.533  -9.462  12.942  1.00  0.00     0.072 C 
HETATM   37  S2  UNL     1      -3.915  -8.206  14.192  1.00  0.00    -0.160 SA
HETATM   38  C15 UNL     1      -2.755  -8.772  15.494  1.00  0.00     0.101 C 
HETATM   39  C16 UNL     1      -2.339 -10.129  14.966  1.00  0.00     0.119 C 
HETATM   40  N8  UNL     1      -0.943 -10.295  15.328  1.00  0.00    -0.336 N 
HETATM   41  C18 UNL     1      -2.252 -10.031  13.482  1.00  0.00     0.123 C 
HETATM   42  C17 UNL     1      -0.228  -9.491  14.398  1.00  0.00     0.316 C 
ATOM     43  H8  UNL     1      -0.558 -10.864  16.082  1.00  0.00     0.164 HD
HETATM   44  O5  UNL     1       0.959  -9.127  14.520  1.00  0.00    -0.247 OA
HETATM   45  N9  UNL     1      -1.104  -9.170  13.296  1.00  0.00    -0.335 N 
ATOM     46  H9  UNL     1      -0.949  -8.489  12.553  1.00  0.00     0.164 HD
ENDBRANCH  35  36
ENDBRANCH  34  35
ENDBRANCH  33  34
ENDBRANCH  32  33
ENDBRANCH  29  32
ENDBRANCH  25  28
ENDBRANCH   1  25
TORSDOF 11
ENDMDL
