MODEL 16
REMARK VINA RESULT: -10.590176563      1.722      2.519
REMARK  11 active torsions:
REMARK  status: ('A' for Active; 'I' for Inactive)
REMARK    1  A    between atoms: N5_13  and  C6_14 
REMARK    2  A    between atoms: C7_16  and  C8_17 
REMARK    3  A    between atoms: C8_17  and  N6_18 
REMARK    4  A    between atoms: N6_18  and  S1_20 
REMARK    5  A    between atoms: S1_20  and  N7_23 
REMARK       I    between atoms: N7_23  and  C9_25 
REMARK    6  A    between atoms: C9_25  and  C10_27 
REMARK    7  A    between atoms: C10_27  and  C11_28 
REMARK    8  A    between atoms: C11_28  and  C12_29 
REMARK    9  A    between atoms: C12_29  and  C13_30 
REMARK   10  A    between atoms: C13_30  and  C14_31 
REMARK   11  A    between atoms: C19_42  and  O6_43 
ROOT
HETATM    1  N6  UNL     1      -4.058  -2.909   6.461  1.00  0.00    -0.300 N 
ATOM      2  H6  UNL     1      -4.769  -2.302   6.053  1.00  0.00     0.173 HD
ENDROOT
BRANCH   1   3
HETATM    3  C8  UNL     1      -2.909  -2.469   7.235  1.00  0.00     0.168 C 
BRANCH   3   4
HETATM    4  C7  UNL     1      -2.687  -1.002   6.957  1.00  0.00     0.174 C 
HETATM    5  O1  UNL     1      -3.834  -0.269   6.903  1.00  0.00    -0.354 OA
HETATM    6  C6  UNL     1      -3.923   0.606   7.940  1.00  0.00     0.267 C 
HETATM    7  C20 UNL     1      -2.595   0.652   8.640  1.00  0.00     0.250 C 
HETATM    8  C19 UNL     1      -1.755  -0.357   7.913  1.00  0.00     0.187 C 
HETATM    9  F1  UNL     1      -2.019   1.900   8.591  1.00  0.00    -0.242 F 
BRANCH   6  10
HETATM   10  N5  UNL     1      -4.989   0.264   8.856  1.00  0.00    -0.297 N 
HETATM   11  C3  UNL     1      -4.892   0.220  10.192  1.00  0.00     0.142 A 
HETATM   12  N3  UNL     1      -3.855   0.468  10.995  1.00  0.00    -0.336 N 
HETATM   13  C4  UNL     1      -6.137  -0.156  10.654  1.00  0.00     0.119 A 
HETATM   14  C2  UNL     1      -4.061   0.336  12.333  1.00  0.00     0.183 A 
ATOM     15  H3  UNL     1      -2.946   0.744  10.621  1.00  0.00     0.168 HD
HETATM   16  N2  UNL     1      -5.261  -0.029  12.825  1.00  0.00    -0.339 N 
HETATM   17  C1  UNL     1      -6.288  -0.273  12.007  1.00  0.00     0.148 A 
ATOM     18  H2  UNL     1      -5.387  -0.119  13.833  1.00  0.00     0.167 HD
HETATM   19  N1  UNL     1      -7.539  -0.663  12.556  1.00  0.00    -0.080 NA
HETATM   20  N4  UNL     1      -6.949  -0.328   9.595  1.00  0.00    -0.346 N 
HETATM   21  C5  UNL     1      -6.237  -0.069   8.494  1.00  0.00     0.188 A 
ATOM     22  H4  UNL     1      -7.930  -0.607   9.627  1.00  0.00     0.167 HD
ENDBRANCH   6  10
BRANCH   8  23
HETATM   23  O6  UNL     1      -0.737   0.338   7.244  1.00  0.00    -0.390 OA
ATOM     24  H6  UNL     1      -0.223   0.862   7.847  1.00  0.00     0.210 HD
ENDBRANCH   8  23
ENDBRANCH   3   4
ENDBRANCH   1   3
BRANCH   1  25
HETATM   25  S1  UNL     1      -4.017  -4.638   6.347  1.00  0.00     0.321 S 
HETATM   26  O2  UNL     1      -5.149  -5.082   5.474  1.00  0.00    -0.182 OA
HETATM   27  O3  UNL     1      -2.731  -5.068   5.755  1.00  0.00    -0.182 OA
BRANCH  25  28
HETATM   28  N7  UNL     1      -4.310  -5.331   7.921  1.00  0.00    -0.237 N 
HETATM   29  C9  UNL     1      -4.092  -6.716   8.150  1.00  0.00     0.232 C 
HETATM   30  O4  UNL     1      -3.669  -7.371   7.130  1.00  0.00    -0.273 OA
ATOM     31  H7  UNL     1      -4.640  -4.737   8.681  1.00  0.00     0.183 HD
BRANCH  29  32
HETATM   32  C10 UNL     1      -4.321  -7.392   9.441  1.00  0.00     0.104 C 
BRANCH  32  33
HETATM   33  C11 UNL     1      -3.440  -6.819  10.536  1.00  0.00     0.009 C 
BRANCH  33  34
HETATM   34  C12 UNL     1      -3.795  -7.440  11.881  1.00  0.00     0.002 C 
BRANCH  34  35
HETATM   35  C13 UNL     1      -3.638  -8.953  11.794  1.00  0.00     0.017 C 
BRANCH  35  36
HETATM   36  C14 UNL     1      -3.625  -9.514  13.161  1.00  0.00     0.072 C 
HETATM   37  S2  UNL     1      -3.836  -8.278  14.470  1.00  0.00    -0.160 SA
HETATM   38  C15 UNL     1      -2.533  -8.879  15.611  1.00  0.00     0.101 C 
HETATM   39  C16 UNL     1      -2.201 -10.230  15.013  1.00  0.00     0.119 C 
HETATM   40  N8  UNL     1      -0.774 -10.417  15.199  1.00  0.00    -0.336 N 
HETATM   41  C18 UNL     1      -2.295 -10.106  13.532  1.00  0.00     0.123 C 
HETATM   42  C17 UNL     1      -0.168  -9.604  14.202  1.00  0.00     0.316 C 
ATOM     43  H8  UNL     1      -0.307 -11.004  15.891  1.00  0.00     0.164 HD
HETATM   44  O5  UNL     1       1.030  -9.254  14.185  1.00  0.00    -0.247 OA
HETATM   45  N9  UNL     1      -1.168  -9.254  13.221  1.00  0.00    -0.335 N 
ATOM     46  H9  UNL     1      -1.095  -8.561  12.476  1.00  0.00     0.164 HD
ENDBRANCH  35  36
ENDBRANCH  34  35
ENDBRANCH  33  34
ENDBRANCH  32  33
ENDBRANCH  29  32
ENDBRANCH  25  28
ENDBRANCH   1  25
TORSDOF 11
ENDMDL
