MODEL 13
REMARK VINA RESULT: -10.748592994      2.266      4.337
REMARK  11 active torsions:
REMARK  status: ('A' for Active; 'I' for Inactive)
REMARK    1  A    between atoms: N5_13  and  C6_14 
REMARK    2  A    between atoms: C7_16  and  C8_17 
REMARK    3  A    between atoms: C8_17  and  N6_18 
REMARK    4  A    between atoms: N6_18  and  S1_20 
REMARK    5  A    between atoms: S1_20  and  N7_23 
REMARK       I    between atoms: N7_23  and  C9_25 
REMARK    6  A    between atoms: C9_25  and  C10_27 
REMARK    7  A    between atoms: C10_27  and  C11_28 
REMARK    8  A    between atoms: C11_28  and  C12_29 
REMARK    9  A    between atoms: C12_29  and  C13_30 
REMARK   10  A    between atoms: C13_30  and  C14_31 
REMARK   11  A    between atoms: C19_42  and  O6_43 
ROOT
HETATM    1  N6  UNL     1      -3.456  -1.764   7.434  1.00  0.00    -0.300 N 
ATOM      2  H6  UNL     1      -3.238  -0.946   6.865  1.00  0.00     0.173 HD
ENDROOT
BRANCH   1   3
HETATM    3  C8  UNL     1      -3.729  -1.757   8.862  1.00  0.00     0.168 C 
BRANCH   3   4
HETATM    4  C7  UNL     1      -4.549  -0.531   9.179  1.00  0.00     0.174 C 
HETATM    5  O1  UNL     1      -4.577   0.392   8.177  1.00  0.00    -0.354 OA
HETATM    6  C6  UNL     1      -5.815   0.501   7.626  1.00  0.00     0.267 C 
HETATM    7  C20 UNL     1      -6.791  -0.239   8.495  1.00  0.00     0.250 C 
HETATM    8  C19 UNL     1      -5.943  -0.842   9.576  1.00  0.00     0.187 C 
HETATM    9  F1  UNL     1      -7.753   0.588   9.026  1.00  0.00    -0.242 F 
BRANCH   6  10
HETATM   10  N5  UNL     1      -5.853   0.020   6.263  1.00  0.00    -0.297 N 
HETATM   11  C3  UNL     1      -5.113   0.483   5.246  1.00  0.00     0.142 A 
HETATM   12  N3  UNL     1      -4.193   1.450   5.212  1.00  0.00    -0.336 N 
HETATM   13  C4  UNL     1      -5.481  -0.254   4.139  1.00  0.00     0.119 A 
HETATM   14  C2  UNL     1      -3.602   1.702   4.014  1.00  0.00     0.183 A 
ATOM     15  H3  UNL     1      -3.944   1.977   6.050  1.00  0.00     0.168 HD
HETATM   16  N2  UNL     1      -3.932   1.004   2.909  1.00  0.00    -0.339 N 
HETATM   17  C1  UNL     1      -4.855   0.041   2.960  1.00  0.00     0.148 A 
ATOM     18  H2  UNL     1      -3.471   1.215   2.023  1.00  0.00     0.167 HD
HETATM   19  N1  UNL     1      -5.185  -0.671   1.776  1.00  0.00    -0.080 NA
HETATM   20  N4  UNL     1      -6.425  -1.138   4.510  1.00  0.00    -0.346 N 
HETATM   21  C5  UNL     1      -6.649  -0.963   5.816  1.00  0.00     0.188 A 
ATOM     22  H4  UNL     1      -6.886  -1.817   3.904  1.00  0.00     0.167 HD
ENDBRANCH   6  10
BRANCH   8  23
HETATM   23  O6  UNL     1      -6.283  -0.215  10.784  1.00  0.00    -0.390 OA
ATOM     24  H6  UNL     1      -7.213  -0.026  10.825  1.00  0.00     0.210 HD
ENDBRANCH   8  23
ENDBRANCH   3   4
ENDBRANCH   1   3
BRANCH   1  25
HETATM   25  S1  UNL     1      -3.565  -3.396   6.861  1.00  0.00     0.321 S 
HETATM   26  O2  UNL     1      -4.660  -3.468   5.842  1.00  0.00    -0.182 OA
HETATM   27  O3  UNL     1      -2.281  -3.795   6.244  1.00  0.00    -0.182 OA
BRANCH  25  28
HETATM   28  N7  UNL     1      -4.046  -4.442   8.172  1.00  0.00    -0.237 N 
HETATM   29  C9  UNL     1      -4.180  -5.841   7.965  1.00  0.00     0.232 C 
HETATM   30  O4  UNL     1      -3.914  -6.238   6.774  1.00  0.00    -0.273 OA
ATOM     31  H7  UNL     1      -4.233  -4.045   9.092  1.00  0.00     0.183 HD
BRANCH  29  32
HETATM   32  C10 UNL     1      -4.589  -6.801   9.008  1.00  0.00     0.104 C 
BRANCH  32  33
HETATM   33  C11 UNL     1      -3.516  -6.968  10.068  1.00  0.00     0.009 C 
BRANCH  33  34
HETATM   34  C12 UNL     1      -4.100  -7.617  11.316  1.00  0.00     0.002 C 
BRANCH  34  35
HETATM   35  C13 UNL     1      -3.491  -9.002  11.494  1.00  0.00     0.017 C 
BRANCH  35  36
HETATM   36  C14 UNL     1      -3.651  -9.420  12.903  1.00  0.00     0.072 C 
HETATM   37  S2  UNL     1      -3.954  -8.050  14.050  1.00  0.00    -0.160 SA
HETATM   38  C15 UNL     1      -2.810  -8.568  15.385  1.00  0.00     0.101 C 
HETATM   39  C16 UNL     1      -2.468  -9.982  14.965  1.00  0.00     0.119 C 
HETATM   40  N8  UNL     1      -1.078 -10.190  15.329  1.00  0.00    -0.336 N 
HETATM   41  C18 UNL     1      -2.394 -10.008  13.478  1.00  0.00     0.123 C 
HETATM   42  C17 UNL     1      -0.335  -9.500  14.332  1.00  0.00     0.316 C 
ATOM     43  H8  UNL     1      -0.714 -10.715  16.124  1.00  0.00     0.164 HD
HETATM   44  O5  UNL     1       0.870  -9.188  14.416  1.00  0.00    -0.247 OA
HETATM   45  N9  UNL     1      -1.206  -9.225  13.214  1.00  0.00    -0.335 N 
ATOM     46  H9  UNL     1      -1.025  -8.614  12.417  1.00  0.00     0.164 HD
ENDBRANCH  35  36
ENDBRANCH  34  35
ENDBRANCH  33  34
ENDBRANCH  32  33
ENDBRANCH  29  32
ENDBRANCH  25  28
ENDBRANCH   1  25
TORSDOF 11
ENDMDL
