MODEL 9
REMARK VINA RESULT: -10.121547697      3.720      4.969
REMARK  11 active torsions:
REMARK  status: ('A' for Active; 'I' for Inactive)
REMARK    1  A    between atoms: N5_13  and  C6_14 
REMARK    2  A    between atoms: C7_16  and  C8_17 
REMARK    3  A    between atoms: C8_17  and  O2_18 
REMARK    4  A    between atoms: O2_18  and  S1_19 
REMARK    5  A    between atoms: S1_19  and  N6_22 
REMARK       I    between atoms: N6_22  and  C9_24 
REMARK    6  A    between atoms: C9_24  and  C10_26 
REMARK    7  A    between atoms: C10_26  and  C11_27 
REMARK    8  A    between atoms: C11_27  and  C12_28 
REMARK    9  A    between atoms: C12_28  and  C13_29 
REMARK   10  A    between atoms: C13_29  and  C14_30 
REMARK   11  A    between atoms: C19_41  and  O7_42 
ROOT
HETATM    1  O2  UNL     1      -5.391  -4.779   5.482  1.00  0.00    -0.257 OA
ENDROOT
BRANCH   1   2
HETATM    2  C8  UNL     1      -5.555  -4.285   4.170  1.00  0.00     0.226 C 
BRANCH   2   3
HETATM    3  C7  UNL     1      -6.932  -3.627   4.140  1.00  0.00     0.181 C 
HETATM    4  O1  UNL     1      -6.924  -2.389   4.725  1.00  0.00    -0.353 OA
HETATM    5  C6  UNL     1      -7.765  -1.608   3.942  1.00  0.00     0.267 C 
HETATM    6  C20 UNL     1      -7.244  -1.949   2.536  1.00  0.00     0.250 C 
HETATM    7  C19 UNL     1      -7.270  -3.479   2.669  1.00  0.00     0.187 C 
HETATM    8  F1  UNL     1      -5.936  -1.527   2.493  1.00  0.00    -0.242 F 
BRANCH   5   9
HETATM    9  N5  UNL     1      -7.595  -0.196   4.210  1.00  0.00    -0.297 N 
HETATM   10  C3  UNL     1      -6.662   0.313   5.025  1.00  0.00     0.142 A 
HETATM   11  N3  UNL     1      -5.685  -0.217   5.781  1.00  0.00    -0.336 N 
HETATM   12  C4  UNL     1      -6.811   1.704   5.031  1.00  0.00     0.119 A 
HETATM   13  C2  UNL     1      -4.858   0.525   6.532  1.00  0.00     0.183 A 
ATOM     14  H3  UNL     1      -5.567  -1.230   5.785  1.00  0.00     0.168 HD
HETATM   15  N2  UNL     1      -5.017   1.872   6.523  1.00  0.00    -0.339 N 
HETATM   16  C1  UNL     1      -5.967   2.476   5.797  1.00  0.00     0.148 A 
ATOM     17  H2  UNL     1      -4.392   2.445   7.090  1.00  0.00     0.167 HD
HETATM   18  N1  UNL     1      -6.096   3.885   5.825  1.00  0.00    -0.080 NA
HETATM   19  N4  UNL     1      -7.848   1.969   4.202  1.00  0.00    -0.346 N 
HETATM   20  C5  UNL     1      -8.314   0.797   3.711  1.00  0.00     0.188 A 
ATOM     21  H4  UNL     1      -8.216   2.894   3.985  1.00  0.00     0.167 HD
ENDBRANCH   5   9
BRANCH   7  22
HETATM   22  O7  UNL     1      -8.605  -3.899   2.512  1.00  0.00    -0.390 OA
ATOM     23  H7  UNL     1      -8.906  -3.557   1.679  1.00  0.00     0.210 HD
ENDBRANCH   7  22
ENDBRANCH   2   3
ENDBRANCH   1   2
BRANCH   1  24
HETATM   24  S1  UNL     1      -3.960  -4.213   6.146  1.00  0.00     0.364 S 
HETATM   25  O3  UNL     1      -3.802  -2.733   5.941  1.00  0.00    -0.175 OA
HETATM   26  O4  UNL     1      -2.754  -4.872   5.486  1.00  0.00    -0.175 OA
BRANCH  24  27
HETATM   27  N6  UNL     1      -3.914  -4.624   7.802  1.00  0.00    -0.231 N 
HETATM   28  C9  UNL     1      -4.043  -5.964   8.221  1.00  0.00     0.232 C 
HETATM   29  O5  UNL     1      -4.194  -6.882   7.388  1.00  0.00    -0.273 OA
ATOM     30  H6  UNL     1      -3.791  -3.889   8.499  1.00  0.00     0.183 HD
BRANCH  28  31
HETATM   31  C10 UNL     1      -3.995  -6.260   9.681  1.00  0.00     0.104 C 
BRANCH  31  32
HETATM   32  C11 UNL     1      -4.033  -7.753   9.912  1.00  0.00     0.009 C 
BRANCH  32  33
HETATM   33  C12 UNL     1      -3.981  -7.932  11.430  1.00  0.00     0.002 C 
BRANCH  33  34
HETATM   34  C13 UNL     1      -3.453  -9.306  11.709  1.00  0.00     0.017 C 
BRANCH  34  35
HETATM   35  C14 UNL     1      -3.533  -9.643  13.147  1.00  0.00     0.072 C 
HETATM   36  S2  UNL     1      -3.883  -8.137  14.152  1.00  0.00    -0.160 SA
HETATM   37  C15 UNL     1      -2.154  -7.975  14.806  1.00  0.00     0.101 C 
HETATM   38  C16 UNL     1      -1.857  -9.460  14.955  1.00  0.00     0.119 C 
HETATM   39  N7  UNL     1      -0.427  -9.609  14.957  1.00  0.00    -0.336 N 
HETATM   40  C18 UNL     1      -2.355 -10.221  13.804  1.00  0.00     0.123 C 
HETATM   41  C17 UNL     1      -0.063 -10.098  13.681  1.00  0.00     0.316 C 
ATOM     42  H7  UNL     1       0.204  -9.401  15.730  1.00  0.00     0.164 HD
HETATM   43  O6  UNL     1       1.129 -10.173  13.237  1.00  0.00    -0.247 OA
HETATM   44  N8  UNL     1      -1.216 -10.493  12.968  1.00  0.00    -0.335 N 
ATOM     45  H8  UNL     1      -1.237 -10.897  12.031  1.00  0.00     0.164 HD
ENDBRANCH  34  35
ENDBRANCH  33  34
ENDBRANCH  32  33
ENDBRANCH  31  32
ENDBRANCH  28  31
ENDBRANCH  24  27
ENDBRANCH   1  24
TORSDOF 11
ENDMDL
