MODEL 2
REMARK VINA RESULT: -10.723579712      1.174      1.389
REMARK  11 active torsions:
REMARK  status: ('A' for Active; 'I' for Inactive)
REMARK    1  A    between atoms: N5_13  and  C6_14 
REMARK    2  A    between atoms: C7_16  and  C8_17 
REMARK    3  A    between atoms: C8_17  and  O2_18 
REMARK    4  A    between atoms: O2_18  and  S1_19 
REMARK    5  A    between atoms: S1_19  and  N6_22 
REMARK       I    between atoms: N6_22  and  C9_24 
REMARK    6  A    between atoms: C9_24  and  C10_26 
REMARK    7  A    between atoms: C10_26  and  C11_27 
REMARK    8  A    between atoms: C11_27  and  C12_28 
REMARK    9  A    between atoms: C12_28  and  C13_29 
REMARK   10  A    between atoms: C13_29  and  C14_30 
REMARK   11  A    between atoms: C19_41  and  O7_42 
ROOT
HETATM    1  O2  UNL     1      -4.582  -3.340   6.209  1.00  0.00    -0.257 OA
ENDROOT
BRANCH   1   2
HETATM    2  C8  UNL     1      -5.366  -2.729   5.206  1.00  0.00     0.226 C 
BRANCH   2   3
HETATM    3  C7  UNL     1      -5.931  -1.457   5.834  1.00  0.00     0.181 C 
HETATM    4  O1  UNL     1      -5.825  -1.465   7.199  1.00  0.00    -0.353 OA
HETATM    5  C6  UNL     1      -5.500  -0.160   7.549  1.00  0.00     0.267 C 
HETATM    6  C20 UNL     1      -4.363   0.127   6.554  1.00  0.00     0.250 C 
HETATM    7  C19 UNL     1      -5.084  -0.329   5.276  1.00  0.00     0.187 C 
HETATM    8  F1  UNL     1      -3.358  -0.765   6.842  1.00  0.00    -0.242 F 
BRANCH   5   9
HETATM    9  N5  UNL     1      -5.009  -0.073   8.908  1.00  0.00    -0.297 N 
HETATM   10  C3  UNL     1      -5.771  -0.222   9.999  1.00  0.00     0.142 A 
HETATM   11  N3  UNL     1      -7.075  -0.470  10.208  1.00  0.00    -0.336 N 
HETATM   12  C4  UNL     1      -4.948  -0.067  11.120  1.00  0.00     0.119 A 
HETATM   13  C2  UNL     1      -7.613  -0.576  11.432  1.00  0.00     0.183 A 
ATOM     14  H3  UNL     1      -7.685  -0.584   9.398  1.00  0.00     0.168 HD
HETATM   15  N2  UNL     1      -6.799  -0.425  12.506  1.00  0.00    -0.339 N 
HETATM   16  C1  UNL     1      -5.488  -0.175  12.381  1.00  0.00     0.148 A 
ATOM     17  H2  UNL     1      -7.198  -0.504  13.441  1.00  0.00     0.167 HD
HETATM   18  N1  UNL     1      -4.681  -0.021  13.534  1.00  0.00    -0.080 NA
HETATM   19  N4  UNL     1      -3.706   0.171  10.637  1.00  0.00    -0.346 N 
HETATM   20  C5  UNL     1      -3.763   0.164   9.285  1.00  0.00     0.188 A 
ATOM     21  H4  UNL     1      -2.869   0.330  11.198  1.00  0.00     0.167 HD
ENDBRANCH   5   9
BRANCH   7  22
HETATM   22  O7  UNL     1      -5.971   0.697   4.895  1.00  0.00    -0.390 OA
ATOM     23  H7  UNL     1      -6.230   1.146   5.691  1.00  0.00     0.210 HD
ENDBRANCH   7  22
ENDBRANCH   2   3
ENDBRANCH   1   2
BRANCH   1  24
HETATM   24  S1  UNL     1      -4.056  -4.849   5.703  1.00  0.00     0.364 S 
HETATM   25  O3  UNL     1      -2.584  -4.847   5.397  1.00  0.00    -0.175 OA
HETATM   26  O4  UNL     1      -4.763  -5.271   4.421  1.00  0.00    -0.175 OA
BRANCH  24  27
HETATM   27  N6  UNL     1      -4.445  -6.004   6.898  1.00  0.00    -0.231 N 
HETATM   28  C9  UNL     1      -4.184  -5.755   8.260  1.00  0.00     0.232 C 
HETATM   29  O5  UNL     1      -3.660  -4.681   8.625  1.00  0.00    -0.273 OA
ATOM     30  H6  UNL     1      -4.874  -6.888   6.622  1.00  0.00     0.183 HD
BRANCH  28  31
HETATM   31  C10 UNL     1      -4.547  -6.802   9.257  1.00  0.00     0.104 C 
BRANCH  31  32
HETATM   32  C11 UNL     1      -3.447  -6.949  10.284  1.00  0.00     0.009 C 
BRANCH  32  33
HETATM   33  C12 UNL     1      -4.088  -7.680  11.465  1.00  0.00     0.002 C 
BRANCH  33  34
HETATM   34  C13 UNL     1      -3.382  -8.991  11.626  1.00  0.00     0.017 C 
BRANCH  34  35
HETATM   35  C14 UNL     1      -3.571  -9.553  12.981  1.00  0.00     0.072 C 
HETATM   36  S2  UNL     1      -4.084  -8.238  14.168  1.00  0.00    -0.160 SA
HETATM   37  C15 UNL     1      -2.431  -8.118  15.000  1.00  0.00     0.101 C 
HETATM   38  C16 UNL     1      -2.073  -9.597  14.947  1.00  0.00     0.119 C 
HETATM   39  N7  UNL     1      -0.643  -9.692  15.062  1.00  0.00    -0.336 N 
HETATM   40  C18 UNL     1      -2.428 -10.184  13.651  1.00  0.00     0.123 C 
HETATM   41  C17 UNL     1      -0.143  -9.961  13.767  1.00  0.00     0.316 C 
ATOM     42  H7  UNL     1      -0.094  -9.586  15.915  1.00  0.00     0.164 HD
HETATM   43  O6  UNL     1       1.086  -9.921  13.432  1.00  0.00    -0.247 OA
HETATM   44  N8  UNL     1      -1.207 -10.280  12.895  1.00  0.00    -0.335 N 
ATOM     45  H8  UNL     1      -1.125 -10.532  11.910  1.00  0.00     0.164 HD
ENDBRANCH  34  35
ENDBRANCH  33  34
ENDBRANCH  32  33
ENDBRANCH  31  32
ENDBRANCH  28  31
ENDBRANCH  24  27
ENDBRANCH   1  24
TORSDOF 11
ENDMDL
