MODEL 7
REMARK VINA RESULT: -10.206720200      3.450      5.267
REMARK  11 active torsions:
REMARK  status: ('A' for Active; 'I' for Inactive)
REMARK    1  A    between atoms: N5_13  and  C6_14 
REMARK    2  A    between atoms: C7_16  and  C8_17 
REMARK    3  A    between atoms: C8_17  and  O2_18 
REMARK    4  A    between atoms: O2_18  and  S1_19 
REMARK    5  A    between atoms: S1_19  and  N6_22 
REMARK       I    between atoms: N6_22  and  C9_24 
REMARK    6  A    between atoms: C9_24  and  C10_26 
REMARK    7  A    between atoms: C10_26  and  C11_27 
REMARK    8  A    between atoms: C11_27  and  C12_28 
REMARK    9  A    between atoms: C12_28  and  C13_29 
REMARK   10  A    between atoms: C13_29  and  C14_30 
REMARK   11  A    between atoms: C19_41  and  O7_42 
ROOT
HETATM    1  O2  UNL     1      -4.265  -2.620   7.044  1.00  0.00    -0.257 OA
ENDROOT
BRANCH   1   2
HETATM    2  C8  UNL     1      -3.737  -1.405   7.532  1.00  0.00     0.226 C 
BRANCH   2   3
HETATM    3  C7  UNL     1      -4.095  -0.346   6.492  1.00  0.00     0.181 C 
HETATM    4  O1  UNL     1      -4.670  -0.894   5.376  1.00  0.00    -0.353 OA
HETATM    5  C6  UNL     1      -5.663   0.002   4.998  1.00  0.00     0.267 C 
HETATM    6  C20 UNL     1      -6.357   0.244   6.349  1.00  0.00     0.250 C 
HETATM    7  C19 UNL     1      -5.101   0.560   7.176  1.00  0.00     0.187 C 
HETATM    8  F1  UNL     1      -6.862  -0.970   6.751  1.00  0.00    -0.242 F 
BRANCH   5   9
HETATM    9  N5  UNL     1      -6.592  -0.587   4.058  1.00  0.00    -0.297 N 
HETATM   10  C3  UNL     1      -6.629  -1.889   3.744  1.00  0.00     0.142 A 
HETATM   11  N3  UNL     1      -5.924  -2.968   4.128  1.00  0.00    -0.336 N 
HETATM   12  C4  UNL     1      -7.650  -2.075   2.806  1.00  0.00     0.119 A 
HETATM   13  C2  UNL     1      -6.159  -4.200   3.654  1.00  0.00     0.183 A 
ATOM     14  H3  UNL     1      -5.177  -2.844   4.811  1.00  0.00     0.168 HD
HETATM   15  N2  UNL     1      -7.154  -4.361   2.747  1.00  0.00    -0.339 N 
HETATM   16  C1  UNL     1      -7.900  -3.335   2.314  1.00  0.00     0.148 A 
ATOM     17  H2  UNL     1      -7.341  -5.295   2.382  1.00  0.00     0.167 HD
HETATM   18  N1  UNL     1      -8.925  -3.554   1.362  1.00  0.00    -0.080 NA
HETATM   19  N4  UNL     1      -8.188  -0.851   2.598  1.00  0.00    -0.346 N 
HETATM   20  C5  UNL     1      -7.530   0.045   3.370  1.00  0.00     0.188 A 
ATOM     21  H4  UNL     1      -8.960  -0.639   1.966  1.00  0.00     0.167 HD
ENDBRANCH   5   9
BRANCH   7  22
HETATM   22  O7  UNL     1      -4.720   1.884   6.887  1.00  0.00    -0.390 OA
ATOM     23  H7  UNL     1      -5.501   2.419   6.969  1.00  0.00     0.210 HD
ENDBRANCH   7  22
ENDBRANCH   2   3
ENDBRANCH   1   2
BRANCH   1  24
HETATM   24  S1  UNL     1      -3.100  -3.825   7.092  1.00  0.00     0.364 S 
HETATM   25  O3  UNL     1      -1.769  -3.290   7.542  1.00  0.00    -0.175 OA
HETATM   26  O4  UNL     1      -2.879  -4.424   5.708  1.00  0.00    -0.175 OA
BRANCH  24  27
HETATM   27  N6  UNL     1      -3.644  -5.085   8.106  1.00  0.00    -0.231 N 
HETATM   28  C9  UNL     1      -4.650  -5.976   7.680  1.00  0.00     0.232 C 
HETATM   29  O5  UNL     1      -5.167  -5.863   6.549  1.00  0.00    -0.273 OA
ATOM     30  H6  UNL     1      -3.235  -5.195   9.034  1.00  0.00     0.183 HD
BRANCH  28  31
HETATM   31  C10 UNL     1      -5.083  -7.056   8.611  1.00  0.00     0.104 C 
BRANCH  31  32
HETATM   32  C11 UNL     1      -3.879  -7.790   9.155  1.00  0.00     0.009 C 
BRANCH  32  33
HETATM   33  C12 UNL     1      -3.986  -7.676  10.677  1.00  0.00     0.002 C 
BRANCH  33  34
HETATM   34  C13 UNL     1      -2.949  -8.577  11.275  1.00  0.00     0.017 C 
BRANCH  34  35
HETATM   35  C14 UNL     1      -3.465  -9.298  12.458  1.00  0.00     0.072 C 
HETATM   36  S2  UNL     1      -4.289  -8.131  13.625  1.00  0.00    -0.160 SA
HETATM   37  C15 UNL     1      -2.904  -8.133  14.859  1.00  0.00     0.101 C 
HETATM   38  C16 UNL     1      -2.515  -9.598  14.721  1.00  0.00     0.119 C 
HETATM   39  N7  UNL     1      -1.160  -9.724  15.184  1.00  0.00    -0.336 N 
HETATM   40  C18 UNL     1      -2.518 -10.019  13.316  1.00  0.00     0.123 C 
HETATM   41  C17 UNL     1      -0.343  -9.839  14.036  1.00  0.00     0.316 C 
ATOM     42  H7  UNL     1      -0.848  -9.729  16.155  1.00  0.00     0.164 HD
HETATM   43  O6  UNL     1       0.930  -9.773  14.032  1.00  0.00    -0.247 OA
HETATM   44  N8  UNL     1      -1.143 -10.036  12.890  1.00  0.00    -0.335 N 
ATOM     45  H8  UNL     1      -0.808 -10.168  11.935  1.00  0.00     0.164 HD
ENDBRANCH  34  35
ENDBRANCH  33  34
ENDBRANCH  32  33
ENDBRANCH  31  32
ENDBRANCH  28  31
ENDBRANCH  24  27
ENDBRANCH   1  24
TORSDOF 11
ENDMDL
