MODEL 1
REMARK VINA RESULT: -11.391190081      0.000      0.000
REMARK  11 active torsions:
REMARK  status: ('A' for Active; 'I' for Inactive)
REMARK    1  A    between atoms: N5_13  and  C6_14 
REMARK    2  A    between atoms: C7_16  and  C8_17 
REMARK    3  A    between atoms: C8_17  and  O2_18 
REMARK    4  A    between atoms: O2_18  and  S1_19 
REMARK    5  A    between atoms: S1_19  and  N6_22 
REMARK       I    between atoms: N6_22  and  C9_24 
REMARK    6  A    between atoms: C9_24  and  C10_26 
REMARK    7  A    between atoms: C10_26  and  C11_27 
REMARK    8  A    between atoms: C11_27  and  C12_28 
REMARK    9  A    between atoms: C12_28  and  C13_29 
REMARK   10  A    between atoms: C13_29  and  C14_30 
REMARK   11  A    between atoms: C19_41  and  O7_42 
ROOT
HETATM    1  O2  UNL     1      -4.754  -3.322   6.296  1.00  0.00    -0.257 OA
ENDROOT
BRANCH   1   2
HETATM    2  C8  UNL     1      -3.801  -2.310   6.546  1.00  0.00     0.226 C 
BRANCH   2   3
HETATM    3  C7  UNL     1      -4.591  -1.110   7.061  1.00  0.00     0.181 C 
HETATM    4  O1  UNL     1      -5.043  -1.300   8.339  1.00  0.00    -0.353 OA
HETATM    5  C6  UNL     1      -4.908  -0.067   8.964  1.00  0.00     0.267 C 
HETATM    6  C20 UNL     1      -3.471   0.303   8.556  1.00  0.00     0.250 C 
HETATM    7  C19 UNL     1      -3.609   0.047   7.048  1.00  0.00     0.187 C 
HETATM    8  F1  UNL     1      -2.653  -0.660   9.099  1.00  0.00    -0.242 F 
BRANCH   5   9
HETATM    9  N5  UNL     1      -5.007  -0.177  10.403  1.00  0.00    -0.297 N 
HETATM   10  C3  UNL     1      -6.142  -0.426  11.067  1.00  0.00     0.142 A 
HETATM   11  N3  UNL     1      -7.419  -0.635  10.701  1.00  0.00    -0.336 N 
HETATM   12  C4  UNL     1      -5.842  -0.457  12.434  1.00  0.00     0.119 A 
HETATM   13  C2  UNL     1      -8.403  -0.869  11.580  1.00  0.00     0.183 A 
ATOM     14  H3  UNL     1      -7.649  -0.614   9.707  1.00  0.00     0.168 HD
HETATM   15  N2  UNL     1      -8.092  -0.896  12.900  1.00  0.00    -0.339 N 
HETATM   16  C1  UNL     1      -6.844  -0.697  13.345  1.00  0.00     0.148 A 
ATOM     17  H2  UNL     1      -8.834  -1.075  13.577  1.00  0.00     0.167 HD
HETATM   18  N1  UNL     1      -6.571  -0.731  14.734  1.00  0.00    -0.080 NA
HETATM   19  N4  UNL     1      -4.513  -0.220  12.525  1.00  0.00    -0.346 N 
HETATM   20  C5  UNL     1      -4.019  -0.052  11.277  1.00  0.00     0.188 A 
ATOM     21  H4  UNL     1      -3.973  -0.176  13.390  1.00  0.00     0.167 HD
ENDBRANCH   5   9
BRANCH   7  22
HETATM   22  O7  UNL     1      -4.283   1.148   6.487  1.00  0.00    -0.390 OA
ATOM     23  H7  UNL     1      -4.603   1.674   7.211  1.00  0.00     0.210 HD
ENDBRANCH   7  22
ENDBRANCH   2   3
ENDBRANCH   1   2
BRANCH   1  24
HETATM   24  S1  UNL     1      -3.991  -4.760   5.897  1.00  0.00     0.364 S 
HETATM   25  O3  UNL     1      -2.495  -4.613   5.907  1.00  0.00    -0.175 OA
HETATM   26  O4  UNL     1      -4.373  -5.207   4.491  1.00  0.00    -0.175 OA
BRANCH  24  27
HETATM   27  N6  UNL     1      -4.508  -5.981   6.972  1.00  0.00    -0.231 N 
HETATM   28  C9  UNL     1      -4.258  -5.883   8.356  1.00  0.00     0.232 C 
HETATM   29  O5  UNL     1      -3.653  -4.898   8.827  1.00  0.00    -0.273 OA
ATOM     30  H6  UNL     1      -5.005  -6.794   6.607  1.00  0.00     0.183 HD
BRANCH  28  31
HETATM   31  C10 UNL     1      -4.734  -6.981   9.244  1.00  0.00     0.104 C 
BRANCH  31  32
HETATM   32  C11 UNL     1      -3.577  -7.867   9.643  1.00  0.00     0.009 C 
BRANCH  32  33
HETATM   33  C12 UNL     1      -3.354  -7.598  11.133  1.00  0.00     0.002 C 
BRANCH  33  34
HETATM   34  C13 UNL     1      -2.660  -8.793  11.712  1.00  0.00     0.017 C 
BRANCH  34  35
HETATM   35  C14 UNL     1      -3.461  -9.427  12.781  1.00  0.00     0.072 C 
HETATM   36  S2  UNL     1      -4.363  -8.154  13.764  1.00  0.00    -0.160 SA
HETATM   37  C15 UNL     1      -3.241  -8.263  15.238  1.00  0.00     0.101 C 
HETATM   38  C16 UNL     1      -2.988  -9.763  15.185  1.00  0.00     0.119 C 
HETATM   39  N7  UNL     1      -1.764 -10.013  15.896  1.00  0.00    -0.336 N 
HETATM   40  C18 UNL     1      -2.771 -10.218  13.807  1.00  0.00     0.123 C 
HETATM   41  C17 UNL     1      -0.762 -10.239  14.924  1.00  0.00     0.316 C 
ATOM     42  H7  UNL     1      -1.641 -10.024  16.908  1.00  0.00     0.164 HD
HETATM   43  O6  UNL     1       0.489 -10.302  15.161  1.00  0.00    -0.247 OA
HETATM   44  N8  UNL     1      -1.350 -10.384  13.649  1.00  0.00    -0.335 N 
ATOM     45  H8  UNL     1      -0.858 -10.573  12.775  1.00  0.00     0.164 HD
ENDBRANCH  34  35
ENDBRANCH  33  34
ENDBRANCH  32  33
ENDBRANCH  31  32
ENDBRANCH  28  31
ENDBRANCH  24  27
ENDBRANCH   1  24
TORSDOF 11
ENDMDL
