MODEL 3
REMARK VINA RESULT: -10.521841005      2.980      4.345
REMARK  11 active torsions:
REMARK  status: ('A' for Active; 'I' for Inactive)
REMARK    1  A    between atoms: N5_13  and  C6_14 
REMARK    2  A    between atoms: C7_16  and  C8_17 
REMARK    3  A    between atoms: C8_17  and  O2_18 
REMARK    4  A    between atoms: O2_18  and  S1_19 
REMARK    5  A    between atoms: S1_19  and  N6_22 
REMARK       I    between atoms: N6_22  and  C9_24 
REMARK    6  A    between atoms: C9_24  and  C10_26 
REMARK    7  A    between atoms: C10_26  and  C11_27 
REMARK    8  A    between atoms: C11_27  and  C12_28 
REMARK    9  A    between atoms: C12_28  and  C13_29 
REMARK   10  A    between atoms: C13_29  and  C14_30 
REMARK   11  A    between atoms: C19_41  and  O7_42 
ROOT
HETATM    1  O2  UNL     1      -4.528  -3.370   7.056  1.00  0.00    -0.257 OA
ENDROOT
BRANCH   1   2
HETATM    2  C8  UNL     1      -3.736  -2.829   8.092  1.00  0.00     0.226 C 
BRANCH   2   3
HETATM    3  C7  UNL     1      -3.669  -1.327   7.826  1.00  0.00     0.181 C 
HETATM    4  O1  UNL     1      -4.418  -0.962   6.739  1.00  0.00    -0.353 OA
HETATM    5  C6  UNL     1      -4.995   0.254   7.083  1.00  0.00     0.267 C 
HETATM    6  C20 UNL     1      -5.533  -0.072   8.487  1.00  0.00     0.250 C 
HETATM    7  C19 UNL     1      -4.245  -0.677   9.068  1.00  0.00     0.187 C 
HETATM    8  F1  UNL     1      -6.462  -1.073   8.324  1.00  0.00    -0.242 F 
BRANCH   5   9
HETATM    9  N5  UNL     1      -6.085   0.604   6.198  1.00  0.00    -0.297 N 
HETATM   10  C3  UNL     1      -6.675  -0.248   5.350  1.00  0.00     0.142 A 
HETATM   11  N3  UNL     1      -6.501  -1.547   5.051  1.00  0.00    -0.336 N 
HETATM   12  C4  UNL     1      -7.677   0.451   4.668  1.00  0.00     0.119 A 
HETATM   13  C2  UNL     1      -7.241  -2.192   4.137  1.00  0.00     0.183 A 
ATOM     14  H3  UNL     1      -5.773  -2.067   5.542  1.00  0.00     0.168 HD
HETATM   15  N2  UNL     1      -8.207  -1.498   3.487  1.00  0.00    -0.339 N 
HETATM   16  C1  UNL     1      -8.442  -0.201   3.729  1.00  0.00     0.148 A 
ATOM     17  H2  UNL     1      -8.776  -1.980   2.791  1.00  0.00     0.167 HD
HETATM   18  N1  UNL     1      -9.461   0.481   3.021  1.00  0.00    -0.080 NA
HETATM   19  N4  UNL     1      -7.639   1.715   5.150  1.00  0.00    -0.346 N 
HETATM   20  C5  UNL     1      -6.662   1.790   6.083  1.00  0.00     0.188 A 
ATOM     21  H4  UNL     1      -8.245   2.482   4.859  1.00  0.00     0.167 HD
ENDBRANCH   5   9
BRANCH   7  22
HETATM   22  O7  UNL     1      -3.388   0.388   9.407  1.00  0.00    -0.390 OA
ATOM     23  H7  UNL     1      -3.722   1.161   8.968  1.00  0.00     0.210 HD
ENDBRANCH   7  22
ENDBRANCH   2   3
ENDBRANCH   1   2
BRANCH   1  24
HETATM   24  S1  UNL     1      -3.799  -4.736   6.414  1.00  0.00     0.364 S 
HETATM   25  O3  UNL     1      -2.513  -4.398   5.713  1.00  0.00    -0.175 OA
HETATM   26  O4  UNL     1      -4.697  -5.395   5.374  1.00  0.00    -0.175 OA
BRANCH  24  27
HETATM   27  N6  UNL     1      -3.553  -5.874   7.662  1.00  0.00    -0.231 N 
HETATM   28  C9  UNL     1      -4.629  -6.615   8.190  1.00  0.00     0.232 C 
HETATM   29  O5  UNL     1      -5.789  -6.456   7.756  1.00  0.00    -0.273 OA
ATOM     30  H6  UNL     1      -2.612  -6.020   8.030  1.00  0.00     0.183 HD
BRANCH  28  31
HETATM   31  C10 UNL     1      -4.351  -7.594   9.279  1.00  0.00     0.104 C 
BRANCH  31  32
HETATM   32  C11 UNL     1      -3.568  -6.932  10.389  1.00  0.00     0.009 C 
BRANCH  32  33
HETATM   33  C12 UNL     1      -4.041  -7.605  11.679  1.00  0.00     0.002 C 
BRANCH  33  34
HETATM   34  C13 UNL     1      -3.405  -8.960  11.745  1.00  0.00     0.017 C 
BRANCH  34  35
HETATM   35  C14 UNL     1      -3.551  -9.569  13.085  1.00  0.00     0.072 C 
HETATM   36  S2  UNL     1      -4.038  -8.300  14.330  1.00  0.00    -0.160 SA
HETATM   37  C15 UNL     1      -2.361  -8.197  15.118  1.00  0.00     0.101 C 
HETATM   38  C16 UNL     1      -1.996  -9.670  15.004  1.00  0.00     0.119 C 
HETATM   39  N7  UNL     1      -0.563  -9.759  15.074  1.00  0.00    -0.336 N 
HETATM   40  C18 UNL     1      -2.385 -10.215  13.699  1.00  0.00     0.123 C 
HETATM   41  C17 UNL     1      -0.100  -9.979  13.756  1.00  0.00     0.316 C 
ATOM     42  H7  UNL     1       0.010  -9.678  15.913  1.00  0.00     0.164 HD
HETATM   43  O6  UNL     1       1.119  -9.919  13.387  1.00  0.00    -0.247 OA
HETATM   44  N8  UNL     1      -1.186 -10.275  12.905  1.00  0.00    -0.335 N 
ATOM     45  H8  UNL     1      -1.131 -10.493  11.910  1.00  0.00     0.164 HD
ENDBRANCH  34  35
ENDBRANCH  33  34
ENDBRANCH  32  33
ENDBRANCH  31  32
ENDBRANCH  28  31
ENDBRANCH  24  27
ENDBRANCH   1  24
TORSDOF 11
ENDMDL
