MODEL 8
REMARK VINA RESULT: -10.131353902      1.157      1.426
REMARK  11 active torsions:
REMARK  status: ('A' for Active; 'I' for Inactive)
REMARK    1  A    between atoms: N5_13  and  C6_14 
REMARK    2  A    between atoms: C7_16  and  C8_17 
REMARK    3  A    between atoms: C8_17  and  O2_18 
REMARK    4  A    between atoms: O2_18  and  S1_19 
REMARK    5  A    between atoms: S1_19  and  N6_22 
REMARK       I    between atoms: N6_22  and  C9_24 
REMARK    6  A    between atoms: C9_24  and  C10_26 
REMARK    7  A    between atoms: C10_26  and  C11_27 
REMARK    8  A    between atoms: C11_27  and  C12_28 
REMARK    9  A    between atoms: C12_28  and  C13_29 
REMARK   10  A    between atoms: C13_29  and  C14_30 
REMARK   11  A    between atoms: C19_41  and  O7_42 
ROOT
HETATM    1  O2  UNL     1      -4.738  -3.394   6.438  1.00  0.00    -0.257 OA
ENDROOT
BRANCH   1   2
HETATM    2  C8  UNL     1      -3.788  -2.368   6.632  1.00  0.00     0.226 C 
BRANCH   2   3
HETATM    3  C7  UNL     1      -4.575  -1.158   7.130  1.00  0.00     0.181 C 
HETATM    4  O1  UNL     1      -5.051  -1.341   8.400  1.00  0.00    -0.353 OA
HETATM    5  C6  UNL     1      -4.915  -0.107   9.024  1.00  0.00     0.267 C 
HETATM    6  C20 UNL     1      -3.468   0.248   8.641  1.00  0.00     0.250 C 
HETATM    7  C19 UNL     1      -3.582  -0.011   7.131  1.00  0.00     0.187 C 
HETATM    8  F1  UNL     1      -2.668  -0.721   9.200  1.00  0.00    -0.242 F 
BRANCH   5   9
HETATM    9  N5  UNL     1      -5.039  -0.212  10.462  1.00  0.00    -0.297 N 
HETATM   10  C3  UNL     1      -6.190  -0.443  11.107  1.00  0.00     0.142 A 
HETATM   11  N3  UNL     1      -7.463  -0.633  10.719  1.00  0.00    -0.336 N 
HETATM   12  C4  UNL     1      -5.913  -0.474  12.479  1.00  0.00     0.119 A 
HETATM   13  C2  UNL     1      -8.466  -0.851  11.583  1.00  0.00     0.183 A 
ATOM     14  H3  UNL     1      -7.676  -0.612   9.722  1.00  0.00     0.168 HD
HETATM   15  N2  UNL     1      -8.177  -0.879  12.907  1.00  0.00    -0.339 N 
HETATM   16  C1  UNL     1      -6.934  -0.697  13.373  1.00  0.00     0.148 A 
ATOM     17  H2  UNL     1      -8.933  -1.045  13.572  1.00  0.00     0.167 HD
HETATM   18  N1  UNL     1      -6.685  -0.732  14.767  1.00  0.00    -0.080 NA
HETATM   19  N4  UNL     1      -4.582  -0.257  12.592  1.00  0.00    -0.346 N 
HETATM   20  C5  UNL     1      -4.066  -0.099  11.352  1.00  0.00     0.188 A 
ATOM     21  H4  UNL     1      -4.057  -0.219  13.466  1.00  0.00     0.167 HD
ENDBRANCH   5   9
BRANCH   7  22
HETATM   22  O7  UNL     1      -4.236   1.095   6.555  1.00  0.00    -0.390 OA
ATOM     23  H7  UNL     1      -4.447   1.690   7.265  1.00  0.00     0.210 HD
ENDBRANCH   7  22
ENDBRANCH   2   3
ENDBRANCH   1   2
BRANCH   1  24
HETATM   24  S1  UNL     1      -3.978  -4.818   5.985  1.00  0.00     0.364 S 
HETATM   25  O3  UNL     1      -2.484  -4.659   5.946  1.00  0.00    -0.175 OA
HETATM   26  O4  UNL     1      -4.404  -5.240   4.584  1.00  0.00    -0.175 OA
BRANCH  24  27
HETATM   27  N6  UNL     1      -4.448  -6.064   7.052  1.00  0.00    -0.231 N 
HETATM   28  C9  UNL     1      -4.173  -5.979   8.432  1.00  0.00     0.232 C 
HETATM   29  O5  UNL     1      -3.578  -4.988   8.905  1.00  0.00    -0.273 OA
ATOM     30  H6  UNL     1      -4.936  -6.882   6.686  1.00  0.00     0.183 HD
BRANCH  28  31
HETATM   31  C10 UNL     1      -4.608  -7.099   9.314  1.00  0.00     0.104 C 
BRANCH  31  32
HETATM   32  C11 UNL     1      -3.987  -6.957  10.684  1.00  0.00     0.009 C 
BRANCH  32  33
HETATM   33  C12 UNL     1      -4.065  -8.349  11.313  1.00  0.00     0.002 C 
BRANCH  33  34
HETATM   34  C13 UNL     1      -3.922  -8.187  12.796  1.00  0.00     0.017 C 
BRANCH  34  35
HETATM   35  C14 UNL     1      -2.502  -8.139  13.208  1.00  0.00     0.072 C 
HETATM   36  S2  UNL     1      -1.490  -9.305  12.200  1.00  0.00    -0.160 SA
HETATM   37  C15 UNL     1      -1.312 -10.569  13.547  1.00  0.00     0.101 C 
HETATM   38  C16 UNL     1      -1.197  -9.601  14.716  1.00  0.00     0.119 C 
HETATM   39  N7  UNL     1      -1.561 -10.324  15.904  1.00  0.00    -0.336 N 
HETATM   40  C18 UNL     1      -2.155  -8.497  14.588  1.00  0.00     0.123 C 
HETATM   41  C17 UNL     1      -2.871  -9.917  16.247  1.00  0.00     0.316 C 
ATOM     42  H7  UNL     1      -0.984 -11.000  16.403  1.00  0.00     0.164 HD
HETATM   43  O6  UNL     1      -3.606 -10.477  17.125  1.00  0.00    -0.247 OA
HETATM   44  N8  UNL     1      -3.248  -8.798  15.474  1.00  0.00    -0.335 N 
ATOM     45  H8  UNL     1      -4.134  -8.295  15.533  1.00  0.00     0.164 HD
ENDBRANCH  34  35
ENDBRANCH  33  34
ENDBRANCH  32  33
ENDBRANCH  31  32
ENDBRANCH  28  31
ENDBRANCH  24  27
ENDBRANCH   1  24
TORSDOF 11
ENDMDL
