MODEL 4
REMARK VINA RESULT: -12.101155313      3.398      5.303
REMARK  11 active torsions:
REMARK  status: ('A' for Active; 'I' for Inactive)
REMARK    1  A    between atoms: C2_2  and  O1_3 
REMARK    2  A    between atoms: C3_5  and  O2_6 
REMARK    3  A    between atoms: C4_8  and  C5_9 
REMARK    4  A    between atoms: C5_9  and  O3_10 
REMARK    5  A    between atoms: O3_10  and  S1_11 
REMARK    6  A    between atoms: S1_11  and  N1_14 
REMARK       I    between atoms: N1_14  and  C6_16 
REMARK    7  A    between atoms: C6_16  and  C7_18 
REMARK    8  A    between atoms: C7_18  and  C8_19 
REMARK    9  A    between atoms: C9_20  and  C10_21 
REMARK   10  A    between atoms: C10_21  and  C11_22 
REMARK   11  A    between atoms: C16_34  and  N4_35 
ROOT
HETATM    1  C5  UNL     1      -3.997  -1.724   8.148  1.00  0.00     0.226 C 
ENDROOT
BRANCH   1   2
HETATM    2  C4  UNL     1      -4.767  -0.740   7.395  1.00  0.00     0.181 C 
HETATM    3  C3  UNL     1      -5.219   0.576   7.869  1.00  0.00     0.187 C 
HETATM    4  C2  UNL     1      -6.393   0.842   6.826  1.00  0.00     0.126 C 
HETATM    5  C1  UNL     1      -7.645   0.517   7.618  1.00  0.00     0.053 C 
HETATM    6  C16 UNL     1      -6.108  -0.238   5.871  1.00  0.00     0.267 C 
HETATM    7  O8  UNL     1      -5.962  -1.323   6.830  1.00  0.00    -0.353 OA
BRANCH   3   8
HETATM    8  O2  UNL     1      -4.287   1.592   7.525  1.00  0.00    -0.390 OA
ATOM      9  H2  UNL     1      -3.636   1.102   7.035  1.00  0.00     0.210 HD
ENDBRANCH   3   8
BRANCH   4  10
HETATM   10  O1  UNL     1      -6.346   2.129   6.367  1.00  0.00    -0.383 OA
ATOM     11  H1  UNL     1      -5.561   2.333   5.873  1.00  0.00     0.210 HD
ENDBRANCH   4  10
BRANCH   6  12
HETATM   12  N4  UNL     1      -6.998  -0.593   4.846  1.00  0.00    -0.297 N 
HETATM   13  C17 UNL     1      -8.009   0.079   4.327  1.00  0.00     0.188 A 
HETATM   14  N5  UNL     1      -8.580  -0.647   3.310  1.00  0.00    -0.346 N 
HETATM   15  C18 UNL     1      -7.895  -1.800   3.193  1.00  0.00     0.119 A 
ATOM     16  H5  UNL     1      -9.379  -0.363   2.744  1.00  0.00     0.167 HD
HETATM   17  C19 UNL     1      -8.048  -2.861   2.330  1.00  0.00     0.148 A 
HETATM   18  C21 UNL     1      -6.907  -1.766   4.145  1.00  0.00     0.142 A 
HETATM   19  N6  UNL     1      -9.053  -2.957   1.362  1.00  0.00    -0.080 NA
HETATM   20  N7  UNL     1      -7.194  -3.931   2.407  1.00  0.00    -0.339 N 
HETATM   21  C20 UNL     1      -6.215  -3.872   3.365  1.00  0.00     0.183 A 
ATOM     22  H7  UNL     1      -7.282  -4.732   1.782  1.00  0.00     0.167 HD
HETATM   23  N8  UNL     1      -6.087  -2.827   4.195  1.00  0.00    -0.336 N 
ATOM     24  H8  UNL     1      -5.340  -2.839   4.889  1.00  0.00     0.168 HD
ENDBRANCH   6  12
ENDBRANCH   1   2
BRANCH   1  25
HETATM   25  O3  UNL     1      -3.041  -2.353   7.235  1.00  0.00    -0.257 OA
BRANCH  25  26
HETATM   26  S1  UNL     1      -3.469  -3.935   7.195  1.00  0.00     0.364 S 
HETATM   27  O4  UNL     1      -4.631  -4.047   6.170  1.00  0.00    -0.175 OA
HETATM   28  O5  UNL     1      -2.275  -4.613   6.387  1.00  0.00    -0.175 OA
BRANCH  26  29
HETATM   29  N1  UNL     1      -3.782  -4.944   8.425  1.00  0.00    -0.231 N 
HETATM   30  C6  UNL     1      -4.280  -6.270   8.587  1.00  0.00     0.235 C 
HETATM   31  O6  UNL     1      -4.536  -6.883   7.577  1.00  0.00    -0.272 OA
ATOM     32  H1  UNL     1      -3.563  -4.515   9.324  1.00  0.00     0.183 HD
BRANCH  30  33
HETATM   33  C7  UNL     1      -4.443  -6.699  10.028  1.00  0.00     0.130 C 
BRANCH  33  34
HETATM   34  C8  UNL     1      -3.728  -7.971  10.232  1.00  0.00    -0.022 C 
HETATM   35  C9  UNL     1      -3.766  -8.798  11.412  1.00  0.00    -0.029 C 
BRANCH  35  36
HETATM   36  C10 UNL     1      -3.554  -8.292  12.777  1.00  0.00     0.044 C 
BRANCH  36  37
HETATM   37  C11 UNL     1      -3.534  -9.342  13.854  1.00  0.00     0.075 C 
HETATM   38  S2  UNL     1      -3.368  -8.495  15.498  1.00  0.00    -0.160 SA
HETATM   39  C12 UNL     1      -2.887 -10.054  16.362  1.00  0.00     0.101 C 
HETATM   40  C13 UNL     1      -2.092 -10.695  15.302  1.00  0.00     0.119 C 
HETATM   41  N2  UNL     1      -0.714 -10.180  15.443  1.00  0.00    -0.336 N 
HETATM   42  C15 UNL     1      -2.539 -10.361  13.934  1.00  0.00     0.123 C 
HETATM   43  C14 UNL     1      -0.260  -9.849  14.165  1.00  0.00     0.316 C 
ATOM     44  H2  UNL     1      -0.192 -10.084  16.313  1.00  0.00     0.164 HD
HETATM   45  O7  UNL     1       0.856  -9.317  13.937  1.00  0.00    -0.247 OA
HETATM   46  N3  UNL     1      -1.284 -10.217  13.227  1.00  0.00    -0.335 N 
ATOM     47  H3  UNL     1      -1.148 -10.356  12.226  1.00  0.00     0.164 HD
ENDBRANCH  36  37
ENDBRANCH  35  36
ENDBRANCH  33  34
ENDBRANCH  30  33
ENDBRANCH  26  29
ENDBRANCH  25  26
ENDBRANCH   1  25
TORSDOF 11
ENDMDL
