MODEL 1
REMARK VINA RESULT: -12.899869248      0.000      0.000
REMARK  11 active torsions:
REMARK  status: ('A' for Active; 'I' for Inactive)
REMARK    1  A    between atoms: C2_2  and  O1_3 
REMARK    2  A    between atoms: C3_5  and  O2_6 
REMARK    3  A    between atoms: C4_8  and  C5_9 
REMARK    4  A    between atoms: C5_9  and  O3_10 
REMARK    5  A    between atoms: O3_10  and  S1_11 
REMARK    6  A    between atoms: S1_11  and  N1_14 
REMARK       I    between atoms: N1_14  and  C6_16 
REMARK    7  A    between atoms: C6_16  and  C7_18 
REMARK    8  A    between atoms: C7_18  and  C8_19 
REMARK    9  A    between atoms: C9_20  and  C10_21 
REMARK   10  A    between atoms: C10_21  and  C11_22 
REMARK   11  A    between atoms: C16_34  and  N4_35 
ROOT
HETATM    1  C5  UNL     1      -3.663  -1.368   6.796  1.00  0.00     0.226 C 
ENDROOT
BRANCH   1   2
HETATM    2  C4  UNL     1      -3.639  -0.325   7.815  1.00  0.00     0.181 C 
HETATM    3  C3  UNL     1      -2.748   0.844   7.862  1.00  0.00     0.187 C 
HETATM    4  C2  UNL     1      -2.867   1.204   9.409  1.00  0.00     0.126 C 
HETATM    5  C1  UNL     1      -1.587   0.643   9.999  1.00  0.00     0.053 C 
HETATM    6  C16 UNL     1      -4.004   0.343   9.764  1.00  0.00     0.267 C 
HETATM    7  O8  UNL     1      -3.529  -0.885   9.143  1.00  0.00    -0.353 OA
BRANCH   3   8
HETATM    8  O2  UNL     1      -3.353   1.974   7.251  1.00  0.00    -0.390 OA
ATOM      9  H2  UNL     1      -3.048   1.899   6.354  1.00  0.00     0.210 HD
ENDBRANCH   3   8
BRANCH   4  10
HETATM   10  O1  UNL     1      -3.011   2.552   9.578  1.00  0.00    -0.383 OA
ATOM     11  H1  UNL     1      -3.912   2.851   9.541  1.00  0.00     0.210 HD
ENDBRANCH   4  10
BRANCH   6  12
HETATM   12  N4  UNL     1      -4.390   0.114  11.093  1.00  0.00    -0.297 N 
HETATM   13  C17 UNL     1      -3.684   0.174  12.207  1.00  0.00     0.188 A 
HETATM   14  N5  UNL     1      -4.490  -0.091  13.287  1.00  0.00    -0.346 N 
HETATM   15  C18 UNL     1      -5.735  -0.315  12.825  1.00  0.00     0.119 A 
ATOM     16  H5  UNL     1      -4.199  -0.113  14.264  1.00  0.00     0.167 HD
HETATM   17  C19 UNL     1      -6.906  -0.609  13.486  1.00  0.00     0.148 A 
HETATM   18  C21 UNL     1      -5.675  -0.184  11.461  1.00  0.00     0.142 A 
HETATM   19  N6  UNL     1      -7.015  -0.780  14.870  1.00  0.00    -0.080 NA
HETATM   20  N7  UNL     1      -8.066  -0.780  12.773  1.00  0.00    -0.339 N 
HETATM   21  C20 UNL     1      -7.980  -0.642  11.412  1.00  0.00     0.183 A 
ATOM     22  H7  UNL     1      -8.949  -0.998  13.234  1.00  0.00     0.167 HD
HETATM   23  N8  UNL     1      -6.826  -0.356  10.792  1.00  0.00    -0.336 N 
ATOM     24  H8  UNL     1      -6.823  -0.267   9.776  1.00  0.00     0.168 HD
ENDBRANCH   6  12
ENDBRANCH   1   2
BRANCH   1  25
HETATM   25  O3  UNL     1      -2.675  -2.385   7.160  1.00  0.00    -0.257 OA
BRANCH  25  26
HETATM   26  S1  UNL     1      -3.501  -3.802   7.147  1.00  0.00     0.364 S 
HETATM   27  O4  UNL     1      -4.840  -3.521   6.412  1.00  0.00    -0.175 OA
HETATM   28  O5  UNL     1      -2.723  -4.665   6.058  1.00  0.00    -0.175 OA
BRANCH  26  29
HETATM   29  N1  UNL     1      -3.802  -4.824   8.369  1.00  0.00    -0.231 N 
HETATM   30  C6  UNL     1      -4.403  -6.106   8.534  1.00  0.00     0.235 C 
HETATM   31  O6  UNL     1      -4.794  -6.658   7.532  1.00  0.00    -0.272 OA
ATOM     32  H1  UNL     1      -3.474  -4.449   9.259  1.00  0.00     0.183 HD
BRANCH  30  33
HETATM   33  C7  UNL     1      -4.486  -6.573   9.971  1.00  0.00     0.130 C 
BRANCH  33  34
HETATM   34  C8  UNL     1      -3.735  -7.832  10.109  1.00  0.00    -0.022 C 
HETATM   35  C9  UNL     1      -3.714  -8.698  11.261  1.00  0.00    -0.029 C 
BRANCH  35  36
HETATM   36  C10 UNL     1      -3.472  -8.232  12.635  1.00  0.00     0.044 C 
BRANCH  36  37
HETATM   37  C11 UNL     1      -3.501  -9.305  13.689  1.00  0.00     0.075 C 
HETATM   38  S2  UNL     1      -3.421  -8.491  15.357  1.00  0.00    -0.160 SA
HETATM   39  C12 UNL     1      -2.977 -10.065  16.212  1.00  0.00     0.101 C 
HETATM   40  C13 UNL     1      -2.128 -10.683  15.180  1.00  0.00     0.119 C 
HETATM   41  N2  UNL     1      -0.761 -10.167  15.400  1.00  0.00    -0.336 N 
HETATM   42  C15 UNL     1      -2.507 -10.322  13.799  1.00  0.00     0.123 C 
HETATM   43  C14 UNL     1      -0.244  -9.808  14.154  1.00  0.00     0.316 C 
ATOM     44  H2  UNL     1      -0.283 -10.087  16.297  1.00  0.00     0.164 HD
HETATM   45  O7  UNL     1       0.880  -9.268  13.992  1.00  0.00    -0.247 OA
HETATM   46  N3  UNL     1      -1.219 -10.160  13.159  1.00  0.00    -0.335 N 
ATOM     47  H3  UNL     1      -1.033 -10.277  12.162  1.00  0.00     0.164 HD
ENDBRANCH  36  37
ENDBRANCH  35  36
ENDBRANCH  33  34
ENDBRANCH  30  33
ENDBRANCH  26  29
ENDBRANCH  25  26
ENDBRANCH   1  25
TORSDOF 11
ENDMDL
