MODEL 18
REMARK VINA RESULT: -11.247523027      1.227      1.509
REMARK  11 active torsions:
REMARK  status: ('A' for Active; 'I' for Inactive)
REMARK    1  A    between atoms: C2_2  and  O1_3 
REMARK    2  A    between atoms: C3_5  and  O2_6 
REMARK    3  A    between atoms: C4_8  and  C5_9 
REMARK    4  A    between atoms: C5_9  and  O3_10 
REMARK    5  A    between atoms: O3_10  and  S1_11 
REMARK    6  A    between atoms: S1_11  and  N1_14 
REMARK       I    between atoms: N1_14  and  C6_16 
REMARK    7  A    between atoms: C6_16  and  C7_18 
REMARK    8  A    between atoms: C7_18  and  C8_19 
REMARK    9  A    between atoms: C9_20  and  C10_21 
REMARK   10  A    between atoms: C10_21  and  C11_22 
REMARK   11  A    between atoms: C16_34  and  N4_35 
ROOT
HETATM    1  C5  UNL     1      -3.681  -1.371   6.763  1.00  0.00     0.226 C 
ENDROOT
BRANCH   1   2
HETATM    2  C4  UNL     1      -3.653  -0.330   7.785  1.00  0.00     0.181 C 
HETATM    3  C3  UNL     1      -2.756   0.834   7.833  1.00  0.00     0.187 C 
HETATM    4  C2  UNL     1      -2.874   1.192   9.382  1.00  0.00     0.126 C 
HETATM    5  C1  UNL     1      -1.595   0.626   9.969  1.00  0.00     0.053 C 
HETATM    6  C16 UNL     1      -4.014   0.334   9.735  1.00  0.00     0.267 C 
HETATM    7  O8  UNL     1      -3.544  -0.893   9.111  1.00  0.00    -0.353 OA
BRANCH   3   8
HETATM    8  O2  UNL     1      -3.358   1.968   7.225  1.00  0.00    -0.390 OA
ATOM      9  H2  UNL     1      -3.112   2.665   7.823  1.00  0.00     0.210 HD
ENDBRANCH   3   8
BRANCH   4  10
HETATM   10  O1  UNL     1      -3.012   2.541   9.553  1.00  0.00    -0.383 OA
ATOM     11  H1  UNL     1      -3.909   2.847   9.486  1.00  0.00     0.210 HD
ENDBRANCH   4  10
BRANCH   6  12
HETATM   12  N4  UNL     1      -4.400   0.104  11.064  1.00  0.00    -0.297 N 
HETATM   13  C17 UNL     1      -3.693   0.158  12.177  1.00  0.00     0.188 A 
HETATM   14  N5  UNL     1      -4.500  -0.105  13.257  1.00  0.00    -0.346 N 
HETATM   15  C18 UNL     1      -5.746  -0.322  12.796  1.00  0.00     0.119 A 
ATOM     16  H5  UNL     1      -4.208  -0.131  14.234  1.00  0.00     0.167 HD
HETATM   17  C19 UNL     1      -6.918  -0.611  13.457  1.00  0.00     0.148 A 
HETATM   18  C21 UNL     1      -5.686  -0.188  11.432  1.00  0.00     0.142 A 
HETATM   19  N6  UNL     1      -7.027  -0.785  14.840  1.00  0.00    -0.080 NA
HETATM   20  N7  UNL     1      -8.079  -0.775  12.745  1.00  0.00    -0.339 N 
HETATM   21  C20 UNL     1      -7.993  -0.634  11.384  1.00  0.00     0.183 A 
ATOM     22  H7  UNL     1      -8.963  -0.990  13.205  1.00  0.00     0.167 HD
HETATM   23  N8  UNL     1      -6.839  -0.353  10.764  1.00  0.00    -0.336 N 
ATOM     24  H8  UNL     1      -6.836  -0.261   9.748  1.00  0.00     0.168 HD
ENDBRANCH   6  12
ENDBRANCH   1   2
BRANCH   1  25
HETATM   25  O3  UNL     1      -2.682  -2.383   7.115  1.00  0.00    -0.257 OA
BRANCH  25  26
HETATM   26  S1  UNL     1      -3.502  -3.803   7.126  1.00  0.00     0.364 S 
HETATM   27  O4  UNL     1      -4.823  -3.551   6.349  1.00  0.00    -0.175 OA
HETATM   28  O5  UNL     1      -2.694  -4.696   6.083  1.00  0.00    -0.175 OA
BRANCH  26  29
HETATM   29  N1  UNL     1      -3.829  -4.788   8.371  1.00  0.00    -0.231 N 
HETATM   30  C6  UNL     1      -4.166  -6.161   8.556  1.00  0.00     0.235 C 
HETATM   31  O6  UNL     1      -4.212  -6.850   7.564  1.00  0.00    -0.272 OA
ATOM     32  H1  UNL     1      -3.782  -4.292   9.261  1.00  0.00     0.183 HD
BRANCH  30  33
HETATM   33  C7  UNL     1      -4.448  -6.542   9.993  1.00  0.00     0.130 C 
BRANCH  33  34
HETATM   34  C8  UNL     1      -4.016  -7.933  10.212  1.00  0.00    -0.022 C 
HETATM   35  C9  UNL     1      -4.204  -8.712  11.410  1.00  0.00    -0.029 C 
BRANCH  35  36
HETATM   36  C10 UNL     1      -3.863  -8.239  12.760  1.00  0.00     0.044 C 
BRANCH  36  37
HETATM   37  C11 UNL     1      -2.419  -8.401  13.150  1.00  0.00     0.075 C 
HETATM   38  S2  UNL     1      -1.846 -10.080  12.600  1.00  0.00    -0.160 SA
HETATM   39  C12 UNL     1      -0.346 -10.026  13.673  1.00  0.00     0.101 C 
HETATM   40  C13 UNL     1      -0.893  -9.311  14.838  1.00  0.00     0.119 C 
HETATM   41  N2  UNL     1      -1.495 -10.338  15.714  1.00  0.00    -0.336 N 
HETATM   42  C15 UNL     1      -1.964  -8.351  14.500  1.00  0.00     0.123 C 
HETATM   43  C14 UNL     1      -2.739  -9.858  16.125  1.00  0.00     0.316 C 
ATOM     44  H2  UNL     1      -1.077 -11.232  15.970  1.00  0.00     0.164 HD
HETATM   45  O7  UNL     1      -3.545 -10.518  16.829  1.00  0.00    -0.247 OA
HETATM   46  N3  UNL     1      -2.893  -8.531  15.595  1.00  0.00    -0.335 N 
ATOM     47  H3  UNL     1      -3.551  -7.830  15.936  1.00  0.00     0.164 HD
ENDBRANCH  36  37
ENDBRANCH  35  36
ENDBRANCH  33  34
ENDBRANCH  30  33
ENDBRANCH  26  29
ENDBRANCH  25  26
ENDBRANCH   1  25
TORSDOF 11
ENDMDL
