MODEL 5
REMARK VINA RESULT: -11.901493635      4.168      5.758
REMARK  11 active torsions:
REMARK  status: ('A' for Active; 'I' for Inactive)
REMARK    1  A    between atoms: C2_2  and  O1_3 
REMARK    2  A    between atoms: C3_5  and  O2_6 
REMARK    3  A    between atoms: C4_8  and  C5_9 
REMARK    4  A    between atoms: C5_9  and  O3_10 
REMARK    5  A    between atoms: O3_10  and  S1_11 
REMARK    6  A    between atoms: S1_11  and  N1_14 
REMARK       I    between atoms: N1_14  and  C6_16 
REMARK    7  A    between atoms: C6_16  and  C7_18 
REMARK    8  A    between atoms: C7_18  and  C8_19 
REMARK    9  A    between atoms: C9_20  and  C10_21 
REMARK   10  A    between atoms: C10_21  and  C11_22 
REMARK   11  A    between atoms: C16_34  and  N4_35 
ROOT
HETATM    1  C5  UNL     1      -5.310  -3.916   4.177  1.00  0.00     0.226 C 
ENDROOT
BRANCH   1   2
HETATM    2  C4  UNL     1      -6.384  -3.023   3.755  1.00  0.00     0.181 C 
HETATM    3  C3  UNL     1      -7.184  -3.125   2.526  1.00  0.00     0.187 C 
HETATM    4  C2  UNL     1      -7.720  -1.627   2.436  1.00  0.00     0.126 C 
HETATM    5  C1  UNL     1      -6.827  -0.998   1.385  1.00  0.00     0.053 C 
HETATM    6  C16 UNL     1      -7.331  -1.158   3.774  1.00  0.00     0.267 C 
HETATM    7  O8  UNL     1      -5.959  -1.642   3.766  1.00  0.00    -0.353 OA
BRANCH   3   8
HETATM    8  O2  UNL     1      -8.383  -3.852   2.754  1.00  0.00    -0.390 OA
ATOM      9  H2  UNL     1      -8.095  -4.515   3.371  1.00  0.00     0.210 HD
ENDBRANCH   3   8
BRANCH   4  10
HETATM   10  O1  UNL     1      -9.049  -1.612   2.116  1.00  0.00    -0.383 OA
ATOM     11  H1  UNL     1      -9.616  -1.364   2.837  1.00  0.00     0.210 HD
ENDBRANCH   4  10
BRANCH   6  12
HETATM   12  N4  UNL     1      -7.383   0.194   4.143  1.00  0.00    -0.297 N 
HETATM   13  C17 UNL     1      -8.367   1.067   4.038  1.00  0.00     0.188 A 
HETATM   14  N5  UNL     1      -7.980   2.274   4.569  1.00  0.00    -0.346 N 
HETATM   15  C18 UNL     1      -6.719   2.139   5.021  1.00  0.00     0.119 A 
ATOM     16  H5  UNL     1      -8.547   3.121   4.612  1.00  0.00     0.167 HD
HETATM   17  C19 UNL     1      -5.880   3.034   5.644  1.00  0.00     0.148 A 
HETATM   18  C21 UNL     1      -6.348   0.844   4.761  1.00  0.00     0.142 A 
HETATM   19  N6  UNL     1      -6.200   4.370   5.907  1.00  0.00    -0.080 NA
HETATM   20  N7  UNL     1      -4.624   2.638   6.027  1.00  0.00    -0.339 N 
HETATM   21  C20 UNL     1      -4.278   1.339   5.758  1.00  0.00     0.183 A 
ATOM     22  H7  UNL     1      -3.980   3.278   6.490  1.00  0.00     0.167 HD
HETATM   23  N8  UNL     1      -5.114   0.487   5.148  1.00  0.00    -0.336 N 
ATOM     24  H8  UNL     1      -4.800  -0.468   4.972  1.00  0.00     0.168 HD
ENDBRANCH   6  12
ENDBRANCH   1   2
BRANCH   1  25
HETATM   25  O3  UNL     1      -5.699  -4.530   5.448  1.00  0.00    -0.257 OA
BRANCH  25  26
HETATM   26  S1  UNL     1      -4.299  -4.698   6.285  1.00  0.00     0.364 S 
HETATM   27  O4  UNL     1      -3.273  -5.319   5.298  1.00  0.00    -0.175 OA
HETATM   28  O5  UNL     1      -3.760  -3.203   6.392  1.00  0.00    -0.175 OA
BRANCH  26  29
HETATM   29  N1  UNL     1      -4.051  -5.349   7.748  1.00  0.00    -0.231 N 
HETATM   30  C6  UNL     1      -4.714  -6.277   8.604  1.00  0.00     0.235 C 
HETATM   31  O6  UNL     1      -5.731  -6.777   8.183  1.00  0.00    -0.272 OA
ATOM     32  H1  UNL     1      -3.189  -5.003   8.170  1.00  0.00     0.183 HD
BRANCH  30  33
HETATM   33  C7  UNL     1      -4.044  -6.470   9.947  1.00  0.00     0.130 C 
BRANCH  33  34
HETATM   34  C8  UNL     1      -3.769  -7.904  10.143  1.00  0.00    -0.022 C 
HETATM   35  C9  UNL     1      -3.971  -8.660  11.353  1.00  0.00    -0.029 C 
BRANCH  35  36
HETATM   36  C10 UNL     1      -3.486  -8.237  12.676  1.00  0.00     0.044 C 
BRANCH  36  37
HETATM   37  C11 UNL     1      -3.498  -9.306  13.734  1.00  0.00     0.075 C 
HETATM   38  S2  UNL     1      -3.402  -8.486  15.398  1.00  0.00    -0.160 SA
HETATM   39  C12 UNL     1      -2.942 -10.056  16.252  1.00  0.00     0.101 C 
HETATM   40  C13 UNL     1      -2.102 -10.674  15.213  1.00  0.00     0.119 C 
HETATM   41  N2  UNL     1      -0.735 -10.152  15.415  1.00  0.00    -0.336 N 
HETATM   42  C15 UNL     1      -2.500 -10.319  13.835  1.00  0.00     0.123 C 
HETATM   43  C14 UNL     1      -0.235  -9.795  14.161  1.00  0.00     0.316 C 
ATOM     44  H2  UNL     1      -0.246 -10.067  16.306  1.00  0.00     0.164 HD
HETATM   45  O7  UNL     1       0.885  -9.251  13.985  1.00  0.00    -0.247 OA
HETATM   46  N3  UNL     1      -1.220 -10.154  13.179  1.00  0.00    -0.335 N 
ATOM     47  H3  UNL     1      -1.045 -10.274  12.181  1.00  0.00     0.164 HD
ENDBRANCH  36  37
ENDBRANCH  35  36
ENDBRANCH  33  34
ENDBRANCH  30  33
ENDBRANCH  26  29
ENDBRANCH  25  26
ENDBRANCH   1  25
TORSDOF 11
ENDMDL
