MODEL 3
REMARK VINA RESULT: -12.136395108      4.427      5.968
REMARK  11 active torsions:
REMARK  status: ('A' for Active; 'I' for Inactive)
REMARK    1  A    between atoms: C2_2  and  O1_3 
REMARK    2  A    between atoms: C3_5  and  O2_6 
REMARK    3  A    between atoms: C4_8  and  C5_9 
REMARK    4  A    between atoms: C5_9  and  O3_10 
REMARK    5  A    between atoms: O3_10  and  S1_11 
REMARK    6  A    between atoms: S1_11  and  N1_14 
REMARK       I    between atoms: N1_14  and  C6_16 
REMARK    7  A    between atoms: C6_16  and  C7_18 
REMARK    8  A    between atoms: C7_18  and  C8_19 
REMARK    9  A    between atoms: C9_20  and  C10_21 
REMARK   10  A    between atoms: C10_21  and  C11_22 
REMARK   11  A    between atoms: C16_34  and  N4_35 
ROOT
HETATM    1  C5  UNL     1      -5.110  -1.529   6.029  1.00  0.00     0.226 C 
ENDROOT
BRANCH   1   2
HETATM    2  C4  UNL     1      -6.311  -1.654   5.211  1.00  0.00     0.181 C 
HETATM    3  C3  UNL     1      -6.535  -2.604   4.111  1.00  0.00     0.187 C 
HETATM    4  C2  UNL     1      -7.721  -1.856   3.354  1.00  0.00     0.126 C 
HETATM    5  C1  UNL     1      -7.025  -1.200   2.177  1.00  0.00     0.053 C 
HETATM    6  C16 UNL     1      -8.049  -0.848   4.372  1.00  0.00     0.267 C 
HETATM    7  O8  UNL     1      -6.697  -0.383   4.640  1.00  0.00    -0.353 OA
BRANCH   3   8
HETATM    8  O2  UNL     1      -7.181  -3.781   4.576  1.00  0.00    -0.390 OA
ATOM      9  H2  UNL     1      -8.042  -3.452   4.810  1.00  0.00     0.210 HD
ENDBRANCH   3   8
BRANCH   4  10
HETATM   10  O1  UNL     1      -8.697  -2.744   2.997  1.00  0.00    -0.383 OA
ATOM     11  H1  UNL     1      -8.449  -3.654   3.107  1.00  0.00     0.210 HD
ENDBRANCH   4  10
BRANCH   6  12
HETATM   12  N4  UNL     1      -8.907   0.232   4.113  1.00  0.00    -0.297 N 
HETATM   13  C17 UNL     1      -8.778   1.237   3.266  1.00  0.00     0.188 A 
HETATM   14  N5  UNL     1      -9.890   2.042   3.324  1.00  0.00    -0.346 N 
HETATM   15  C18 UNL     1     -10.733   1.514   4.232  1.00  0.00     0.119 A 
ATOM     16  H5  UNL     1     -10.048   2.889   2.778  1.00  0.00     0.167 HD
HETATM   17  C19 UNL     1     -11.977   1.922   4.655  1.00  0.00     0.148 A 
HETATM   18  C21 UNL     1     -10.125   0.386   4.720  1.00  0.00     0.142 A 
HETATM   19  N6  UNL     1     -12.628   3.077   4.210  1.00  0.00    -0.080 NA
HETATM   20  N7  UNL     1     -12.651   1.187   5.598  1.00  0.00    -0.339 N 
HETATM   21  C20 UNL     1     -12.022   0.063   6.068  1.00  0.00     0.183 A 
ATOM     22  H7  UNL     1     -13.573   1.463   5.932  1.00  0.00     0.167 HD
HETATM   23  N8  UNL     1     -10.809  -0.312   5.640  1.00  0.00    -0.336 N 
ATOM     24  H8  UNL     1     -10.390  -1.157   6.028  1.00  0.00     0.168 HD
ENDBRANCH   6  12
ENDBRANCH   1   2
BRANCH   1  25
HETATM   25  O3  UNL     1      -5.280  -2.364   7.220  1.00  0.00    -0.257 OA
BRANCH  25  26
HETATM   26  S1  UNL     1      -4.056  -3.452   7.154  1.00  0.00     0.364 S 
HETATM   27  O4  UNL     1      -4.083  -4.055   5.723  1.00  0.00    -0.175 OA
HETATM   28  O5  UNL     1      -2.757  -2.532   7.078  1.00  0.00    -0.175 OA
BRANCH  26  29
HETATM   29  N1  UNL     1      -3.681  -4.638   8.194  1.00  0.00    -0.231 N 
HETATM   30  C6  UNL     1      -4.269  -5.857   8.644  1.00  0.00     0.235 C 
HETATM   31  O6  UNL     1      -5.320  -6.174   8.139  1.00  0.00    -0.272 OA
ATOM     32  H1  UNL     1      -2.784  -4.467   8.649  1.00  0.00     0.183 HD
BRANCH  30  33
HETATM   33  C7  UNL     1      -3.483  -6.561   9.728  1.00  0.00     0.130 C 
BRANCH  33  34
HETATM   34  C8  UNL     1      -4.377  -7.490  10.441  1.00  0.00    -0.022 C 
HETATM   35  C9  UNL     1      -4.453  -7.686  11.866  1.00  0.00    -0.029 C 
BRANCH  35  36
HETATM   36  C10 UNL     1      -3.283  -7.921  12.727  1.00  0.00     0.044 C 
BRANCH  36  37
HETATM   37  C11 UNL     1      -3.371  -9.136  13.610  1.00  0.00     0.075 C 
HETATM   38  S2  UNL     1      -3.417  -8.573  15.380  1.00  0.00    -0.160 SA
HETATM   39  C12 UNL     1      -3.014 -10.254  16.025  1.00  0.00     0.101 C 
HETATM   40  C13 UNL     1      -2.087 -10.713  14.977  1.00  0.00     0.119 C 
HETATM   41  N2  UNL     1      -0.745 -10.231  15.365  1.00  0.00    -0.336 N 
HETATM   42  C15 UNL     1      -2.375 -10.155  13.640  1.00  0.00     0.123 C 
HETATM   43  C14 UNL     1      -0.149  -9.693  14.223  1.00  0.00     0.316 C 
ATOM     44  H2  UNL     1      -0.331 -10.282  16.296  1.00  0.00     0.164 HD
HETATM   45  O7  UNL     1       0.977  -9.133  14.221  1.00  0.00    -0.247 OA
HETATM   46  N3  UNL     1      -1.048  -9.899  13.122  1.00  0.00    -0.335 N 
ATOM     47  H3  UNL     1      -0.792  -9.870  12.135  1.00  0.00     0.164 HD
ENDBRANCH  36  37
ENDBRANCH  35  36
ENDBRANCH  33  34
ENDBRANCH  30  33
ENDBRANCH  26  29
ENDBRANCH  25  26
ENDBRANCH   1  25
TORSDOF 11
ENDMDL
