MODEL 6
REMARK VINA RESULT: -11.020310893      3.195      4.643
REMARK  10 active torsions:
REMARK  status: ('A' for Active; 'I' for Inactive)
REMARK    1  A    between atoms: N5_13  and  C6_14 
REMARK    2  A    between atoms: C9_20  and  C10_21 
REMARK    3  A    between atoms: C10_21  and  O1_22 
REMARK    4  A    between atoms: O1_22  and  S1_23 
REMARK    5  A    between atoms: S1_23  and  N7_26 
REMARK       I    between atoms: N7_26  and  C11_28 
REMARK    6  A    between atoms: C11_28  and  C12_30 
REMARK    7  A    between atoms: C12_30  and  C13_31 
REMARK    8  A    between atoms: C13_31  and  C14_32 
REMARK    9  A    between atoms: C14_32  and  C15_33 
REMARK   10  A    between atoms: C15_33  and  C16_34 
ROOT
HETATM    1  O1  UNL     1      -4.152  -3.192   6.464  1.00  0.00    -0.257 OA
ENDROOT
BRANCH   1   2
HETATM    2  C10 UNL     1      -3.626  -2.758   7.676  1.00  0.00     0.225 C 
BRANCH   2   3
HETATM    3  C9  UNL     1      -4.542  -1.618   8.129  1.00  0.00     0.175 C 
HETATM    4  C8  UNL     1      -5.128  -1.848   9.484  1.00  0.00     0.266 C 
HETATM    5  N6  UNL     1      -6.140  -0.858   9.736  1.00  0.00    -0.069 N 
HETATM    6  C7  UNL     1      -7.155  -0.792   8.705  1.00  0.00     0.286 C 
ATOM      7  H62 UNL     1      -5.718   0.058   9.885  1.00  0.00     0.277 HD
ATOM      8  H61 UNL     1      -6.565  -1.001  10.652  1.00  0.00     0.277 HD
HETATM    9  C6  UNL     1      -6.446  -0.535   7.387  1.00  0.00     0.256 C 
HETATM   10  O6  UNL     1      -5.595  -1.618   7.191  1.00  0.00    -0.355 OA
BRANCH   9  11
HETATM   11  N5  UNL     1      -7.339  -0.434   6.274  1.00  0.00    -0.298 N 
HETATM   12  C3  UNL     1      -7.350  -1.116   5.116  1.00  0.00     0.142 A 
HETATM   13  N3  UNL     1      -6.534  -2.081   4.670  1.00  0.00    -0.336 N 
HETATM   14  C4  UNL     1      -8.393  -0.685   4.348  1.00  0.00     0.119 A 
HETATM   15  C2  UNL     1      -6.782  -2.607   3.436  1.00  0.00     0.183 A 
ATOM     16  H3  UNL     1      -5.752  -2.412   5.236  1.00  0.00     0.168 HD
HETATM   17  N2  UNL     1      -7.813  -2.182   2.673  1.00  0.00    -0.339 N 
HETATM   18  C1  UNL     1      -8.639  -1.228   3.088  1.00  0.00     0.148 A 
ATOM     19  H2  UNL     1      -7.961  -2.604   1.756  1.00  0.00     0.167 HD
HETATM   20  N1  UNL     1      -9.737  -0.735   2.346  1.00  0.00    -0.080 NA
HETATM   21  N4  UNL     1      -9.018   0.268   5.050  1.00  0.00    -0.346 N 
HETATM   22  C5  UNL     1      -8.388   0.424   6.211  1.00  0.00     0.188 A 
ATOM     23  H4  UNL     1      -9.841   0.789   4.745  1.00  0.00     0.167 HD
ENDBRANCH   9  11
ENDBRANCH   2   3
ENDBRANCH   1   2
BRANCH   1  24
HETATM   24  S1  UNL     1      -4.492  -4.832   6.440  1.00  0.00     0.364 S 
HETATM   25  O2  UNL     1      -5.730  -5.060   5.631  1.00  0.00    -0.175 OA
HETATM   26  O3  UNL     1      -3.369  -5.625   5.844  1.00  0.00    -0.175 OA
BRANCH  24  27
HETATM   27  N7  UNL     1      -4.781  -5.339   8.063  1.00  0.00    -0.231 N 
HETATM   28  C11 UNL     1      -4.934  -6.726   8.397  1.00  0.00     0.232 C 
HETATM   29  O4  UNL     1      -4.843  -7.520   7.442  1.00  0.00    -0.273 OA
ATOM     30  H7  UNL     1      -4.844  -4.638   8.801  1.00  0.00     0.183 HD
BRANCH  28  31
HETATM   31  C12 UNL     1      -5.180  -7.178   9.774  1.00  0.00     0.104 C 
BRANCH  31  32
HETATM   32  C13 UNL     1      -4.481  -8.423  10.172  1.00  0.00     0.009 C 
BRANCH  32  33
HETATM   33  C14 UNL     1      -4.496  -8.671  11.653  1.00  0.00     0.002 C 
BRANCH  33  34
HETATM   34  C15 UNL     1      -4.283 -10.068  12.063  1.00  0.00     0.017 C 
BRANCH  34  35
HETATM   35  C16 UNL     1      -3.940 -10.432  13.414  1.00  0.00     0.072 C 
HETATM   36  S2  UNL     1      -4.246  -9.248  14.741  1.00  0.00    -0.160 SA
HETATM   37  C17 UNL     1      -3.041  -9.941  15.950  1.00  0.00     0.101 C 
HETATM   38  C18 UNL     1      -2.562 -11.165  15.205  1.00  0.00     0.119 C 
HETATM   39  N8  UNL     1      -1.121 -11.253  15.467  1.00  0.00    -0.336 N 
HETATM   40  C20 UNL     1      -2.525 -10.800  13.715  1.00  0.00     0.123 C 
HETATM   41  C19 UNL     1      -0.586 -10.151  14.702  1.00  0.00     0.316 C 
ATOM     42  H8  UNL     1      -0.620 -11.926  16.048  1.00  0.00     0.164 HD
HETATM   43  O5  UNL     1       0.568  -9.662  14.843  1.00  0.00    -0.247 OA
HETATM   44  N9  UNL     1      -1.590  -9.716  13.762  1.00  0.00    -0.335 N 
ATOM     45  H9  UNL     1      -1.626  -8.836  13.247  1.00  0.00     0.164 HD
ENDBRANCH  34  35
ENDBRANCH  33  34
ENDBRANCH  32  33
ENDBRANCH  31  32
ENDBRANCH  28  31
ENDBRANCH  24  27
ENDBRANCH   1  24
TORSDOF 10
ENDMDL
