MODEL 5
REMARK VINA RESULT: -11.245735272      3.411      5.229
REMARK  10 active torsions:
REMARK  status: ('A' for Active; 'I' for Inactive)
REMARK    1  A    between atoms: N5_13  and  C6_14 
REMARK    2  A    between atoms: C9_20  and  C10_21 
REMARK    3  A    between atoms: C10_21  and  O1_22 
REMARK    4  A    between atoms: O1_22  and  S1_23 
REMARK    5  A    between atoms: S1_23  and  N7_26 
REMARK       I    between atoms: N7_26  and  C11_28 
REMARK    6  A    between atoms: C11_28  and  C12_30 
REMARK    7  A    between atoms: C12_30  and  C13_31 
REMARK    8  A    between atoms: C13_31  and  C14_32 
REMARK    9  A    between atoms: C14_32  and  C15_33 
REMARK   10  A    between atoms: C15_33  and  C16_34 
ROOT
HETATM    1  O1  UNL     1      -5.613  -3.617   7.922  1.00  0.00    -0.257 OA
ENDROOT
BRANCH   1   2
HETATM    2  C10 UNL     1      -5.397  -2.684   8.929  1.00  0.00     0.225 C 
BRANCH   2   3
HETATM    3  C9  UNL     1      -6.256  -1.475   8.551  1.00  0.00     0.175 C 
HETATM    4  C8  UNL     1      -7.208  -1.078   9.632  1.00  0.00     0.266 C 
HETATM    5  N6  UNL     1      -8.122  -0.094   9.119  1.00  0.00    -0.069 N 
HETATM    6  C7  UNL     1      -8.808  -0.512   7.914  1.00  0.00     0.286 C 
ATOM      7  H62 UNL     1      -7.649   0.798   8.973  1.00  0.00     0.277 HD
ATOM      8  H61 UNL     1      -8.792   0.185   9.836  1.00  0.00     0.277 HD
HETATM    9  C6  UNL     1      -7.745  -0.867   6.889  1.00  0.00     0.256 C 
HETATM   10  O6  UNL     1      -7.011  -1.910   7.442  1.00  0.00    -0.355 OA
BRANCH   9  11
HETATM   11  N5  UNL     1      -8.287  -1.289   5.634  1.00  0.00    -0.298 N 
HETATM   12  C3  UNL     1      -7.912  -2.301   4.833  1.00  0.00     0.142 A 
HETATM   13  N3  UNL     1      -6.928  -3.200   4.974  1.00  0.00    -0.336 N 
HETATM   14  C4  UNL     1      -8.722  -2.331   3.734  1.00  0.00     0.119 A 
HETATM   15  C2  UNL     1      -6.770  -4.133   3.990  1.00  0.00     0.183 A 
ATOM     16  H3  UNL     1      -6.318  -3.188   5.791  1.00  0.00     0.168 HD
HETATM   17  N2  UNL     1      -7.571  -4.164   2.902  1.00  0.00    -0.339 N 
HETATM   18  C1  UNL     1      -8.554  -3.287   2.734  1.00  0.00     0.148 A 
ATOM     19  H2  UNL     1      -7.416  -4.880   2.191  1.00  0.00     0.167 HD
HETATM   20  N1  UNL     1      -9.429  -3.261   1.624  1.00  0.00    -0.080 NA
HETATM   21  N4  UNL     1      -9.595  -1.325   3.875  1.00  0.00    -0.346 N 
HETATM   22  C5  UNL     1      -9.338  -0.695   5.016  1.00  0.00     0.188 A 
ATOM     23  H4  UNL     1     -10.335  -1.084   3.215  1.00  0.00     0.167 HD
ENDBRANCH   9  11
ENDBRANCH   2   3
ENDBRANCH   1   2
BRANCH   1  24
HETATM   24  S1  UNL     1      -4.229  -4.452   7.485  1.00  0.00     0.364 S 
HETATM   25  O2  UNL     1      -4.355  -4.893   6.060  1.00  0.00    -0.175 OA
HETATM   26  O3  UNL     1      -3.000  -3.608   7.625  1.00  0.00    -0.175 OA
BRANCH  24  27
HETATM   27  N7  UNL     1      -4.109  -5.846   8.494  1.00  0.00    -0.231 N 
HETATM   28  C11 UNL     1      -5.069  -6.910   8.417  1.00  0.00     0.232 C 
HETATM   29  O4  UNL     1      -5.979  -6.752   7.581  1.00  0.00    -0.273 OA
ATOM     30  H7  UNL     1      -3.340  -5.916   9.159  1.00  0.00     0.183 HD
BRANCH  28  31
HETATM   31  C12 UNL     1      -4.985  -8.106   9.268  1.00  0.00     0.104 C 
BRANCH  31  32
HETATM   32  C13 UNL     1      -4.170  -7.959  10.497  1.00  0.00     0.009 C 
BRANCH  32  33
HETATM   33  C14 UNL     1      -4.470  -8.996  11.541  1.00  0.00     0.002 C 
BRANCH  33  34
HETATM   34  C15 UNL     1      -4.111  -8.628  12.920  1.00  0.00     0.017 C 
BRANCH  34  35
HETATM   35  C16 UNL     1      -4.092  -9.587  13.995  1.00  0.00     0.072 C 
HETATM   36  S2  UNL     1      -4.112  -8.990  15.698  1.00  0.00    -0.160 SA
HETATM   37  C17 UNL     1      -3.396 -10.498  16.478  1.00  0.00     0.101 C 
HETATM   38  C18 UNL     1      -3.302 -11.419  15.285  1.00  0.00     0.119 C 
HETATM   39  N8  UNL     1      -2.032 -12.140  15.437  1.00  0.00    -0.336 N 
HETATM   40  C20 UNL     1      -2.952 -10.549  14.070  1.00  0.00     0.123 C 
HETATM   41  C19 UNL     1      -1.047 -11.121  15.165  1.00  0.00     0.316 C 
ATOM     42  H8  UNL     1      -1.883 -13.121  15.676  1.00  0.00     0.164 HD
HETATM   43  O5  UNL     1       0.179 -11.201  15.450  1.00  0.00    -0.247 OA
HETATM   44  N9  UNL     1      -1.703 -10.010  14.518  1.00  0.00    -0.335 N 
ATOM     45  H9  UNL     1      -1.356  -9.057  14.406  1.00  0.00     0.164 HD
ENDBRANCH  34  35
ENDBRANCH  33  34
ENDBRANCH  32  33
ENDBRANCH  31  32
ENDBRANCH  28  31
ENDBRANCH  24  27
ENDBRANCH   1  24
TORSDOF 10
ENDMDL
