MODEL 1
REMARK VINA RESULT: -11.826239868      0.000      0.000
REMARK  10 active torsions:
REMARK  status: ('A' for Active; 'I' for Inactive)
REMARK    1  A    between atoms: N5_13  and  C6_14 
REMARK    2  A    between atoms: C9_20  and  C10_21 
REMARK    3  A    between atoms: C10_21  and  O1_22 
REMARK    4  A    between atoms: O1_22  and  S1_23 
REMARK    5  A    between atoms: S1_23  and  N7_26 
REMARK       I    between atoms: N7_26  and  C11_28 
REMARK    6  A    between atoms: C11_28  and  C12_30 
REMARK    7  A    between atoms: C12_30  and  C13_31 
REMARK    8  A    between atoms: C13_31  and  C14_32 
REMARK    9  A    between atoms: C14_32  and  C15_33 
REMARK   10  A    between atoms: C15_33  and  C16_34 
ROOT
HETATM    1  O1  UNL     1      -3.298  -3.177   7.511  1.00  0.00    -0.257 OA
ENDROOT
BRANCH   1   2
HETATM    2  C10 UNL     1      -3.785  -2.017   6.920  1.00  0.00     0.225 C 
BRANCH   2   3
HETATM    3  C9  UNL     1      -3.393  -0.884   7.872  1.00  0.00     0.175 C 
HETATM    4  C8  UNL     1      -1.917  -0.783   8.079  1.00  0.00     0.266 C 
HETATM    5  N6  UNL     1      -1.652   0.144   9.147  1.00  0.00    -0.069 N 
HETATM    6  C7  UNL     1      -2.357  -0.167  10.373  1.00  0.00     0.286 C 
ATOM      7  H62 UNL     1      -1.848   1.100   8.851  1.00  0.00     0.277 HD
ATOM      8  H61 UNL     1      -0.649   0.220   9.317  1.00  0.00     0.277 HD
HETATM    9  C6  UNL     1      -3.838  -0.221  10.042  1.00  0.00     0.256 C 
HETATM   10  O6  UNL     1      -3.986  -1.235   9.102  1.00  0.00    -0.355 OA
BRANCH   9  11
HETATM   11  N5  UNL     1      -4.661  -0.510  11.176  1.00  0.00    -0.298 N 
HETATM   12  C3  UNL     1      -5.978  -0.768  11.239  1.00  0.00     0.142 A 
HETATM   13  N3  UNL     1      -6.898  -0.829  10.265  1.00  0.00    -0.336 N 
HETATM   14  C4  UNL     1      -6.334  -0.991  12.538  1.00  0.00     0.119 A 
HETATM   15  C2  UNL     1      -8.184  -1.116  10.619  1.00  0.00     0.183 A 
ATOM     16  H3  UNL     1      -6.644  -0.665   9.291  1.00  0.00     0.168 HD
HETATM   17  N2  UNL     1      -8.538  -1.336  11.904  1.00  0.00    -0.339 N 
HETATM   18  C1  UNL     1      -7.650  -1.284  12.891  1.00  0.00     0.148 A 
ATOM     19  H2  UNL     1      -9.512  -1.548  12.123  1.00  0.00     0.167 HD
HETATM   20  N1  UNL     1      -7.949  -1.504  14.255  1.00  0.00    -0.080 NA
HETATM   21  N4  UNL     1      -5.218  -0.865  13.267  1.00  0.00    -0.346 N 
HETATM   22  C5  UNL     1      -4.208  -0.575  12.453  1.00  0.00     0.188 A 
ATOM     23  H4  UNL     1      -5.154  -0.973  14.280  1.00  0.00     0.167 HD
ENDBRANCH   9  11
ENDBRANCH   2   3
ENDBRANCH   1   2
BRANCH   1  24
HETATM   24  S1  UNL     1      -4.103  -4.560   7.018  1.00  0.00     0.364 S 
HETATM   25  O2  UNL     1      -5.449  -4.177   6.486  1.00  0.00    -0.175 OA
HETATM   26  O3  UNL     1      -3.350  -5.294   5.950  1.00  0.00    -0.175 OA
BRANCH  24  27
HETATM   27  N7  UNL     1      -4.314  -5.573   8.398  1.00  0.00    -0.231 N 
HETATM   28  C11 UNL     1      -5.247  -6.662   8.390  1.00  0.00     0.232 C 
HETATM   29  O4  UNL     1      -5.881  -6.818   7.330  1.00  0.00    -0.273 OA
ATOM     30  H7  UNL     1      -3.763  -5.393   9.238  1.00  0.00     0.183 HD
BRANCH  28  31
HETATM   31  C12 UNL     1      -5.441  -7.537   9.556  1.00  0.00     0.104 C 
BRANCH  31  32
HETATM   32  C13 UNL     1      -4.216  -7.850  10.330  1.00  0.00     0.009 C 
BRANCH  32  33
HETATM   33  C14 UNL     1      -4.494  -8.268  11.746  1.00  0.00     0.002 C 
BRANCH  33  34
HETATM   34  C15 UNL     1      -4.263  -9.692  12.042  1.00  0.00     0.017 C 
BRANCH  34  35
HETATM   35  C16 UNL     1      -4.150 -10.191  13.389  1.00  0.00     0.072 C 
HETATM   36  S2  UNL     1      -4.158  -9.016  14.759  1.00  0.00    -0.160 SA
HETATM   37  C17 UNL     1      -3.324 -10.098  15.994  1.00  0.00     0.101 C 
HETATM   38  C18 UNL     1      -3.205 -11.385  15.212  1.00  0.00     0.119 C 
HETATM   39  N8  UNL     1      -1.888 -11.937  15.550  1.00  0.00    -0.336 N 
HETATM   40  C20 UNL     1      -2.949 -11.002  13.749  1.00  0.00     0.123 C 
HETATM   41  C19 UNL     1      -0.979 -11.039  14.878  1.00  0.00     0.316 C 
ATOM     42  H8  UNL     1      -1.669 -12.754  16.121  1.00  0.00     0.164 HD
HETATM   43  O5  UNL     1       0.257 -10.949  15.110  1.00  0.00    -0.247 OA
HETATM   44  N9  UNL     1      -1.724 -10.275  13.907  1.00  0.00    -0.335 N 
ATOM     45  H9  UNL     1      -1.443  -9.412  13.440  1.00  0.00     0.164 HD
ENDBRANCH  34  35
ENDBRANCH  33  34
ENDBRANCH  32  33
ENDBRANCH  31  32
ENDBRANCH  28  31
ENDBRANCH  24  27
ENDBRANCH   1  24
TORSDOF 10
ENDMDL
