MODEL 4
REMARK VINA RESULT: -11.391045508      1.351      2.086
REMARK  10 active torsions:
REMARK  status: ('A' for Active; 'I' for Inactive)
REMARK    1  A    between atoms: N5_13  and  C6_14 
REMARK    2  A    between atoms: C9_20  and  C10_21 
REMARK    3  A    between atoms: C10_21  and  O1_22 
REMARK    4  A    between atoms: O1_22  and  S1_23 
REMARK    5  A    between atoms: S1_23  and  N7_26 
REMARK       I    between atoms: N7_26  and  C11_28 
REMARK    6  A    between atoms: C11_28  and  C12_30 
REMARK    7  A    between atoms: C12_30  and  C13_31 
REMARK    8  A    between atoms: C13_31  and  C14_32 
REMARK    9  A    between atoms: C14_32  and  C15_33 
REMARK   10  A    between atoms: C15_33  and  C16_34 
ROOT
HETATM    1  O1  UNL     1      -5.400  -3.930   6.708  1.00  0.00    -0.257 OA
ENDROOT
BRANCH   1   2
HETATM    2  C10 UNL     1      -5.759  -3.034   5.708  1.00  0.00     0.225 C 
BRANCH   2   3
HETATM    3  C9  UNL     1      -5.592  -1.645   6.332  1.00  0.00     0.175 C 
HETATM    4  C8  UNL     1      -4.172  -1.181   6.343  1.00  0.00     0.266 C 
HETATM    5  N6  UNL     1      -4.071   0.013   7.139  1.00  0.00    -0.069 N 
HETATM    6  C7  UNL     1      -4.609  -0.135   8.475  1.00  0.00     0.286 C 
ATOM      7  H62 UNL     1      -4.505   0.802   6.660  1.00  0.00     0.277 HD
ATOM      8  H61 UNL     1      -3.106   0.343   7.172  1.00  0.00     0.277 HD
HETATM    9  C6  UNL     1      -6.052  -0.586   8.335  1.00  0.00     0.256 C 
HETATM   10  O6  UNL     1      -6.010  -1.806   7.668  1.00  0.00    -0.355 OA
BRANCH   9  11
HETATM   11  N5  UNL     1      -6.715  -0.761   9.591  1.00  0.00    -0.298 N 
HETATM   12  C3  UNL     1      -6.197  -0.915  10.821  1.00  0.00     0.142 A 
HETATM   13  N3  UNL     1      -4.920  -0.950  11.227  1.00  0.00    -0.336 N 
HETATM   14  C4  UNL     1      -7.213  -1.046  11.725  1.00  0.00     0.119 A 
HETATM   15  C2  UNL     1      -4.678  -1.121  12.559  1.00  0.00     0.183 A 
ATOM     16  H3  UNL     1      -4.154  -0.852  10.561  1.00  0.00     0.168 HD
HETATM   17  N2  UNL     1      -5.681  -1.251  13.455  1.00  0.00    -0.339 N 
HETATM   18  C1  UNL     1      -6.956  -1.220  13.084  1.00  0.00     0.148 A 
ATOM     19  H2  UNL     1      -5.454  -1.377  14.442  1.00  0.00     0.167 HD
HETATM   20  N1  UNL     1      -8.055  -1.348  13.965  1.00  0.00    -0.080 NA
HETATM   21  N4  UNL     1      -8.355  -0.970  11.031  1.00  0.00    -0.346 N 
HETATM   22  C5  UNL     1      -8.062  -0.799   9.746  1.00  0.00     0.188 A 
ATOM     23  H4  UNL     1      -9.295  -1.034  11.424  1.00  0.00     0.167 HD
ENDBRANCH   9  11
ENDBRANCH   2   3
ENDBRANCH   1   2
BRANCH   1  24
HETATM   24  S1  UNL     1      -4.690  -5.328   6.119  1.00  0.00     0.364 S 
HETATM   25  O2  UNL     1      -5.203  -5.592   4.738  1.00  0.00    -0.175 OA
HETATM   26  O3  UNL     1      -3.197  -5.218   6.070  1.00  0.00    -0.175 OA
BRANCH  24  27
HETATM   27  N7  UNL     1      -5.155  -6.633   7.148  1.00  0.00    -0.231 N 
HETATM   28  C11 UNL     1      -4.886  -6.608   8.556  1.00  0.00     0.232 C 
HETATM   29  O4  UNL     1      -4.302  -5.589   8.972  1.00  0.00    -0.273 OA
ATOM     30  H7  UNL     1      -5.631  -7.441   6.745  1.00  0.00     0.183 HD
BRANCH  28  31
HETATM   31  C12 UNL     1      -5.274  -7.709   9.450  1.00  0.00     0.104 C 
BRANCH  31  32
HETATM   32  C13 UNL     1      -4.166  -8.337  10.208  1.00  0.00     0.009 C 
BRANCH  32  33
HETATM   33  C14 UNL     1      -4.487  -8.567  11.657  1.00  0.00     0.002 C 
BRANCH  33  34
HETATM   34  C15 UNL     1      -4.416  -9.967  12.106  1.00  0.00     0.017 C 
BRANCH  34  35
HETATM   35  C16 UNL     1      -4.058 -10.327  13.455  1.00  0.00     0.072 C 
HETATM   36  S2  UNL     1      -4.283  -9.114  14.771  1.00  0.00    -0.160 SA
HETATM   37  C17 UNL     1      -3.080  -9.841  15.962  1.00  0.00     0.101 C 
HETATM   38  C18 UNL     1      -2.670 -11.093  15.224  1.00  0.00     0.119 C 
HETATM   39  N8  UNL     1      -1.228 -11.237  15.454  1.00  0.00    -0.336 N 
HETATM   40  C20 UNL     1      -2.652 -10.750  13.728  1.00  0.00     0.123 C 
HETATM   41  C19 UNL     1      -0.665 -10.169  14.662  1.00  0.00     0.316 C 
ATOM     42  H8  UNL     1      -0.742 -11.923  16.033  1.00  0.00     0.164 HD
HETATM   43  O5  UNL     1       0.511  -9.727  14.770  1.00  0.00    -0.247 OA
HETATM   44  N9  UNL     1      -1.672  -9.704  13.739  1.00  0.00    -0.335 N 
ATOM     45  H9  UNL     1      -1.684  -8.830  13.213  1.00  0.00     0.164 HD
ENDBRANCH  34  35
ENDBRANCH  33  34
ENDBRANCH  32  33
ENDBRANCH  31  32
ENDBRANCH  28  31
ENDBRANCH  24  27
ENDBRANCH   1  24
TORSDOF 10
ENDMDL
