MODEL 7
REMARK VINA RESULT: -10.757479179      3.450      5.178
REMARK  10 active torsions:
REMARK  status: ('A' for Active; 'I' for Inactive)
REMARK    1  A    between atoms: N5_13  and  C6_14 
REMARK    2  A    between atoms: C9_20  and  C10_21 
REMARK    3  A    between atoms: C10_21  and  O1_22 
REMARK    4  A    between atoms: O1_22  and  S1_23 
REMARK    5  A    between atoms: S1_23  and  N7_26 
REMARK       I    between atoms: N7_26  and  C11_28 
REMARK    6  A    between atoms: C11_28  and  C12_30 
REMARK    7  A    between atoms: C12_30  and  C13_31 
REMARK    8  A    between atoms: C13_31  and  C14_32 
REMARK    9  A    between atoms: C14_32  and  C15_33 
REMARK   10  A    between atoms: C15_33  and  C16_34 
ROOT
HETATM    1  O1  UNL     1      -3.075  -3.031   7.870  1.00  0.00    -0.257 OA
ENDROOT
BRANCH   1   2
HETATM    2  C10 UNL     1      -3.473  -1.702   7.775  1.00  0.00     0.225 C 
BRANCH   2   3
HETATM    3  C9  UNL     1      -3.083  -1.265   6.360  1.00  0.00     0.175 C 
HETATM    4  C8  UNL     1      -2.504   0.112   6.317  1.00  0.00     0.266 C 
HETATM    5  N6  UNL     1      -2.378   0.529   4.947  1.00  0.00    -0.069 N 
HETATM    6  C7  UNL     1      -3.612   0.430   4.195  1.00  0.00     0.286 C 
ATOM      7  H62 UNL     1      -1.630   0.015   4.481  1.00  0.00     0.277 HD
ATOM      8  H61 UNL     1      -1.996   1.473   4.891  1.00  0.00     0.277 HD
HETATM    9  C6  UNL     1      -4.088  -1.008   4.294  1.00  0.00     0.256 C 
HETATM   10  O6  UNL     1      -4.299  -1.251   5.647  1.00  0.00    -0.355 OA
BRANCH   9  11
HETATM   11  N5  UNL     1      -5.304  -1.252   3.580  1.00  0.00    -0.298 N 
HETATM   12  C3  UNL     1      -6.169  -2.276   3.680  1.00  0.00     0.142 A 
HETATM   13  N3  UNL     1      -6.145  -3.358   4.471  1.00  0.00    -0.336 N 
HETATM   14  C4  UNL     1      -7.195  -2.088   2.799  1.00  0.00     0.119 A 
HETATM   15  C2  UNL     1      -7.170  -4.251   4.362  1.00  0.00     0.183 A 
ATOM     16  H3  UNL     1      -5.384  -3.508   5.133  1.00  0.00     0.168 HD
HETATM   17  N2  UNL     1      -8.187  -4.067   3.490  1.00  0.00    -0.339 N 
HETATM   18  C1  UNL     1      -8.239  -3.005   2.694  1.00  0.00     0.148 A 
ATOM     19  H2  UNL     1      -8.933  -4.761   3.443  1.00  0.00     0.167 HD
HETATM   20  N1  UNL     1      -9.270  -2.748   1.762  1.00  0.00    -0.080 NA
HETATM   21  N4  UNL     1      -6.945  -0.938   2.160  1.00  0.00    -0.346 N 
HETATM   22  C5  UNL     1      -5.808  -0.430   2.626  1.00  0.00     0.188 A 
ATOM     23  H4  UNL     1      -7.531  -0.520   1.436  1.00  0.00     0.167 HD
ENDBRANCH   9  11
ENDBRANCH   2   3
ENDBRANCH   1   2
BRANCH   1  24
HETATM   24  S1  UNL     1      -4.277  -4.114   7.439  1.00  0.00     0.364 S 
HETATM   25  O2  UNL     1      -5.608  -3.443   7.568  1.00  0.00    -0.175 OA
HETATM   26  O3  UNL     1      -4.112  -4.599   6.031  1.00  0.00    -0.175 OA
BRANCH  24  27
HETATM   27  N7  UNL     1      -4.212  -5.444   8.536  1.00  0.00    -0.231 N 
HETATM   28  C11 UNL     1      -4.968  -6.641   8.305  1.00  0.00     0.232 C 
HETATM   29  O4  UNL     1      -5.661  -6.647   7.270  1.00  0.00    -0.273 OA
ATOM     30  H7  UNL     1      -3.624  -5.378   9.367  1.00  0.00     0.183 HD
BRANCH  28  31
HETATM   31  C12 UNL     1      -4.926  -7.786   9.227  1.00  0.00     0.104 C 
BRANCH  31  32
HETATM   32  C13 UNL     1      -4.141  -7.578  10.467  1.00  0.00     0.009 C 
BRANCH  32  33
HETATM   33  C14 UNL     1      -4.717  -8.278  11.664  1.00  0.00     0.002 C 
BRANCH  33  34
HETATM   34  C15 UNL     1      -4.123  -9.588  11.977  1.00  0.00     0.017 C 
BRANCH  34  35
HETATM   35  C16 UNL     1      -4.096 -10.124  13.315  1.00  0.00     0.072 C 
HETATM   36  S2  UNL     1      -4.159  -8.984  14.712  1.00  0.00    -0.160 SA
HETATM   37  C17 UNL     1      -3.416 -10.113  15.963  1.00  0.00     0.101 C 
HETATM   38  C18 UNL     1      -3.278 -11.382  15.156  1.00  0.00     0.119 C 
HETATM   39  N8  UNL     1      -1.992 -11.969  15.552  1.00  0.00    -0.336 N 
HETATM   40  C20 UNL     1      -2.932 -10.967  13.720  1.00  0.00     0.123 C 
HETATM   41  C19 UNL     1      -1.030 -11.073  14.956  1.00  0.00     0.316 C 
ATOM     42  H8  UNL     1      -1.821 -12.804  16.113  1.00  0.00     0.164 HD
HETATM   43  O5  UNL     1       0.192 -11.014  15.259  1.00  0.00    -0.247 OA
HETATM   44  N9  UNL     1      -1.705 -10.269  13.965  1.00  0.00    -0.335 N 
ATOM     45  H9  UNL     1      -1.382  -9.401  13.537  1.00  0.00     0.164 HD
ENDBRANCH  34  35
ENDBRANCH  33  34
ENDBRANCH  32  33
ENDBRANCH  31  32
ENDBRANCH  28  31
ENDBRANCH  24  27
ENDBRANCH   1  24
TORSDOF 10
ENDMDL
