MODEL 3
REMARK VINA RESULT: -11.519999590      1.636      2.269
REMARK  10 active torsions:
REMARK  status: ('A' for Active; 'I' for Inactive)
REMARK    1  A    between atoms: N5_13  and  C6_14 
REMARK    2  A    between atoms: C9_20  and  C10_21 
REMARK    3  A    between atoms: C10_21  and  O1_22 
REMARK    4  A    between atoms: O1_22  and  S1_23 
REMARK    5  A    between atoms: S1_23  and  N7_26 
REMARK       I    between atoms: N7_26  and  C11_28 
REMARK    6  A    between atoms: C11_28  and  C12_30 
REMARK    7  A    between atoms: C12_30  and  C13_31 
REMARK    8  A    between atoms: C13_31  and  C14_32 
REMARK    9  A    between atoms: C14_32  and  C15_33 
REMARK   10  A    between atoms: C15_33  and  C16_34 
ROOT
HETATM    1  O1  UNL     1      -5.412  -4.185   6.451  1.00  0.00    -0.257 OA
ENDROOT
BRANCH   1   2
HETATM    2  C10 UNL     1      -5.665  -3.370   5.354  1.00  0.00     0.225 C 
BRANCH   2   3
HETATM    3  C9  UNL     1      -6.283  -2.094   5.933  1.00  0.00     0.175 C 
HETATM    4  C8  UNL     1      -5.977  -0.880   5.118  1.00  0.00     0.266 C 
HETATM    5  N6  UNL     1      -6.393   0.292   5.841  1.00  0.00    -0.069 N 
HETATM    6  C7  UNL     1      -5.840   0.376   7.176  1.00  0.00     0.286 C 
ATOM      7  H62 UNL     1      -7.411   0.356   5.867  1.00  0.00     0.277 HD
ATOM      8  H61 UNL     1      -6.183   1.137   5.309  1.00  0.00     0.277 HD
HETATM    9  C6  UNL     1      -6.232  -0.895   7.910  1.00  0.00     0.256 C 
HETATM   10  O6  UNL     1      -5.666  -1.943   7.192  1.00  0.00    -0.355 OA
BRANCH   9  11
HETATM   11  N5  UNL     1      -5.756  -0.940   9.258  1.00  0.00    -0.298 N 
HETATM   12  C3  UNL     1      -6.445  -0.995  10.411  1.00  0.00     0.142 A 
HETATM   13  N3  UNL     1      -7.766  -1.024  10.631  1.00  0.00    -0.336 N 
HETATM   14  C4  UNL     1      -5.569  -1.024  11.459  1.00  0.00     0.119 A 
HETATM   15  C2  UNL     1      -8.197  -1.082  11.925  1.00  0.00     0.183 A 
ATOM     16  H3  UNL     1      -8.430  -1.004   9.857  1.00  0.00     0.168 HD
HETATM   17  N2  UNL     1      -7.332  -1.111  12.964  1.00  0.00    -0.339 N 
HETATM   18  C1  UNL     1      -6.018  -1.084  12.777  1.00  0.00     0.148 A 
ATOM     19  H2  UNL     1      -7.699  -1.154  13.915  1.00  0.00     0.167 HD
HETATM   20  N1  UNL     1      -5.057  -1.113  13.814  1.00  0.00    -0.080 NA
HETATM   21  N4  UNL     1      -4.339  -0.985  10.931  1.00  0.00    -0.346 N 
HETATM   22  C5  UNL     1      -4.445  -0.934   9.607  1.00  0.00     0.188 A 
ATOM     23  H4  UNL     1      -3.466  -0.994  11.458  1.00  0.00     0.167 HD
ENDBRANCH   9  11
ENDBRANCH   2   3
ENDBRANCH   1   2
BRANCH   1  24
HETATM   24  S1  UNL     1      -4.524  -5.552   6.070  1.00  0.00     0.364 S 
HETATM   25  O2  UNL     1      -4.910  -6.017   4.700  1.00  0.00    -0.175 OA
HETATM   26  O3  UNL     1      -3.050  -5.285   6.095  1.00  0.00    -0.175 OA
BRANCH  24  27
HETATM   27  N7  UNL     1      -4.924  -6.782   7.212  1.00  0.00    -0.231 N 
HETATM   28  C11 UNL     1      -4.880  -6.533   8.624  1.00  0.00     0.232 C 
HETATM   29  O4  UNL     1      -4.538  -5.382   8.955  1.00  0.00    -0.273 OA
ATOM     30  H7  UNL     1      -5.197  -7.705   6.876  1.00  0.00     0.183 HD
BRANCH  28  31
HETATM   31  C12 UNL     1      -5.217  -7.567   9.614  1.00  0.00     0.104 C 
BRANCH  31  32
HETATM   32  C13 UNL     1      -4.083  -8.067  10.427  1.00  0.00     0.009 C 
BRANCH  32  33
HETATM   33  C14 UNL     1      -4.498  -9.024  11.507  1.00  0.00     0.002 C 
BRANCH  33  34
HETATM   34  C15 UNL     1      -4.117  -8.637  12.875  1.00  0.00     0.017 C 
BRANCH  34  35
HETATM   35  C16 UNL     1      -4.105  -9.577  13.968  1.00  0.00     0.072 C 
HETATM   36  S2  UNL     1      -4.102  -8.948  15.659  1.00  0.00    -0.160 SA
HETATM   37  C17 UNL     1      -3.405 -10.452  16.462  1.00  0.00     0.101 C 
HETATM   38  C18 UNL     1      -3.335 -11.397  15.285  1.00  0.00     0.119 C 
HETATM   39  N8  UNL     1      -2.077 -12.136  15.442  1.00  0.00    -0.336 N 
HETATM   40  C20 UNL     1      -2.981 -10.556  14.052  1.00  0.00     0.123 C 
HETATM   41  C19 UNL     1      -1.077 -11.138  15.143  1.00  0.00     0.316 C 
ATOM     42  H8  UNL     1      -1.942 -13.114  15.698  1.00  0.00     0.164 HD
HETATM   43  O5  UNL     1       0.150 -11.233  15.421  1.00  0.00    -0.247 OA
HETATM   44  N9  UNL     1      -1.719 -10.029  14.481  1.00  0.00    -0.335 N 
ATOM     45  H9  UNL     1      -1.358  -9.084  14.348  1.00  0.00     0.164 HD
ENDBRANCH  34  35
ENDBRANCH  33  34
ENDBRANCH  32  33
ENDBRANCH  31  32
ENDBRANCH  28  31
ENDBRANCH  24  27
ENDBRANCH   1  24
TORSDOF 10
ENDMDL
