MODEL 5
REMARK VINA RESULT: -10.864534389      2.978      4.632
REMARK  11 active torsions:
REMARK  status: ('A' for Active; 'I' for Inactive)
REMARK    1  A    between atoms: N5_13  and  C6_14 
REMARK    2  A    between atoms: C7_16  and  C8_17 
REMARK    3  A    between atoms: C8_17  and  N6_18 
REMARK    4  A    between atoms: N6_18  and  S1_20 
REMARK    5  A    between atoms: S1_20  and  N7_23 
REMARK       I    between atoms: N7_23  and  C9_25 
REMARK    6  A    between atoms: C9_25  and  C10_27 
REMARK    7  A    between atoms: C10_27  and  C11_28 
REMARK    8  A    between atoms: C11_28  and  C12_29 
REMARK    9  A    between atoms: C12_29  and  C13_30 
REMARK   10  A    between atoms: C13_30  and  C14_31 
REMARK   11  A    between atoms: C20_43  and  O6_44 
ROOT
HETATM    1  N6  UNL     1      -3.270  -2.347   7.285  1.00  0.00    -0.300 N 
ATOM      2  H6  UNL     1      -2.779  -1.668   6.705  1.00  0.00     0.173 HD
ENDROOT
BRANCH   1   3
HETATM    3  C8  UNL     1      -3.832  -2.074   8.613  1.00  0.00     0.165 C 
BRANCH   3   4
HETATM    4  C7  UNL     1      -4.335  -0.637   8.607  1.00  0.00     0.145 C 
HETATM    5  O1  UNL     1      -4.806  -0.261   7.381  1.00  0.00    -0.357 OA
HETATM    6  C6  UNL     1      -5.948   0.482   7.589  1.00  0.00     0.259 C 
HETATM    7  C20 UNL     1      -6.629  -0.242   8.733  1.00  0.00     0.169 C 
HETATM    8  C19 UNL     1      -5.435  -0.520   9.630  1.00  0.00     0.070 C 
BRANCH   6   9
HETATM    9  N5  UNL     1      -6.774   0.583   6.415  1.00  0.00    -0.297 N 
HETATM   10  C3  UNL     1      -7.085  -0.401   5.560  1.00  0.00     0.142 A 
HETATM   11  N3  UNL     1      -6.776  -1.709   5.487  1.00  0.00    -0.336 N 
HETATM   12  C4  UNL     1      -7.906   0.114   4.563  1.00  0.00     0.119 A 
HETATM   13  C2  UNL     1      -7.249  -2.463   4.485  1.00  0.00     0.183 A 
ATOM     14  H3  UNL     1      -6.177  -2.129   6.198  1.00  0.00     0.168 HD
HETATM   15  N2  UNL     1      -8.048  -1.951   3.519  1.00  0.00    -0.339 N 
HETATM   16  C1  UNL     1      -8.396  -0.664   3.529  1.00  0.00     0.148 A 
ATOM     17  H2  UNL     1      -8.390  -2.559   2.773  1.00  0.00     0.167 HD
HETATM   18  N1  UNL     1      -9.228  -0.129   2.522  1.00  0.00    -0.080 NA
HETATM   19  N4  UNL     1      -8.076   1.411   4.840  1.00  0.00    -0.346 N 
HETATM   20  C5  UNL     1      -7.385   1.686   5.965  1.00  0.00     0.188 A 
ATOM     21  H4  UNL     1      -8.629   2.074   4.297  1.00  0.00     0.167 HD
ENDBRANCH   6   9
BRANCH   7  22
HETATM   22  O6  UNL     1      -7.604   0.502   9.350  1.00  0.00    -0.391 OA
ATOM     23  H6  UNL     1      -7.436   0.658  10.272  1.00  0.00     0.210 HD
ENDBRANCH   7  22
ENDBRANCH   3   4
ENDBRANCH   1   3
BRANCH   1  24
HETATM   24  S1  UNL     1      -3.566  -3.998   6.852  1.00  0.00     0.321 S 
HETATM   25  O2  UNL     1      -2.402  -4.510   6.027  1.00  0.00    -0.182 OA
HETATM   26  O3  UNL     1      -4.786  -4.053   5.995  1.00  0.00    -0.182 OA
BRANCH  24  27
HETATM   27  N7  UNL     1      -3.796  -4.981   8.252  1.00  0.00    -0.237 N 
HETATM   28  C9  UNL     1      -4.498  -6.223   8.119  1.00  0.00     0.232 C 
HETATM   29  O4  UNL     1      -4.915  -6.534   6.990  1.00  0.00    -0.273 OA
ATOM     30  H7  UNL     1      -3.439  -4.682   9.159  1.00  0.00     0.183 HD
BRANCH  28  31
HETATM   31  C10 UNL     1      -4.697  -7.070   9.289  1.00  0.00     0.104 C 
BRANCH  31  32
HETATM   32  C11 UNL     1      -3.614  -7.061  10.308  1.00  0.00     0.009 C 
BRANCH  32  33
HETATM   33  C12 UNL     1      -4.005  -7.648  11.625  1.00  0.00     0.002 C 
BRANCH  33  34
HETATM   34  C13 UNL     1      -3.672  -9.082  11.788  1.00  0.00     0.017 C 
BRANCH  34  35
HETATM   35  C14 UNL     1      -3.616  -9.604  13.183  1.00  0.00     0.072 C 
HETATM   36  S2  UNL     1      -3.895  -8.291  14.411  1.00  0.00    -0.160 SA
HETATM   37  C15 UNL     1      -2.556  -8.763  15.579  1.00  0.00     0.101 C 
HETATM   38  C16 UNL     1      -2.303 -10.181  15.113  1.00  0.00     0.119 C 
HETATM   39  N8  UNL     1      -0.868 -10.408  15.357  1.00  0.00    -0.336 N 
HETATM   40  C18 UNL     1      -2.307 -10.141  13.605  1.00  0.00     0.123 C 
HETATM   41  C17 UNL     1      -0.230  -9.611  14.360  1.00  0.00     0.316 C 
ATOM     42  H8  UNL     1      -0.433 -10.995  16.069  1.00  0.00     0.164 HD
HETATM   43  O5  UNL     1       1.010  -9.299  14.375  1.00  0.00    -0.247 OA
HETATM   44  N9  UNL     1      -1.191  -9.236  13.377  1.00  0.00    -0.335 N 
ATOM     45  H9  UNL     1      -1.114  -8.502  12.672  1.00  0.00     0.164 HD
ENDBRANCH  34  35
ENDBRANCH  33  34
ENDBRANCH  32  33
ENDBRANCH  31  32
ENDBRANCH  28  31
ENDBRANCH  24  27
ENDBRANCH   1  24
TORSDOF 11
ENDMDL
