MODEL 7
REMARK VINA RESULT: -10.559348170      3.461      5.018
REMARK  11 active torsions:
REMARK  status: ('A' for Active; 'I' for Inactive)
REMARK    1  A    between atoms: N5_13  and  C6_14 
REMARK    2  A    between atoms: C7_16  and  C8_17 
REMARK    3  A    between atoms: C8_17  and  N6_18 
REMARK    4  A    between atoms: N6_18  and  S1_20 
REMARK    5  A    between atoms: S1_20  and  N7_23 
REMARK       I    between atoms: N7_23  and  C9_25 
REMARK    6  A    between atoms: C9_25  and  C10_27 
REMARK    7  A    between atoms: C10_27  and  C11_28 
REMARK    8  A    between atoms: C11_28  and  C12_29 
REMARK    9  A    between atoms: C12_29  and  C13_30 
REMARK   10  A    between atoms: C13_30  and  C14_31 
REMARK   11  A    between atoms: C20_43  and  O6_44 
ROOT
HETATM    1  N6  UNL     1      -2.371  -2.529   7.530  1.00  0.00    -0.300 N 
ATOM      2  H6  UNL     1      -1.355  -2.502   7.616  1.00  0.00     0.173 HD
ENDROOT
BRANCH   1   3
HETATM    3  C8  UNL     1      -3.273  -1.410   7.825  1.00  0.00     0.165 C 
BRANCH   3   4
HETATM    4  C7  UNL     1      -2.997  -0.320   6.799  1.00  0.00     0.145 C 
HETATM    5  O1  UNL     1      -3.715  -0.501   5.650  1.00  0.00    -0.357 OA
HETATM    6  C6  UNL     1      -4.164   0.737   5.246  1.00  0.00     0.259 C 
HETATM    7  C20 UNL     1      -4.535   1.415   6.551  1.00  0.00     0.169 C 
HETATM    8  C19 UNL     1      -3.353   1.008   7.415  1.00  0.00     0.070 C 
BRANCH   6   9
HETATM    9  N5  UNL     1      -5.262   0.663   4.319  1.00  0.00    -0.297 N 
HETATM   10  C3  UNL     1      -6.196  -0.296   4.250  1.00  0.00     0.142 A 
HETATM   11  N3  UNL     1      -6.432  -1.424   4.947  1.00  0.00    -0.336 N 
HETATM   12  C4  UNL     1      -7.075   0.008   3.217  1.00  0.00     0.119 A 
HETATM   13  C2  UNL     1      -7.475  -2.207   4.638  1.00  0.00     0.183 A 
ATOM     14  H3  UNL     1      -5.813  -1.684   5.714  1.00  0.00     0.168 HD
HETATM   15  N2  UNL     1      -8.325  -1.901   3.629  1.00  0.00    -0.339 N 
HETATM   16  C1  UNL     1      -8.153  -0.800   2.897  1.00  0.00     0.148 A 
ATOM     17  H2  UNL     1      -9.109  -2.523   3.425  1.00  0.00     0.167 HD
HETATM   18  N1  UNL     1      -9.038  -0.481   1.845  1.00  0.00    -0.080 NA
HETATM   19  N4  UNL     1      -6.650   1.154   2.678  1.00  0.00    -0.346 N 
HETATM   20  C5  UNL     1      -5.549   1.544   3.353  1.00  0.00     0.188 A 
ATOM     21  H4  UNL     1      -7.081   1.647   1.896  1.00  0.00     0.167 HD
ENDBRANCH   6   9
BRANCH   7  22
HETATM   22  O6  UNL     1      -4.678   2.775   6.442  1.00  0.00    -0.391 OA
ATOM     23  H6  UNL     1      -4.800   3.074   5.548  1.00  0.00     0.210 HD
ENDBRANCH   7  22
ENDBRANCH   3   4
ENDBRANCH   1   3
BRANCH   1  24
HETATM   24  S1  UNL     1      -3.291  -3.902   7.014  1.00  0.00     0.321 S 
HETATM   25  O2  UNL     1      -2.530  -4.628   5.923  1.00  0.00    -0.182 OA
HETATM   26  O3  UNL     1      -4.575  -3.420   6.425  1.00  0.00    -0.182 OA
BRANCH  24  27
HETATM   27  N7  UNL     1      -3.622  -4.965   8.333  1.00  0.00    -0.237 N 
HETATM   28  C9  UNL     1      -4.479  -6.093   8.116  1.00  0.00     0.232 C 
HETATM   29  O4  UNL     1      -4.951  -6.250   6.977  1.00  0.00    -0.273 OA
ATOM     30  H7  UNL     1      -3.214  -4.794   9.251  1.00  0.00     0.183 HD
BRANCH  28  31
HETATM   31  C10 UNL     1      -4.765  -7.006   9.216  1.00  0.00     0.104 C 
BRANCH  31  32
HETATM   32  C11 UNL     1      -3.681  -7.204  10.216  1.00  0.00     0.009 C 
BRANCH  32  33
HETATM   33  C12 UNL     1      -3.944  -8.296  11.200  1.00  0.00     0.002 C 
BRANCH  33  34
HETATM   34  C13 UNL     1      -3.862  -7.883  12.620  1.00  0.00     0.017 C 
BRANCH  34  35
HETATM   35  C14 UNL     1      -3.756  -8.974  13.630  1.00  0.00     0.072 C 
HETATM   36  S2  UNL     1      -3.702  -8.325  15.328  1.00  0.00    -0.160 SA
HETATM   37  C15 UNL     1      -2.350  -9.401  15.957  1.00  0.00     0.101 C 
HETATM   38  C16 UNL     1      -2.373 -10.481  14.895  1.00  0.00     0.119 C 
HETATM   39  N8  UNL     1      -0.976 -10.936  14.790  1.00  0.00    -0.336 N 
HETATM   40  C18 UNL     1      -2.516  -9.773  13.571  1.00  0.00     0.123 C 
HETATM   41  C17 UNL     1      -0.317  -9.848  14.144  1.00  0.00     0.316 C 
ATOM     42  H8  UNL     1      -0.575 -11.820  15.105  1.00  0.00     0.164 HD
HETATM   43  O5  UNL     1       0.952  -9.703  14.096  1.00  0.00    -0.247 OA
HETATM   44  N9  UNL     1      -1.297  -8.980  13.579  1.00  0.00    -0.335 N 
ATOM     45  H9  UNL     1      -1.171  -8.021  13.254  1.00  0.00     0.164 HD
ENDBRANCH  34  35
ENDBRANCH  33  34
ENDBRANCH  32  33
ENDBRANCH  31  32
ENDBRANCH  28  31
ENDBRANCH  24  27
ENDBRANCH   1  24
TORSDOF 11
ENDMDL
