MODEL 4
REMARK VINA RESULT: -11.244829748      0.938      1.614
REMARK  11 active torsions:
REMARK  status: ('A' for Active; 'I' for Inactive)
REMARK    1  A    between atoms: N5_13  and  C6_14 
REMARK    2  A    between atoms: C7_16  and  C8_17 
REMARK    3  A    between atoms: C8_17  and  N6_18 
REMARK    4  A    between atoms: N6_18  and  S1_20 
REMARK    5  A    between atoms: S1_20  and  N7_23 
REMARK       I    between atoms: N7_23  and  C9_25 
REMARK    6  A    between atoms: C9_25  and  C10_27 
REMARK    7  A    between atoms: C10_27  and  C11_28 
REMARK    8  A    between atoms: C11_28  and  C12_29 
REMARK    9  A    between atoms: C12_29  and  C13_30 
REMARK   10  A    between atoms: C13_30  and  C14_31 
REMARK   11  A    between atoms: C20_43  and  O6_44 
ROOT
HETATM    1  N6  UNL     1      -4.772  -3.393   6.207  1.00  0.00    -0.300 N 
ATOM      2  H6  UNL     1      -5.770  -3.192   6.270  1.00  0.00     0.173 HD
ENDROOT
BRANCH   1   3
HETATM    3  C8  UNL     1      -3.699  -2.423   6.450  1.00  0.00     0.165 C 
BRANCH   3   4
HETATM    4  C7  UNL     1      -4.355  -1.072   6.698  1.00  0.00     0.145 C 
HETATM    5  O1  UNL     1      -5.348  -1.145   7.633  1.00  0.00    -0.357 OA
HETATM    6  C6  UNL     1      -5.245  -0.029   8.433  1.00  0.00     0.259 C 
HETATM    7  C20 UNL     1      -3.747   0.149   8.590  1.00  0.00     0.169 C 
HETATM    8  C19 UNL     1      -3.291  -0.112   7.164  1.00  0.00     0.070 C 
BRANCH   6   9
HETATM    9  N5  UNL     1      -5.929  -0.172   9.691  1.00  0.00    -0.297 N 
HETATM   10  C3  UNL     1      -5.370  -0.310  10.902  1.00  0.00     0.142 A 
HETATM   11  N3  UNL     1      -4.100  -0.360  11.346  1.00  0.00    -0.336 N 
HETATM   12  C4  UNL     1      -6.380  -0.417  11.852  1.00  0.00     0.119 A 
HETATM   13  C2  UNL     1      -3.844  -0.510  12.653  1.00  0.00     0.183 A 
ATOM     14  H3  UNL     1      -3.329  -0.284  10.684  1.00  0.00     0.168 HD
HETATM   15  N2  UNL     1      -4.836  -0.613  13.570  1.00  0.00    -0.339 N 
HETATM   16  C1  UNL     1      -6.116  -0.572  13.201  1.00  0.00     0.148 A 
ATOM     17  H2  UNL     1      -4.600  -0.725  14.556  1.00  0.00     0.167 HD
HETATM   18  N1  UNL     1      -7.151  -0.681  14.156  1.00  0.00    -0.080 NA
HETATM   19  N4  UNL     1      -7.538  -0.341  11.188  1.00  0.00    -0.346 N 
HETATM   20  C5  UNL     1      -7.254  -0.192   9.878  1.00  0.00     0.188 A 
ATOM     21  H4  UNL     1      -8.470  -0.387  11.600  1.00  0.00     0.167 HD
ENDBRANCH   6   9
BRANCH   7  22
HETATM   22  O6  UNL     1      -3.387   1.390   9.052  1.00  0.00    -0.391 OA
ATOM     23  H6  UNL     1      -2.609   1.381   9.598  1.00  0.00     0.210 HD
ENDBRANCH   7  22
ENDBRANCH   3   4
ENDBRANCH   1   3
BRANCH   1  24
HETATM   24  S1  UNL     1      -4.090  -4.931   5.797  1.00  0.00     0.321 S 
HETATM   25  O2  UNL     1      -2.585  -4.789   5.674  1.00  0.00    -0.182 OA
HETATM   26  O3  UNL     1      -4.615  -5.343   4.462  1.00  0.00    -0.182 OA
BRANCH  24  27
HETATM   27  N7  UNL     1      -4.492  -6.128   6.972  1.00  0.00    -0.237 N 
HETATM   28  C9  UNL     1      -4.174  -5.884   8.348  1.00  0.00     0.232 C 
HETATM   29  O4  UNL     1      -3.615  -4.810   8.630  1.00  0.00    -0.273 OA
ATOM     30  H7  UNL     1      -4.948  -6.996   6.692  1.00  0.00     0.183 HD
BRANCH  28  31
HETATM   31  C10 UNL     1      -4.511  -6.881   9.356  1.00  0.00     0.104 C 
BRANCH  31  32
HETATM   32  C11 UNL     1      -3.501  -7.114  10.425  1.00  0.00     0.009 C 
BRANCH  32  33
HETATM   33  C12 UNL     1      -4.061  -7.692  11.683  1.00  0.00     0.002 C 
BRANCH  33  34
HETATM   34  C13 UNL     1      -3.818  -9.142  11.861  1.00  0.00     0.017 C 
BRANCH  34  35
HETATM   35  C14 UNL     1      -3.678  -9.632  13.262  1.00  0.00     0.072 C 
HETATM   36  S2  UNL     1      -3.859  -8.287  14.473  1.00  0.00    -0.160 SA
HETATM   37  C15 UNL     1      -2.452  -8.753  15.563  1.00  0.00     0.101 C 
HETATM   38  C16 UNL     1      -2.249 -10.185  15.115  1.00  0.00     0.119 C 
HETATM   39  N8  UNL     1      -0.805 -10.428  15.270  1.00  0.00    -0.336 N 
HETATM   40  C18 UNL     1      -2.352 -10.179  13.610  1.00  0.00     0.123 C 
HETATM   41  C17 UNL     1      -0.223  -9.663  14.215  1.00  0.00     0.316 C 
ATOM     42  H8  UNL     1      -0.333 -11.005  15.967  1.00  0.00     0.164 HD
HETATM   43  O5  UNL     1       1.020  -9.370  14.142  1.00  0.00    -0.247 OA
HETATM   44  N9  UNL     1      -1.241  -9.297  13.288  1.00  0.00    -0.335 N 
ATOM     45  H9  UNL     1      -1.200  -8.581  12.563  1.00  0.00     0.164 HD
ENDBRANCH  34  35
ENDBRANCH  33  34
ENDBRANCH  32  33
ENDBRANCH  31  32
ENDBRANCH  28  31
ENDBRANCH  24  27
ENDBRANCH   1  24
TORSDOF 11
ENDMDL
