MODEL 1
REMARK VINA RESULT: -12.050754468      0.000      0.000
REMARK  11 active torsions:
REMARK  status: ('A' for Active; 'I' for Inactive)
REMARK    1  A    between atoms: N5_13  and  C6_14 
REMARK    2  A    between atoms: C7_16  and  C8_17 
REMARK    3  A    between atoms: C8_17  and  N6_18 
REMARK    4  A    between atoms: N6_18  and  S1_20 
REMARK    5  A    between atoms: S1_20  and  N7_23 
REMARK       I    between atoms: N7_23  and  C9_25 
REMARK    6  A    between atoms: C9_25  and  C10_27 
REMARK    7  A    between atoms: C10_27  and  C11_28 
REMARK    8  A    between atoms: C11_28  and  C12_29 
REMARK    9  A    between atoms: C12_29  and  C13_30 
REMARK   10  A    between atoms: C13_30  and  C14_31 
REMARK   11  A    between atoms: C20_43  and  O6_44 
ROOT
HETATM    1  N6  UNL     1      -4.257  -3.272   7.269  1.00  0.00    -0.300 N 
ATOM      2  H6  UNL     1      -4.984  -3.270   7.984  1.00  0.00     0.173 HD
ENDROOT
BRANCH   1   3
HETATM    3  C8  UNL     1      -3.380  -2.139   6.953  1.00  0.00     0.165 C 
BRANCH   3   4
HETATM    4  C7  UNL     1      -4.078  -0.875   7.438  1.00  0.00     0.145 C 
HETATM    5  O1  UNL     1      -4.738  -1.072   8.618  1.00  0.00    -0.357 OA
HETATM    6  C6  UNL     1      -4.526   0.043   9.399  1.00  0.00     0.259 C 
HETATM    7  C20 UNL     1      -3.078   0.393   9.120  1.00  0.00     0.169 C 
HETATM    8  C19 UNL     1      -3.036   0.199   7.614  1.00  0.00     0.070 C 
BRANCH   6   9
HETATM    9  N5  UNL     1      -4.790  -0.189  10.795  1.00  0.00    -0.297 N 
HETATM   10  C3  UNL     1      -5.980  -0.430  11.362  1.00  0.00     0.142 A 
HETATM   11  N3  UNL     1      -7.237  -0.535  10.890  1.00  0.00    -0.336 N 
HETATM   12  C4  UNL     1      -5.799  -0.599  12.730  1.00  0.00     0.119 A 
HETATM   13  C2  UNL     1      -8.255  -0.789  11.723  1.00  0.00     0.183 A 
ATOM     14  H3  UNL     1      -7.415  -0.420   9.892  1.00  0.00     0.168 HD
HETATM   15  N2  UNL     1      -8.068  -0.952  13.055  1.00  0.00    -0.339 N 
HETATM   16  C1  UNL     1      -6.851  -0.862  13.591  1.00  0.00     0.148 A 
ATOM     17  H2  UNL     1      -8.869  -1.145  13.656  1.00  0.00     0.167 HD
HETATM   18  N1  UNL     1      -6.654  -1.029  14.979  1.00  0.00    -0.080 NA
HETATM   19  N4  UNL     1      -4.491  -0.455  12.963  1.00  0.00    -0.346 N 
HETATM   20  C5  UNL     1      -3.887  -0.206  11.783  1.00  0.00     0.188 A 
ATOM     21  H4  UNL     1      -4.032  -0.520  13.871  1.00  0.00     0.167 HD
ENDBRANCH   6   9
BRANCH   7  22
HETATM   22  O6  UNL     1      -2.735   1.663   9.509  1.00  0.00    -0.391 OA
ATOM     23  H6  UNL     1      -2.081   1.687  10.197  1.00  0.00     0.210 HD
ENDBRANCH   7  22
ENDBRANCH   3   4
ENDBRANCH   1   3
BRANCH   1  24
HETATM   24  S1  UNL     1      -3.871  -4.614   6.244  1.00  0.00     0.321 S 
HETATM   25  O2  UNL     1      -2.384  -4.602   5.950  1.00  0.00    -0.182 OA
HETATM   26  O3  UNL     1      -4.589  -4.442   4.947  1.00  0.00    -0.182 OA
BRANCH  24  27
HETATM   27  N7  UNL     1      -4.334  -6.109   6.969  1.00  0.00    -0.237 N 
HETATM   28  C9  UNL     1      -4.090  -6.307   8.367  1.00  0.00     0.232 C 
HETATM   29  O4  UNL     1      -3.547  -5.382   8.996  1.00  0.00    -0.273 OA
ATOM     30  H7  UNL     1      -4.774  -6.841   6.411  1.00  0.00     0.183 HD
BRANCH  28  31
HETATM   31  C10 UNL     1      -4.479  -7.562   8.999  1.00  0.00     0.104 C 
BRANCH  31  32
HETATM   32  C11 UNL     1      -3.657  -8.006  10.157  1.00  0.00     0.009 C 
BRANCH  32  33
HETATM   33  C12 UNL     1      -4.209  -7.616  11.488  1.00  0.00     0.002 C 
BRANCH  33  34
HETATM   34  C13 UNL     1      -3.264  -7.764  12.619  1.00  0.00     0.017 C 
BRANCH  34  35
HETATM   35  C14 UNL     1      -3.580  -8.818  13.625  1.00  0.00     0.072 C 
HETATM   36  S2  UNL     1      -3.769  -8.126  15.296  1.00  0.00    -0.160 SA
HETATM   37  C15 UNL     1      -2.806  -9.407  16.198  1.00  0.00     0.101 C 
HETATM   38  C16 UNL     1      -2.803 -10.504  15.153  1.00  0.00     0.119 C 
HETATM   39  N8  UNL     1      -1.526 -11.210  15.350  1.00  0.00    -0.336 N 
HETATM   40  C18 UNL     1      -2.527  -9.831  13.831  1.00  0.00     0.123 C 
HETATM   41  C17 UNL     1      -0.554 -10.285  14.865  1.00  0.00     0.316 C 
ATOM     42  H8  UNL     1      -1.373 -12.140  15.741  1.00  0.00     0.164 HD
HETATM   43  O5  UNL     1       0.700 -10.377  15.093  1.00  0.00    -0.247 OA
HETATM   44  N9  UNL     1      -1.212  -9.274  14.105  1.00  0.00    -0.335 N 
ATOM     45  H9  UNL     1      -0.843  -8.367  13.818  1.00  0.00     0.164 HD
ENDBRANCH  34  35
ENDBRANCH  33  34
ENDBRANCH  32  33
ENDBRANCH  31  32
ENDBRANCH  28  31
ENDBRANCH  24  27
ENDBRANCH   1  24
TORSDOF 11
ENDMDL
