MODEL 2
REMARK VINA RESULT: -11.553256068      1.422      1.701
REMARK  11 active torsions:
REMARK  status: ('A' for Active; 'I' for Inactive)
REMARK    1  A    between atoms: N5_13  and  C6_14 
REMARK    2  A    between atoms: C7_16  and  C8_17 
REMARK    3  A    between atoms: C8_17  and  N6_18 
REMARK    4  A    between atoms: N6_18  and  S1_20 
REMARK    5  A    between atoms: S1_20  and  N7_23 
REMARK       I    between atoms: N7_23  and  C9_25 
REMARK    6  A    between atoms: C9_25  and  C10_27 
REMARK    7  A    between atoms: C10_27  and  C11_28 
REMARK    8  A    between atoms: C11_28  and  C12_29 
REMARK    9  A    between atoms: C12_29  and  C13_30 
REMARK   10  A    between atoms: C13_30  and  C14_31 
REMARK   11  A    between atoms: C20_43  and  O6_44 
ROOT
HETATM    1  N6  UNL     1      -4.857  -3.700   5.877  1.00  0.00    -0.300 N 
ATOM      2  H6  UNL     1      -5.683  -4.297   5.912  1.00  0.00     0.173 HD
ENDROOT
BRANCH   1   3
HETATM    3  C8  UNL     1      -4.749  -2.450   5.117  1.00  0.00     0.165 C 
BRANCH   3   4
HETATM    4  C7  UNL     1      -5.618  -1.415   5.818  1.00  0.00     0.145 C 
HETATM    5  O1  UNL     1      -5.621  -1.578   7.174  1.00  0.00    -0.357 OA
HETATM    6  C6  UNL     1      -5.558  -0.323   7.740  1.00  0.00     0.259 C 
HETATM    7  C20 UNL     1      -4.597   0.419   6.832  1.00  0.00     0.169 C 
HETATM    8  C19 UNL     1      -5.091  -0.047   5.473  1.00  0.00     0.070 C 
BRANCH   6   9
HETATM    9  N5  UNL     1      -5.130  -0.346   9.113  1.00  0.00    -0.297 N 
HETATM   10  C3  UNL     1      -5.911  -0.404  10.201  1.00  0.00     0.142 A 
HETATM   11  N3  UNL     1      -7.243  -0.459  10.394  1.00  0.00    -0.336 N 
HETATM   12  C4  UNL     1      -5.105  -0.406  11.333  1.00  0.00     0.119 A 
HETATM   13  C2  UNL     1      -7.746  -0.511  11.634  1.00  0.00     0.183 A 
ATOM     14  H3  UNL     1      -7.871  -0.461   9.591  1.00  0.00     0.168 HD
HETATM   15  N2  UNL     1      -6.952  -0.513  12.731  1.00  0.00    -0.339 N 
HETATM   16  C1  UNL     1      -5.624  -0.460  12.615  1.00  0.00     0.148 A 
ATOM     17  H2  UNL     1      -7.374  -0.555  13.659  1.00  0.00     0.167 HD
HETATM   18  N1  UNL     1      -4.795  -0.461  13.757  1.00  0.00    -0.080 NA
HETATM   19  N4  UNL     1      -3.841  -0.348  10.902  1.00  0.00    -0.346 N 
HETATM   20  C5  UNL     1      -3.866  -0.311   9.554  1.00  0.00     0.188 A 
ATOM     21  H4  UNL     1      -3.006  -0.334  11.488  1.00  0.00     0.167 HD
ENDBRANCH   6   9
BRANCH   7  22
HETATM   22  O6  UNL     1      -4.641   1.782   6.982  1.00  0.00    -0.391 OA
ATOM     23  H6  UNL     1      -3.788   2.198   6.934  1.00  0.00     0.210 HD
ENDBRANCH   7  22
ENDBRANCH   3   4
ENDBRANCH   1   3
BRANCH   1  24
HETATM   24  S1  UNL     1      -3.369  -4.011   6.706  1.00  0.00     0.321 S 
HETATM   25  O2  UNL     1      -2.694  -2.691   7.026  1.00  0.00    -0.182 OA
HETATM   26  O3  UNL     1      -2.465  -4.770   5.792  1.00  0.00    -0.182 OA
BRANCH  24  27
HETATM   27  N7  UNL     1      -3.633  -4.922   8.148  1.00  0.00    -0.237 N 
HETATM   28  C9  UNL     1      -4.503  -6.059   8.100  1.00  0.00     0.232 C 
HETATM   29  O4  UNL     1      -5.033  -6.336   7.011  1.00  0.00    -0.273 OA
ATOM     30  H7  UNL     1      -3.178  -4.654   9.020  1.00  0.00     0.183 HD
BRANCH  28  31
HETATM   31  C10 UNL     1      -4.734  -6.845   9.306  1.00  0.00     0.104 C 
BRANCH  31  32
HETATM   32  C11 UNL     1      -3.573  -7.017  10.220  1.00  0.00     0.009 C 
BRANCH  32  33
HETATM   33  C12 UNL     1      -3.919  -7.603  11.550  1.00  0.00     0.002 C 
BRANCH  33  34
HETATM   34  C13 UNL     1      -3.610  -9.045  11.691  1.00  0.00     0.017 C 
BRANCH  34  35
HETATM   35  C14 UNL     1      -3.577  -9.591  13.078  1.00  0.00     0.072 C 
HETATM   36  S2  UNL     1      -3.892  -8.303  14.323  1.00  0.00    -0.160 SA
HETATM   37  C15 UNL     1      -2.571  -8.785  15.509  1.00  0.00     0.101 C 
HETATM   38  C16 UNL     1      -2.296 -10.192  15.022  1.00  0.00     0.119 C 
HETATM   39  N8  UNL     1      -0.864 -10.411  15.290  1.00  0.00    -0.336 N 
HETATM   40  C18 UNL     1      -2.272 -10.125  13.515  1.00  0.00     0.123 C 
HETATM   41  C17 UNL     1      -0.214  -9.591  14.321  1.00  0.00     0.316 C 
ATOM     42  H8  UNL     1      -0.439 -11.007  16.000  1.00  0.00     0.164 HD
HETATM   43  O5  UNL     1       1.022  -9.269  14.365  1.00  0.00    -0.247 OA
HETATM   44  N9  UNL     1      -1.160  -9.207  13.325  1.00  0.00    -0.335 N 
ATOM     45  H9  UNL     1      -1.075  -8.460  12.636  1.00  0.00     0.164 HD
ENDBRANCH  34  35
ENDBRANCH  33  34
ENDBRANCH  32  33
ENDBRANCH  31  32
ENDBRANCH  28  31
ENDBRANCH  24  27
ENDBRANCH   1  24
TORSDOF 11
ENDMDL
