MODEL 8
REMARK VINA RESULT: -10.497909357      3.035      5.257
REMARK  11 active torsions:
REMARK  status: ('A' for Active; 'I' for Inactive)
REMARK    1  A    between atoms: N5_13  and  C6_14 
REMARK    2  A    between atoms: C7_16  and  C8_17 
REMARK    3  A    between atoms: C8_17  and  N6_18 
REMARK    4  A    between atoms: N6_18  and  S1_20 
REMARK    5  A    between atoms: S1_20  and  N7_23 
REMARK       I    between atoms: N7_23  and  C9_25 
REMARK    6  A    between atoms: C9_25  and  C10_27 
REMARK    7  A    between atoms: C10_27  and  C11_28 
REMARK    8  A    between atoms: C11_28  and  C12_29 
REMARK    9  A    between atoms: C12_29  and  C13_30 
REMARK   10  A    between atoms: C13_30  and  C14_31 
REMARK   11  A    between atoms: C20_43  and  O6_44 
ROOT
HETATM    1  N6  UNL     1      -4.573  -2.874   7.610  1.00  0.00    -0.300 N 
ATOM      2  H6  UNL     1      -5.559  -3.018   7.397  1.00  0.00     0.173 HD
ENDROOT
BRANCH   1   3
HETATM    3  C8  UNL     1      -4.018  -1.691   8.278  1.00  0.00     0.165 C 
BRANCH   3   4
HETATM    4  C7  UNL     1      -4.508  -0.467   7.517  1.00  0.00     0.145 C 
HETATM    5  O1  UNL     1      -4.939  -0.781   6.259  1.00  0.00    -0.357 OA
HETATM    6  C6  UNL     1      -6.081  -0.048   6.020  1.00  0.00     0.259 C 
HETATM    7  C20 UNL     1      -6.802  -0.084   7.353  1.00  0.00     0.169 C 
HETATM    8  C19 UNL     1      -5.638   0.151   8.300  1.00  0.00     0.070 C 
BRANCH   6   9
HETATM    9  N5  UNL     1      -6.871  -0.573   4.938  1.00  0.00    -0.297 N 
HETATM   10  C3  UNL     1      -6.709  -1.750   4.319  1.00  0.00     0.142 A 
HETATM   11  N3  UNL     1      -5.843  -2.771   4.462  1.00  0.00    -0.336 N 
HETATM   12  C4  UNL     1      -7.680  -1.875   3.331  1.00  0.00     0.119 A 
HETATM   13  C2  UNL     1      -5.931  -3.851   3.673  1.00  0.00     0.183 A 
ATOM     14  H3  UNL     1      -5.116  -2.723   5.175  1.00  0.00     0.168 HD
HETATM   15  N2  UNL     1      -6.881  -3.962   2.713  1.00  0.00    -0.339 N 
HETATM   16  C1  UNL     1      -7.771  -2.989   2.516  1.00  0.00     0.148 A 
ATOM     17  H2  UNL     1      -6.915  -4.801   2.134  1.00  0.00     0.167 HD
HETATM   18  N1  UNL     1      -8.761  -3.103   1.516  1.00  0.00    -0.080 NA
HETATM   19  N4  UNL     1      -8.414  -0.759   3.375  1.00  0.00    -0.346 N 
HETATM   20  C5  UNL     1      -7.916   0.025   4.353  1.00  0.00     0.188 A 
ATOM     21  H4  UNL     1      -9.210  -0.539   2.776  1.00  0.00     0.167 HD
ENDBRANCH   6   9
BRANCH   7  22
HETATM   22  O6  UNL     1      -7.789   0.863   7.469  1.00  0.00    -0.391 OA
ATOM     23  H6  UNL     1      -8.231   0.851   8.310  1.00  0.00     0.210 HD
ENDBRANCH   7  22
ENDBRANCH   3   4
ENDBRANCH   1   3
BRANCH   1  24
HETATM   24  S1  UNL     1      -3.300  -3.988   7.239  1.00  0.00     0.321 S 
HETATM   25  O2  UNL     1      -1.964  -3.295   7.424  1.00  0.00    -0.182 OA
HETATM   26  O3  UNL     1      -3.412  -4.376   5.803  1.00  0.00    -0.182 OA
BRANCH  24  27
HETATM   27  N7  UNL     1      -3.393  -5.398   8.230  1.00  0.00    -0.237 N 
HETATM   28  C9  UNL     1      -4.427  -6.356   7.977  1.00  0.00     0.232 C 
HETATM   29  O4  UNL     1      -5.219  -6.121   7.048  1.00  0.00    -0.273 OA
ATOM     30  H7  UNL     1      -2.722  -5.546   8.983  1.00  0.00     0.183 HD
BRANCH  28  31
HETATM   31  C10 UNL     1      -4.518  -7.556   8.800  1.00  0.00     0.104 C 
BRANCH  31  32
HETATM   32  C11 UNL     1      -3.546  -7.670   9.920  1.00  0.00     0.009 C 
BRANCH  32  33
HETATM   33  C12 UNL     1      -4.166  -7.633  11.278  1.00  0.00     0.002 C 
BRANCH  33  34
HETATM   34  C13 UNL     1      -3.212  -7.793  12.400  1.00  0.00     0.017 C 
BRANCH  34  35
HETATM   35  C14 UNL     1      -3.553  -8.814  13.431  1.00  0.00     0.072 C 
HETATM   36  S2  UNL     1      -3.787  -8.069  15.073  1.00  0.00    -0.160 SA
HETATM   37  C15 UNL     1      -2.845  -9.318  16.041  1.00  0.00     0.101 C 
HETATM   38  C16 UNL     1      -2.813 -10.447  15.033  1.00  0.00     0.119 C 
HETATM   39  N8  UNL     1      -1.540 -11.144  15.287  1.00  0.00    -0.336 N 
HETATM   40  C18 UNL     1      -2.504  -9.817  13.697  1.00  0.00     0.123 C 
HETATM   41  C17 UNL     1      -0.558 -10.232  14.797  1.00  0.00     0.316 C 
ATOM     42  H8  UNL     1      -1.396 -12.060  15.712  1.00  0.00     0.164 HD
HETATM   43  O5  UNL     1       0.691 -10.313  15.061  1.00  0.00    -0.247 OA
HETATM   44  N9  UNL     1      -1.197  -9.248  13.988  1.00  0.00    -0.335 N 
ATOM     45  H9  UNL     1      -0.823  -8.350  13.681  1.00  0.00     0.164 HD
ENDBRANCH  34  35
ENDBRANCH  33  34
ENDBRANCH  32  33
ENDBRANCH  31  32
ENDBRANCH  28  31
ENDBRANCH  24  27
ENDBRANCH   1  24
TORSDOF 11
ENDMDL
