MODEL 1
REMARK VINA RESULT: -10.078357105      0.000      0.000
REMARK  12 active torsions:
REMARK  status: ('A' for Active; 'I' for Inactive)
REMARK    1  A    between atoms: N5_13  and  C6_14 
REMARK    2  A    between atoms: C6_14  and  O1_15 
REMARK    3  A    between atoms: O1_15  and  C7_16 
REMARK    4  A    between atoms: C7_16  and  C8_17 
REMARK    5  A    between atoms: C8_17  and  N6_18 
REMARK    6  A    between atoms: N6_18  and  S1_20 
REMARK    7  A    between atoms: S1_20  and  N7_23 
REMARK       I    between atoms: N7_23  and  C9_25 
REMARK    8  A    between atoms: C9_25  and  C10_27 
REMARK    9  A    between atoms: C10_27  and  C11_28 
REMARK   10  A    between atoms: C11_28  and  C12_29 
REMARK   11  A    between atoms: C12_29  and  C13_30 
REMARK   12  A    between atoms: C13_30  and  C14_31 
ROOT
HETATM    1  S1  UNL     1      -3.182  -3.581   7.197  1.00  0.00     0.321 S 
HETATM    2  O2  UNL     1      -4.320  -3.143   6.354  1.00  0.00    -0.182 OA
HETATM    3  O3  UNL     1      -2.152  -4.255   6.303  1.00  0.00    -0.182 OA
ENDROOT
BRANCH   1   4
HETATM    4  N6  UNL     1      -2.378  -2.260   7.954  1.00  0.00    -0.300 N 
ATOM      5  H6  UNL     1      -1.910  -2.314   8.859  1.00  0.00     0.173 HD
BRANCH   4   6
HETATM    6  C8  UNL     1      -2.451  -1.057   7.136  1.00  0.00     0.160 C 
BRANCH   6   7
HETATM    7  C7  UNL     1      -2.874   0.122   7.965  1.00  0.00     0.190 C 
BRANCH   7   8
HETATM    8  O1  UNL     1      -3.235  -0.207   9.252  1.00  0.00    -0.370 OA
BRANCH   8   9
HETATM    9  C6  UNL     1      -4.560   0.011   9.555  1.00  0.00     0.301 C 
BRANCH   9  10
HETATM   10  N5  UNL     1      -4.782  -0.167  10.966  1.00  0.00    -0.305 N 
HETATM   11  C3  UNL     1      -6.005  -0.430  11.497  1.00  0.00     0.141 A 
HETATM   12  N3  UNL     1      -7.231  -0.589  10.953  1.00  0.00    -0.336 N 
HETATM   13  C4  UNL     1      -5.902  -0.544  12.868  1.00  0.00     0.119 A 
HETATM   14  C2  UNL     1      -8.313  -0.849  11.704  1.00  0.00     0.183 A 
ATOM     15  H3  UNL     1      -7.338  -0.510   9.942  1.00  0.00     0.168 HD
HETATM   16  N2  UNL     1      -8.186  -0.956  13.045  1.00  0.00    -0.339 N 
HETATM   17  C1  UNL     1      -7.006  -0.813  13.668  1.00  0.00     0.148 A 
ATOM     18  H2  UNL     1      -9.016  -1.154  13.605  1.00  0.00     0.167 HD
HETATM   19  N1  UNL     1      -6.821  -0.915  15.063  1.00  0.00    -0.080 NA
HETATM   20  N4  UNL     1      -4.619  -0.351  13.164  1.00  0.00    -0.346 N 
HETATM   21  C5  UNL     1      -3.940  -0.120  12.002  1.00  0.00     0.187 A 
ATOM     22  H4  UNL     1      -4.213  -0.372  14.099  1.00  0.00     0.167 HD
ENDBRANCH   9  10
ENDBRANCH   8   9
ENDBRANCH   7   8
ENDBRANCH   6   7
ENDBRANCH   4   6
ENDBRANCH   1   4
BRANCH   1  23
HETATM   23  N7  UNL     1      -3.669  -4.736   8.396  1.00  0.00    -0.237 N 
HETATM   24  C9  UNL     1      -4.403  -5.873   8.019  1.00  0.00     0.232 C 
HETATM   25  O4  UNL     1      -4.681  -6.001   6.794  1.00  0.00    -0.273 OA
ATOM     26  H7  UNL     1      -3.422  -4.590   9.375  1.00  0.00     0.183 HD
BRANCH  24  27
HETATM   27  C10 UNL     1      -4.868  -6.918   8.935  1.00  0.00     0.104 C 
BRANCH  27  28
HETATM   28  C11 UNL     1      -3.799  -7.740   9.554  1.00  0.00     0.009 C 
BRANCH  28  29
HETATM   29  C12 UNL     1      -3.696  -7.680  11.039  1.00  0.00     0.002 C 
BRANCH  29  30
HETATM   30  C13 UNL     1      -2.674  -8.632  11.615  1.00  0.00     0.017 C 
BRANCH  30  31
HETATM   31  C14 UNL     1      -3.423  -9.487  12.637  1.00  0.00     0.072 C 
HETATM   32  S2  UNL     1      -4.424  -8.291  13.612  1.00  0.00    -0.160 SA
HETATM   33  C15 UNL     1      -3.141  -8.016  14.897  1.00  0.00     0.101 C 
HETATM   34  C16 UNL     1      -2.168  -9.101  14.699  1.00  0.00     0.119 C 
HETATM   35  N8  UNL     1      -0.841  -8.685  14.332  1.00  0.00    -0.336 N 
HETATM   36  C18 UNL     1      -2.561 -10.063  13.681  1.00  0.00     0.123 C 
HETATM   37  C17 UNL     1      -0.228  -9.804  13.705  1.00  0.00     0.316 C 
ATOM     38  H8  UNL     1      -0.423  -7.768  14.490  1.00  0.00     0.164 HD
HETATM   39  O5  UNL     1       1.023 -10.055  13.621  1.00  0.00    -0.247 OA
HETATM   40  N9  UNL     1      -1.294 -10.590  13.188  1.00  0.00    -0.335 N 
ATOM     41  H9  UNL     1      -1.188 -11.395  12.570  1.00  0.00     0.164 HD
ENDBRANCH  30  31
ENDBRANCH  29  30
ENDBRANCH  28  29
ENDBRANCH  27  28
ENDBRANCH  24  27
ENDBRANCH   1  23
TORSDOF 12
ENDMDL
