MODEL 5
REMARK VINA RESULT: -9.162451614      3.598     10.120
REMARK  12 active torsions:
REMARK  status: ('A' for Active; 'I' for Inactive)
REMARK    1  A    between atoms: N5_13  and  C6_14 
REMARK    2  A    between atoms: C6_14  and  O1_15 
REMARK    3  A    between atoms: O1_15  and  C7_16 
REMARK    4  A    between atoms: C7_16  and  C8_17 
REMARK    5  A    between atoms: C8_17  and  N6_18 
REMARK    6  A    between atoms: N6_18  and  S1_20 
REMARK    7  A    between atoms: S1_20  and  N7_23 
REMARK       I    between atoms: N7_23  and  C9_25 
REMARK    8  A    between atoms: C9_25  and  C10_27 
REMARK    9  A    between atoms: C10_27  and  C11_28 
REMARK   10  A    between atoms: C11_28  and  C12_29 
REMARK   11  A    between atoms: C12_29  and  C13_30 
REMARK   12  A    between atoms: C13_30  and  C14_31 
ROOT
HETATM    1  S1  UNL     1      -3.754  -4.716   6.724  1.00  0.00     0.321 S 
HETATM    2  O2  UNL     1      -2.435  -4.718   6.048  1.00  0.00    -0.182 OA
HETATM    3  O3  UNL     1      -4.833  -4.502   5.672  1.00  0.00    -0.182 OA
ENDROOT
BRANCH   1   4
HETATM    4  N6  UNL     1      -4.107  -6.222   7.482  1.00  0.00    -0.300 N 
ATOM      5  H6  UNL     1      -4.572  -7.003   7.021  1.00  0.00     0.173 HD
BRANCH   4   6
HETATM    6  C8  UNL     1      -3.655  -6.235   8.867  1.00  0.00     0.160 C 
BRANCH   6   7
HETATM    7  C7  UNL     1      -4.614  -7.003   9.729  1.00  0.00     0.190 C 
BRANCH   7   8
HETATM    8  O1  UNL     1      -4.051  -8.095  10.350  1.00  0.00    -0.370 OA
BRANCH   8   9
HETATM    9  C6  UNL     1      -2.958  -7.812  11.138  1.00  0.00     0.301 C 
BRANCH   9  10
HETATM   10  N5  UNL     1      -3.208  -8.213  12.497  1.00  0.00    -0.305 N 
HETATM   11  C3  UNL     1      -2.324  -8.938  13.232  1.00  0.00     0.141 A 
HETATM   12  N3  UNL     1      -1.099  -9.441  12.965  1.00  0.00    -0.336 N 
HETATM   13  C4  UNL     1      -2.843  -9.170  14.489  1.00  0.00     0.119 A 
HETATM   14  C2  UNL     1      -0.404 -10.141  13.877  1.00  0.00     0.183 A 
ATOM     15  H3  UNL     1      -0.690  -9.286  12.044  1.00  0.00     0.168 HD
HETATM   16  N2  UNL     1      -0.935 -10.354  15.102  1.00  0.00    -0.339 N 
HETATM   17  C1  UNL     1      -2.145  -9.890  15.450  1.00  0.00     0.148 A 
ATOM     18  H2  UNL     1      -0.398 -10.887  15.785  1.00  0.00     0.167 HD
HETATM   19  N1  UNL     1      -2.742 -10.086  16.714  1.00  0.00    -0.080 NA
HETATM   20  N4  UNL     1      -4.038  -8.587  14.513  1.00  0.00    -0.346 N 
HETATM   21  C5  UNL     1      -4.258  -8.005  13.297  1.00  0.00     0.187 A 
ATOM     22  H4  UNL     1      -4.681  -8.576  15.305  1.00  0.00     0.167 HD
ENDBRANCH   9  10
ENDBRANCH   8   9
ENDBRANCH   7   8
ENDBRANCH   6   7
ENDBRANCH   4   6
ENDBRANCH   1   4
BRANCH   1  23
HETATM   23  N7  UNL     1      -3.890  -3.432   7.881  1.00  0.00    -0.237 N 
HETATM   24  C9  UNL     1      -3.501  -2.127   7.531  1.00  0.00     0.232 C 
HETATM   25  O4  UNL     1      -3.060  -1.951   6.362  1.00  0.00    -0.273 OA
ATOM     26  H7  UNL     1      -4.251  -3.622   8.815  1.00  0.00     0.183 HD
BRANCH  24  27
HETATM   27  C10 UNL     1      -3.570  -0.961   8.417  1.00  0.00     0.104 C 
BRANCH  27  28
HETATM   28  C11 UNL     1      -4.938  -0.467   8.708  1.00  0.00     0.009 C 
BRANCH  28  29
HETATM   29  C12 UNL     1      -5.627   0.258   7.604  1.00  0.00     0.002 C 
BRANCH  29  30
HETATM   30  C13 UNL     1      -6.764  -0.520   6.984  1.00  0.00     0.017 C 
BRANCH  30  31
HETATM   31  C14 UNL     1      -6.340  -0.812   5.545  1.00  0.00     0.072 C 
HETATM   32  S2  UNL     1      -5.501   0.724   4.978  1.00  0.00    -0.160 SA
HETATM   33  C15 UNL     1      -7.022   1.495   4.293  1.00  0.00     0.101 C 
HETATM   34  C16 UNL     1      -8.004   0.402   4.227  1.00  0.00     0.119 C 
HETATM   35  N8  UNL     1      -9.173   0.570   5.047  1.00  0.00    -0.336 N 
HETATM   36  C18 UNL     1      -7.462  -0.896   4.597  1.00  0.00     0.123 C 
HETATM   37  C17 UNL     1      -9.711  -0.730   5.252  1.00  0.00     0.316 C 
ATOM     38  H8  UNL     1      -9.544   1.448   5.410  1.00  0.00     0.164 HD
HETATM   39  O5  UNL     1     -10.924  -1.034   5.518  1.00  0.00    -0.247 OA
HETATM   40  N9  UNL     1      -8.619  -1.628   5.101  1.00  0.00    -0.335 N 
ATOM     41  H9  UNL     1      -8.641  -2.626   5.312  1.00  0.00     0.164 HD
ENDBRANCH  30  31
ENDBRANCH  29  30
ENDBRANCH  28  29
ENDBRANCH  27  28
ENDBRANCH  24  27
ENDBRANCH   1  23
TORSDOF 12
ENDMDL
