MODEL 3
REMARK VINA RESULT: -9.813530282      1.893      2.202
REMARK  12 active torsions:
REMARK  status: ('A' for Active; 'I' for Inactive)
REMARK    1  A    between atoms: N5_13  and  C6_14 
REMARK    2  A    between atoms: C6_14  and  O1_15 
REMARK    3  A    between atoms: O1_15  and  C7_16 
REMARK    4  A    between atoms: C7_16  and  C8_17 
REMARK    5  A    between atoms: C8_17  and  N6_18 
REMARK    6  A    between atoms: N6_18  and  S1_20 
REMARK    7  A    between atoms: S1_20  and  N7_23 
REMARK       I    between atoms: N7_23  and  C9_25 
REMARK    8  A    between atoms: C9_25  and  C10_27 
REMARK    9  A    between atoms: C10_27  and  C11_28 
REMARK   10  A    between atoms: C11_28  and  C12_29 
REMARK   11  A    between atoms: C12_29  and  C13_30 
REMARK   12  A    between atoms: C13_30  and  C14_31 
ROOT
HETATM    1  S1  UNL     1      -3.877  -4.527   6.740  1.00  0.00     0.321 S 
HETATM    2  O2  UNL     1      -4.719  -4.260   5.550  1.00  0.00    -0.182 OA
HETATM    3  O3  UNL     1      -2.427  -4.627   6.291  1.00  0.00    -0.182 OA
ENDROOT
BRANCH   1   4
HETATM    4  N6  UNL     1      -3.942  -3.248   7.892  1.00  0.00    -0.300 N 
ATOM      5  H6  UNL     1      -4.111  -3.379   8.888  1.00  0.00     0.173 HD
BRANCH   4   6
HETATM    6  C8  UNL     1      -3.725  -1.954   7.258  1.00  0.00     0.160 C 
BRANCH   6   7
HETATM    7  C7  UNL     1      -4.895  -1.044   7.499  1.00  0.00     0.190 C 
BRANCH   7   8
HETATM    8  O1  UNL     1      -5.254  -0.941   8.824  1.00  0.00    -0.370 OA
BRANCH   8   9
HETATM    9  C6  UNL     1      -4.572   0.022   9.535  1.00  0.00     0.301 C 
BRANCH   9  10
HETATM   10  N5  UNL     1      -4.790  -0.157  10.946  1.00  0.00    -0.305 N 
HETATM   11  C3  UNL     1      -6.011  -0.426  11.481  1.00  0.00     0.141 A 
HETATM   12  N3  UNL     1      -7.237  -0.590  10.939  1.00  0.00    -0.336 N 
HETATM   13  C4  UNL     1      -5.904  -0.539  12.851  1.00  0.00     0.119 A 
HETATM   14  C2  UNL     1      -8.317  -0.855  11.693  1.00  0.00     0.183 A 
ATOM     15  H3  UNL     1      -7.347  -0.511   9.928  1.00  0.00     0.168 HD
HETATM   16  N2  UNL     1      -8.185  -0.962  13.034  1.00  0.00    -0.339 N 
HETATM   17  C1  UNL     1      -7.004  -0.813  13.654  1.00  0.00     0.148 A 
ATOM     18  H2  UNL     1      -9.013  -1.162  13.595  1.00  0.00     0.167 HD
HETATM   19  N1  UNL     1      -6.816  -0.915  15.048  1.00  0.00    -0.080 NA
HETATM   20  N4  UNL     1      -4.621  -0.341  13.144  1.00  0.00    -0.346 N 
HETATM   21  C5  UNL     1      -3.946  -0.107  11.981  1.00  0.00     0.187 A 
ATOM     22  H4  UNL     1      -4.213  -0.359  14.078  1.00  0.00     0.167 HD
ENDBRANCH   9  10
ENDBRANCH   8   9
ENDBRANCH   7   8
ENDBRANCH   6   7
ENDBRANCH   4   6
ENDBRANCH   1   4
BRANCH   1  23
HETATM   23  N7  UNL     1      -4.292  -6.027   7.506  1.00  0.00    -0.237 N 
HETATM   24  C9  UNL     1      -3.866  -6.285   8.821  1.00  0.00     0.232 C 
HETATM   25  O4  UNL     1      -3.185  -5.390   9.393  1.00  0.00    -0.273 OA
ATOM     26  H7  UNL     1      -4.843  -6.721   7.003  1.00  0.00     0.183 HD
BRANCH  24  27
HETATM   27  C10 UNL     1      -4.153  -7.509   9.574  1.00  0.00     0.104 C 
BRANCH  27  28
HETATM   28  C11 UNL     1      -3.451  -7.631  10.875  1.00  0.00     0.009 C 
BRANCH  28  29
HETATM   29  C12 UNL     1      -4.311  -7.835  12.073  1.00  0.00     0.002 C 
BRANCH  29  30
HETATM   30  C13 UNL     1      -3.937  -9.050  12.890  1.00  0.00     0.017 C 
BRANCH  30  31
HETATM   31  C14 UNL     1      -2.433  -8.943  13.140  1.00  0.00     0.072 C 
HETATM   32  S2  UNL     1      -1.806 -10.667  12.994  1.00  0.00    -0.160 SA
HETATM   33  C15 UNL     1      -1.997 -11.059  14.779  1.00  0.00     0.101 C 
HETATM   34  C16 UNL     1      -2.200  -9.758  15.433  1.00  0.00     0.119 C 
HETATM   35  N8  UNL     1      -3.468  -9.585  16.089  1.00  0.00    -0.336 N 
HETATM   36  C18 UNL     1      -2.080  -8.623  14.531  1.00  0.00     0.123 C 
HETATM   37  C17 UNL     1      -3.679  -8.183  16.193  1.00  0.00     0.316 C 
ATOM     38  H8  UNL     1      -4.092 -10.322  16.416  1.00  0.00     0.164 HD
HETATM   39  O5  UNL     1      -4.403  -7.570  17.051  1.00  0.00    -0.247 OA
HETATM   40  N9  UNL     1      -2.920  -7.599  15.143  1.00  0.00    -0.335 N 
ATOM     41  H9  UNL     1      -2.957  -6.619  14.861  1.00  0.00     0.164 HD
ENDBRANCH  30  31
ENDBRANCH  29  30
ENDBRANCH  28  29
ENDBRANCH  27  28
ENDBRANCH  24  27
ENDBRANCH   1  23
TORSDOF 12
ENDMDL
