MODEL 4
REMARK VINA RESULT: -9.212992600      3.742      9.808
REMARK  12 active torsions:
REMARK  status: ('A' for Active; 'I' for Inactive)
REMARK    1  A    between atoms: N5_13  and  C6_14 
REMARK    2  A    between atoms: C6_14  and  O1_15 
REMARK    3  A    between atoms: O1_15  and  C7_16 
REMARK    4  A    between atoms: C7_16  and  C8_17 
REMARK    5  A    between atoms: C8_17  and  N6_18 
REMARK    6  A    between atoms: N6_18  and  S1_20 
REMARK    7  A    between atoms: S1_20  and  N7_23 
REMARK       I    between atoms: N7_23  and  C9_25 
REMARK    8  A    between atoms: C9_25  and  C10_27 
REMARK    9  A    between atoms: C10_27  and  C11_28 
REMARK   10  A    between atoms: C11_28  and  C12_29 
REMARK   11  A    between atoms: C12_29  and  C13_30 
REMARK   12  A    between atoms: C13_30  and  C14_31 
ROOT
HETATM    1  S1  UNL     1      -3.504  -4.144   6.761  1.00  0.00     0.321 S 
HETATM    2  O2  UNL     1      -2.337  -4.677   6.018  1.00  0.00    -0.182 OA
HETATM    3  O3  UNL     1      -4.736  -4.273   5.878  1.00  0.00    -0.182 OA
ENDROOT
BRANCH   1   4
HETATM    4  N6  UNL     1      -3.836  -5.040   8.193  1.00  0.00    -0.300 N 
ATOM      5  H6  UNL     1      -3.694  -4.686   9.139  1.00  0.00     0.173 HD
BRANCH   4   6
HETATM    6  C8  UNL     1      -4.345  -6.369   7.880  1.00  0.00     0.160 C 
BRANCH   6   7
HETATM    7  C7  UNL     1      -4.673  -7.120   9.138  1.00  0.00     0.190 C 
BRANCH   7   8
HETATM    8  O1  UNL     1      -3.765  -6.926  10.153  1.00  0.00    -0.370 OA
BRANCH   8   9
HETATM    9  C6  UNL     1      -3.182  -8.075  10.636  1.00  0.00     0.301 C 
BRANCH   9  10
HETATM   10  N5  UNL     1      -3.415  -8.193  12.051  1.00  0.00    -0.305 N 
HETATM   11  C3  UNL     1      -2.563  -8.837  12.893  1.00  0.00     0.141 A 
HETATM   12  N3  UNL     1      -1.391  -9.481  12.702  1.00  0.00    -0.336 N 
HETATM   13  C4  UNL     1      -3.054  -8.786  14.181  1.00  0.00     0.119 A 
HETATM   14  C2  UNL     1      -0.720 -10.051  13.716  1.00  0.00     0.183 A 
ATOM     15  H3  UNL     1      -1.003  -9.534  11.760  1.00  0.00     0.168 HD
HETATM   16  N2  UNL     1      -1.223  -9.987  14.969  1.00  0.00    -0.339 N 
HETATM   17  C1  UNL     1      -2.381  -9.368  15.247  1.00  0.00     0.148 A 
ATOM     18  H2  UNL     1      -0.705 -10.425  15.730  1.00  0.00     0.167 HD
HETATM   19  N1  UNL     1      -2.946  -9.274  16.537  1.00  0.00    -0.080 NA
HETATM   20  N4  UNL     1      -4.200  -8.112  14.118  1.00  0.00    -0.346 N 
HETATM   21  C5  UNL     1      -4.417  -7.753  12.818  1.00  0.00     0.187 A 
ATOM     22  H4  UNL     1      -4.811  -7.901  14.906  1.00  0.00     0.167 HD
ENDBRANCH   9  10
ENDBRANCH   8   9
ENDBRANCH   7   8
ENDBRANCH   6   7
ENDBRANCH   4   6
ENDBRANCH   1   4
BRANCH   1  23
HETATM   23  N7  UNL     1      -3.314  -2.465   7.151  1.00  0.00    -0.237 N 
HETATM   24  C9  UNL     1      -4.197  -1.850   8.055  1.00  0.00     0.232 C 
HETATM   25  O4  UNL     1      -5.109  -2.568   8.550  1.00  0.00    -0.273 OA
ATOM     26  H7  UNL     1      -2.562  -1.924   6.725  1.00  0.00     0.183 HD
BRANCH  24  27
HETATM   27  C10 UNL     1      -4.138  -0.443   8.464  1.00  0.00     0.104 C 
BRANCH  27  28
HETATM   28  C11 UNL     1      -4.385   0.542   7.383  1.00  0.00     0.009 C 
BRANCH  28  29
HETATM   29  C12 UNL     1      -5.679   0.416   6.657  1.00  0.00     0.002 C 
BRANCH  29  30
HETATM   30  C13 UNL     1      -5.558  -0.267   5.314  1.00  0.00     0.017 C 
BRANCH  30  31
HETATM   31  C14 UNL     1      -6.573   0.419   4.399  1.00  0.00     0.072 C 
HETATM   32  S2  UNL     1      -7.942   0.933   5.515  1.00  0.00    -0.160 SA
HETATM   33  C15 UNL     1      -8.911  -0.614   5.304  1.00  0.00     0.101 C 
HETATM   34  C16 UNL     1      -8.311  -1.281   4.140  1.00  0.00     0.119 C 
HETATM   35  N8  UNL     1      -7.711  -2.562   4.401  1.00  0.00    -0.336 N 
HETATM   36  C18 UNL     1      -7.271  -0.500   3.488  1.00  0.00     0.123 C 
HETATM   37  C17 UNL     1      -6.780  -2.792   3.351  1.00  0.00     0.316 C 
ATOM     38  H8  UNL     1      -7.914  -3.183   5.184  1.00  0.00     0.164 HD
HETATM   39  O5  UNL     1      -6.359  -3.921   2.922  1.00  0.00    -0.247 OA
HETATM   40  N9  UNL     1      -6.410  -1.505   2.874  1.00  0.00    -0.335 N 
ATOM     41  H9  UNL     1      -5.661  -1.315   2.209  1.00  0.00     0.164 HD
ENDBRANCH  30  31
ENDBRANCH  29  30
ENDBRANCH  28  29
ENDBRANCH  27  28
ENDBRANCH  24  27
ENDBRANCH   1  23
TORSDOF 12
ENDMDL
