MODEL 6
REMARK VINA RESULT: -9.084232070      3.331      8.915
REMARK  12 active torsions:
REMARK  status: ('A' for Active; 'I' for Inactive)
REMARK    1  A    between atoms: N5_13  and  C6_14 
REMARK    2  A    between atoms: C6_14  and  O1_15 
REMARK    3  A    between atoms: O1_15  and  C7_16 
REMARK    4  A    between atoms: C7_16  and  C8_17 
REMARK    5  A    between atoms: C8_17  and  N6_18 
REMARK    6  A    between atoms: N6_18  and  S1_20 
REMARK    7  A    between atoms: S1_20  and  N7_23 
REMARK       I    between atoms: N7_23  and  C9_25 
REMARK    8  A    between atoms: C9_25  and  C10_27 
REMARK    9  A    between atoms: C10_27  and  C11_28 
REMARK   10  A    between atoms: C11_28  and  C12_29 
REMARK   11  A    between atoms: C12_29  and  C13_30 
REMARK   12  A    between atoms: C13_30  and  C14_31 
ROOT
HETATM    1  S1  UNL     1      -3.432  -3.873   7.041  1.00  0.00     0.321 S 
HETATM    2  O2  UNL     1      -2.179  -4.289   6.367  1.00  0.00    -0.182 OA
HETATM    3  O3  UNL     1      -4.566  -3.933   6.028  1.00  0.00    -0.182 OA
ENDROOT
BRANCH   1   4
HETATM    4  N6  UNL     1      -3.871  -4.933   8.325  1.00  0.00    -0.300 N 
ATOM      5  H6  UNL     1      -3.816  -4.691   9.314  1.00  0.00     0.173 HD
BRANCH   4   6
HETATM    6  C8  UNL     1      -4.329  -6.219   7.816  1.00  0.00     0.160 C 
BRANCH   6   7
HETATM    7  C7  UNL     1      -4.523  -7.194   8.941  1.00  0.00     0.190 C 
BRANCH   7   8
HETATM    8  O1  UNL     1      -3.646  -7.016   9.987  1.00  0.00    -0.370 OA
BRANCH   8   9
HETATM    9  C6  UNL     1      -3.157  -8.180  10.537  1.00  0.00     0.301 C 
BRANCH   9  10
HETATM   10  N5  UNL     1      -3.426  -8.212  11.950  1.00  0.00    -0.305 N 
HETATM   11  C3  UNL     1      -2.605  -8.818  12.849  1.00  0.00     0.141 A 
HETATM   12  N3  UNL     1      -1.438  -9.487  12.724  1.00  0.00    -0.336 N 
HETATM   13  C4  UNL     1      -3.127  -8.686  14.119  1.00  0.00     0.119 A 
HETATM   14  C2  UNL     1      -0.801 -10.007  13.786  1.00  0.00     0.183 A 
ATOM     15  H3  UNL     1      -1.029  -9.601  11.797  1.00  0.00     0.168 HD
HETATM   16  N2  UNL     1      -1.333  -9.863  15.021  1.00  0.00    -0.339 N 
HETATM   17  C1  UNL     1      -2.488  -9.213  15.234  1.00  0.00     0.148 A 
ATOM     18  H2  UNL     1      -0.840 -10.263  15.819  1.00  0.00     0.167 HD
HETATM   19  N1  UNL     1      -3.083  -9.037  16.501  1.00  0.00    -0.080 NA
HETATM   20  N4  UNL     1      -4.260  -8.001  13.988  1.00  0.00    -0.346 N 
HETATM   21  C5  UNL     1      -4.440  -7.715  12.665  1.00  0.00     0.187 A 
ATOM     22  H4  UNL     1      -4.887  -7.736  14.747  1.00  0.00     0.167 HD
ENDBRANCH   9  10
ENDBRANCH   8   9
ENDBRANCH   7   8
ENDBRANCH   6   7
ENDBRANCH   4   6
ENDBRANCH   1   4
BRANCH   1  23
HETATM   23  N7  UNL     1      -3.343  -2.244   7.630  1.00  0.00    -0.237 N 
HETATM   24  C9  UNL     1      -4.345  -1.750   8.482  1.00  0.00     0.232 C 
HETATM   25  O4  UNL     1      -5.286  -2.536   8.783  1.00  0.00    -0.273 OA
ATOM     26  H7  UNL     1      -2.565  -1.645   7.357  1.00  0.00     0.183 HD
BRANCH  24  27
HETATM   27  C10 UNL     1      -4.381  -0.397   9.045  1.00  0.00     0.104 C 
BRANCH  27  28
HETATM   28  C11 UNL     1      -4.618  -0.326  10.508  1.00  0.00     0.009 C 
BRANCH  28  29
HETATM   29  C12 UNL     1      -3.425  -0.058  11.358  1.00  0.00     0.002 C 
BRANCH  29  30
HETATM   30  C13 UNL     1      -2.668   1.190  10.967  1.00  0.00     0.017 C 
BRANCH  30  31
HETATM   31  C14 UNL     1      -1.208   0.933  11.339  1.00  0.00     0.072 C 
HETATM   32  S2  UNL     1      -0.593   2.544  11.979  1.00  0.00    -0.160 SA
HETATM   33  C15 UNL     1       0.008   3.145  10.350  1.00  0.00     0.101 C 
HETATM   34  C16 UNL     1       0.017   1.955   9.487  1.00  0.00     0.119 C 
HETATM   35  N8  UNL     1      -0.866   2.004   8.353  1.00  0.00    -0.336 N 
HETATM   36  C18 UNL     1      -0.325   0.723  10.182  1.00  0.00     0.123 C 
HETATM   37  C17 UNL     1      -1.103   0.656   7.969  1.00  0.00     0.316 C 
ATOM     38  H8  UNL     1      -1.247   2.841   7.912  1.00  0.00     0.164 HD
HETATM   39  O5  UNL     1      -1.437   0.228   6.811  1.00  0.00    -0.247 OA
HETATM   40  N9  UNL     1      -0.894  -0.122   9.139  1.00  0.00    -0.335 N 
ATOM     41  H9  UNL     1      -1.108  -1.115   9.235  1.00  0.00     0.164 HD
ENDBRANCH  30  31
ENDBRANCH  29  30
ENDBRANCH  28  29
ENDBRANCH  27  28
ENDBRANCH  24  27
ENDBRANCH   1  23
TORSDOF 12
ENDMDL
