MODEL 2
REMARK VINA RESULT: -9.875316535      0.643      1.535
REMARK  12 active torsions:
REMARK  status: ('A' for Active; 'I' for Inactive)
REMARK    1  A    between atoms: N5_13  and  C6_14 
REMARK    2  A    between atoms: C6_14  and  O1_15 
REMARK    3  A    between atoms: O1_15  and  C7_16 
REMARK    4  A    between atoms: C7_16  and  C8_17 
REMARK    5  A    between atoms: C8_17  and  N6_18 
REMARK    6  A    between atoms: N6_18  and  S1_20 
REMARK    7  A    between atoms: S1_20  and  N7_23 
REMARK       I    between atoms: N7_23  and  C9_25 
REMARK    8  A    between atoms: C9_25  and  C10_27 
REMARK    9  A    between atoms: C10_27  and  C11_28 
REMARK   10  A    between atoms: C11_28  and  C12_29 
REMARK   11  A    between atoms: C12_29  and  C13_30 
REMARK   12  A    between atoms: C13_30  and  C14_31 
ROOT
HETATM    1  S1  UNL     1      -3.172  -3.606   7.141  1.00  0.00     0.321 S 
HETATM    2  O2  UNL     1      -4.308  -3.145   6.310  1.00  0.00    -0.182 OA
HETATM    3  O3  UNL     1      -2.150  -4.273   6.232  1.00  0.00    -0.182 OA
ENDROOT
BRANCH   1   4
HETATM    4  N6  UNL     1      -2.355  -2.305   7.918  1.00  0.00    -0.300 N 
ATOM      5  H6  UNL     1      -1.835  -2.391   8.791  1.00  0.00     0.173 HD
BRANCH   4   6
HETATM    6  C8  UNL     1      -2.502  -1.064   7.167  1.00  0.00     0.160 C 
BRANCH   6   7
HETATM    7  C7  UNL     1      -3.348  -0.084   7.926  1.00  0.00     0.190 C 
BRANCH   7   8
HETATM    8  O1  UNL     1      -4.330  -0.673   8.690  1.00  0.00    -0.370 OA
BRANCH   8   9
HETATM    9  C6  UNL     1      -5.556  -0.048   8.640  1.00  0.00     0.301 C 
BRANCH   9  10
HETATM   10  N5  UNL     1      -6.253  -0.223   9.886  1.00  0.00    -0.305 N 
HETATM   11  C3  UNL     1      -5.621  -0.297  11.087  1.00  0.00     0.141 A 
HETATM   12  N3  UNL     1      -4.320  -0.238  11.448  1.00  0.00    -0.336 N 
HETATM   13  C4  UNL     1      -6.549  -0.468  12.093  1.00  0.00     0.119 A 
HETATM   14  C2  UNL     1      -3.933  -0.339  12.730  1.00  0.00     0.183 A 
ATOM     15  H3  UNL     1      -3.611  -0.112  10.726  1.00  0.00     0.168 HD
HETATM   16  N2  UNL     1      -4.863  -0.506  13.697  1.00  0.00    -0.339 N 
HETATM   17  C1  UNL     1      -6.176  -0.575  13.426  1.00  0.00     0.148 A 
ATOM     18  H2  UNL     1      -4.557  -0.582  14.667  1.00  0.00     0.167 HD
HETATM   19  N1  UNL     1      -7.183  -0.748  14.399  1.00  0.00    -0.080 NA
HETATM   20  N4  UNL     1      -7.740  -0.496  11.501  1.00  0.00    -0.346 N 
HETATM   21  C5  UNL     1      -7.557  -0.347  10.156  1.00  0.00     0.187 A 
ATOM     22  H4  UNL     1      -8.638  -0.610  11.972  1.00  0.00     0.167 HD
ENDBRANCH   9  10
ENDBRANCH   8   9
ENDBRANCH   7   8
ENDBRANCH   6   7
ENDBRANCH   4   6
ENDBRANCH   1   4
BRANCH   1  23
HETATM   23  N7  UNL     1      -3.663  -4.778   8.322  1.00  0.00    -0.237 N 
HETATM   24  C9  UNL     1      -4.410  -5.901   7.928  1.00  0.00     0.232 C 
HETATM   25  O4  UNL     1      -4.696  -6.003   6.703  1.00  0.00    -0.273 OA
ATOM     26  H7  UNL     1      -3.410  -4.652   9.302  1.00  0.00     0.183 HD
BRANCH  24  27
HETATM   27  C10 UNL     1      -4.881  -6.958   8.828  1.00  0.00     0.104 C 
BRANCH  27  28
HETATM   28  C11 UNL     1      -3.813  -7.732   9.508  1.00  0.00     0.009 C 
BRANCH  28  29
HETATM   29  C12 UNL     1      -3.780  -7.647  10.995  1.00  0.00     0.002 C 
BRANCH  29  30
HETATM   30  C13 UNL     1      -2.727  -8.526  11.630  1.00  0.00     0.017 C 
BRANCH  30  31
HETATM   31  C14 UNL     1      -3.466  -9.413  12.631  1.00  0.00     0.072 C 
HETATM   32  S2  UNL     1      -4.464  -8.249  13.647  1.00  0.00    -0.160 SA
HETATM   33  C15 UNL     1      -3.172  -8.008  14.931  1.00  0.00     0.101 C 
HETATM   34  C16 UNL     1      -2.198  -9.084  14.695  1.00  0.00     0.119 C 
HETATM   35  N8  UNL     1      -0.875  -8.653  14.331  1.00  0.00    -0.336 N 
HETATM   36  C18 UNL     1      -2.596 -10.016  13.651  1.00  0.00     0.123 C 
HETATM   37  C17 UNL     1      -0.263  -9.751  13.667  1.00  0.00     0.316 C 
ATOM     38  H8  UNL     1      -0.459  -7.740  14.512  1.00  0.00     0.164 HD
HETATM   39  O5  UNL     1       0.988  -9.995  13.566  1.00  0.00    -0.247 OA
HETATM   40  N9  UNL     1      -1.330 -10.524  13.134  1.00  0.00    -0.335 N 
ATOM     41  H9  UNL     1      -1.227 -11.310  12.492  1.00  0.00     0.164 HD
ENDBRANCH  30  31
ENDBRANCH  29  30
ENDBRANCH  28  29
ENDBRANCH  27  28
ENDBRANCH  24  27
ENDBRANCH   1  23
TORSDOF 12
ENDMDL
