MODEL 1
REMARK VINA RESULT: -8.325294198      0.000      0.000
REMARK  5 active torsions:
REMARK  status: ('A' for Active; 'I' for Inactive)
REMARK    1  A    between atoms: N1_4  and  C4_5 
REMARK    2  A    between atoms: C4_5  and  C5_6 
REMARK    3  A    between atoms: C5_6  and  N2_7 
REMARK    4  A    between atoms: C7_11  and  C8_12 
REMARK    5  A    between atoms: C12_19  and  C13_20 
ROOT
HETATM    1  C13 UNL     1      68.872  38.763  -0.275  1.00  0.00    -0.007 A 
HETATM    2  C14 UNL     1      69.572  37.955  -1.145  1.00  0.00     0.015 A 
HETATM    3  C15 UNL     1      70.387  36.918  -0.730  1.00  0.00     0.023 A 
HETATM    4  C16 UNL     1      70.511  36.671   0.619  1.00  0.00     0.044 A 
HETATM    5  C17 UNL     1      71.349  35.599   1.123  1.00  0.00     0.099 C 
HETATM    6  N6  UNL     1      72.030  34.750   1.524  1.00  0.00    -0.191 NA
HETATM    7  C18 UNL     1      69.835  37.446   1.531  1.00  0.00     0.023 A 
HETATM    8  C19 UNL     1      69.032  38.471   1.080  1.00  0.00     0.015 A 
ENDROOT
BRANCH   1   9
HETATM    9  C12 UNL     1      68.006  39.858  -0.705  1.00  0.00     0.073 A 
HETATM   10  N2  UNL     1      66.671  39.736  -0.930  1.00  0.00    -0.339 N 
HETATM   11  C6  UNL     1      66.189  40.948  -1.314  1.00  0.00     0.184 A 
HETATM   12  N3  UNL     1      67.221  41.782  -1.319  1.00  0.00    -0.350 N 
HETATM   13  C7  UNL     1      68.365  41.166  -0.953  1.00  0.00     0.074 A 
ATOM     14  H3  UNL     1      67.158  42.769  -1.569  1.00  0.00     0.166 HD
BRANCH  10  15
HETATM   15  C5  UNL     1      65.852  38.565  -0.801  1.00  0.00     0.151 C 
BRANCH  15  16
HETATM   16  C4  UNL     1      64.409  38.939  -0.439  1.00  0.00     0.166 C 
BRANCH  16  17
HETATM   17  N1  UNL     1      63.750  37.825   0.181  1.00  0.00    -0.283 N 
HETATM   18  C3  UNL     1      64.359  36.786   0.740  1.00  0.00     0.133 A 
HETATM   19  C2  UNL     1      63.417  35.915   1.231  1.00  0.00     0.036 A 
HETATM   20  C1  UNL     1      63.735  34.648   1.918  1.00  0.00     0.071 C 
HETATM   21  N8  UNL     1      62.228  36.467   0.948  1.00  0.00    -0.287 N 
HETATM   22  N7  UNL     1      62.452  37.607   0.322  1.00  0.00    -0.021 NA
ATOM     23  H8  UNL     1      61.314  36.076   1.176  1.00  0.00     0.184 HD
ENDBRANCH  16  17
ENDBRANCH  15  16
ENDBRANCH  10  15
BRANCH  13  24
HETATM   24  C8  UNL     1      69.683  41.780  -0.849  1.00  0.00     0.027 A 
HETATM   25  C9  UNL     1      70.863  41.226  -0.387  1.00  0.00     0.122 A 
HETATM   26  N4  UNL     1      71.822  42.187  -0.488  1.00  0.00    -0.310 N 
HETATM   27  N5  UNL     1      71.339  43.297  -0.974  1.00  0.00    -0.307 N 
ATOM     28  H4  UNL     1      72.797  42.056  -0.216  1.00  0.00     0.186 HD
HETATM   29  C10 UNL     1      72.027  44.535  -1.232  1.00  0.00     0.177 C 
HETATM   30  C11 UNL     1      70.037  43.066  -1.201  1.00  0.00     0.124 A 
ENDBRANCH  13  24
ENDBRANCH   1   9
TORSDOF 5
ENDMDL
