MODEL 3
REMARK VINA RESULT: -8.075814628      1.459      2.022
REMARK  5 active torsions:
REMARK  status: ('A' for Active; 'I' for Inactive)
REMARK    1  A    between atoms: N1_4  and  C4_5 
REMARK    2  A    between atoms: C4_5  and  C5_6 
REMARK    3  A    between atoms: C5_6  and  N2_7 
REMARK    4  A    between atoms: C7_11  and  C8_12 
REMARK    5  A    between atoms: C12_19  and  C13_20 
ROOT
HETATM    1  C13 UNL     1      69.220  39.463   0.091  1.00  0.00    -0.007 A 
HETATM    2  C14 UNL     1      69.426  39.372   1.451  1.00  0.00     0.015 A 
HETATM    3  C15 UNL     1      69.791  38.200   2.088  1.00  0.00     0.023 A 
HETATM    4  C16 UNL     1      69.961  37.061   1.333  1.00  0.00     0.044 A 
HETATM    5  C17 UNL     1      70.345  35.798   1.937  1.00  0.00     0.099 C 
HETATM    6  N6  UNL     1      70.636  34.787   2.424  1.00  0.00    -0.191 NA
HETATM    7  C18 UNL     1      69.770  37.095  -0.027  1.00  0.00     0.023 A 
HETATM    8  C19 UNL     1      69.406  38.281  -0.627  1.00  0.00     0.015 A 
ENDROOT
BRANCH   1   9
HETATM    9  C12 UNL     1      68.838  40.697  -0.590  1.00  0.00     0.073 A 
HETATM   10  N2  UNL     1      67.561  41.146  -0.705  1.00  0.00    -0.339 N 
HETATM   11  C6  UNL     1      67.578  42.317  -1.396  1.00  0.00     0.184 A 
HETATM   12  N3  UNL     1      68.848  42.564  -1.691  1.00  0.00    -0.350 N 
HETATM   13  C7  UNL     1      69.668  41.600  -1.220  1.00  0.00     0.074 A 
ATOM     14  H3  UNL     1      69.166  43.382  -2.210  1.00  0.00     0.166 HD
BRANCH  10  15
HETATM   15  C5  UNL     1      66.359  40.542  -0.205  1.00  0.00     0.151 C 
BRANCH  15  16
HETATM   16  C4  UNL     1      65.842  39.466  -1.170  1.00  0.00     0.166 C 
BRANCH  16  17
HETATM   17  N1  UNL     1      64.687  38.818  -0.615  1.00  0.00    -0.283 N 
HETATM   18  C3  UNL     1      64.657  37.580  -0.136  1.00  0.00     0.133 A 
HETATM   19  C2  UNL     1      63.390  37.295   0.311  1.00  0.00     0.036 A 
HETATM   20  C1  UNL     1      62.989  36.005   0.907  1.00  0.00     0.071 C 
HETATM   21  N8  UNL     1      62.666  38.401   0.084  1.00  0.00    -0.287 N 
HETATM   22  N7  UNL     1      63.462  39.297  -0.469  1.00  0.00    -0.021 NA
ATOM     23  H8  UNL     1      61.677  38.527   0.299  1.00  0.00     0.184 HD
ENDBRANCH  16  17
ENDBRANCH  15  16
ENDBRANCH  10  15
BRANCH  13  24
HETATM   24  C8  UNL     1      71.118  41.554  -1.363  1.00  0.00     0.027 A 
HETATM   25  C9  UNL     1      71.869  41.205  -2.471  1.00  0.00     0.122 A 
HETATM   26  N4  UNL     1      73.179  41.319  -2.118  1.00  0.00    -0.310 N 
HETATM   27  N5  UNL     1      73.310  41.711  -0.881  1.00  0.00    -0.307 N 
ATOM     28  H4  UNL     1      73.961  41.122  -2.743  1.00  0.00     0.186 HD
HETATM   29  C10 UNL     1      74.521  41.949  -0.141  1.00  0.00     0.177 C 
HETATM   30  C11 UNL     1      72.064  41.860  -0.406  1.00  0.00     0.124 A 
ENDBRANCH  13  24
ENDBRANCH   1   9
TORSDOF 5
ENDMDL
