MODEL 2
REMARK VINA RESULT: -8.139701840      1.460      1.774
REMARK  5 active torsions:
REMARK  status: ('A' for Active; 'I' for Inactive)
REMARK    1  A    between atoms: N1_4  and  C4_5 
REMARK    2  A    between atoms: C4_5  and  C5_6 
REMARK    3  A    between atoms: C5_6  and  N2_7 
REMARK    4  A    between atoms: C7_11  and  C8_12 
REMARK    5  A    between atoms: C12_19  and  C13_20 
ROOT
HETATM    1  C13 UNL     1      69.581  37.988   0.460  1.00  0.00    -0.007 A 
HETATM    2  C14 UNL     1      70.381  37.137  -0.272  1.00  0.00     0.015 A 
HETATM    3  C15 UNL     1      70.853  35.932   0.215  1.00  0.00     0.023 A 
HETATM    4  C16 UNL     1      70.510  35.554   1.494  1.00  0.00     0.044 A 
HETATM    5  C17 UNL     1      70.970  34.302   2.067  1.00  0.00     0.099 C 
HETATM    6  N6  UNL     1      71.351  33.308   2.527  1.00  0.00    -0.191 NA
HETATM    7  C18 UNL     1      69.715  36.364   2.267  1.00  0.00     0.023 A 
HETATM    8  C19 UNL     1      69.263  37.559   1.749  1.00  0.00     0.015 A 
ENDROOT
BRANCH   1   9
HETATM    9  C12 UNL     1      69.075  39.261  -0.048  1.00  0.00     0.073 A 
HETATM   10  N2  UNL     1      67.838  39.436  -0.582  1.00  0.00    -0.339 N 
HETATM   11  C6  UNL     1      67.708  40.739  -0.947  1.00  0.00     0.184 A 
HETATM   12  N3  UNL     1      68.852  41.335  -0.634  1.00  0.00    -0.350 N 
HETATM   13  C7  UNL     1      69.730  40.474  -0.078  1.00  0.00     0.074 A 
ATOM     14  H3  UNL     1      69.045  42.324  -0.795  1.00  0.00     0.166 HD
BRANCH  10  15
HETATM   15  C5  UNL     1      66.801  38.460  -0.759  1.00  0.00     0.151 C 
BRANCH  15  16
HETATM   16  C4  UNL     1      65.466  39.131  -1.108  1.00  0.00     0.166 C 
BRANCH  16  17
HETATM   17  N1  UNL     1      64.386  38.457  -0.445  1.00  0.00    -0.283 N 
HETATM   18  C3  UNL     1      64.455  37.251   0.107  1.00  0.00     0.133 A 
HETATM   19  C2  UNL     1      63.235  36.927   0.648  1.00  0.00     0.036 A 
HETATM   20  C1  UNL     1      62.946  35.656   1.342  1.00  0.00     0.071 C 
HETATM   21  N8  UNL     1      62.437  37.975   0.401  1.00  0.00    -0.287 N 
HETATM   22  N7  UNL     1      63.146  38.877  -0.252  1.00  0.00    -0.021 NA
ATOM     23  H8  UNL     1      61.456  38.060   0.670  1.00  0.00     0.184 HD
ENDBRANCH  16  17
ENDBRANCH  15  16
ENDBRANCH  10  15
BRANCH  13  24
HETATM   24  C8  UNL     1      71.076  40.790   0.383  1.00  0.00     0.027 A 
HETATM   25  C9  UNL     1      71.735  40.334   1.512  1.00  0.00     0.122 A 
HETATM   26  N4  UNL     1      72.971  40.906   1.511  1.00  0.00    -0.310 N 
HETATM   27  N5  UNL     1      73.139  41.681   0.476  1.00  0.00    -0.307 N 
ATOM     28  H4  UNL     1      73.676  40.748   2.231  1.00  0.00     0.186 HD
HETATM   29  C10 UNL     1      74.298  42.457   0.119  1.00  0.00     0.177 C 
HETATM   30  C11 UNL     1      71.995  41.622  -0.223  1.00  0.00     0.124 A 
ENDBRANCH  13  24
ENDBRANCH   1   9
TORSDOF 5
ENDMDL
