MODEL 5
REMARK VINA RESULT: -7.975066845      2.145      6.229
REMARK  5 active torsions:
REMARK  status: ('A' for Active; 'I' for Inactive)
REMARK    1  A    between atoms: N1_4  and  C4_5 
REMARK    2  A    between atoms: C4_5  and  C5_6 
REMARK    3  A    between atoms: C5_6  and  N2_7 
REMARK    4  A    between atoms: C7_11  and  C8_12 
REMARK    5  A    between atoms: C12_19  and  C13_20 
ROOT
HETATM    1  C13 UNL     1      69.788  38.693   0.295  1.00  0.00    -0.007 A 
HETATM    2  C14 UNL     1      69.296  38.369   1.541  1.00  0.00     0.015 A 
HETATM    3  C15 UNL     1      69.439  37.119   2.114  1.00  0.00     0.023 A 
HETATM    4  C16 UNL     1      70.108  36.141   1.411  1.00  0.00     0.044 A 
HETATM    5  C17 UNL     1      70.295  34.808   1.953  1.00  0.00     0.099 C 
HETATM    6  N6  UNL     1      70.430  33.739   2.382  1.00  0.00    -0.191 NA
HETATM    7  C18 UNL     1      70.620  36.410   0.165  1.00  0.00     0.023 A 
HETATM    8  C19 UNL     1      70.458  37.668  -0.375  1.00  0.00     0.015 A 
ENDROOT
BRANCH   1   9
HETATM    9  C12 UNL     1      69.645  40.012  -0.316  1.00  0.00     0.073 A 
HETATM   10  N2  UNL     1      70.676  40.868  -0.544  1.00  0.00    -0.339 N 
HETATM   11  C6  UNL     1      70.180  41.994  -1.122  1.00  0.00     0.184 A 
HETATM   12  N3  UNL     1      68.870  41.814  -1.237  1.00  0.00    -0.350 N 
HETATM   13  C7  UNL     1      68.485  40.613  -0.757  1.00  0.00     0.074 A 
ATOM     14  H3  UNL     1      68.231  42.500  -1.638  1.00  0.00     0.166 HD
BRANCH  10  15
HETATM   15  C5  UNL     1      72.068  40.677  -0.253  1.00  0.00     0.151 C 
BRANCH  15  16
HETATM   16  C4  UNL     1      72.406  41.161   1.163  1.00  0.00     0.166 C 
BRANCH  16  17
HETATM   17  N1  UNL     1      72.460  40.047   2.067  1.00  0.00    -0.283 N 
HETATM   18  C3  UNL     1      73.121  38.916   1.853  1.00  0.00     0.133 A 
HETATM   19  C2  UNL     1      72.949  38.078   2.929  1.00  0.00     0.036 A 
HETATM   20  C1  UNL     1      73.541  36.730   3.035  1.00  0.00     0.071 C 
HETATM   21  N8  UNL     1      72.165  38.745   3.788  1.00  0.00    -0.287 N 
HETATM   22  N7  UNL     1      71.886  39.919   3.252  1.00  0.00    -0.021 NA
ATOM     23  H8  UNL     1      71.841  38.405   4.694  1.00  0.00     0.184 HD
ENDBRANCH  16  17
ENDBRANCH  15  16
ENDBRANCH  10  15
BRANCH  13  24
HETATM   24  C8  UNL     1      67.124  40.090  -0.727  1.00  0.00     0.027 A 
HETATM   25  C9  UNL     1      65.964  40.717  -0.309  1.00  0.00     0.122 A 
HETATM   26  N4  UNL     1      64.947  39.827  -0.474  1.00  0.00    -0.310 N 
HETATM   27  N5  UNL     1      65.376  38.695  -0.960  1.00  0.00    -0.307 N 
ATOM     28  H4  UNL     1      63.972  40.021  -0.246  1.00  0.00     0.186 HD
HETATM   29  C10 UNL     1      64.618  37.513  -1.275  1.00  0.00     0.177 C 
HETATM   30  C11 UNL     1      66.700  38.838  -1.121  1.00  0.00     0.124 A 
ENDBRANCH  13  24
ENDBRANCH   1   9
TORSDOF 5
ENDMDL
