MODEL 5
REMARK VINA RESULT: -7.247262081      4.551      8.060
REMARK  3 active torsions:
REMARK  status: ('A' for Active; 'I' for Inactive)
REMARK    1  A    between atoms: N1_5  and  C4_6 
REMARK    2  A    between atoms: C8_10  and  C9_11 
REMARK    3  A    between atoms: C17_19  and  O2_20 
ROOT
HETATM    1  C4  UNL     1      -5.312   0.780 -22.436  1.00  0.00     0.039 A 
HETATM    2  C5  UNL     1      -4.117   0.528 -23.092  1.00  0.00     0.030 A 
HETATM    3  C6  UNL     1      -3.423  -0.657 -22.899  1.00  0.00     0.003 A 
HETATM    4  C7  UNL     1      -3.959  -1.584 -22.031  1.00  0.00     0.012 A 
HETATM    5  C8  UNL     1      -5.148  -1.387 -21.348  1.00  0.00    -0.024 A 
HETATM    6  C15 UNL     1      -5.791  -0.185 -21.585  1.00  0.00     0.042 A 
ENDROOT
BRANCH   1   7
HETATM    7  N1  UNL     1      -6.005   2.005 -22.653  1.00  0.00    -0.330 N 
HETATM    8  C3  UNL     1      -6.755   2.243 -23.743  1.00  0.00     0.101 A 
HETATM    9  C2  UNL     1      -7.429   3.441 -23.950  1.00  0.00     0.075 A 
HETATM   10  C1  UNL     1      -7.336   4.442 -23.005  1.00  0.00     0.207 A 
HETATM   11  O1  UNL     1      -7.946   5.545 -23.177  1.00  0.00    -0.285 OA
HETATM   12  C17 UNL     1      -6.568   4.197 -21.892  1.00  0.00     0.132 A 
HETATM   13  C16 UNL     1      -5.919   2.990 -21.733  1.00  0.00     0.137 A 
BRANCH  12  14
HETATM   14  O2  UNL     1      -6.464   5.191 -20.933  1.00  0.00    -0.356 OA
ATOM     15  H2  UNL     1      -7.261   5.509 -20.525  1.00  0.00     0.218 HD
ENDBRANCH  12  14
ENDBRANCH   1   7
BRANCH   5  16
HETATM   16  C9  UNL     1      -5.649  -2.410 -20.451  1.00  0.00    -0.026 A 
HETATM   17  C10 UNL     1      -6.836  -3.049 -20.717  1.00  0.00     0.012 A 
HETATM   18  C11 UNL     1      -7.331  -4.027 -19.877  1.00  0.00     0.001 A 
HETATM   19  C12 UNL     1      -6.631  -4.393 -18.728  1.00  0.00     0.000 A 
HETATM   20  C13 UNL     1      -5.453  -3.764 -18.458  1.00  0.00     0.001 A 
HETATM   21  C14 UNL     1      -4.958  -2.773 -19.315  1.00  0.00     0.012 A 
ENDBRANCH   5  16
TORSDOF 3
ENDMDL
