MODEL 16
REMARK VINA RESULT: -6.819842135      1.493      2.464
REMARK  3 active torsions:
REMARK  status: ('A' for Active; 'I' for Inactive)
REMARK    1  A    between atoms: N1_5  and  C4_6 
REMARK    2  A    between atoms: C8_10  and  C9_11 
REMARK    3  A    between atoms: C17_19  and  O2_20 
ROOT
HETATM    1  C4  UNL     1      -6.570   1.288 -24.094  1.00  0.00     0.039 A 
HETATM    2  C5  UNL     1      -6.635  -0.033 -23.681  1.00  0.00     0.030 A 
HETATM    3  C6  UNL     1      -6.852  -1.063 -24.584  1.00  0.00     0.003 A 
HETATM    4  C7  UNL     1      -7.003  -0.732 -25.913  1.00  0.00     0.012 A 
HETATM    5  C8  UNL     1      -6.948   0.569 -26.384  1.00  0.00    -0.024 A 
HETATM    6  C15 UNL     1      -6.728   1.549 -25.432  1.00  0.00     0.042 A 
ENDROOT
BRANCH   1   7
HETATM    7  N1  UNL     1      -6.344   2.326 -23.145  1.00  0.00    -0.330 N 
HETATM    8  C3  UNL     1      -5.614   2.158 -22.030  1.00  0.00     0.101 A 
HETATM    9  C2  UNL     1      -5.397   3.175 -21.107  1.00  0.00     0.075 A 
HETATM   10  C1  UNL     1      -5.948   4.419 -21.330  1.00  0.00     0.207 A 
HETATM   11  O1  UNL     1      -5.760   5.363 -20.498  1.00  0.00    -0.285 OA
HETATM   12  C17 UNL     1      -6.695   4.590 -22.472  1.00  0.00     0.132 A 
HETATM   13  C16 UNL     1      -6.881   3.548 -23.356  1.00  0.00     0.137 A 
BRANCH  12  14
HETATM   14  O2  UNL     1      -7.255   5.833 -22.711  1.00  0.00    -0.356 OA
ATOM     15  H2  UNL     1      -6.681   6.544 -22.970  1.00  0.00     0.218 HD
ENDBRANCH  12  14
ENDBRANCH   1   7
BRANCH   5  16
HETATM   16  C9  UNL     1      -7.116   0.838 -27.800  1.00  0.00    -0.026 A 
HETATM   17  C10 UNL     1      -7.828  -0.029 -28.593  1.00  0.00     0.012 A 
HETATM   18  C11 UNL     1      -8.001   0.207 -29.943  1.00  0.00     0.001 A 
HETATM   19  C12 UNL     1      -7.453   1.342 -30.538  1.00  0.00     0.000 A 
HETATM   20  C13 UNL     1      -6.745   2.207 -29.757  1.00  0.00     0.001 A 
HETATM   21  C14 UNL     1      -6.575   1.960 -28.389  1.00  0.00     0.012 A 
ENDBRANCH   5  16
TORSDOF 3
ENDMDL
