MODEL 6
REMARK VINA RESULT: -7.225111415      4.658      7.867
REMARK  3 active torsions:
REMARK  status: ('A' for Active; 'I' for Inactive)
REMARK    1  A    between atoms: N1_5  and  C4_6 
REMARK    2  A    between atoms: C8_10  and  C9_11 
REMARK    3  A    between atoms: C17_19  and  O2_20 
ROOT
HETATM    1  C4  UNL     1      -6.316   0.216 -22.877  1.00  0.00     0.039 A 
HETATM    2  C5  UNL     1      -6.020  -0.340 -24.111  1.00  0.00     0.030 A 
HETATM    3  C6  UNL     1      -5.871  -1.709 -24.271  1.00  0.00     0.003 A 
HETATM    4  C7  UNL     1      -6.029  -2.508 -23.159  1.00  0.00     0.012 A 
HETATM    5  C8  UNL     1      -6.324  -2.010 -21.900  1.00  0.00    -0.024 A 
HETATM    6  C15 UNL     1      -6.460  -0.636 -21.810  1.00  0.00     0.042 A 
ENDROOT
BRANCH   1   7
HETATM    7  N1  UNL     1      -6.466   1.625 -22.741  1.00  0.00    -0.330 N 
HETATM    8  C3  UNL     1      -5.771   2.358 -21.854  1.00  0.00     0.101 A 
HETATM    9  C2  UNL     1      -5.921   3.734 -21.727  1.00  0.00     0.075 A 
HETATM   10  C1  UNL     1      -6.820   4.395 -22.538  1.00  0.00     0.207 A 
HETATM   11  O1  UNL     1      -6.972   5.653 -22.436  1.00  0.00    -0.285 OA
HETATM   12  C17 UNL     1      -7.531   3.644 -23.444  1.00  0.00     0.132 A 
HETATM   13  C16 UNL     1      -7.344   2.280 -23.532  1.00  0.00     0.137 A 
BRANCH  12  14
HETATM   14  O2  UNL     1      -8.437   4.291 -24.266  1.00  0.00    -0.356 OA
ATOM     15  H2  UNL     1      -8.206   5.146 -24.608  1.00  0.00     0.218 HD
ENDBRANCH  12  14
ENDBRANCH   1   7
BRANCH   5  16
HETATM   16  C9  UNL     1      -6.475  -2.915 -20.777  1.00  0.00    -0.026 A 
HETATM   17  C10 UNL     1      -7.495  -3.835 -20.757  1.00  0.00     0.012 A 
HETATM   18  C11 UNL     1      -7.658  -4.708 -19.699  1.00  0.00     0.001 A 
HETATM   19  C12 UNL     1      -6.781  -4.675 -18.615  1.00  0.00     0.000 A 
HETATM   20  C13 UNL     1      -5.767  -3.764 -18.628  1.00  0.00     0.001 A 
HETATM   21  C14 UNL     1      -5.610  -2.883 -19.705  1.00  0.00     0.012 A 
ENDBRANCH   5  16
TORSDOF 3
ENDMDL
