MODEL 4
REMARK VINA RESULT: -7.505220708      0.948      1.236
REMARK  3 active torsions:
REMARK  status: ('A' for Active; 'I' for Inactive)
REMARK    1  A    between atoms: N1_5  and  C4_6 
REMARK    2  A    between atoms: C8_10  and  C9_11 
REMARK    3  A    between atoms: C17_19  and  O2_20 
ROOT
HETATM    1  C4  UNL     1      -7.261   1.282 -25.858  1.00  0.00     0.039 A 
HETATM    2  C5  UNL     1      -7.652  -0.043 -25.741  1.00  0.00     0.030 A 
HETATM    3  C6  UNL     1      -7.904  -0.824 -26.857  1.00  0.00     0.003 A 
HETATM    4  C7  UNL     1      -7.753  -0.243 -28.098  1.00  0.00     0.012 A 
HETATM    5  C8  UNL     1      -7.366   1.075 -28.278  1.00  0.00    -0.024 A 
HETATM    6  C15 UNL     1      -7.130   1.799 -27.123  1.00  0.00     0.042 A 
ENDROOT
BRANCH   1   7
HETATM    7  N1  UNL     1      -7.007   2.061 -24.695  1.00  0.00    -0.330 N 
HETATM    8  C3  UNL     1      -6.132   1.699 -23.742  1.00  0.00     0.101 A 
HETATM    9  C2  UNL     1      -5.888   2.464 -22.607  1.00  0.00     0.075 A 
HETATM   10  C1  UNL     1      -6.566   3.653 -22.435  1.00  0.00     0.207 A 
HETATM   11  O1  UNL     1      -6.356   4.367 -21.403  1.00  0.00    -0.285 OA
HETATM   12  C17 UNL     1      -7.461   4.023 -23.410  1.00  0.00     0.132 A 
HETATM   13  C16 UNL     1      -7.667   3.227 -24.518  1.00  0.00     0.137 A 
BRANCH  12  14
HETATM   14  O2  UNL     1      -8.150   5.213 -23.253  1.00  0.00    -0.356 OA
ATOM     15  H2  UNL     1      -7.663   5.985 -22.992  1.00  0.00     0.218 HD
ENDBRANCH  12  14
ENDBRANCH   1   7
BRANCH   5  16
HETATM   16  C9  UNL     1      -7.229   1.616 -29.617  1.00  0.00    -0.026 A 
HETATM   17  C10 UNL     1      -6.394   2.681 -29.854  1.00  0.00     0.012 A 
HETATM   18  C11 UNL     1      -6.247   3.212 -31.121  1.00  0.00     0.001 A 
HETATM   19  C12 UNL     1      -6.949   2.674 -32.198  1.00  0.00     0.000 A 
HETATM   20  C13 UNL     1      -7.779   1.617 -31.970  1.00  0.00     0.001 A 
HETATM   21  C14 UNL     1      -7.922   1.085 -30.682  1.00  0.00     0.012 A 
ENDBRANCH   5  16
TORSDOF 3
ENDMDL
