MODEL 3
REMARK VINA RESULT: -7.775983582      5.078      9.709
REMARK  3 active torsions:
REMARK  status: ('A' for Active; 'I' for Inactive)
REMARK    1  A    between atoms: N1_5  and  C4_6 
REMARK    2  A    between atoms: C8_10  and  C9_11 
REMARK    3  A    between atoms: C17_19  and  O2_20 
ROOT
HETATM    1  C4  UNL     1      -5.149   4.903 -20.577  1.00  0.00     0.039 A 
HETATM    2  C5  UNL     1      -5.356   6.273 -20.601  1.00  0.00     0.030 A 
HETATM    3  C6  UNL     1      -4.694   7.121 -19.726  1.00  0.00     0.003 A 
HETATM    4  C7  UNL     1      -3.817   6.558 -18.824  1.00  0.00     0.012 A 
HETATM    5  C8  UNL     1      -3.570   5.196 -18.753  1.00  0.00    -0.024 A 
HETATM    6  C15 UNL     1      -4.261   4.407 -19.654  1.00  0.00     0.042 A 
ENDROOT
BRANCH   1   7
HETATM    7  N1  UNL     1      -5.840   4.056 -21.488  1.00  0.00    -0.330 N 
HETATM    8  C3  UNL     1      -5.652   2.727 -21.547  1.00  0.00     0.101 A 
HETATM    9  C2  UNL     1      -6.330   1.905 -22.440  1.00  0.00     0.075 A 
HETATM   10  C1  UNL     1      -7.241   2.461 -23.313  1.00  0.00     0.207 A 
HETATM   11  O1  UNL     1      -7.871   1.726 -24.138  1.00  0.00    -0.285 OA
HETATM   12  C17 UNL     1      -7.432   3.821 -23.253  1.00  0.00     0.132 A 
HETATM   13  C16 UNL     1      -6.734   4.594 -22.348  1.00  0.00     0.137 A 
BRANCH  12  14
HETATM   14  O2  UNL     1      -8.344   4.396 -24.123  1.00  0.00    -0.356 OA
ATOM     15  H2  UNL     1      -9.136   4.775 -23.760  1.00  0.00     0.218 HD
ENDBRANCH  12  14
ENDBRANCH   1   7
BRANCH   5  16
HETATM   16  C9  UNL     1      -2.631   4.678 -17.775  1.00  0.00    -0.026 A 
HETATM   17  C10 UNL     1      -1.369   5.211 -17.673  1.00  0.00     0.012 A 
HETATM   18  C11 UNL     1      -0.459   4.734 -16.749  1.00  0.00     0.001 A 
HETATM   19  C12 UNL     1      -0.804   3.692 -15.891  1.00  0.00     0.000 A 
HETATM   20  C13 UNL     1      -2.055   3.158 -15.987  1.00  0.00     0.001 A 
HETATM   21  C14 UNL     1      -2.971   3.648 -16.926  1.00  0.00     0.012 A 
ENDBRANCH   5  16
TORSDOF 3
ENDMDL
