MODEL 15
REMARK VINA RESULT: -6.947123037      1.100      1.900
REMARK  3 active torsions:
REMARK  status: ('A' for Active; 'I' for Inactive)
REMARK    1  A    between atoms: N1_5  and  C4_6 
REMARK    2  A    between atoms: C8_10  and  C9_11 
REMARK    3  A    between atoms: C17_19  and  O2_20 
ROOT
HETATM    1  C4  UNL     1      -7.361   1.475 -25.802  1.00  0.00     0.039 A 
HETATM    2  C5  UNL     1      -7.683   0.139 -25.624  1.00  0.00     0.030 A 
HETATM    3  C6  UNL     1      -7.856  -0.713 -26.703  1.00  0.00     0.003 A 
HETATM    4  C7  UNL     1      -7.698  -0.190 -27.969  1.00  0.00     0.012 A 
HETATM    5  C8  UNL     1      -7.378   1.136 -28.208  1.00  0.00    -0.024 A 
HETATM    6  C15 UNL     1      -7.218   1.932 -27.089  1.00  0.00     0.042 A 
ENDROOT
BRANCH   1   7
HETATM    7  N1  UNL     1      -7.187   2.328 -24.675  1.00  0.00    -0.330 N 
HETATM    8  C3  UNL     1      -7.773   3.532 -24.565  1.00  0.00     0.101 A 
HETATM    9  C2  UNL     1      -7.599   4.361 -23.462  1.00  0.00     0.075 A 
HETATM   10  C1  UNL     1      -6.790   3.945 -22.425  1.00  0.00     0.207 A 
HETATM   11  O1  UNL     1      -6.618   4.689 -21.408  1.00  0.00    -0.285 OA
HETATM   12  C17 UNL     1      -6.190   2.713 -22.540  1.00  0.00     0.132 A 
HETATM   13  C16 UNL     1      -6.396   1.928 -23.655  1.00  0.00     0.137 A 
BRANCH  12  14
HETATM   14  O2  UNL     1      -5.375   2.280 -21.507  1.00  0.00    -0.356 OA
ATOM     15  H2  UNL     1      -4.485   2.608 -21.468  1.00  0.00     0.218 HD
ENDBRANCH  12  14
ENDBRANCH   1   7
BRANCH   5  16
HETATM   16  C9  UNL     1      -7.228   1.613 -29.570  1.00  0.00    -0.026 A 
HETATM   17  C10 UNL     1      -6.407   2.679 -29.848  1.00  0.00     0.012 A 
HETATM   18  C11 UNL     1      -6.249   3.150 -31.137  1.00  0.00     0.001 A 
HETATM   19  C12 UNL     1      -6.924   2.547 -32.197  1.00  0.00     0.000 A 
HETATM   20  C13 UNL     1      -7.740   1.489 -31.929  1.00  0.00     0.001 A 
HETATM   21  C14 UNL     1      -7.895   1.018 -30.619  1.00  0.00     0.012 A 
ENDBRANCH   5  16
TORSDOF 3
ENDMDL
