MODEL 1
REMARK VINA RESULT: -7.820403363      0.000      0.000
REMARK  3 active torsions:
REMARK  status: ('A' for Active; 'I' for Inactive)
REMARK    1  A    between atoms: N1_5  and  C4_6 
REMARK    2  A    between atoms: C8_10  and  C9_11 
REMARK    3  A    between atoms: C17_19  and  O2_20 
ROOT
HETATM    1  C4  UNL     1      -6.839   1.750 -25.982  1.00  0.00     0.039 A 
HETATM    2  C5  UNL     1      -7.470   0.519 -26.067  1.00  0.00     0.030 A 
HETATM    3  C6  UNL     1      -7.613  -0.138 -27.279  1.00  0.00     0.003 A 
HETATM    4  C7  UNL     1      -7.105   0.471 -28.406  1.00  0.00     0.012 A 
HETATM    5  C8  UNL     1      -6.466   1.700 -28.383  1.00  0.00    -0.024 A 
HETATM    6  C15 UNL     1      -6.356   2.302 -27.143  1.00  0.00     0.042 A 
ENDROOT
BRANCH   1   7
HETATM    7  N1  UNL     1      -6.705   2.403 -24.724  1.00  0.00    -0.330 N 
HETATM    8  C3  UNL     1      -5.922   1.940 -23.734  1.00  0.00     0.101 A 
HETATM    9  C2  UNL     1      -5.795   2.581 -22.508  1.00  0.00     0.075 A 
HETATM   10  C1  UNL     1      -6.496   3.747 -22.278  1.00  0.00     0.207 A 
HETATM   11  O1  UNL     1      -6.393   4.348 -21.161  1.00  0.00    -0.285 OA
HETATM   12  C17 UNL     1      -7.296   4.219 -23.291  1.00  0.00     0.132 A 
HETATM   13  C16 UNL     1      -7.388   3.544 -24.491  1.00  0.00     0.137 A 
BRANCH  12  14
HETATM   14  O2  UNL     1      -8.007   5.388 -23.077  1.00  0.00    -0.356 OA
ATOM     15  H2  UNL     1      -7.547   6.215 -23.150  1.00  0.00     0.218 HD
ENDBRANCH  12  14
ENDBRANCH   1   7
BRANCH   5  16
HETATM   16  C9  UNL     1      -5.957   2.277 -29.613  1.00  0.00    -0.026 A 
HETATM   17  C10 UNL     1      -4.618   2.207 -29.913  1.00  0.00     0.012 A 
HETATM   18  C11 UNL     1      -4.112   2.749 -31.078  1.00  0.00     0.001 A 
HETATM   19  C12 UNL     1      -4.956   3.386 -31.986  1.00  0.00     0.000 A 
HETATM   20  C13 UNL     1      -6.285   3.461 -31.695  1.00  0.00     0.001 A 
HETATM   21  C14 UNL     1      -6.790   2.908 -30.511  1.00  0.00     0.012 A 
ENDBRANCH   5  16
TORSDOF 3
ENDMDL
