MODEL 2
REMARK VINA RESULT: -7.819644306      0.110      1.063
REMARK  3 active torsions:
REMARK  status: ('A' for Active; 'I' for Inactive)
REMARK    1  A    between atoms: N1_5  and  C4_6 
REMARK    2  A    between atoms: C8_10  and  C9_11 
REMARK    3  A    between atoms: C17_19  and  O2_20 
ROOT
HETATM    1  C4  UNL     1      -6.765   1.669 -25.981  1.00  0.00     0.039 A 
HETATM    2  C5  UNL     1      -7.367   0.424 -26.069  1.00  0.00     0.030 A 
HETATM    3  C6  UNL     1      -7.479  -0.241 -27.280  1.00  0.00     0.003 A 
HETATM    4  C7  UNL     1      -6.971   0.376 -28.403  1.00  0.00     0.012 A 
HETATM    5  C8  UNL     1      -6.360   1.619 -28.377  1.00  0.00    -0.024 A 
HETATM    6  C15 UNL     1      -6.279   2.228 -27.138  1.00  0.00     0.042 A 
ENDROOT
BRANCH   1   7
HETATM    7  N1  UNL     1      -6.661   2.329 -24.724  1.00  0.00    -0.330 N 
HETATM    8  C3  UNL     1      -5.881   1.888 -23.723  1.00  0.00     0.101 A 
HETATM    9  C2  UNL     1      -5.784   2.537 -22.497  1.00  0.00     0.075 A 
HETATM   10  C1  UNL     1      -6.514   3.686 -22.280  1.00  0.00     0.207 A 
HETATM   11  O1  UNL     1      -6.439   4.294 -21.165  1.00  0.00    -0.285 OA
HETATM   12  C17 UNL     1      -7.312   4.136 -23.305  1.00  0.00     0.132 A 
HETATM   13  C16 UNL     1      -7.374   3.456 -24.504  1.00  0.00     0.137 A 
BRANCH  12  14
HETATM   14  O2  UNL     1      -8.052   5.289 -23.104  1.00  0.00    -0.356 OA
ATOM     15  H2  UNL     1      -8.946   5.312 -23.424  1.00  0.00     0.218 HD
ENDBRANCH  12  14
ENDBRANCH   1   7
BRANCH   5  16
HETATM   16  C9  UNL     1      -5.849   2.203 -29.602  1.00  0.00    -0.026 A 
HETATM   17  C10 UNL     1      -6.695   2.851 -30.469  1.00  0.00     0.012 A 
HETATM   18  C11 UNL     1      -6.230   3.416 -31.641  1.00  0.00     0.001 A 
HETATM   19  C12 UNL     1      -4.879   3.342 -31.974  1.00  0.00     0.000 A 
HETATM   20  C13 UNL     1      -4.034   2.700 -31.119  1.00  0.00     0.001 A 
HETATM   21  C14 UNL     1      -4.513   2.130 -29.933  1.00  0.00     0.012 A 
ENDBRANCH   5  16
TORSDOF 3
ENDMDL
