MODEL 4
REMARK VINA RESULT: -10.259733326      3.525      5.864
REMARK  8 active torsions:
REMARK  status: ('A' for Active; 'I' for Inactive)
REMARK    1  A    between atoms: C2_2  and  N1_3 
REMARK    2  A    between atoms: N1_3  and  S1_5 
REMARK    3  A    between atoms: S1_5  and  N2_8 
REMARK    4  A    between atoms: N2_8  and  C4_10 
REMARK    5  A    between atoms: C8_15  and  C9_16 
REMARK    6  A    between atoms: C9_16  and  C10_18 
REMARK    7  A    between atoms: C14_26  and  C15_27 
REMARK    8  A    between atoms: C17_31  and  C18_32 
ROOT
HETATM    1  C10 UNL     1       5.908  -1.965 -19.933  1.00  0.00     0.044 A 
HETATM    2  C11 UNL     1       5.996  -1.530 -18.632  1.00  0.00     0.106 A 
HETATM    3  N3  UNL     1       6.812  -2.380 -17.939  1.00  0.00    -0.351 N 
ATOM      4  H3  UNL     1       7.063  -2.311 -16.953  1.00  0.00     0.166 HD
HETATM    5  C12 UNL     1       7.223  -3.330 -18.810  1.00  0.00     0.116 A 
HETATM    6  N4  UNL     1       8.045  -4.411 -18.657  1.00  0.00    -0.351 N 
ATOM      7  H4  UNL     1       8.455  -4.595 -17.741  1.00  0.00     0.166 HD
HETATM    8  C13 UNL     1       8.328  -5.236 -19.670  1.00  0.00     0.102 A 
HETATM    9  C14 UNL     1       7.803  -5.053 -20.956  1.00  0.00    -0.007 A 
HETATM   10  C22 UNL     1       6.979  -3.971 -21.110  1.00  0.00     0.030 A 
HETATM   11  C23 UNL     1       6.683  -3.102 -20.048  1.00  0.00     0.024 A 
ENDROOT
BRANCH   1  12
HETATM   12  C9  UNL     1       5.174  -1.382 -21.049  1.00  0.00     0.200 C 
HETATM   13  O3  UNL     1       5.508  -0.286 -21.542  1.00  0.00    -0.286 OA
BRANCH  12  14
HETATM   14  C8  UNL     1       4.024  -2.126 -21.576  1.00  0.00     0.094 A 
HETATM   15  C7  UNL     1       4.102  -2.877 -22.748  1.00  0.00     0.133 A 
HETATM   16  C6  UNL     1       3.036  -3.583 -23.252  1.00  0.00     0.046 A 
HETATM   17  F1  UNL     1       5.320  -2.889 -23.379  1.00  0.00    -0.205 F 
HETATM   18  C5  UNL     1       1.835  -3.568 -22.593  1.00  0.00     0.036 A 
HETATM   19  C4  UNL     1       1.733  -2.835 -21.432  1.00  0.00     0.083 A 
HETATM   20  C24 UNL     1       2.800  -2.121 -20.921  1.00  0.00     0.161 A 
HETATM   21  F2  UNL     1       2.698  -1.386 -19.772  1.00  0.00    -0.203 F 
BRANCH  19  22
HETATM   22  N2  UNL     1       0.491  -2.879 -20.749  1.00  0.00    -0.269 N 
ATOM     23  H2  UNL     1       0.247  -3.742 -20.264  1.00  0.00     0.180 HD
BRANCH  22  24
HETATM   24  S1  UNL     1      -0.633  -1.577 -20.683  1.00  0.00     0.303 S 
HETATM   25  O1  UNL     1      -0.578  -0.839 -21.981  1.00  0.00    -0.188 OA
HETATM   26  O2  UNL     1      -0.220  -0.685 -19.517  1.00  0.00    -0.188 OA
BRANCH  24  27
HETATM   27  N1  UNL     1      -2.239  -2.159 -20.401  1.00  0.00    -0.198 NA
HETATM   28  C3  UNL     1      -2.443  -3.467 -20.981  1.00  0.00     0.131 C 
BRANCH  27  29
HETATM   29  C2  UNL     1      -3.152  -1.229 -21.016  1.00  0.00     0.104 C 
HETATM   30  C1  UNL     1      -4.481  -1.820 -21.395  1.00  0.00     0.021 C 
ENDBRANCH  27  29
ENDBRANCH  24  27
ENDBRANCH  22  24
ENDBRANCH  19  22
ENDBRANCH  12  14
ENDBRANCH   1  12
BRANCH   9  31
HETATM   31  C15 UNL     1       8.155  -5.983 -22.025  1.00  0.00     0.006 A 
HETATM   32  C16 UNL     1       7.377  -6.245 -23.129  1.00  0.00     0.103 A 
HETATM   33  N5  UNL     1       7.773  -7.124 -24.081  1.00  0.00    -0.354 N 
HETATM   34  C17 UNL     1       8.942  -7.785 -24.000  1.00  0.00     0.085 A 
ATOM     35  H5  UNL     1       7.167  -7.289 -24.884  1.00  0.00     0.166 HD
HETATM   36  N6  UNL     1       9.712  -7.531 -22.917  1.00  0.00    -0.354 N 
HETATM   37  C21 UNL     1       9.357  -6.663 -21.942  1.00  0.00     0.103 A 
ATOM     38  H6  UNL     1      10.604  -8.017 -22.832  1.00  0.00     0.166 HD
BRANCH  34  39
HETATM   39  C18 UNL     1       9.336  -8.799 -25.017  1.00  0.00     0.053 A 
HETATM   40  C19 UNL     1       8.535 -10.050 -24.970  1.00  0.00     0.013 A 
HETATM   41  C20 UNL     1      10.034 -10.049 -24.707  1.00  0.00     0.013 A 
ENDBRANCH  34  39
ENDBRANCH   9  31
TORSDOF 8
ENDMDL
