MODEL 3
REMARK VINA RESULT: -10.281158594      2.667      5.986
REMARK  8 active torsions:
REMARK  status: ('A' for Active; 'I' for Inactive)
REMARK    1  A    between atoms: C2_2  and  N1_3 
REMARK    2  A    between atoms: N1_3  and  S1_5 
REMARK    3  A    between atoms: S1_5  and  N2_8 
REMARK    4  A    between atoms: N2_8  and  C4_10 
REMARK    5  A    between atoms: C8_15  and  C9_16 
REMARK    6  A    between atoms: C9_16  and  C10_18 
REMARK    7  A    between atoms: C14_26  and  C15_27 
REMARK    8  A    between atoms: C17_31  and  C18_32 
ROOT
HETATM    1  C10 UNL     1       3.281  -2.291 -20.609  1.00  0.00     0.044 A 
HETATM    2  C11 UNL     1       4.364  -1.473 -20.383  1.00  0.00     0.106 A 
HETATM    3  N3  UNL     1       5.212  -1.563 -21.451  1.00  0.00    -0.351 N 
ATOM      4  H3  UNL     1       6.097  -1.070 -21.566  1.00  0.00     0.166 HD
HETATM    5  C12 UNL     1       4.653  -2.428 -22.328  1.00  0.00     0.116 A 
HETATM    6  N4  UNL     1       5.063  -2.877 -23.552  1.00  0.00    -0.351 N 
ATOM      7  H4  UNL     1       5.948  -2.539 -23.932  1.00  0.00     0.166 HD
HETATM    8  C13 UNL     1       4.342  -3.746 -24.268  1.00  0.00     0.102 A 
HETATM    9  C14 UNL     1       3.119  -4.258 -23.815  1.00  0.00    -0.007 A 
HETATM   10  C22 UNL     1       2.707  -3.809 -22.590  1.00  0.00     0.030 A 
HETATM   11  C23 UNL     1       3.462  -2.895 -21.838  1.00  0.00     0.024 A 
ENDROOT
BRANCH   1  12
HETATM   12  C9  UNL     1       2.111  -2.518 -19.771  1.00  0.00     0.200 C 
HETATM   13  O3  UNL     1       2.211  -3.064 -18.654  1.00  0.00    -0.286 OA
BRANCH  12  14
HETATM   14  C8  UNL     1       0.807  -2.085 -20.286  1.00  0.00     0.094 A 
HETATM   15  C7  UNL     1       0.534  -0.751 -20.584  1.00  0.00     0.133 A 
HETATM   16  C6  UNL     1      -0.681  -0.331 -21.070  1.00  0.00     0.046 A 
HETATM   17  F1  UNL     1       1.559   0.137 -20.377  1.00  0.00    -0.205 F 
HETATM   18  C5  UNL     1      -1.683  -1.240 -21.284  1.00  0.00     0.036 A 
HETATM   19  C4  UNL     1      -1.437  -2.565 -20.999  1.00  0.00     0.083 A 
HETATM   20  C24 UNL     1      -0.219  -2.994 -20.507  1.00  0.00     0.161 A 
HETATM   21  F2  UNL     1       0.023  -4.308 -20.216  1.00  0.00    -0.203 F 
BRANCH  19  22
HETATM   22  N2  UNL     1      -2.478  -3.487 -21.275  1.00  0.00    -0.269 N 
ATOM     23  H2  UNL     1      -2.235  -4.339 -21.782  1.00  0.00     0.180 HD
BRANCH  22  24
HETATM   24  S1  UNL     1      -4.123  -3.270 -20.816  1.00  0.00     0.303 S 
HETATM   25  O1  UNL     1      -4.845  -4.560 -21.021  1.00  0.00    -0.188 OA
HETATM   26  O2  UNL     1      -4.694  -2.165 -21.699  1.00  0.00    -0.188 OA
BRANCH  24  27
HETATM   27  N1  UNL     1      -4.243  -2.780 -19.159  1.00  0.00    -0.198 NA
HETATM   28  C3  UNL     1      -4.179  -3.912 -18.262  1.00  0.00     0.131 C 
BRANCH  27  29
HETATM   29  C2  UNL     1      -5.516  -2.126 -18.992  1.00  0.00     0.104 C 
HETATM   30  C1  UNL     1      -5.828  -1.721 -17.578  1.00  0.00     0.021 C 
ENDBRANCH  27  29
ENDBRANCH  24  27
ENDBRANCH  22  24
ENDBRANCH  19  22
ENDBRANCH  12  14
ENDBRANCH   1  12
BRANCH   9  31
HETATM   31  C15 UNL     1       2.371  -5.198 -24.646  1.00  0.00     0.006 A 
HETATM   32  C16 UNL     1       2.461  -6.568 -24.559  1.00  0.00     0.103 A 
HETATM   33  N5  UNL     1       1.734  -7.377 -25.367  1.00  0.00    -0.354 N 
HETATM   34  C17 UNL     1       0.890  -6.888 -26.293  1.00  0.00     0.085 A 
ATOM     35  H5  UNL     1       1.830  -8.387 -25.270  1.00  0.00     0.166 HD
HETATM   36  N6  UNL     1       0.797  -5.541 -26.382  1.00  0.00    -0.354 N 
HETATM   37  C21 UNL     1       1.503  -4.695 -25.598  1.00  0.00     0.103 A 
ATOM     38  H6  UNL     1       0.162  -5.144 -27.075  1.00  0.00     0.166 HD
BRANCH  34  39
HETATM   39  C18 UNL     1       0.147  -7.784 -27.221  1.00  0.00     0.053 A 
HETATM   40  C19 UNL     1      -0.302  -9.060 -26.605  1.00  0.00     0.013 A 
HETATM   41  C20 UNL     1       0.682  -9.034 -27.766  1.00  0.00     0.013 A 
ENDBRANCH  34  39
ENDBRANCH   9  31
TORSDOF 8
ENDMDL
