MODEL 5
REMARK VINA RESULT: -10.241754929      4.347      9.209
REMARK  8 active torsions:
REMARK  status: ('A' for Active; 'I' for Inactive)
REMARK    1  A    between atoms: C2_2  and  N1_3 
REMARK    2  A    between atoms: N1_3  and  S1_5 
REMARK    3  A    between atoms: S1_5  and  N2_8 
REMARK    4  A    between atoms: N2_8  and  C4_10 
REMARK    5  A    between atoms: C8_15  and  C9_16 
REMARK    6  A    between atoms: C9_16  and  C10_18 
REMARK    7  A    between atoms: C14_26  and  C15_27 
REMARK    8  A    between atoms: C17_31  and  C18_32 
ROOT
HETATM    1  C10 UNL     1       5.117  -2.586 -21.782  1.00  0.00     0.044 A 
HETATM    2  C11 UNL     1       6.210  -2.310 -20.994  1.00  0.00     0.106 A 
HETATM    3  N3  UNL     1       5.775  -1.947 -19.751  1.00  0.00    -0.351 N 
ATOM      4  H3  UNL     1       6.358  -1.685 -18.957  1.00  0.00     0.166 HD
HETATM    5  C12 UNL     1       4.423  -2.000 -19.774  1.00  0.00     0.116 A 
HETATM    6  N4  UNL     1       3.484  -1.746 -18.814  1.00  0.00    -0.351 N 
ATOM      7  H4  UNL     1       3.793  -1.453 -17.886  1.00  0.00     0.166 HD
HETATM    8  C13 UNL     1       2.175  -1.867 -19.051  1.00  0.00     0.102 A 
HETATM    9  C14 UNL     1       1.672  -2.261 -20.299  1.00  0.00    -0.007 A 
HETATM   10  C22 UNL     1       2.611  -2.516 -21.261  1.00  0.00     0.030 A 
HETATM   11  C23 UNL     1       3.987  -2.392 -21.013  1.00  0.00     0.024 A 
ENDROOT
BRANCH   1  12
HETATM   12  C9  UNL     1       5.073  -3.028 -23.170  1.00  0.00     0.200 C 
HETATM   13  O3  UNL     1       4.967  -2.211 -24.106  1.00  0.00    -0.286 OA
BRANCH  12  14
HETATM   14  C8  UNL     1       5.154  -4.469 -23.432  1.00  0.00     0.094 A 
HETATM   15  C7  UNL     1       6.364  -5.162 -23.395  1.00  0.00     0.133 A 
HETATM   16  C6  UNL     1       6.456  -6.512 -23.634  1.00  0.00     0.046 A 
HETATM   17  F1  UNL     1       7.476  -4.420 -23.090  1.00  0.00    -0.205 F 
HETATM   18  C5  UNL     1       5.327  -7.233 -23.921  1.00  0.00     0.036 A 
HETATM   19  C4  UNL     1       4.119  -6.573 -23.961  1.00  0.00     0.083 A 
HETATM   20  C24 UNL     1       4.020  -5.215 -23.725  1.00  0.00     0.161 A 
HETATM   21  F2  UNL     1       2.822  -4.556 -23.773  1.00  0.00    -0.203 F 
BRANCH  19  22
HETATM   22  N2  UNL     1       2.965  -7.356 -24.214  1.00  0.00    -0.269 N 
ATOM     23  H2  UNL     1       2.353  -7.567 -23.425  1.00  0.00     0.180 HD
BRANCH  22  24
HETATM   24  S1  UNL     1       2.523  -7.974 -25.758  1.00  0.00     0.303 S 
HETATM   25  O1  UNL     1       2.630  -9.463 -25.719  1.00  0.00    -0.188 OA
HETATM   26  O2  UNL     1       3.487  -7.373 -26.776  1.00  0.00    -0.188 OA
BRANCH  24  27
HETATM   27  N1  UNL     1       0.908  -7.507 -26.174  1.00  0.00    -0.198 NA
HETATM   28  C3  UNL     1       0.184  -8.589 -26.803  1.00  0.00     0.131 C 
BRANCH  27  29
HETATM   29  C2  UNL     1       1.000  -6.407 -27.101  1.00  0.00     0.104 C 
HETATM   30  C1  UNL     1       0.845  -5.050 -26.474  1.00  0.00     0.021 C 
ENDBRANCH  27  29
ENDBRANCH  24  27
ENDBRANCH  22  24
ENDBRANCH  19  22
ENDBRANCH  12  14
ENDBRANCH   1  12
BRANCH   9  31
HETATM   31  C15 UNL     1       0.230  -2.384 -20.496  1.00  0.00     0.006 A 
HETATM   32  C16 UNL     1      -0.673  -1.354 -20.365  1.00  0.00     0.103 A 
HETATM   33  N5  UNL     1      -1.998  -1.547 -20.564  1.00  0.00    -0.354 N 
HETATM   34  C17 UNL     1      -2.502  -2.748 -20.899  1.00  0.00     0.085 A 
ATOM     35  H5  UNL     1      -2.634  -0.758 -20.457  1.00  0.00     0.166 HD
HETATM   36  N6  UNL     1      -1.619  -3.764 -21.031  1.00  0.00    -0.354 N 
HETATM   37  C21 UNL     1      -0.287  -3.619 -20.841  1.00  0.00     0.103 A 
ATOM     38  H6  UNL     1      -1.975  -4.685 -21.286  1.00  0.00     0.166 HD
BRANCH  34  39
HETATM   39  C18 UNL     1      -3.968  -2.965 -21.049  1.00  0.00     0.053 A 
HETATM   40  C19 UNL     1      -4.715  -1.768 -21.516  1.00  0.00     0.013 A 
HETATM   41  C20 UNL     1      -4.981  -2.398 -20.156  1.00  0.00     0.013 A 
ENDBRANCH  34  39
ENDBRANCH   9  31
TORSDOF 8
ENDMDL
