MODEL 2
REMARK VINA RESULT: -10.491239201      1.933      3.008
REMARK  8 active torsions:
REMARK  status: ('A' for Active; 'I' for Inactive)
REMARK    1  A    between atoms: C2_2  and  N1_3 
REMARK    2  A    between atoms: N1_3  and  S1_5 
REMARK    3  A    between atoms: S1_5  and  N2_8 
REMARK    4  A    between atoms: N2_8  and  C4_10 
REMARK    5  A    between atoms: C8_15  and  C9_16 
REMARK    6  A    between atoms: C9_16  and  C10_18 
REMARK    7  A    between atoms: C14_26  and  C15_27 
REMARK    8  A    between atoms: C17_31  and  C18_32 
ROOT
HETATM    1  C10 UNL     1       1.824  -1.864 -19.770  1.00  0.00     0.044 A 
HETATM    2  C11 UNL     1       1.393  -1.394 -18.551  1.00  0.00     0.106 A 
HETATM    3  N3  UNL     1       2.464  -1.316 -17.707  1.00  0.00    -0.351 N 
ATOM      4  H3  UNL     1       2.450  -1.002 -16.737  1.00  0.00     0.166 HD
HETATM    5  C12 UNL     1       3.547  -1.735 -18.402  1.00  0.00     0.116 A 
HETATM    6  N4  UNL     1       4.863  -1.856 -18.053  1.00  0.00    -0.351 N 
ATOM      7  H4  UNL     1       5.149  -1.603 -17.106  1.00  0.00     0.166 HD
HETATM    8  C13 UNL     1       5.788  -2.296 -18.912  1.00  0.00     0.102 A 
HETATM    9  C14 UNL     1       5.474  -2.665 -20.227  1.00  0.00    -0.007 A 
HETATM   10  C22 UNL     1       4.157  -2.544 -20.578  1.00  0.00     0.030 A 
HETATM   11  C23 UNL     1       3.185  -2.081 -19.677  1.00  0.00     0.024 A 
ENDROOT
BRANCH   1  12
HETATM   12  C9  UNL     1       1.059  -2.099 -20.987  1.00  0.00     0.200 C 
HETATM   13  O3  UNL     1       1.601  -2.549 -22.016  1.00  0.00    -0.286 OA
BRANCH  12  14
HETATM   14  C8  UNL     1      -0.375  -1.786 -20.965  1.00  0.00     0.094 A 
HETATM   15  C7  UNL     1      -0.847  -0.475 -20.983  1.00  0.00     0.133 A 
HETATM   16  C6  UNL     1      -2.186  -0.166 -20.968  1.00  0.00     0.046 A 
HETATM   17  F1  UNL     1       0.106   0.511 -21.031  1.00  0.00    -0.205 F 
HETATM   18  C5  UNL     1      -3.118  -1.169 -20.937  1.00  0.00     0.036 A 
HETATM   19  C4  UNL     1      -2.677  -2.473 -20.921  1.00  0.00     0.083 A 
HETATM   20  C24 UNL     1      -1.332  -2.791 -20.933  1.00  0.00     0.161 A 
HETATM   21  F2  UNL     1      -0.893  -4.086 -20.908  1.00  0.00    -0.203 F 
BRANCH  19  22
HETATM   22  N2  UNL     1      -3.667  -3.488 -20.936  1.00  0.00    -0.269 N 
ATOM     23  H2  UNL     1      -3.615  -4.190 -21.674  1.00  0.00     0.180 HD
BRANCH  22  24
HETATM   24  S1  UNL     1      -4.950  -3.618 -19.796  1.00  0.00     0.303 S 
HETATM   25  O1  UNL     1      -5.455  -5.023 -19.812  1.00  0.00    -0.188 OA
HETATM   26  O2  UNL     1      -6.032  -2.632 -20.222  1.00  0.00    -0.188 OA
BRANCH  24  27
HETATM   27  N1  UNL     1      -4.409  -3.202 -18.204  1.00  0.00    -0.198 NA
HETATM   28  C3  UNL     1      -4.102  -4.377 -17.420  1.00  0.00     0.131 C 
BRANCH  27  29
HETATM   29  C2  UNL     1      -5.474  -2.477 -17.560  1.00  0.00     0.104 C 
HETATM   30  C1  UNL     1      -5.980  -3.108 -16.293  1.00  0.00     0.021 C 
ENDBRANCH  27  29
ENDBRANCH  24  27
ENDBRANCH  22  24
ENDBRANCH  19  22
ENDBRANCH  12  14
ENDBRANCH   1  12
BRANCH   9  31
HETATM   31  C15 UNL     1       6.530  -3.130 -21.123  1.00  0.00     0.006 A 
HETATM   32  C16 UNL     1       7.878  -3.060 -20.855  1.00  0.00     0.103 A 
HETATM   33  N5  UNL     1       8.799  -3.513 -21.738  1.00  0.00    -0.354 N 
HETATM   34  C17 UNL     1       8.449  -4.053 -22.919  1.00  0.00     0.085 A 
ATOM     35  H5  UNL     1       9.788  -3.443 -21.500  1.00  0.00     0.166 HD
HETATM   36  N6  UNL     1       7.126  -4.126 -23.188  1.00  0.00    -0.354 N 
HETATM   37  C21 UNL     1       6.170  -3.685 -22.338  1.00  0.00     0.103 A 
ATOM     38  H6  UNL     1       6.833  -4.532 -24.077  1.00  0.00     0.166 HD
BRANCH  34  39
HETATM   39  C18 UNL     1       9.472  -4.486 -23.912  1.00  0.00     0.053 A 
HETATM   40  C19 UNL     1      10.302  -3.378 -24.451  1.00  0.00     0.013 A 
HETATM   41  C20 UNL     1       9.396  -4.209 -25.348  1.00  0.00     0.013 A 
ENDBRANCH  34  39
ENDBRANCH   9  31
TORSDOF 8
ENDMDL
