MODEL 14
REMARK VINA RESULT: -9.907864585      2.280      3.492
REMARK  8 active torsions:
REMARK  status: ('A' for Active; 'I' for Inactive)
REMARK    1  A    between atoms: C2_2  and  N1_3 
REMARK    2  A    between atoms: N1_3  and  S1_5 
REMARK    3  A    between atoms: S1_5  and  N2_8 
REMARK    4  A    between atoms: N2_8  and  C4_10 
REMARK    5  A    between atoms: C8_15  and  C9_16 
REMARK    6  A    between atoms: C9_16  and  C10_18 
REMARK    7  A    between atoms: C14_26  and  C15_27 
REMARK    8  A    between atoms: C17_31  and  C18_32 
ROOT
HETATM    1  C10 UNL     1       2.475  -1.951 -19.699  1.00  0.00     0.044 A 
HETATM    2  C11 UNL     1       2.044  -1.416 -18.507  1.00  0.00     0.106 A 
HETATM    3  N3  UNL     1       3.085  -1.422 -17.622  1.00  0.00    -0.351 N 
ATOM      4  H3  UNL     1       3.064  -1.087 -16.659  1.00  0.00     0.166 HD
HETATM    5  C12 UNL     1       4.148  -1.956 -18.266  1.00  0.00     0.116 A 
HETATM    6  N4  UNL     1       5.433  -2.192 -17.863  1.00  0.00    -0.351 N 
ATOM      7  H4  UNL     1       5.705  -1.948 -16.910  1.00  0.00     0.166 HD
HETATM    8  C13 UNL     1       6.344  -2.735 -18.677  1.00  0.00     0.102 A 
HETATM    9  C14 UNL     1       6.047  -3.101 -19.997  1.00  0.00    -0.007 A 
HETATM   10  C22 UNL     1       4.761  -2.864 -20.401  1.00  0.00     0.030 A 
HETATM   11  C23 UNL     1       3.804  -2.292 -19.549  1.00  0.00     0.024 A 
ENDROOT
BRANCH   1  12
HETATM   12  C9  UNL     1       1.737  -2.138 -20.942  1.00  0.00     0.200 C 
HETATM   13  O3  UNL     1       2.309  -2.519 -21.983  1.00  0.00    -0.286 OA
BRANCH  12  14
HETATM   14  C8  UNL     1       0.296  -1.860 -20.931  1.00  0.00     0.094 A 
HETATM   15  C7  UNL     1      -0.209  -0.563 -21.002  1.00  0.00     0.133 A 
HETATM   16  C6  UNL     1      -1.555  -0.287 -20.998  1.00  0.00     0.046 A 
HETATM   17  F1  UNL     1       0.719   0.443 -21.092  1.00  0.00    -0.205 F 
HETATM   18  C5  UNL     1      -2.462  -1.311 -20.924  1.00  0.00     0.036 A 
HETATM   19  C4  UNL     1      -1.988  -2.602 -20.855  1.00  0.00     0.083 A 
HETATM   20  C24 UNL     1      -0.636  -2.887 -20.856  1.00  0.00     0.161 A 
HETATM   21  F2  UNL     1      -0.164  -4.168 -20.778  1.00  0.00    -0.203 F 
BRANCH  19  22
HETATM   22  N2  UNL     1      -2.952  -3.641 -20.827  1.00  0.00    -0.269 N 
ATOM     23  H2  UNL     1      -2.861  -4.391 -21.513  1.00  0.00     0.180 HD
BRANCH  22  24
HETATM   24  S1  UNL     1      -4.264  -3.727 -19.716  1.00  0.00     0.303 S 
HETATM   25  O1  UNL     1      -3.715  -4.013 -18.357  1.00  0.00    -0.188 OA
HETATM   26  O2  UNL     1      -5.184  -4.845 -20.192  1.00  0.00    -0.188 OA
BRANCH  24  27
HETATM   27  N1  UNL     1      -5.155  -2.241 -19.694  1.00  0.00    -0.198 NA
HETATM   28  C3  UNL     1      -5.684  -1.955 -18.380  1.00  0.00     0.131 C 
BRANCH  27  29
HETATM   29  C2  UNL     1      -6.252  -2.380 -20.618  1.00  0.00     0.104 C 
HETATM   30  C1  UNL     1      -5.916  -2.033 -22.041  1.00  0.00     0.021 C 
ENDBRANCH  27  29
ENDBRANCH  24  27
ENDBRANCH  22  24
ENDBRANCH  19  22
ENDBRANCH  12  14
ENDBRANCH   1  12
BRANCH   9  31
HETATM   31  C15 UNL     1       7.087  -3.682 -20.842  1.00  0.00     0.006 A 
HETATM   32  C16 UNL     1       8.359  -3.994 -20.422  1.00  0.00     0.103 A 
HETATM   33  N5  UNL     1       9.271  -4.532 -21.267  1.00  0.00    -0.354 N 
HETATM   34  C17 UNL     1       8.984  -4.789 -22.555  1.00  0.00     0.085 A 
ATOM     35  H5  UNL     1      10.203  -4.749 -20.916  1.00  0.00     0.166 HD
HETATM   36  N6  UNL     1       7.734  -4.486 -22.974  1.00  0.00    -0.354 N 
HETATM   37  C21 UNL     1       6.791  -3.947 -22.167  1.00  0.00     0.103 A 
ATOM     38  H6  UNL     1       7.490  -4.673 -23.946  1.00  0.00     0.166 HD
BRANCH  34  39
HETATM   39  C18 UNL     1      10.014  -5.318 -23.493  1.00  0.00     0.053 A 
HETATM   40  C19 UNL     1       9.629  -6.585 -24.167  1.00  0.00     0.013 A 
HETATM   41  C20 UNL     1      10.830  -6.506 -23.236  1.00  0.00     0.013 A 
ENDBRANCH  34  39
ENDBRANCH   9  31
TORSDOF 8
ENDMDL
