MODEL 7
REMARK VINA RESULT: -8.348777487      1.006      1.213
REMARK  13 active torsions:
REMARK  status: ('A' for Active; 'I' for Inactive)
REMARK    1  A    between atoms: O1_1  and  C1_3 
REMARK    2  A    between atoms: C1_3  and  C2_4 
REMARK    3  A    between atoms: C3_6  and  O3_7 
REMARK    4  A    between atoms: O3_7  and  C4_8 
REMARK    5  A    between atoms: C5_10  and  C6_11 
REMARK    6  A    between atoms: C6_11  and  O5_12 
REMARK    7  A    between atoms: O5_12  and  P1_13 
REMARK    8  A    between atoms: C7_17  and  O9_18 
REMARK    9  A    between atoms: C8_20  and  O10_21 
REMARK   10  A    between atoms: C9_23  and  O11_24 
REMARK   11  A    between atoms: C10_26  and  O12_27 
REMARK   12  A    between atoms: C11_29  and  O13_30 
REMARK   13  A    between atoms: C12_32  and  O14_33 
ROOT
HETATM    1  C4  UNL     1      28.907 -11.159  26.361  1.00  0.00     0.294 C 
HETATM    2  O4  UNL     1      28.983  -9.924  26.937  1.00  0.00    -0.348 OA
HETATM    3  C5  UNL     1      29.953  -9.073  26.507  1.00  0.00     0.180 C 
HETATM    4  C7  UNL     1      30.722  -9.427  25.298  1.00  0.00     0.180 C 
HETATM    5  C8  UNL     1      30.808 -10.857  24.923  1.00  0.00     0.183 C 
HETATM    6  C9  UNL     1      30.296 -11.661  26.130  1.00  0.00     0.204 C 
ENDROOT
BRANCH   1   7
HETATM    7  O3  UNL     1      28.140 -11.987  27.159  1.00  0.00    -0.326 OA
BRANCH   7   8
HETATM    8  C3  UNL     1      27.213 -11.306  27.928  1.00  0.00     0.294 C 
HETATM    9  O2  UNL     1      26.066 -11.139  27.190  1.00  0.00    -0.348 OA
HETATM   10  C2  UNL     1      25.492 -12.274  26.705  1.00  0.00     0.179 C 
HETATM   11  C12 UNL     1      25.570 -13.496  27.523  1.00  0.00     0.180 C 
HETATM   12  C11 UNL     1      26.592 -13.528  28.598  1.00  0.00     0.183 C 
HETATM   13  C10 UNL     1      26.852 -12.156  29.131  1.00  0.00     0.204 C 
BRANCH  10  14
HETATM   14  C1  UNL     1      24.019 -11.937  26.431  1.00  0.00     0.198 C 
BRANCH  14  15
HETATM   15  O1  UNL     1      23.578 -10.894  27.204  1.00  0.00    -0.398 OA
ATOM     16  H1  UNL     1      23.177 -10.209  26.682  1.00  0.00     0.209 HD
ENDBRANCH  14  15
ENDBRANCH  10  14
BRANCH  11  17
HETATM   17  O14 UNL     1      25.798 -14.625  26.701  1.00  0.00    -0.390 OA
ATOM     18  H14 UNL     1      26.700 -14.914  26.779  1.00  0.00     0.210 HD
ENDBRANCH  11  17
BRANCH  12  19
HETATM   19  O13 UNL     1      26.174 -14.341  29.671  1.00  0.00    -0.390 OA
ATOM     20  H13 UNL     1      26.020 -13.781  30.422  1.00  0.00     0.210 HD
ENDBRANCH  12  19
BRANCH  13  21
HETATM   21  O12 UNL     1      27.847 -12.126  30.100  1.00  0.00    -0.388 OA
ATOM     22  H12 UNL     1      28.307 -12.955  30.158  1.00  0.00     0.210 HD
ENDBRANCH  13  21
ENDBRANCH   7   8
ENDBRANCH   1   7
BRANCH   6  23
HETATM   23  O11 UNL     1      31.143 -11.310  27.186  1.00  0.00    -0.388 OA
ATOM     24  H11 UNL     1      30.879 -10.485  27.577  1.00  0.00     0.210 HD
ENDBRANCH   6  23
BRANCH   3  25
HETATM   25  C6  UNL     1      29.425  -7.644  26.349  1.00  0.00     0.217 C 
BRANCH  25  26
HETATM   26  O5  UNL     1      30.000  -6.844  27.297  1.00  0.00    -0.280 OA
BRANCH  26  27
HETATM   27  P1  UNL     1      31.141  -5.797  26.895  1.00  0.00     0.422 P 
HETATM   28  O6  UNL     1      32.364  -6.237  25.825  1.00  0.00    -0.617 OA
HETATM   29  O7  UNL     1      30.374  -5.119  25.772  1.00  0.00    -0.617 OA
HETATM   30  O8  UNL     1      31.283  -4.340  27.719  1.00  0.00    -0.617 OA
ENDBRANCH  26  27
ENDBRANCH  25  26
ENDBRANCH   3  25
BRANCH   5  31
HETATM   31  O10 UNL     1      29.973 -11.205  23.860  1.00  0.00    -0.390 OA
ATOM     32  H10 UNL     1      29.640 -12.093  23.914  1.00  0.00     0.210 HD
ENDBRANCH   5  31
BRANCH   4  33
HETATM   33  O9  UNL     1      32.036  -8.912  25.381  1.00  0.00    -0.390 OA
ATOM     34  H9  UNL     1      32.665  -9.619  25.462  1.00  0.00     0.210 HD
ENDBRANCH   4  33
TORSDOF 13
ENDMDL
