MODEL 2
REMARK VINA RESULT: -8.847933136      1.483      1.930
REMARK  13 active torsions:
REMARK  status: ('A' for Active; 'I' for Inactive)
REMARK    1  A    between atoms: O1_1  and  C1_3 
REMARK    2  A    between atoms: C1_3  and  C2_4 
REMARK    3  A    between atoms: C3_6  and  O3_7 
REMARK    4  A    between atoms: O3_7  and  C4_8 
REMARK    5  A    between atoms: C5_10  and  C6_11 
REMARK    6  A    between atoms: C6_11  and  O5_12 
REMARK    7  A    between atoms: O5_12  and  P1_13 
REMARK    8  A    between atoms: C7_17  and  O9_18 
REMARK    9  A    between atoms: C8_20  and  O10_21 
REMARK   10  A    between atoms: C9_23  and  O11_24 
REMARK   11  A    between atoms: C10_26  and  O12_27 
REMARK   12  A    between atoms: C11_29  and  O13_30 
REMARK   13  A    between atoms: C12_32  and  O14_33 
ROOT
HETATM    1  C4  UNL     1      28.067 -12.099  26.188  1.00  0.00     0.294 C 
HETATM    2  O4  UNL     1      29.384 -11.750  26.273  1.00  0.00    -0.348 OA
HETATM    3  C5  UNL     1      30.081 -11.591  25.116  1.00  0.00     0.180 C 
HETATM    4  C7  UNL     1      29.343 -11.575  23.839  1.00  0.00     0.180 C 
HETATM    5  C8  UNL     1      28.023 -12.243  23.790  1.00  0.00     0.183 C 
HETATM    6  C9  UNL     1      27.906 -13.082  25.073  1.00  0.00     0.204 C 
ENDROOT
BRANCH   1   7
HETATM    7  O3  UNL     1      27.640 -12.571  27.415  1.00  0.00    -0.326 OA
BRANCH   7   8
HETATM    8  C3  UNL     1      26.984 -11.618  28.173  1.00  0.00     0.294 C 
HETATM    9  O2  UNL     1      25.887 -11.177  27.473  1.00  0.00    -0.348 OA
HETATM   10  C2  UNL     1      24.995 -12.130  27.089  1.00  0.00     0.179 C 
HETATM   11  C12 UNL     1      24.779 -13.280  27.983  1.00  0.00     0.180 C 
HETATM   12  C11 UNL     1      25.812 -13.538  29.016  1.00  0.00     0.183 C 
HETATM   13  C10 UNL     1      26.472 -12.267  29.445  1.00  0.00     0.204 C 
BRANCH  10  14
HETATM   14  C1  UNL     1      23.659 -11.410  26.853  1.00  0.00     0.198 C 
BRANCH  14  15
HETATM   15  O1  UNL     1      22.786 -12.174  26.121  1.00  0.00    -0.398 OA
ATOM     16  H1  UNL     1      23.232 -12.858  25.636  1.00  0.00     0.209 HD
ENDBRANCH  14  15
ENDBRANCH  10  14
BRANCH  11  17
HETATM   17  O14 UNL     1      24.639 -14.470  27.230  1.00  0.00    -0.390 OA
ATOM     18  H14 UNL     1      24.354 -15.183  27.790  1.00  0.00     0.210 HD
ENDBRANCH  11  17
BRANCH  12  19
HETATM   19  O13 UNL     1      25.249 -14.145  30.157  1.00  0.00    -0.390 OA
ATOM     20  H13 UNL     1      24.441 -13.689  30.363  1.00  0.00     0.210 HD
ENDBRANCH  12  19
BRANCH  13  21
HETATM   21  O12 UNL     1      27.490 -12.465  30.368  1.00  0.00    -0.388 OA
ATOM     22  H12 UNL     1      28.341 -12.513  29.948  1.00  0.00     0.210 HD
ENDBRANCH  13  21
ENDBRANCH   7   8
ENDBRANCH   1   7
BRANCH   6  23
HETATM   23  O11 UNL     1      28.984 -13.972  25.026  1.00  0.00    -0.388 OA
ATOM     24  H11 UNL     1      29.759 -13.552  24.672  1.00  0.00     0.210 HD
ENDBRANCH   6  23
BRANCH   3  25
HETATM   25  C6  UNL     1      30.994 -10.362  25.169  1.00  0.00     0.217 C 
BRANCH  25  26
HETATM   26  O5  UNL     1      30.257  -9.270  25.534  1.00  0.00    -0.280 OA
BRANCH  26  27
HETATM   27  P1  UNL     1      30.514  -8.547  26.938  1.00  0.00     0.422 P 
HETATM   28  O6  UNL     1      31.767  -7.436  27.109  1.00  0.00    -0.617 OA
HETATM   29  O7  UNL     1      29.514  -7.419  26.746  1.00  0.00    -0.617 OA
HETATM   30  O8  UNL     1      29.709  -9.066  28.319  1.00  0.00    -0.617 OA
ENDBRANCH  26  27
ENDBRANCH  25  26
ENDBRANCH   3  25
BRANCH   5  31
HETATM   31  O10 UNL     1      26.947 -11.355  23.824  1.00  0.00    -0.390 OA
ATOM     32  H10 UNL     1      26.177 -11.707  24.256  1.00  0.00     0.210 HD
ENDBRANCH   5  31
BRANCH   4  33
HETATM   33  O9  UNL     1      30.144 -12.101  22.799  1.00  0.00    -0.390 OA
ATOM     34  H9  UNL     1      29.643 -12.712  22.272  1.00  0.00     0.210 HD
ENDBRANCH   4  33
TORSDOF 13
ENDMDL
