MODEL 1
REMARK VINA RESULT: -9.431868722      0.000      0.000
REMARK  13 active torsions:
REMARK  status: ('A' for Active; 'I' for Inactive)
REMARK    1  A    between atoms: O1_1  and  C1_3 
REMARK    2  A    between atoms: C1_3  and  C2_4 
REMARK    3  A    between atoms: C3_6  and  O3_7 
REMARK    4  A    between atoms: O3_7  and  C4_8 
REMARK    5  A    between atoms: C5_10  and  C6_11 
REMARK    6  A    between atoms: C6_11  and  O5_12 
REMARK    7  A    between atoms: O5_12  and  P1_13 
REMARK    8  A    between atoms: C7_17  and  O9_18 
REMARK    9  A    between atoms: C8_20  and  O10_21 
REMARK   10  A    between atoms: C9_23  and  O11_24 
REMARK   11  A    between atoms: C10_26  and  O12_27 
REMARK   12  A    between atoms: C11_29  and  O13_30 
REMARK   13  A    between atoms: C12_32  and  O14_33 
ROOT
HETATM    1  C4  UNL     1      28.890 -11.095  26.658  1.00  0.00     0.294 C 
HETATM    2  O4  UNL     1      29.993 -10.595  27.289  1.00  0.00    -0.348 OA
HETATM    3  C5  UNL     1      30.959 -10.015  26.528  1.00  0.00     0.180 C 
HETATM    4  C7  UNL     1      30.676  -9.746  25.105  1.00  0.00     0.180 C 
HETATM    5  C8  UNL     1      29.635 -10.560  24.438  1.00  0.00     0.183 C 
HETATM    6  C9  UNL     1      29.323 -11.735  25.378  1.00  0.00     0.204 C 
ENDROOT
BRANCH   1   7
HETATM    7  O3  UNL     1      28.225 -11.953  27.515  1.00  0.00    -0.326 OA
BRANCH   7   8
HETATM    8  C3  UNL     1      27.225 -11.335  28.244  1.00  0.00     0.294 C 
HETATM    9  O2  UNL     1      26.134 -11.153  27.430  1.00  0.00    -0.348 OA
HETATM   10  C2  UNL     1      25.628 -12.271  26.841  1.00  0.00     0.179 C 
HETATM   11  C12 UNL     1      25.674 -13.534  27.595  1.00  0.00     0.180 C 
HETATM   12  C11 UNL     1      26.612 -13.604  28.743  1.00  0.00     0.183 C 
HETATM   13  C10 UNL     1      26.795 -12.259  29.369  1.00  0.00     0.204 C 
BRANCH  10  14
HETATM   14  C1  UNL     1      24.172 -11.951  26.472  1.00  0.00     0.198 C 
BRANCH  14  15
HETATM   15  O1  UNL     1      23.702 -10.852  27.143  1.00  0.00    -0.398 OA
ATOM     16  H1  UNL     1      23.116 -11.091  27.852  1.00  0.00     0.209 HD
ENDBRANCH  14  15
ENDBRANCH  10  14
BRANCH  11  17
HETATM   17  O14 UNL     1      25.994 -14.611  26.734  1.00  0.00    -0.390 OA
ATOM     18  H14 UNL     1      25.960 -15.434  27.207  1.00  0.00     0.210 HD
ENDBRANCH  11  17
BRANCH  12  19
HETATM   19  O13 UNL     1      26.134 -14.485  29.735  1.00  0.00    -0.390 OA
ATOM     20  H13 UNL     1      25.614 -15.155  29.308  1.00  0.00     0.210 HD
ENDBRANCH  12  19
BRANCH  13  21
HETATM   21  O12 UNL     1      27.712 -12.261  30.412  1.00  0.00    -0.388 OA
ATOM     22  H12 UNL     1      27.437 -11.695  31.123  1.00  0.00     0.210 HD
ENDBRANCH  13  21
ENDBRANCH   7   8
ENDBRANCH   1   7
BRANCH   6  23
HETATM   23  O11 UNL     1      30.540 -12.406  25.536  1.00  0.00    -0.388 OA
ATOM     24  H11 UNL     1      30.416 -13.348  25.531  1.00  0.00     0.210 HD
ENDBRANCH   6  23
BRANCH   3  25
HETATM   25  C6  UNL     1      31.492  -8.731  27.172  1.00  0.00     0.217 C 
BRANCH  25  26
HETATM   26  O5  UNL     1      31.453  -7.718  26.254  1.00  0.00    -0.280 OA
BRANCH  26  27
HETATM   27  P1  UNL     1      31.166  -6.213  26.716  1.00  0.00     0.422 P 
HETATM   28  O6  UNL     1      30.552  -5.088  25.624  1.00  0.00    -0.617 OA
HETATM   29  O7  UNL     1      29.774  -6.459  27.275  1.00  0.00    -0.617 OA
HETATM   30  O8  UNL     1      31.704  -5.668  28.211  1.00  0.00    -0.617 OA
ENDBRANCH  26  27
ENDBRANCH  25  26
ENDBRANCH   3  25
BRANCH   5  31
HETATM   31  O10 UNL     1      28.425  -9.885  24.267  1.00  0.00    -0.390 OA
ATOM     32  H10 UNL     1      27.664 -10.452  24.319  1.00  0.00     0.210 HD
ENDBRANCH   5  31
BRANCH   4  33
HETATM   33  O9  UNL     1      31.863  -9.833  24.341  1.00  0.00    -0.390 OA
ATOM     34  H9  UNL     1      31.792  -9.300  23.557  1.00  0.00     0.210 HD
ENDBRANCH   4  33
TORSDOF 13
ENDMDL
