MODEL 8
REMARK VINA RESULT: -8.335335122      2.502      6.957
REMARK  13 active torsions:
REMARK  status: ('A' for Active; 'I' for Inactive)
REMARK    1  A    between atoms: O1_1  and  C1_3 
REMARK    2  A    between atoms: C1_3  and  C2_4 
REMARK    3  A    between atoms: C3_6  and  O3_7 
REMARK    4  A    between atoms: O3_7  and  C4_8 
REMARK    5  A    between atoms: C5_10  and  C6_11 
REMARK    6  A    between atoms: C6_11  and  O5_12 
REMARK    7  A    between atoms: O5_12  and  P1_13 
REMARK    8  A    between atoms: C7_17  and  O9_18 
REMARK    9  A    between atoms: C8_20  and  O10_21 
REMARK   10  A    between atoms: C9_23  and  O11_24 
REMARK   11  A    between atoms: C10_26  and  O12_27 
REMARK   12  A    between atoms: C11_29  and  O13_30 
REMARK   13  A    between atoms: C12_32  and  O14_33 
ROOT
HETATM    1  C4  UNL     1      27.630 -10.910  27.526  1.00  0.00     0.294 C 
HETATM    2  O4  UNL     1      27.779 -12.137  26.947  1.00  0.00    -0.348 OA
HETATM    3  C5  UNL     1      26.955 -13.141  27.350  1.00  0.00     0.180 C 
HETATM    4  C7  UNL     1      25.803 -12.811  28.211  1.00  0.00     0.180 C 
HETATM    5  C8  UNL     1      25.875 -11.576  29.025  1.00  0.00     0.183 C 
HETATM    6  C9  UNL     1      27.336 -11.102  28.980  1.00  0.00     0.204 C 
ENDROOT
BRANCH   1   7
HETATM    7  O3  UNL     1      28.759 -10.150  27.280  1.00  0.00    -0.326 OA
BRANCH   7   8
HETATM    8  C3  UNL     1      28.718  -9.481  26.070  1.00  0.00     0.294 C 
HETATM    9  O2  UNL     1      29.033  -8.161  26.286  1.00  0.00    -0.348 OA
HETATM   10  C2  UNL     1      30.229  -7.918  26.888  1.00  0.00     0.179 C 
HETATM   11  C12 UNL     1      31.355  -8.815  26.582  1.00  0.00     0.180 C 
HETATM   12  C11 UNL     1      31.029 -10.132  25.982  1.00  0.00     0.183 C 
HETATM   13  C10 UNL     1      29.785 -10.051  25.156  1.00  0.00     0.204 C 
BRANCH  10  14
HETATM   14  C1  UNL     1      30.615  -6.475  26.529  1.00  0.00     0.198 C 
BRANCH  14  15
HETATM   15  O1  UNL     1      31.935  -6.369  26.174  1.00  0.00    -0.398 OA
ATOM     16  H1  UNL     1      32.157  -5.491  25.887  1.00  0.00     0.209 HD
ENDBRANCH  14  15
ENDBRANCH  10  14
BRANCH  11  17
HETATM   17  O14 UNL     1      32.114  -9.068  27.749  1.00  0.00    -0.390 OA
ATOM     18  H14 UNL     1      31.660  -8.740  28.516  1.00  0.00     0.210 HD
ENDBRANCH  11  17
BRANCH  12  19
HETATM   19  O13 UNL     1      32.075 -10.585  25.153  1.00  0.00    -0.390 OA
ATOM     20  H13 UNL     1      32.511 -11.303  25.595  1.00  0.00     0.210 HD
ENDBRANCH  12  19
BRANCH  13  21
HETATM   21  O12 UNL     1      29.404 -11.275  24.622  1.00  0.00    -0.388 OA
ATOM     22  H12 UNL     1      29.825 -12.001  25.068  1.00  0.00     0.210 HD
ENDBRANCH  13  21
ENDBRANCH   7   8
ENDBRANCH   1   7
BRANCH   6  23
HETATM   23  O11 UNL     1      28.079 -12.163  29.509  1.00  0.00    -0.388 OA
ATOM     24  H11 UNL     1      27.511 -12.828  29.880  1.00  0.00     0.210 HD
ENDBRANCH   6  23
BRANCH   3  25
HETATM   25  C6  UNL     1      26.457 -13.975  26.165  1.00  0.00     0.217 C 
BRANCH  25  26
HETATM   26  O5  UNL     1      27.006 -13.490  25.011  1.00  0.00    -0.280 OA
BRANCH  26  27
HETATM   27  P1  UNL     1      27.776 -14.466  24.004  1.00  0.00     0.422 P 
HETATM   28  O6  UNL     1      28.921 -13.855  22.931  1.00  0.00    -0.617 OA
HETATM   29  O7  UNL     1      28.875 -14.887  24.966  1.00  0.00    -0.617 OA
HETATM   30  O8  UNL     1      27.281 -16.061  23.824  1.00  0.00    -0.617 OA
ENDBRANCH  26  27
ENDBRANCH  25  26
ENDBRANCH   3  25
BRANCH   5  31
HETATM   31  O10 UNL     1      25.122 -10.522  28.504  1.00  0.00    -0.390 OA
ATOM     32  H10 UNL     1      25.477  -9.665  28.711  1.00  0.00     0.210 HD
ENDBRANCH   5  31
BRANCH   4  33
HETATM   33  O9  UNL     1      25.506 -13.892  29.073  1.00  0.00    -0.390 OA
ATOM     34  H9  UNL     1      24.769 -14.390  28.738  1.00  0.00     0.210 HD
ENDBRANCH   4  33
TORSDOF 13
ENDMDL
