MODEL 5
REMARK VINA RESULT: -8.456248498      0.911      1.299
REMARK  13 active torsions:
REMARK  status: ('A' for Active; 'I' for Inactive)
REMARK    1  A    between atoms: O1_1  and  C1_3 
REMARK    2  A    between atoms: C1_3  and  C2_4 
REMARK    3  A    between atoms: C3_6  and  O3_7 
REMARK    4  A    between atoms: O3_7  and  C4_8 
REMARK    5  A    between atoms: C5_10  and  C6_11 
REMARK    6  A    between atoms: C6_11  and  O5_12 
REMARK    7  A    between atoms: O5_12  and  P1_13 
REMARK    8  A    between atoms: C7_17  and  O9_18 
REMARK    9  A    between atoms: C8_20  and  O10_21 
REMARK   10  A    between atoms: C9_23  and  O11_24 
REMARK   11  A    between atoms: C10_26  and  O12_27 
REMARK   12  A    between atoms: C11_29  and  O13_30 
REMARK   13  A    between atoms: C12_32  and  O14_33 
ROOT
HETATM    1  C4  UNL     1      29.159 -10.972  26.384  1.00  0.00     0.294 C 
HETATM    2  O4  UNL     1      30.165 -10.487  27.169  1.00  0.00    -0.348 OA
HETATM    3  C5  UNL     1      31.266  -9.975  26.557  1.00  0.00     0.180 C 
HETATM    4  C7  UNL     1      31.229  -9.755  25.098  1.00  0.00     0.180 C 
HETATM    5  C8  UNL     1      30.276 -10.557  24.298  1.00  0.00     0.183 C 
HETATM    6  C9  UNL     1      29.766 -11.680  25.216  1.00  0.00     0.204 C 
ENDROOT
BRANCH   1   7
HETATM    7  O3  UNL     1      28.328 -11.769  27.149  1.00  0.00    -0.326 OA
BRANCH   7   8
HETATM    8  C3  UNL     1      27.145 -11.145  27.507  1.00  0.00     0.294 C 
HETATM    9  O2  UNL     1      26.096 -11.846  26.965  1.00  0.00    -0.348 OA
HETATM   10  C2  UNL     1      26.019 -13.165  27.291  1.00  0.00     0.179 C 
HETATM   11  C12 UNL     1      26.446 -13.572  28.640  1.00  0.00     0.180 C 
HETATM   12  C11 UNL     1      27.298 -12.621  29.397  1.00  0.00     0.183 C 
HETATM   13  C10 UNL     1      26.993 -11.208  29.015  1.00  0.00     0.204 C 
BRANCH  10  14
HETATM   14  C1  UNL     1      24.559 -13.587  27.071  1.00  0.00     0.198 C 
BRANCH  14  15
HETATM   15  O1  UNL     1      24.442 -14.933  26.837  1.00  0.00    -0.398 OA
ATOM     16  H1  UNL     1      25.278 -15.379  26.906  1.00  0.00     0.209 HD
ENDBRANCH  14  15
ENDBRANCH  10  14
BRANCH  11  17
HETATM   17  O14 UNL     1      27.146 -14.800  28.586  1.00  0.00    -0.390 OA
ATOM     18  H14 UNL     1      27.178 -15.124  27.693  1.00  0.00     0.210 HD
ENDBRANCH  11  17
BRANCH  12  19
HETATM   19  O13 UNL     1      27.093 -12.752  30.786  1.00  0.00    -0.390 OA
ATOM     20  H13 UNL     1      26.549 -13.517  30.932  1.00  0.00     0.210 HD
ENDBRANCH  12  19
BRANCH  13  21
HETATM   21  O12 UNL     1      27.808 -10.282  29.654  1.00  0.00    -0.388 OA
ATOM     22  H12 UNL     1      27.329  -9.782  30.305  1.00  0.00     0.210 HD
ENDBRANCH  13  21
ENDBRANCH   7   8
ENDBRANCH   1   7
BRANCH   6  23
HETATM   23  O11 UNL     1      30.911 -12.388  25.594  1.00  0.00    -0.388 OA
ATOM     24  H11 UNL     1      31.552 -11.815  25.997  1.00  0.00     0.210 HD
ENDBRANCH   6  23
BRANCH   3  25
HETATM   25  C6  UNL     1      31.742  -8.686  27.234  1.00  0.00     0.217 C 
BRANCH  25  26
HETATM   26  O5  UNL     1      31.634  -7.647  26.351  1.00  0.00    -0.280 OA
BRANCH  26  27
HETATM   27  P1  UNL     1      31.004  -6.250  26.811  1.00  0.00     0.422 P 
HETATM   28  O6  UNL     1      30.488  -5.128  25.667  1.00  0.00    -0.617 OA
HETATM   29  O7  UNL     1      29.580  -6.748  26.995  1.00  0.00    -0.617 OA
HETATM   30  O8  UNL     1      31.079  -5.776  28.421  1.00  0.00    -0.617 OA
ENDBRANCH  26  27
ENDBRANCH  25  26
ENDBRANCH   3  25
BRANCH   5  31
HETATM   31  O10 UNL     1      29.140  -9.846  23.909  1.00  0.00    -0.390 OA
ATOM     32  H10 UNL     1      28.803 -10.105  23.059  1.00  0.00     0.210 HD
ENDBRANCH   5  31
BRANCH   4  33
HETATM   33  O9  UNL     1      32.520  -9.917  24.542  1.00  0.00    -0.390 OA
ATOM     34  H9  UNL     1      32.457 -10.185  23.633  1.00  0.00     0.210 HD
ENDBRANCH   4  33
TORSDOF 13
ENDMDL
