MODEL 6
REMARK VINA RESULT: -8.445997937      2.613      7.387
REMARK  13 active torsions:
REMARK  status: ('A' for Active; 'I' for Inactive)
REMARK    1  A    between atoms: O1_1  and  C1_3 
REMARK    2  A    between atoms: C1_3  and  C2_4 
REMARK    3  A    between atoms: C3_6  and  O3_7 
REMARK    4  A    between atoms: O3_7  and  C4_8 
REMARK    5  A    between atoms: C5_10  and  C6_11 
REMARK    6  A    between atoms: C6_11  and  O5_12 
REMARK    7  A    between atoms: O5_12  and  P1_13 
REMARK    8  A    between atoms: C7_17  and  O9_18 
REMARK    9  A    between atoms: C8_20  and  O10_21 
REMARK   10  A    between atoms: C9_23  and  O11_24 
REMARK   11  A    between atoms: C10_26  and  O12_27 
REMARK   12  A    between atoms: C11_29  and  O13_30 
REMARK   13  A    between atoms: C12_32  and  O14_33 
ROOT
HETATM    1  C4  UNL     1      30.108  -9.345  27.495  1.00  0.00     0.294 C 
HETATM    2  O4  UNL     1      29.155  -9.845  28.334  1.00  0.00    -0.348 OA
HETATM    3  C5  UNL     1      28.474 -10.954  27.942  1.00  0.00     0.180 C 
HETATM    4  C7  UNL     1      28.942 -11.693  26.753  1.00  0.00     0.180 C 
HETATM    5  C8  UNL     1      29.746 -10.957  25.751  1.00  0.00     0.183 C 
HETATM    6  C9  UNL     1      29.613  -9.463  26.088  1.00  0.00     0.204 C 
ENDROOT
BRANCH   1   7
HETATM    7  O3  UNL     1      30.413  -8.050  27.872  1.00  0.00    -0.326 OA
BRANCH   7   8
HETATM    8  C3  UNL     1      31.745  -7.873  28.202  1.00  0.00     0.294 C 
HETATM    9  O2  UNL     1      32.491  -7.887  27.049  1.00  0.00    -0.348 OA
HETATM   10  C2  UNL     1      32.145  -6.979  26.096  1.00  0.00     0.179 C 
HETATM   11  C12 UNL     1      31.653  -5.663  26.538  1.00  0.00     0.180 C 
HETATM   12  C11 UNL     1      31.183  -5.552  27.941  1.00  0.00     0.183 C 
HETATM   13  C10 UNL     1      31.918  -6.502  28.829  1.00  0.00     0.204 C 
BRANCH  10  14
HETATM   14  C1  UNL     1      33.381  -6.788  25.204  1.00  0.00     0.198 C 
BRANCH  14  15
HETATM   15  O1  UNL     1      33.387  -5.560  24.593  1.00  0.00    -0.398 OA
ATOM     16  H1  UNL     1      34.249  -5.160  24.608  1.00  0.00     0.209 HD
ENDBRANCH  14  15
ENDBRANCH  10  14
BRANCH  11  17
HETATM   17  O14 UNL     1      30.590  -5.232  25.710  1.00  0.00    -0.390 OA
ATOM     18  H14 UNL     1      29.970  -4.715  26.210  1.00  0.00     0.210 HD
ENDBRANCH  11  17
BRANCH  12  19
HETATM   19  O13 UNL     1      31.379  -4.248  28.439  1.00  0.00    -0.390 OA
ATOM     20  H13 UNL     1      30.539  -3.914  28.729  1.00  0.00     0.210 HD
ENDBRANCH  12  19
BRANCH  13  21
HETATM   21  O12 UNL     1      31.471  -6.478  30.144  1.00  0.00    -0.388 OA
ATOM     22  H12 UNL     1      31.192  -5.608  30.405  1.00  0.00     0.210 HD
ENDBRANCH  13  21
ENDBRANCH   7   8
ENDBRANCH   1   7
BRANCH   6  23
HETATM   23  O11 UNL     1      28.243  -9.194  26.012  1.00  0.00    -0.388 OA
ATOM     24  H11 UNL     1      27.878  -9.502  25.191  1.00  0.00     0.210 HD
ENDBRANCH   6  23
BRANCH   3  25
HETATM   25  C6  UNL     1      28.295 -11.947  29.095  1.00  0.00     0.217 C 
BRANCH  25  26
HETATM   26  O5  UNL     1      26.977 -11.984  29.457  1.00  0.00    -0.280 OA
BRANCH  26  27
HETATM   27  P1  UNL     1      26.047 -13.210  29.021  1.00  0.00     0.422 P 
HETATM   28  O6  UNL     1      25.318 -13.231  27.504  1.00  0.00    -0.617 OA
HETATM   29  O7  UNL     1      27.162 -14.113  28.520  1.00  0.00    -0.617 OA
HETATM   30  O8  UNL     1      25.580 -14.364  30.150  1.00  0.00    -0.617 OA
ENDBRANCH  26  27
ENDBRANCH  25  26
ENDBRANCH   3  25
BRANCH   5  31
HETATM   31  O10 UNL     1      31.112 -11.236  25.818  1.00  0.00    -0.390 OA
ATOM     32  H10 UNL     1      31.628 -10.765  25.175  1.00  0.00     0.210 HD
ENDBRANCH   5  31
BRANCH   4  33
HETATM   33  O9  UNL     1      27.852 -12.299  26.087  1.00  0.00    -0.390 OA
ATOM     34  H9  UNL     1      27.664 -11.842  25.276  1.00  0.00     0.210 HD
ENDBRANCH   4  33
TORSDOF 13
ENDMDL
