MODEL 3
REMARK VINA RESULT: -8.710269091      2.637      7.354
REMARK  13 active torsions:
REMARK  status: ('A' for Active; 'I' for Inactive)
REMARK    1  A    between atoms: O1_1  and  C1_3 
REMARK    2  A    between atoms: C1_3  and  C2_4 
REMARK    3  A    between atoms: C3_6  and  O3_7 
REMARK    4  A    between atoms: O3_7  and  C4_8 
REMARK    5  A    between atoms: C5_10  and  C6_11 
REMARK    6  A    between atoms: C6_11  and  O5_12 
REMARK    7  A    between atoms: O5_12  and  P1_13 
REMARK    8  A    between atoms: C7_17  and  O9_18 
REMARK    9  A    between atoms: C8_20  and  O10_21 
REMARK   10  A    between atoms: C9_23  and  O11_24 
REMARK   11  A    between atoms: C10_26  and  O12_27 
REMARK   12  A    between atoms: C11_29  and  O13_30 
REMARK   13  A    between atoms: C12_32  and  O14_33 
ROOT
HETATM    1  C4  UNL     1      30.082  -9.504  27.409  1.00  0.00     0.294 C 
HETATM    2  O4  UNL     1      29.075  -9.864  28.257  1.00  0.00    -0.348 OA
HETATM    3  C5  UNL     1      28.261 -10.889  27.888  1.00  0.00     0.180 C 
HETATM    4  C7  UNL     1      28.634 -11.706  26.717  1.00  0.00     0.180 C 
HETATM    5  C8  UNL     1      29.523 -11.098  25.701  1.00  0.00     0.183 C 
HETATM    6  C9  UNL     1      29.576  -9.592  26.005  1.00  0.00     0.204 C 
ENDROOT
BRANCH   1   7
HETATM    7  O3  UNL     1      30.545  -8.249  27.758  1.00  0.00    -0.326 OA
BRANCH   7   8
HETATM    8  C3  UNL     1      31.807  -7.972  27.264  1.00  0.00     0.294 C 
HETATM    9  O2  UNL     1      31.694  -7.034  26.266  1.00  0.00    -0.348 OA
HETATM   10  C2  UNL     1      31.082  -5.866  26.604  1.00  0.00     0.179 C 
HETATM   11  C12 UNL     1      31.283  -5.346  27.967  1.00  0.00     0.180 C 
HETATM   12  C11 UNL     1      31.779  -6.300  28.989  1.00  0.00     0.183 C 
HETATM   13  C10 UNL     1      32.642  -7.351  28.368  1.00  0.00     0.204 C 
BRANCH  10  14
HETATM   14  C1  UNL     1      31.550  -4.817  25.584  1.00  0.00     0.198 C 
BRANCH  14  15
HETATM   15  O1  UNL     1      31.826  -3.612  26.178  1.00  0.00    -0.398 OA
ATOM     16  H1  UNL     1      31.329  -2.902  25.789  1.00  0.00     0.209 HD
ENDBRANCH  14  15
ENDBRANCH  10  14
BRANCH  11  17
HETATM   17  O14 UNL     1      30.079  -4.795  28.465  1.00  0.00    -0.390 OA
ATOM     18  H14 UNL     1      30.150  -4.637  29.400  1.00  0.00     0.210 HD
ENDBRANCH  11  17
BRANCH  12  19
HETATM   19  O13 UNL     1      32.540  -5.637  29.974  1.00  0.00    -0.390 OA
ATOM     20  H13 UNL     1      31.967  -5.442  30.706  1.00  0.00     0.210 HD
ENDBRANCH  12  19
BRANCH  13  21
HETATM   21  O12 UNL     1      33.083  -8.303  29.278  1.00  0.00    -0.388 OA
ATOM     22  H12 UNL     1      33.750  -7.955  29.857  1.00  0.00     0.210 HD
ENDBRANCH  13  21
ENDBRANCH   7   8
ENDBRANCH   1   7
BRANCH   6  23
HETATM   23  O11 UNL     1      28.249  -9.157  25.918  1.00  0.00    -0.388 OA
ATOM     24  H11 UNL     1      27.650  -9.817  26.245  1.00  0.00     0.210 HD
ENDBRANCH   6  23
BRANCH   3  25
HETATM   25  C6  UNL     1      27.961 -11.826  29.062  1.00  0.00     0.217 C 
BRANCH  25  26
HETATM   26  O5  UNL     1      26.607 -11.979  29.181  1.00  0.00    -0.280 OA
BRANCH  26  27
HETATM   27  P1  UNL     1      25.933 -13.419  29.005  1.00  0.00     0.422 P 
HETATM   28  O6  UNL     1      25.187 -13.841  27.556  1.00  0.00    -0.617 OA
HETATM   29  O7  UNL     1      27.196 -14.159  28.593  1.00  0.00    -0.617 OA
HETATM   30  O8  UNL     1      25.736 -14.432  30.332  1.00  0.00    -0.617 OA
ENDBRANCH  26  27
ENDBRANCH  25  26
ENDBRANCH   3  25
BRANCH   5  31
HETATM   31  O10 UNL     1      30.843 -11.543  25.778  1.00  0.00    -0.390 OA
ATOM     32  H10 UNL     1      30.965 -12.430  25.461  1.00  0.00     0.210 HD
ENDBRANCH   5  31
BRANCH   4  33
HETATM   33  O9  UNL     1      27.477 -12.188  26.062  1.00  0.00    -0.390 OA
ATOM     34  H9  UNL     1      27.718 -12.747  25.332  1.00  0.00     0.210 HD
ENDBRANCH   4  33
TORSDOF 13
ENDMDL
