MODEL 5
REMARK VINA RESULT: -7.060043721      2.763      5.360
REMARK  2 active torsions:
REMARK  status: ('A' for Active; 'I' for Inactive)
REMARK    1  A    between atoms: O1_2  and  C2_3 
REMARK    2  A    between atoms: C7_9  and  C8_10 
ROOT
HETATM    1  C8  UNL     1      17.782  25.905 -18.512  1.00  0.00     0.078 A 
HETATM    2  N1  UNL     1      18.006  26.965 -19.290  1.00  0.00    -0.328 N 
ATOM      3  H1  UNL     1      17.842  26.884 -20.293  1.00  0.00     0.168 HD
HETATM    4  C9  UNL     1      18.449  28.152 -18.786  1.00  0.00     0.194 A 
HETATM    5  N2  UNL     1      18.763  29.247 -19.629  1.00  0.00    -0.063 NA
HETATM    6  N3  UNL     1      18.659  28.253 -17.457  1.00  0.00    -0.315 N 
ATOM      7  H3  UNL     1      18.987  29.142 -17.080  1.00  0.00     0.170 HD
HETATM    8  C10 UNL     1      18.453  27.228 -16.610  1.00  0.00     0.138 A 
HETATM    9  N4  UNL     1      18.563  27.142 -15.278  1.00  0.00    -0.337 N 
ATOM     10  H4  UNL     1      18.866  27.875 -14.637  1.00  0.00     0.168 HD
HETATM   11  C11 UNL     1      18.191  25.892 -14.962  1.00  0.00     0.182 A 
HETATM   12  N5  UNL     1      17.856  25.225 -16.101  1.00  0.00    -0.347 N 
ATOM     13  H5  UNL     1      17.539  24.257 -16.142  1.00  0.00     0.167 HD
HETATM   14  C12 UNL     1      18.006  26.025 -17.149  1.00  0.00     0.105 A 
ENDROOT
BRANCH   1  15
HETATM   15  C7  UNL     1      17.225  24.645 -19.019  1.00  0.00     0.028 A 
HETATM   16  C2  UNL     1      17.563  23.386 -18.650  1.00  0.00     0.080 A 
HETATM   17  C3  UNL     1      16.819  22.293 -19.076  1.00  0.00     0.039 A 
HETATM   18  C4  UNL     1      15.705  22.432 -19.895  1.00  0.00     0.022 A 
HETATM   19  C5  UNL     1      15.355  23.724 -20.278  1.00  0.00     0.012 A 
HETATM   20 BR1  UNL     1      13.834  24.066 -21.375  1.00  0.00    -0.051 Br
HETATM   21  C6  UNL     1      16.093  24.782 -19.852  1.00  0.00     0.035 A 
BRANCH  16  22
HETATM   22  O1  UNL     1      18.685  23.206 -17.833  1.00  0.00    -0.355 OA
HETATM   23  C1  UNL     1      19.439  22.038 -17.806  1.00  0.00     0.210 C 
ENDBRANCH  16  22
ENDBRANCH   1  15
TORSDOF 2
ENDMDL
