MODEL 3
REMARK VINA RESULT: -7.290022869      0.784      2.574
REMARK  2 active torsions:
REMARK  status: ('A' for Active; 'I' for Inactive)
REMARK    1  A    between atoms: O1_2  and  C2_3 
REMARK    2  A    between atoms: C7_9  and  C8_10 
ROOT
HETATM    1  C8  UNL     1      17.306  24.750 -18.563  1.00  0.00     0.078 A 
HETATM    2  N1  UNL     1      16.249  24.548 -19.350  1.00  0.00    -0.328 N 
ATOM      3  H1  UNL     1      15.691  25.349 -19.644  1.00  0.00     0.168 HD
HETATM    4  C9  UNL     1      15.890  23.303 -19.775  1.00  0.00     0.194 A 
HETATM    5  N2  UNL     1      14.719  23.087 -20.543  1.00  0.00    -0.063 NA
HETATM    6  N3  UNL     1      16.635  22.247 -19.387  1.00  0.00    -0.315 N 
ATOM      7  H3  UNL     1      16.368  21.316 -19.707  1.00  0.00     0.170 HD
HETATM    8  C10 UNL     1      17.716  22.373 -18.596  1.00  0.00     0.138 A 
HETATM    9  N4  UNL     1      18.594  21.469 -18.142  1.00  0.00    -0.337 N 
ATOM     10  H4  UNL     1      18.581  20.462 -18.305  1.00  0.00     0.168 HD
HETATM   11  C11 UNL     1      19.495  22.163 -17.429  1.00  0.00     0.182 A 
HETATM   12  N5  UNL     1      19.162  23.483 -17.453  1.00  0.00    -0.347 N 
ATOM     13  H5  UNL     1      19.682  24.227 -16.989  1.00  0.00     0.167 HD
HETATM   14  C12 UNL     1      18.059  23.654 -18.172  1.00  0.00     0.105 A 
ENDROOT
BRANCH   1  15
HETATM   15  C7  UNL     1      17.761  26.087 -18.164  1.00  0.00     0.028 A 
HETATM   16  C2  UNL     1      18.234  26.470 -16.954  1.00  0.00     0.080 A 
HETATM   17  C3  UNL     1      18.807  27.723 -16.775  1.00  0.00     0.039 A 
HETATM   18  C4  UNL     1      18.918  28.639 -17.814  1.00  0.00     0.022 A 
HETATM   19  C5  UNL     1      18.430  28.250 -19.059  1.00  0.00     0.012 A 
HETATM   20 BR1  UNL     1      18.543  29.393 -20.581  1.00  0.00    -0.051 Br
HETATM   21  C6  UNL     1      17.875  27.021 -19.217  1.00  0.00     0.035 A 
BRANCH  16  22
HETATM   22  O1  UNL     1      18.131  25.577 -15.880  1.00  0.00    -0.355 OA
HETATM   23  C1  UNL     1      18.099  25.975 -14.549  1.00  0.00     0.210 C 
ENDBRANCH  16  22
ENDBRANCH   1  15
TORSDOF 2
ENDMDL
