MODEL 4
REMARK VINA RESULT: -7.139218976      2.674      4.927
REMARK  2 active torsions:
REMARK  status: ('A' for Active; 'I' for Inactive)
REMARK    1  A    between atoms: O1_2  and  C2_3 
REMARK    2  A    between atoms: C7_9  and  C8_10 
ROOT
HETATM    1  C8  UNL     1      17.711  25.484 -17.722  1.00  0.00     0.078 A 
HETATM    2  N1  UNL     1      18.004  25.340 -16.429  1.00  0.00    -0.328 N 
ATOM      3  H1  UNL     1      17.799  24.452 -15.972  1.00  0.00     0.168 HD
HETATM    4  C9  UNL     1      18.569  26.344 -15.699  1.00  0.00     0.194 A 
HETATM    5  N2  UNL     1      18.802  26.211 -14.308  1.00  0.00    -0.063 NA
HETATM    6  N3  UNL     1      18.843  27.514 -16.311  1.00  0.00    -0.315 N 
ATOM      7  H3  UNL     1      19.268  28.264 -15.765  1.00  0.00     0.170 HD
HETATM    8  C10 UNL     1      18.577  27.732 -17.612  1.00  0.00     0.138 A 
HETATM    9  N4  UNL     1      18.806  28.791 -18.399  1.00  0.00    -0.337 N 
ATOM     10  H4  UNL     1      19.223  29.682 -18.127  1.00  0.00     0.168 HD
HETATM   11  C11 UNL     1      18.374  28.438 -19.619  1.00  0.00     0.182 A 
HETATM   12  N5  UNL     1      17.886  27.168 -19.569  1.00  0.00    -0.347 N 
ATOM     13  H5  UNL     1      17.495  26.659 -20.361  1.00  0.00     0.167 HD
HETATM   14  C12 UNL     1      17.996  26.694 -18.335  1.00  0.00     0.105 A 
ENDROOT
BRANCH   1  15
HETATM   15  C7  UNL     1      17.183  24.392 -18.547  1.00  0.00     0.028 A 
HETATM   16  C2  UNL     1      17.411  23.064 -18.404  1.00  0.00     0.080 A 
HETATM   17  C3  UNL     1      16.692  22.132 -19.142  1.00  0.00     0.039 A 
HETATM   18  C4  UNL     1      15.716  22.508 -20.057  1.00  0.00     0.022 A 
HETATM   19  C5  UNL     1      15.480  23.873 -20.209  1.00  0.00     0.012 A 
HETATM   20 BR1  UNL     1      14.151  24.532 -21.407  1.00  0.00    -0.051 Br
HETATM   21  C6  UNL     1      16.191  24.770 -19.479  1.00  0.00     0.035 A 
BRANCH  16  22
HETATM   22  O1  UNL     1      18.393  22.647 -17.498  1.00  0.00    -0.355 OA
HETATM   23  C1  UNL     1      19.643  22.174 -17.880  1.00  0.00     0.210 C 
ENDBRANCH  16  22
ENDBRANCH   1  15
TORSDOF 2
ENDMDL
