MODEL 2
REMARK VINA RESULT: -7.650231759      3.232      5.895
REMARK  2 active torsions:
REMARK  status: ('A' for Active; 'I' for Inactive)
REMARK    1  A    between atoms: O1_2  and  C2_3 
REMARK    2  A    between atoms: C7_9  and  C8_10 
ROOT
HETATM    1  C8  UNL     1      17.560  25.753 -18.824  1.00  0.00     0.078 A 
HETATM    2  N1  UNL     1      17.511  26.540 -19.900  1.00  0.00    -0.328 N 
ATOM      3  H1  UNL     1      17.087  26.182 -20.755  1.00  0.00     0.168 HD
HETATM    4  C9  UNL     1      18.010  27.809 -19.892  1.00  0.00     0.194 A 
HETATM    5  N2  UNL     1      18.027  28.609 -21.061  1.00  0.00    -0.063 NA
HETATM    6  N3  UNL     1      18.565  28.279 -18.756  1.00  0.00    -0.315 N 
ATOM      7  H3  UNL     1      18.936  29.229 -18.749  1.00  0.00     0.170 HD
HETATM    8  C10 UNL     1      18.649  27.545 -17.631  1.00  0.00     0.138 A 
HETATM    9  N4  UNL     1      19.118  27.840 -16.413  1.00  0.00    -0.337 N 
ATOM     10  H4  UNL     1      19.544  28.716 -16.112  1.00  0.00     0.168 HD
HETATM   11  C11 UNL     1      18.912  26.743 -15.668  1.00  0.00     0.182 A 
HETATM   12  N5  UNL     1      18.318  25.788 -16.436  1.00  0.00    -0.347 N 
ATOM     13  H5  UNL     1      18.053  24.857 -16.114  1.00  0.00     0.167 HD
HETATM   14  C12 UNL     1      18.137  26.251 -17.666  1.00  0.00     0.105 A 
ENDROOT
BRANCH   1  15
HETATM   15  C7  UNL     1      16.955  24.417 -18.783  1.00  0.00     0.028 A 
HETATM   16  C2  UNL     1      15.824  24.004 -19.404  1.00  0.00     0.080 A 
HETATM   17  C3  UNL     1      15.474  22.661 -19.431  1.00  0.00     0.039 A 
HETATM   18  C4  UNL     1      16.253  21.682 -18.826  1.00  0.00     0.022 A 
HETATM   19  C5  UNL     1      17.416  22.102 -18.184  1.00  0.00     0.012 A 
HETATM   20 BR1  UNL     1      18.595  20.867 -17.337  1.00  0.00    -0.051 Br
HETATM   21  C6  UNL     1      17.744  23.420 -18.169  1.00  0.00     0.035 A 
BRANCH  16  22
HETATM   22  O1  UNL     1      15.009  24.963 -20.018  1.00  0.00    -0.355 OA
HETATM   23  C1  UNL     1      14.399  24.778 -21.253  1.00  0.00     0.210 C 
ENDBRANCH  16  22
ENDBRANCH   1  15
TORSDOF 2
ENDMDL
