MODEL 4
REMARK VINA RESULT: -7.659178330      3.590      5.946
REMARK  1 active torsions:
REMARK  status: ('A' for Active; 'I' for Inactive)
REMARK    1  A    between atoms: C2_5  and  C3_6 
ROOT
HETATM    1  N1  UNL     1     -10.084  15.298   4.410  1.00  0.00    -0.063 NA
HETATM    2  C1  UNL     1      -9.798  15.295   3.027  1.00  0.00     0.194 A 
HETATM    3  N2  UNL     1      -8.618  15.684   2.552  1.00  0.00    -0.328 N 
ATOM      4  H2  UNL     1      -7.908  15.983   3.222  1.00  0.00     0.168 HD
HETATM    5  C2  UNL     1      -8.303  15.709   1.252  1.00  0.00     0.078 A 
HETATM    6  C11 UNL     1      -9.302  15.293   0.372  1.00  0.00     0.105 A 
HETATM    7  N3  UNL     1      -9.287  15.198  -0.962  1.00  0.00    -0.347 N 
ATOM      8  H3  UNL     1      -8.506  15.434  -1.574  1.00  0.00     0.167 HD
HETATM    9  C12 UNL     1     -10.491  14.735  -1.353  1.00  0.00     0.182 A 
HETATM   10  N4  UNL     1     -11.261  14.541  -0.271  1.00  0.00    -0.337 N 
ATOM     11  H4  UNL     1     -12.221  14.197  -0.272  1.00  0.00     0.168 HD
HETATM   12  C13 UNL     1     -10.538  14.882   0.820  1.00  0.00     0.138 A 
HETATM   13  N5  UNL     1     -10.751  14.896   2.145  1.00  0.00    -0.315 N 
ATOM     14  H5  UNL     1     -11.659  14.598   2.502  1.00  0.00     0.170 HD
ENDROOT
BRANCH   5  15
HETATM   15  C3  UNL     1      -7.020  16.120   0.707  1.00  0.00     0.029 A 
HETATM   16  C4  UNL     1      -6.474  15.331  -0.322  1.00  0.00     0.035 A 
HETATM   17  C5  UNL     1      -5.278  15.632  -0.929  1.00  0.00     0.012 A 
HETATM   18 BR1  UNL     1      -4.570  14.538  -2.339  1.00  0.00    -0.051 Br
HETATM   19  C6  UNL     1      -4.618  16.760  -0.482  1.00  0.00     0.033 A 
HETATM   20  C7  UNL     1      -5.143  17.544   0.529  1.00  0.00     0.002 A 
HETATM   21  C8  UNL     1      -4.711  18.701   1.161  1.00  0.00     0.039 A 
HETATM   22  C10 UNL     1      -6.356  17.238   1.142  1.00  0.00     0.097 A 
HETATM   23  C9  UNL     1      -5.655  19.041   2.108  1.00  0.00     0.143 A 
HETATM   24  O1  UNL     1      -6.595  18.151   2.053  1.00  0.00    -0.321 OA
ENDBRANCH   5  15
TORSDOF 1
ENDMDL
