MODEL 6
REMARK VINA RESULT: -7.476844402      3.573      5.631
REMARK  1 active torsions:
REMARK  status: ('A' for Active; 'I' for Inactive)
REMARK    1  A    between atoms: C2_5  and  C3_6 
ROOT
HETATM    1  N1  UNL     1     -10.558  15.115   3.652  1.00  0.00    -0.063 NA
HETATM    2  C1  UNL     1     -10.041  15.300   2.350  1.00  0.00     0.194 A 
HETATM    3  N2  UNL     1      -8.794  15.713   2.140  1.00  0.00    -0.328 N 
ATOM      4  H2  UNL     1      -8.205  15.889   2.955  1.00  0.00     0.168 HD
HETATM    5  C2  UNL     1      -8.264  15.912   0.928  1.00  0.00     0.078 A 
HETATM    6  C11 UNL     1      -9.103  15.658  -0.157  1.00  0.00     0.105 A 
HETATM    7  N3  UNL     1      -8.863  15.754  -1.469  1.00  0.00    -0.347 N 
ATOM      8  H3  UNL     1      -7.988  16.048  -1.902  1.00  0.00     0.167 HD
HETATM    9  C12 UNL     1      -9.987  15.392  -2.118  1.00  0.00     0.182 A 
HETATM   10  N4  UNL     1     -10.931  15.072  -1.219  1.00  0.00    -0.337 N 
ATOM     11  H4  UNL     1     -11.880  14.763  -1.430  1.00  0.00     0.168 HD
HETATM   12  C13 UNL     1     -10.400  15.229   0.015  1.00  0.00     0.138 A 
HETATM   13  N5  UNL     1     -10.835  15.062   1.274  1.00  0.00    -0.315 N 
ATOM     14  H5  UNL     1     -11.792  14.746   1.428  1.00  0.00     0.170 HD
ENDROOT
BRANCH   5  15
HETATM   15  C3  UNL     1      -6.903  16.353   0.670  1.00  0.00     0.029 A 
HETATM   16  C4  UNL     1      -6.439  17.471   1.387  1.00  0.00     0.035 A 
HETATM   17  C5  UNL     1      -5.166  17.965   1.242  1.00  0.00     0.012 A 
HETATM   18 BR1  UNL     1      -4.564  19.487   2.248  1.00  0.00    -0.051 Br
HETATM   19  C6  UNL     1      -4.340  17.313   0.347  1.00  0.00     0.033 A 
HETATM   20  C7  UNL     1      -4.784  16.213  -0.365  1.00  0.00     0.002 A 
HETATM   21  C8  UNL     1      -4.190  15.383  -1.304  1.00  0.00     0.039 A 
HETATM   22  C10 UNL     1      -6.075  15.712  -0.216  1.00  0.00     0.097 A 
HETATM   23  C9  UNL     1      -5.121  14.436  -1.678  1.00  0.00     0.143 A 
HETATM   24  O1  UNL     1      -6.205  14.677  -1.010  1.00  0.00    -0.321 OA
ENDBRANCH   5  15
TORSDOF 1
ENDMDL
