MODEL 5
REMARK VINA RESULT: -7.642217433      3.528      5.417
REMARK  1 active torsions:
REMARK  status: ('A' for Active; 'I' for Inactive)
REMARK    1  A    between atoms: C2_5  and  C3_6 
ROOT
HETATM    1  N1  UNL     1     -11.643  14.028  -1.161  1.00  0.00    -0.063 NA
HETATM    2  C1  UNL     1     -10.815  14.520  -0.127  1.00  0.00     0.194 A 
HETATM    3  N2  UNL     1      -9.588  14.976  -0.364  1.00  0.00    -0.328 N 
ATOM      4  H2  UNL     1      -9.255  14.970  -1.328  1.00  0.00     0.168 HD
HETATM    5  C2  UNL     1      -8.765  15.442   0.581  1.00  0.00     0.078 A 
HETATM    6  C11 UNL     1      -9.262  15.433   1.885  1.00  0.00     0.105 A 
HETATM    7  N3  UNL     1      -8.690  15.837   3.025  1.00  0.00    -0.347 N 
ATOM      8  H3  UNL     1      -7.753  16.228   3.124  1.00  0.00     0.167 HD
HETATM    9  C12 UNL     1      -9.576  15.635   4.020  1.00  0.00     0.182 A 
HETATM   10  N4  UNL     1     -10.698  15.105   3.511  1.00  0.00    -0.337 N 
ATOM     11  H4  UNL     1     -11.534  14.849   4.037  1.00  0.00     0.168 HD
HETATM   12  C13 UNL     1     -10.526  14.971   2.176  1.00  0.00     0.138 A 
HETATM   13  N5  UNL     1     -11.271  14.524   1.153  1.00  0.00    -0.315 N 
ATOM     14  H5  UNL     1     -12.210  14.175   1.342  1.00  0.00     0.170 HD
ENDROOT
BRANCH   5  15
HETATM   15  C3  UNL     1      -7.425  15.954   0.349  1.00  0.00     0.029 A 
HETATM   16  C4  UNL     1      -7.008  17.050   1.128  1.00  0.00     0.035 A 
HETATM   17  C5  UNL     1      -5.757  17.606   1.013  1.00  0.00     0.012 A 
HETATM   18 BR1  UNL     1      -5.220  19.093   2.102  1.00  0.00    -0.051 Br
HETATM   19  C6  UNL     1      -4.905  17.039   0.084  1.00  0.00     0.033 A 
HETATM   20  C7  UNL     1      -5.303  15.963  -0.688  1.00  0.00     0.002 A 
HETATM   21  C8  UNL     1      -4.674  15.212  -1.671  1.00  0.00     0.039 A 
HETATM   22  C10 UNL     1      -6.570  15.400  -0.569  1.00  0.00     0.097 A 
HETATM   23  C9  UNL     1      -5.564  14.248  -2.098  1.00  0.00     0.143 A 
HETATM   24  O1  UNL     1      -6.657  14.405  -1.419  1.00  0.00    -0.321 OA
ENDBRANCH   5  15
TORSDOF 1
ENDMDL
