MODEL 10
REMARK VINA RESULT: -7.397781597      2.306      3.463
REMARK  1 active torsions:
REMARK  status: ('A' for Active; 'I' for Inactive)
REMARK    1  A    between atoms: C2_5  and  C3_6 
ROOT
HETATM    1  N1  UNL     1      -3.107  15.297  -0.484  1.00  0.00    -0.063 NA
HETATM    2  C1  UNL     1      -4.174  16.012   0.103  1.00  0.00     0.194 A 
HETATM    3  N2  UNL     1      -5.444  15.675  -0.102  1.00  0.00    -0.328 N 
ATOM      4  H2  UNL     1      -5.634  14.869  -0.697  1.00  0.00     0.168 HD
HETATM    5  C2  UNL     1      -6.488  16.327   0.423  1.00  0.00     0.078 A 
HETATM    6  C11 UNL     1      -6.183  17.422   1.231  1.00  0.00     0.105 A 
HETATM    7  N3  UNL     1      -6.995  18.253   1.894  1.00  0.00    -0.347 N 
ATOM      8  H3  UNL     1      -8.013  18.217   1.907  1.00  0.00     0.167 HD
HETATM    9  C12 UNL     1      -6.223  19.147   2.543  1.00  0.00     0.182 A 
HETATM   10  N4  UNL     1      -4.932  18.883   2.289  1.00  0.00    -0.337 N 
ATOM     11  H4  UNL     1      -4.131  19.401   2.648  1.00  0.00     0.168 HD
HETATM   12  C13 UNL     1      -4.882  17.806   1.471  1.00  0.00     0.138 A 
HETATM   13  N5  UNL     1      -3.908  17.084   0.895  1.00  0.00    -0.315 N 
ATOM     14  H5  UNL     1      -2.937  17.349   1.056  1.00  0.00     0.170 HD
ENDROOT
BRANCH   5  15
HETATM   15  C3  UNL     1      -7.884  15.975   0.224  1.00  0.00     0.029 A 
HETATM   16  C4  UNL     1      -8.351  15.912  -1.102  1.00  0.00     0.035 A 
HETATM   17  C5  UNL     1      -9.644  15.569  -1.415  1.00  0.00     0.012 A 
HETATM   18 BR1  UNL     1     -10.242  15.483  -3.238  1.00  0.00    -0.051 Br
HETATM   19  C6  UNL     1     -10.488  15.284  -0.359  1.00  0.00     0.033 A 
HETATM   20  C7  UNL     1     -10.041  15.343   0.949  1.00  0.00     0.002 A 
HETATM   21  C8  UNL     1     -10.649  15.112   2.175  1.00  0.00     0.039 A 
HETATM   22  C10 UNL     1      -8.730  15.689   1.265  1.00  0.00     0.097 A 
HETATM   23  C9  UNL     1      -9.706  15.323   3.159  1.00  0.00     0.143 A 
HETATM   24  O1  UNL     1      -8.602  15.658   2.569  1.00  0.00    -0.321 OA
ENDBRANCH   5  15
TORSDOF 1
ENDMDL
