MODEL 2
REMARK VINA RESULT: -3.175633750      0.059      1.842
REMARK  0 active torsions:
REMARK  status: ('A' for Active; 'I' for Inactive)
ROOT
HETATM    1  C1  UNL     1       3.873   0.603  15.478  1.00  0.00     0.355 C 
HETATM    2  N1  UNL     1       3.020  -0.090  16.408  1.00  0.00     0.001 N 
HETATM    3  C2  UNL     1       3.716  -1.052  17.218  1.00  0.00     0.355 C 
HETATM    4  C3  UNL     1       1.945  -0.789  15.728  1.00  0.00     0.355 C 
HETATM    5  O1  UNL     1       2.484   0.849  17.239  1.00  0.00    -0.066 OA
ENDROOT
TORSDOF 0
ENDMDL
