MODEL 3
REMARK VINA RESULT: -3.113118201      1.520      1.852
REMARK  0 active torsions:
REMARK  status: ('A' for Active; 'I' for Inactive)
ROOT
HETATM    1  C1  UNL     1       2.430   0.205  17.215  1.00  0.00     0.355 C 
HETATM    2  N1  UNL     1       3.230  -0.361  16.160  1.00  0.00     0.001 N 
HETATM    3  C2  UNL     1       4.234  -1.277  16.629  1.00  0.00     0.355 C 
HETATM    4  C3  UNL     1       3.906   0.668  15.392  1.00  0.00     0.355 C 
HETATM    5  O1  UNL     1       2.386  -1.047  15.339  1.00  0.00    -0.066 OA
ENDROOT
TORSDOF 0
ENDMDL
