MODEL 4
REMARK VINA RESULT: -3.104267038      1.539      1.977
REMARK  0 active torsions:
REMARK  status: ('A' for Active; 'I' for Inactive)
ROOT
HETATM    1  C1  UNL     1       4.241  -1.320  16.707  1.00  0.00     0.355 C 
HETATM    2  N1  UNL     1       3.288  -0.397  16.149  1.00  0.00     0.001 N 
HETATM    3  C2  UNL     1       3.894   0.683  15.419  1.00  0.00     0.355 C 
HETATM    4  C3  UNL     1       2.448   0.191  17.177  1.00  0.00     0.355 C 
HETATM    5  O1  UNL     1       2.504  -1.101  15.284  1.00  0.00    -0.066 OA
ENDROOT
TORSDOF 0
ENDMDL
