MODEL 1
REMARK VINA RESULT: -3.201422274      0.000      0.000
REMARK  0 active torsions:
REMARK  status: ('A' for Active; 'I' for Inactive)
ROOT
HETATM    1  C1  UNL     1       3.732  -1.039  17.273  1.00  0.00     0.355 C 
HETATM    2  N1  UNL     1       2.994  -0.122  16.443  1.00  0.00     0.001 N 
HETATM    3  C2  UNL     1       1.920  -0.742  15.716  1.00  0.00     0.355 C 
HETATM    4  C3  UNL     1       3.855   0.530  15.473  1.00  0.00     0.355 C 
HETATM    5  O1  UNL     1       2.456   0.822  17.265  1.00  0.00    -0.066 OA
ENDROOT
TORSDOF 0
ENDMDL
