MODEL 5
REMARK VINA RESULT: -3.092419748      0.234      1.821
REMARK  0 active torsions:
REMARK  status: ('A' for Active; 'I' for Inactive)
ROOT
HETATM    1  C1  UNL     1       1.975  -0.807  15.707  1.00  0.00     0.355 C 
HETATM    2  N1  UNL     1       3.101  -0.180  16.348  1.00  0.00     0.001 N 
HETATM    3  C2  UNL     1       3.898   0.618  15.457  1.00  0.00     0.355 C 
HETATM    4  C3  UNL     1       3.981  -1.159  16.959  1.00  0.00     0.355 C 
HETATM    5  O1  UNL     1       2.607   0.641  17.318  1.00  0.00    -0.066 OA
ENDROOT
TORSDOF 0
ENDMDL
