MODEL 13
REMARK VINA RESULT: -5.266759670      8.342      9.948
REMARK  4 active torsions:
REMARK  status: ('A' for Active; 'I' for Inactive)
REMARK    1  A    between atoms: C1_2  and  C2_4 
REMARK    2  A    between atoms: C4_6  and  O3_7 
REMARK    3  A    between atoms: C5_9  and  O4_10 
REMARK    4  A    between atoms: C6_12  and  O5_13 
ROOT
HETATM    1  C2  UNL     1       1.075  16.184  14.023  1.00  0.00     0.091 C 
HETATM    2  C3  UNL     1       1.964  16.580  12.891  1.00  0.00     0.050 C 
HETATM    3  C4  UNL     1       1.974  15.536  11.824  1.00  0.00     0.150 C 
HETATM    4  C5  UNL     1       2.357  14.187  12.409  1.00  0.00     0.175 C 
HETATM    5  C6  UNL     1       1.283  13.843  13.425  1.00  0.00     0.150 C 
HETATM    6  C7  UNL     1       1.483  14.838  14.577  1.00  0.00     0.050 C 
ENDROOT
BRANCH   1   7
HETATM    7  C1  UNL     1       1.014  17.222  15.075  1.00  0.00     0.177 C 
HETATM    8  O1  UNL     1       1.911  17.345  15.943  1.00  0.00    -0.648 OA
HETATM    9  O2  UNL     1      -0.056  18.103  15.133  1.00  0.00    -0.648 OA
ENDBRANCH   1   7
BRANCH   3  10
HETATM   10  O3  UNL     1       2.804  15.897  10.770  1.00  0.00    -0.393 OA
ATOM     11  H3  UNL     1       2.809  15.233  10.091  1.00  0.00     0.210 HD
ENDBRANCH   3  10
BRANCH   5  12
HETATM   12  O5  UNL     1       0.050  14.159  12.858  1.00  0.00    -0.393 OA
ATOM     13  H5  UNL     1      -0.314  13.358  12.499  1.00  0.00     0.210 HD
ENDBRANCH   5  12
BRANCH   4  14
HETATM   14  O4  UNL     1       2.500  13.218  11.443  1.00  0.00    -0.390 OA
ATOM     15  H4  UNL     1       3.289  12.702  11.563  1.00  0.00     0.210 HD
ENDBRANCH   4  14
TORSDOF 4
ENDMDL
