MODEL 7
REMARK VINA RESULT: -5.606260887      1.526      1.993
REMARK  4 active torsions:
REMARK  status: ('A' for Active; 'I' for Inactive)
REMARK    1  A    between atoms: C1_2  and  C2_4 
REMARK    2  A    between atoms: C4_6  and  O3_7 
REMARK    3  A    between atoms: C5_9  and  O4_10 
REMARK    4  A    between atoms: C6_12  and  O5_13 
ROOT
HETATM    1  C2  UNL     1       6.085   8.904  19.169  1.00  0.00     0.091 C 
HETATM    2  C3  UNL     1       6.656  10.223  18.769  1.00  0.00     0.050 C 
HETATM    3  C4  UNL     1       6.199  11.308  19.686  1.00  0.00     0.150 C 
HETATM    4  C5  UNL     1       4.681  11.337  19.754  1.00  0.00     0.175 C 
HETATM    5  C6  UNL     1       4.255   9.997  20.325  1.00  0.00     0.150 C 
HETATM    6  C7  UNL     1       4.576   8.970  19.229  1.00  0.00     0.050 C 
ENDROOT
BRANCH   1   7
HETATM    7  C1  UNL     1       6.557   7.803  18.300  1.00  0.00     0.177 C 
HETATM    8  O1  UNL     1       6.819   6.663  18.752  1.00  0.00    -0.648 OA
HETATM    9  O2  UNL     1       6.726   8.006  16.938  1.00  0.00    -0.648 OA
ENDBRANCH   1   7
BRANCH   3  10
HETATM   10  O3  UNL     1       6.724  12.539  19.315  1.00  0.00    -0.393 OA
ATOM     11  H3  UNL     1       7.287  12.460  18.554  1.00  0.00     0.210 HD
ENDBRANCH   3  10
BRANCH   5  12
HETATM   12  O5  UNL     1       5.107   9.701  21.387  1.00  0.00    -0.393 OA
ATOM     13  H5  UNL     1       5.999   9.759  21.065  1.00  0.00     0.210 HD
ENDBRANCH   5  12
BRANCH   4  14
HETATM   14  O4  UNL     1       4.210  12.399  20.491  1.00  0.00    -0.390 OA
ATOM     15  H4  UNL     1       4.677  13.205  20.304  1.00  0.00     0.210 HD
ENDBRANCH   4  14
TORSDOF 4
ENDMDL
