MODEL 14
REMARK VINA RESULT: -5.191683262      7.331      9.050
REMARK  4 active torsions:
REMARK  status: ('A' for Active; 'I' for Inactive)
REMARK    1  A    between atoms: C1_2  and  C2_4 
REMARK    2  A    between atoms: C4_6  and  O3_7 
REMARK    3  A    between atoms: C5_9  and  O4_10 
REMARK    4  A    between atoms: C6_12  and  O5_13 
ROOT
HETATM    1  C2  UNL     1       1.439  15.267  13.755  1.00  0.00     0.091 C 
HETATM    2  C3  UNL     1       0.927  15.853  15.029  1.00  0.00     0.050 C 
HETATM    3  C4  UNL     1       0.874  14.826  16.110  1.00  0.00     0.150 C 
HETATM    4  C5  UNL     1       0.055  13.627  15.660  1.00  0.00     0.175 C 
HETATM    5  C6  UNL     1       0.780  13.043  14.461  1.00  0.00     0.150 C 
HETATM    6  C7  UNL     1       0.605  14.077  13.339  1.00  0.00     0.050 C 
ENDROOT
BRANCH   1   7
HETATM    7  C1  UNL     1       1.542  16.275  12.677  1.00  0.00     0.177 C 
HETATM    8  O1  UNL     1       2.536  17.032  12.564  1.00  0.00    -0.648 OA
HETATM    9  O2  UNL     1       0.524  16.415  11.745  1.00  0.00    -0.648 OA
ENDBRANCH   1   7
BRANCH   3  10
HETATM   10  O3  UNL     1       0.393  15.365  17.296  1.00  0.00    -0.393 OA
ATOM     11  H3  UNL     1       0.945  15.127  18.033  1.00  0.00     0.210 HD
ENDBRANCH   3  10
BRANCH   5  12
HETATM   12  O5  UNL     1       2.141  13.028  14.757  1.00  0.00    -0.393 OA
ATOM     13  H5  UNL     1       2.300  13.699  15.410  1.00  0.00     0.210 HD
ENDBRANCH   5  12
BRANCH   4  14
HETATM   14  O4  UNL     1      -0.125  12.708  16.667  1.00  0.00    -0.390 OA
ATOM     15  H4  UNL     1      -0.602  11.940  16.375  1.00  0.00     0.210 HD
ENDBRANCH   4  14
TORSDOF 4
ENDMDL
