MODEL 3
REMARK VINA RESULT: -5.981928128      1.222      2.464
REMARK  4 active torsions:
REMARK  status: ('A' for Active; 'I' for Inactive)
REMARK    1  A    between atoms: C1_2  and  C2_4 
REMARK    2  A    between atoms: C4_6  and  O3_7 
REMARK    3  A    between atoms: C5_9  and  O4_10 
REMARK    4  A    between atoms: C6_12  and  O5_13 
ROOT
HETATM    1  C2  UNL     1       5.591   9.190  19.381  1.00  0.00     0.091 C 
HETATM    2  C3  UNL     1       5.985  10.353  20.230  1.00  0.00     0.050 C 
HETATM    3  C4  UNL     1       5.074  11.514  20.009  1.00  0.00     0.150 C 
HETATM    4  C5  UNL     1       5.022  11.873  18.534  1.00  0.00     0.175 C 
HETATM    5  C6  UNL     1       4.455  10.658  17.821  1.00  0.00     0.150 C 
HETATM    6  C7  UNL     1       5.547   9.583  17.922  1.00  0.00     0.050 C 
ENDROOT
BRANCH   1   7
HETATM    7  C1  UNL     1       6.454   8.011  19.612  1.00  0.00     0.177 C 
HETATM    8  O1  UNL     1       7.036   7.815  20.706  1.00  0.00    -0.648 OA
HETATM    9  O2  UNL     1       6.647   7.074  18.609  1.00  0.00    -0.648 OA
ENDBRANCH   1   7
BRANCH   3  10
HETATM   10  O3  UNL     1       5.439  12.601  20.793  1.00  0.00    -0.393 OA
ATOM     11  H3  UNL     1       5.566  13.381  20.266  1.00  0.00     0.210 HD
ENDBRANCH   3  10
BRANCH   5  12
HETATM   12  O5  UNL     1       3.384  10.187  18.576  1.00  0.00    -0.393 OA
ATOM     13  H5  UNL     1       2.621  10.703  18.346  1.00  0.00     0.210 HD
ENDBRANCH   5  12
BRANCH   4  14
HETATM   14  O4  UNL     1       4.291  13.013  18.296  1.00  0.00    -0.390 OA
ATOM     15  H4  UNL     1       4.238  13.223  17.371  1.00  0.00     0.210 HD
ENDBRANCH   4  14
TORSDOF 4
ENDMDL
