MODEL 8
REMARK VINA RESULT: -5.565250321      1.506      2.599
REMARK  4 active torsions:
REMARK  status: ('A' for Active; 'I' for Inactive)
REMARK    1  A    between atoms: C1_2  and  C2_4 
REMARK    2  A    between atoms: C4_6  and  O3_7 
REMARK    3  A    between atoms: C5_9  and  O4_10 
REMARK    4  A    between atoms: C6_12  and  O5_13 
ROOT
HETATM    1  C2  UNL     1       5.712   8.791  18.746  1.00  0.00     0.091 C 
HETATM    2  C3  UNL     1       6.312   9.391  19.974  1.00  0.00     0.050 C 
HETATM    3  C4  UNL     1       5.399  10.406  20.578  1.00  0.00     0.150 C 
HETATM    4  C5  UNL     1       5.027  11.460  19.549  1.00  0.00     0.175 C 
HETATM    5  C6  UNL     1       4.288  10.730  18.441  1.00  0.00     0.150 C 
HETATM    6  C7  UNL     1       5.351   9.866  17.747  1.00  0.00     0.050 C 
ENDROOT
BRANCH   1   7
HETATM    7  C1  UNL     1       6.579   7.750  18.151  1.00  0.00     0.177 C 
HETATM    8  O1  UNL     1       6.842   6.680  18.750  1.00  0.00    -0.648 OA
HETATM    9  O2  UNL     1       7.135   7.932  16.894  1.00  0.00    -0.648 OA
ENDBRANCH   1   7
BRANCH   3  10
HETATM   10  O3  UNL     1       5.955  10.970  21.719  1.00  0.00    -0.393 OA
ATOM     11  H3  UNL     1       5.329  11.525  22.170  1.00  0.00     0.210 HD
ENDBRANCH   3  10
BRANCH   5  12
HETATM   12  O5  UNL     1       3.404   9.837  19.041  1.00  0.00    -0.393 OA
ATOM     13  H5  UNL     1       2.525  10.173  18.912  1.00  0.00     0.210 HD
ENDBRANCH   5  12
BRANCH   4  14
HETATM   14  O4  UNL     1       4.286  12.484  20.091  1.00  0.00    -0.390 OA
ATOM     15  H4  UNL     1       4.762  13.307  20.104  1.00  0.00     0.210 HD
ENDBRANCH   4  14
TORSDOF 4
ENDMDL
