MODEL 11
REMARK VINA RESULT: -5.305902354      1.705      2.444
REMARK  4 active torsions:
REMARK  status: ('A' for Active; 'I' for Inactive)
REMARK    1  A    between atoms: C1_2  and  C2_4 
REMARK    2  A    between atoms: C4_6  and  O3_7 
REMARK    3  A    between atoms: C5_9  and  O4_10 
REMARK    4  A    between atoms: C6_12  and  O5_13 
ROOT
HETATM    1  C2  UNL     1       5.912   9.013  18.328  1.00  0.00     0.091 C 
HETATM    2  C3  UNL     1       4.692   8.459  18.987  1.00  0.00     0.050 C 
HETATM    3  C4  UNL     1       3.785   9.552  19.446  1.00  0.00     0.150 C 
HETATM    4  C5  UNL     1       4.536  10.517  20.349  1.00  0.00     0.175 C 
HETATM    5  C6  UNL     1       5.643  11.118  19.501  1.00  0.00     0.150 C 
HETATM    6  C7  UNL     1       6.631   9.969  19.252  1.00  0.00     0.050 C 
ENDROOT
BRANCH   1   7
HETATM    7  C1  UNL     1       6.808   7.948  17.825  1.00  0.00     0.177 C 
HETATM    8  O1  UNL     1       7.329   7.999  16.685  1.00  0.00    -0.648 OA
HETATM    9  O2  UNL     1       7.100   6.845  18.613  1.00  0.00    -0.648 OA
ENDBRANCH   1   7
BRANCH   3  10
HETATM   10  O3  UNL     1       2.651   9.042  20.064  1.00  0.00    -0.393 OA
ATOM     11  H3  UNL     1       2.467   9.495  20.879  1.00  0.00     0.210 HD
ENDBRANCH   3  10
BRANCH   5  12
HETATM   12  O5  UNL     1       5.100  11.430  18.258  1.00  0.00    -0.393 OA
ATOM     13  H5  UNL     1       5.133  10.646  17.724  1.00  0.00     0.210 HD
ENDBRANCH   5  12
BRANCH   4  14
HETATM   14  O4  UNL     1       3.713  11.472  20.896  1.00  0.00    -0.390 OA
ATOM     15  H4  UNL     1       3.618  11.374  21.836  1.00  0.00     0.210 HD
ENDBRANCH   4  14
TORSDOF 4
ENDMDL
