MODEL 1
REMARK VINA RESULT: -6.216476236      0.000      0.000
REMARK  4 active torsions:
REMARK  status: ('A' for Active; 'I' for Inactive)
REMARK    1  A    between atoms: C1_2  and  C2_4 
REMARK    2  A    between atoms: C4_6  and  O3_7 
REMARK    3  A    between atoms: C5_9  and  O4_10 
REMARK    4  A    between atoms: C6_12  and  O5_13 
ROOT
HETATM    1  C2  UNL     1       6.140   9.432  19.178  1.00  0.00     0.091 C 
HETATM    2  C3  UNL     1       5.109  10.248  18.470  1.00  0.00     0.050 C 
HETATM    3  C4  UNL     1       5.355  11.708  18.660  1.00  0.00     0.150 C 
HETATM    4  C5  UNL     1       5.436  12.042  20.140  1.00  0.00     0.175 C 
HETATM    5  C6  UNL     1       6.620  11.267  20.687  1.00  0.00     0.150 C 
HETATM    6  C7  UNL     1       6.194   9.793  20.644  1.00  0.00     0.050 C 
ENDROOT
BRANCH   1   7
HETATM    7  C1  UNL     1       5.942   7.980  18.971  1.00  0.00     0.177 C 
HETATM    8  O1  UNL     1       5.010   7.349  19.523  1.00  0.00    -0.648 OA
HETATM    9  O2  UNL     1       6.798   7.265  18.147  1.00  0.00    -0.648 OA
ENDBRANCH   1   7
BRANCH   3  10
HETATM   10  O3  UNL     1       4.396  12.471  18.008  1.00  0.00    -0.393 OA
ATOM     11  H3  UNL     1       4.658  13.383  17.953  1.00  0.00     0.210 HD
ENDBRANCH   3  10
BRANCH   5  12
HETATM   12  O5  UNL     1       7.664  11.390  19.773  1.00  0.00    -0.393 OA
ATOM     13  H5  UNL     1       7.782  10.544  19.356  1.00  0.00     0.210 HD
ENDBRANCH   5  12
BRANCH   4  14
HETATM   14  O4  UNL     1       5.539  13.395  20.366  1.00  0.00    -0.390 OA
ATOM     15  H4  UNL     1       4.793  13.740  20.844  1.00  0.00     0.210 HD
ENDBRANCH   4  14
TORSDOF 4
ENDMDL
