MODEL 2
REMARK VINA RESULT: -6.060874979      7.017      8.431
REMARK  4 active torsions:
REMARK  status: ('A' for Active; 'I' for Inactive)
REMARK    1  A    between atoms: C1_2  and  C2_4 
REMARK    2  A    between atoms: C4_6  and  O3_7 
REMARK    3  A    between atoms: C5_9  and  O4_10 
REMARK    4  A    between atoms: C6_12  and  O5_13 
ROOT
HETATM    1  C2  UNL     1       1.606  14.340  13.603  1.00  0.00     0.091 C 
HETATM    2  C3  UNL     1       1.504  15.704  14.201  1.00  0.00     0.050 C 
HETATM    3  C4  UNL     1       1.464  15.637  15.691  1.00  0.00     0.150 C 
HETATM    4  C5  UNL     1       0.338  14.724  16.148  1.00  0.00     0.175 C 
HETATM    5  C6  UNL     1       0.659  13.345  15.601  1.00  0.00     0.150 C 
HETATM    6  C7  UNL     1       0.474  13.460  14.081  1.00  0.00     0.050 C 
ENDROOT
BRANCH   1   7
HETATM    7  C1  UNL     1       1.690  14.381  12.126  1.00  0.00     0.177 C 
HETATM    8  O1  UNL     1       1.303  15.374  11.464  1.00  0.00    -0.648 OA
HETATM    9  O2  UNL     1       2.208  13.305  11.421  1.00  0.00    -0.648 OA
ENDBRANCH   1   7
BRANCH   3  10
HETATM   10  O3  UNL     1       1.364  16.903  16.252  1.00  0.00    -0.393 OA
ATOM     11  H3  UNL     1       0.563  17.338  15.984  1.00  0.00     0.210 HD
ENDBRANCH   3  10
BRANCH   5  12
HETATM   12  O5  UNL     1       2.018  13.117  15.804  1.00  0.00    -0.393 OA
ATOM     13  H5  UNL     1       2.115  12.690  16.647  1.00  0.00     0.210 HD
ENDBRANCH   5  12
BRANCH   4  14
HETATM   14  O4  UNL     1       0.183  14.727  17.515  1.00  0.00    -0.390 OA
ATOM     15  H4  UNL     1      -0.160  15.552  17.839  1.00  0.00     0.210 HD
ENDBRANCH   4  14
TORSDOF 4
ENDMDL
