MODEL 3
REMARK VINA RESULT: -7.377432697      5.134      8.318
REMARK  14 active torsions:
REMARK  status: ('A' for Active; 'I' for Inactive)
REMARK    1  A    between atoms: O1_1  and  C1_3 
REMARK    2  A    between atoms: C1_3  and  C2_4 
REMARK    3  A    between atoms: C3_6  and  S1_7 
REMARK    4  A    between atoms: S1_7  and  C4_8 
REMARK    5  A    between atoms: C5_10  and  C6_11 
REMARK    6  A    between atoms: C6_11  and  O4_12 
REMARK    7  A    between atoms: C7_14  and  O5_15 
REMARK    8  A    between atoms: C8_17  and  N1_18 
REMARK    9  A    between atoms: C10_20  and  C11_21 
REMARK   10  A    between atoms: C17_31  and  O6_32 
REMARK   11  A    between atoms: C18_34  and  O7_35 
REMARK   12  A    between atoms: C19_37  and  N4_38 
REMARK   13  A    between atoms: C21_40  and  C22_41 
REMARK   14  A    between atoms: C28_52  and  O8_53 
ROOT
HETATM    1  C2  UNL     1      24.491  -1.306 -17.023  1.00  0.00     0.177 C 
HETATM    2  O2  UNL     1      23.934  -2.284 -16.222  1.00  0.00    -0.363 OA
HETATM    3  C3  UNL     1      22.936  -3.008 -16.854  1.00  0.00     0.216 C 
HETATM    4  C18 UNL     1      21.964  -2.106 -17.585  1.00  0.00     0.184 C 
HETATM    5  C19 UNL     1      22.728  -1.632 -18.824  1.00  0.00     0.172 C 
HETATM    6  C28 UNL     1      24.136  -1.378 -18.455  1.00  0.00     0.176 C 
ENDROOT
BRANCH   3   7
HETATM    7  S1  UNL     1      22.132  -4.163 -15.740  1.00  0.00    -0.100 SA
BRANCH   7   8
HETATM    8  C4  UNL     1      23.411  -5.369 -15.216  1.00  0.00     0.216 C 
HETATM    9  O3  UNL     1      23.549  -6.410 -16.069  1.00  0.00    -0.363 OA
HETATM   10  C5  UNL     1      23.310  -7.678 -15.585  1.00  0.00     0.177 C 
HETATM   11  C7  UNL     1      23.968  -7.998 -14.287  1.00  0.00     0.176 C 
HETATM   12  C8  UNL     1      24.268  -6.778 -13.449  1.00  0.00     0.169 C 
HETATM   13  C17 UNL     1      23.246  -5.737 -13.762  1.00  0.00     0.184 C 
BRANCH  10  14
HETATM   14  C6  UNL     1      21.852  -8.056 -15.609  1.00  0.00     0.198 C 
BRANCH  14  15
HETATM   15  O4  UNL     1      21.746  -9.353 -16.105  1.00  0.00    -0.398 OA
ATOM     16  H4  UNL     1      22.146  -9.376 -16.965  1.00  0.00     0.209 HD
ENDBRANCH  14  15
ENDBRANCH  10  14
BRANCH  11  17
HETATM   17  O5  UNL     1      23.195  -8.926 -13.582  1.00  0.00    -0.391 OA
ATOM     18  H5  UNL     1      22.797  -9.539 -14.190  1.00  0.00     0.210 HD
ENDBRANCH  11  17
BRANCH  12  19
HETATM   19  N1  UNL     1      24.367  -7.125 -12.050  1.00  0.00    -0.275 N 
HETATM   20  C9  UNL     1      25.472  -7.441 -11.356  1.00  0.00     0.140 A 
HETATM   21  C10 UNL     1      25.137  -7.712 -10.032  1.00  0.00     0.073 A 
HETATM   22  N2  UNL     1      23.805  -7.545  -9.980  1.00  0.00    -0.282 N 
HETATM   23  N3  UNL     1      23.367  -7.198 -11.180  1.00  0.00    -0.020 NA
ATOM     24  H2  UNL     1      23.224  -7.665  -9.150  1.00  0.00     0.184 HD
BRANCH  21  25
HETATM   25  C11 UNL     1      26.054  -8.092  -8.966  1.00  0.00    -0.004 A 
HETATM   26  C12 UNL     1      26.460  -7.168  -8.031  1.00  0.00     0.014 A 
HETATM   27  C13 UNL     1      27.341  -7.552  -7.018  1.00  0.00     0.004 A 
HETATM   28  C14 UNL     1      27.815  -8.836  -6.931  1.00  0.00     0.042 A 
HETATM   29  C15 UNL     1      27.412  -9.768  -7.867  1.00  0.00     0.117 A 
HETATM   30  F1  UNL     1      27.855 -11.064  -7.830  1.00  0.00    -0.206 F 
HETATM   31  C16 UNL     1      26.536  -9.378  -8.872  1.00  0.00     0.056 A 
ENDBRANCH  21  25
ENDBRANCH  12  19
BRANCH  13  32
HETATM   32  O6  UNL     1      23.596  -4.579 -13.024  1.00  0.00    -0.390 OA
ATOM     33  H6  UNL     1      24.366  -4.814 -12.520  1.00  0.00     0.210 HD
ENDBRANCH  13  32
ENDBRANCH   7   8
ENDBRANCH   3   7
BRANCH   4  34
HETATM   34  O7  UNL     1      20.896  -2.939 -17.990  1.00  0.00    -0.390 OA
ATOM     35  H7  UNL     1      20.783  -2.781 -18.921  1.00  0.00     0.210 HD
ENDBRANCH   4  34
BRANCH   1  36
HETATM   36  C1  UNL     1      24.286   0.050 -16.382  1.00  0.00     0.198 C 
BRANCH  36  37
HETATM   37  O1  UNL     1      25.490   0.735 -16.241  1.00  0.00    -0.398 OA
ATOM     38  H1  UNL     1      26.202   0.146 -16.019  1.00  0.00     0.209 HD
ENDBRANCH  36  37
ENDBRANCH   1  36
BRANCH   5  39
HETATM   39  N4  UNL     1      22.051  -0.565 -19.487  1.00  0.00    -0.277 N 
HETATM   40  C20 UNL     1      22.148  -0.200 -20.763  1.00  0.00     0.144 A 
HETATM   41  C21 UNL     1      21.306   0.900 -20.977  1.00  0.00     0.076 A 
HETATM   42  N5  UNL     1      20.735   1.141 -19.785  1.00  0.00    -0.284 N 
HETATM   43  N6  UNL     1      21.193   0.267 -18.937  1.00  0.00    -0.240 N 
ATOM     44  H5  UNL     1      20.061   1.878 -19.580  1.00  0.00     0.188 HD
ATOM     45  H6  UNL     1      20.917   0.231 -17.955  1.00  0.00     0.208 HD
BRANCH  41  46
HETATM   46  C22 UNL     1      21.116   1.607 -22.236  1.00  0.00    -0.004 A 
HETATM   47  C23 UNL     1      21.900   1.296 -23.317  1.00  0.00     0.014 A 
HETATM   48  C24 UNL     1      21.757   1.946 -24.544  1.00  0.00     0.004 A 
HETATM   49  C25 UNL     1      20.797   2.923 -24.649  1.00  0.00     0.042 A 
HETATM   50  C26 UNL     1      20.010   3.235 -23.562  1.00  0.00     0.117 A 
HETATM   51  F2  UNL     1      19.072   4.208 -23.706  1.00  0.00    -0.206 F 
HETATM   52  C27 UNL     1      20.160   2.580 -22.340  1.00  0.00     0.056 A 
ENDBRANCH  41  46
ENDBRANCH   5  39
BRANCH   6  53
HETATM   53  O8  UNL     1      24.515  -0.138 -19.028  1.00  0.00    -0.391 OA
ATOM     54  H8  UNL     1      24.102  -0.097 -19.883  1.00  0.00     0.210 HD
ENDBRANCH   6  53
TORSDOF 14
ENDMDL
