MODEL 2
REMARK VINA RESULT: -7.383742669      5.980      8.815
REMARK  14 active torsions:
REMARK  status: ('A' for Active; 'I' for Inactive)
REMARK    1  A    between atoms: O1_1  and  C1_3 
REMARK    2  A    between atoms: C1_3  and  C2_4 
REMARK    3  A    between atoms: C3_6  and  S1_7 
REMARK    4  A    between atoms: S1_7  and  C4_8 
REMARK    5  A    between atoms: C5_10  and  C6_11 
REMARK    6  A    between atoms: C6_11  and  O4_12 
REMARK    7  A    between atoms: C7_14  and  O5_15 
REMARK    8  A    between atoms: C8_17  and  N1_18 
REMARK    9  A    between atoms: C10_20  and  C11_21 
REMARK   10  A    between atoms: C17_31  and  O6_32 
REMARK   11  A    between atoms: C18_34  and  O7_35 
REMARK   12  A    between atoms: C19_37  and  N4_38 
REMARK   13  A    between atoms: C21_40  and  C22_41 
REMARK   14  A    between atoms: C28_52  and  O8_53 
ROOT
HETATM    1  C2  UNL     1      24.618  -3.917 -17.953  1.00  0.00     0.177 C 
HETATM    2  O2  UNL     1      24.249  -4.466 -16.741  1.00  0.00    -0.363 OA
HETATM    3  C3  UNL     1      22.897  -4.336 -16.468  1.00  0.00     0.216 C 
HETATM    4  C18 UNL     1      22.399  -2.934 -16.749  1.00  0.00     0.184 C 
HETATM    5  C19 UNL     1      22.339  -2.840 -18.276  1.00  0.00     0.172 C 
HETATM    6  C28 UNL     1      23.503  -3.546 -18.849  1.00  0.00     0.176 C 
ENDROOT
BRANCH   3   7
HETATM    7  S1  UNL     1      22.481  -4.921 -14.823  1.00  0.00    -0.100 SA
BRANCH   7   8
HETATM    8  C4  UNL     1      23.845  -6.027 -14.295  1.00  0.00     0.216 C 
HETATM    9  O3  UNL     1      23.997  -7.110 -15.091  1.00  0.00    -0.363 OA
HETATM   10  C5  UNL     1      23.848  -8.357 -14.523  1.00  0.00     0.177 C 
HETATM   11  C7  UNL     1      24.583  -8.563 -13.243  1.00  0.00     0.176 C 
HETATM   12  C8  UNL     1      24.858  -7.281 -12.494  1.00  0.00     0.169 C 
HETATM   13  C17 UNL     1      23.768  -6.313 -12.815  1.00  0.00     0.184 C 
BRANCH  10  14
HETATM   14  C6  UNL     1      22.413  -8.807 -14.451  1.00  0.00     0.198 C 
BRANCH  14  15
HETATM   15  O4  UNL     1      22.288  -9.981 -15.189  1.00  0.00    -0.398 OA
ATOM     16  H4  UNL     1      21.593  -9.859 -15.825  1.00  0.00     0.209 HD
ENDBRANCH  14  15
ENDBRANCH  10  14
BRANCH  11  17
HETATM   17  O5  UNL     1      23.896  -9.484 -12.447  1.00  0.00    -0.391 OA
ATOM     18  H5  UNL     1      24.209  -9.432 -11.551  1.00  0.00     0.210 HD
ENDBRANCH  11  17
BRANCH  12  19
HETATM   19  N1  UNL     1      25.042  -7.537 -11.084  1.00  0.00    -0.275 N 
HETATM   20  C9  UNL     1      26.141  -7.998 -10.467  1.00  0.00     0.140 A 
HETATM   21  C10 UNL     1      25.905  -8.105  -9.098  1.00  0.00     0.073 A 
HETATM   22  N2  UNL     1      24.635  -7.693  -8.942  1.00  0.00    -0.282 N 
HETATM   23  N3  UNL     1      24.141  -7.361 -10.124  1.00  0.00    -0.020 NA
ATOM     24  H2  UNL     1      24.134  -7.644  -8.056  1.00  0.00     0.184 HD
BRANCH  21  25
HETATM   25  C11 UNL     1      26.849  -8.567  -8.090  1.00  0.00    -0.004 A 
HETATM   26  C12 UNL     1      27.266  -7.725  -7.085  1.00  0.00     0.014 A 
HETATM   27  C13 UNL     1      28.172  -8.187  -6.129  1.00  0.00     0.004 A 
HETATM   28  C14 UNL     1      28.660  -9.469  -6.166  1.00  0.00     0.042 A 
HETATM   29  C15 UNL     1      28.246 -10.319  -7.173  1.00  0.00     0.117 A 
HETATM   30  F1  UNL     1      28.701 -11.608  -7.260  1.00  0.00    -0.206 F 
HETATM   31  C16 UNL     1      27.344  -9.851  -8.121  1.00  0.00     0.056 A 
ENDBRANCH  21  25
ENDBRANCH  12  19
BRANCH  13  32
HETATM   32  O6  UNL     1      24.092  -5.097 -12.165  1.00  0.00    -0.390 OA
ATOM     33  H6  UNL     1      24.229  -5.317 -11.252  1.00  0.00     0.210 HD
ENDBRANCH  13  32
ENDBRANCH   7   8
ENDBRANCH   3   7
BRANCH   4  34
HETATM   34  O7  UNL     1      21.085  -2.881 -16.231  1.00  0.00    -0.390 OA
ATOM     35  H7  UNL     1      21.152  -3.162 -15.325  1.00  0.00     0.210 HD
ENDBRANCH   4  34
BRANCH   1  36
HETATM   36  C1  UNL     1      25.642  -2.827 -17.725  1.00  0.00     0.198 C 
BRANCH  36  37
HETATM   37  O1  UNL     1      26.692  -2.914 -18.637  1.00  0.00    -0.398 OA
ATOM     38  H1  UNL     1      27.535  -2.922 -18.198  1.00  0.00     0.209 HD
ENDBRANCH  36  37
ENDBRANCH   1  36
BRANCH   5  39
HETATM   39  N4  UNL     1      22.141  -1.496 -18.716  1.00  0.00    -0.277 N 
HETATM   40  C20 UNL     1      21.723  -1.078 -19.908  1.00  0.00     0.144 A 
HETATM   41  C21 UNL     1      21.677   0.323 -19.897  1.00  0.00     0.076 A 
HETATM   42  N5  UNL     1      22.082   0.677 -18.665  1.00  0.00    -0.284 N 
HETATM   43  N6  UNL     1      22.345  -0.410 -18.002  1.00  0.00    -0.240 N 
ATOM     44  H5  UNL     1      22.168   1.630 -18.313  1.00  0.00     0.188 HD
ATOM     45  H6  UNL     1      22.674  -0.420 -17.036  1.00  0.00     0.208 HD
BRANCH  41  46
HETATM   46  C22 UNL     1      21.274   1.180 -21.003  1.00  0.00    -0.004 A 
HETATM   47  C23 UNL     1      21.845   1.014 -22.238  1.00  0.00     0.014 A 
HETATM   48  C24 UNL     1      21.493   1.810 -23.329  1.00  0.00     0.004 A 
HETATM   49  C25 UNL     1      20.544   2.784 -23.137  1.00  0.00     0.042 A 
HETATM   50  C26 UNL     1      19.970   2.951 -21.895  1.00  0.00     0.117 A 
HETATM   51  F2  UNL     1      19.035   3.927 -21.745  1.00  0.00    -0.206 F 
HETATM   52  C27 UNL     1      20.329   2.150 -20.812  1.00  0.00     0.056 A 
ENDBRANCH  41  46
ENDBRANCH   5  39
BRANCH   6  53
HETATM   53  O8  UNL     1      24.055  -2.718 -19.860  1.00  0.00    -0.391 OA
ATOM     54  H8  UNL     1      23.450  -1.996 -19.978  1.00  0.00     0.210 HD
ENDBRANCH   6  53
TORSDOF 14
ENDMDL
