MODEL 1
REMARK VINA RESULT: -7.393677736      0.000      0.000
REMARK  14 active torsions:
REMARK  status: ('A' for Active; 'I' for Inactive)
REMARK    1  A    between atoms: O1_1  and  C1_3 
REMARK    2  A    between atoms: C1_3  and  C2_4 
REMARK    3  A    between atoms: C3_6  and  S1_7 
REMARK    4  A    between atoms: S1_7  and  C4_8 
REMARK    5  A    between atoms: C5_10  and  C6_11 
REMARK    6  A    between atoms: C6_11  and  O4_12 
REMARK    7  A    between atoms: C7_14  and  O5_15 
REMARK    8  A    between atoms: C8_17  and  N1_18 
REMARK    9  A    between atoms: C10_20  and  C11_21 
REMARK   10  A    between atoms: C17_31  and  O6_32 
REMARK   11  A    between atoms: C18_34  and  O7_35 
REMARK   12  A    between atoms: C19_37  and  N4_38 
REMARK   13  A    between atoms: C21_40  and  C22_41 
REMARK   14  A    between atoms: C28_52  and  O8_53 
ROOT
HETATM    1  C2  UNL     1      23.131   2.488 -16.796  1.00  0.00     0.177 C 
HETATM    2  O2  UNL     1      23.171   1.660 -17.900  1.00  0.00    -0.363 OA
HETATM    3  C3  UNL     1      24.358   0.955 -18.016  1.00  0.00     0.216 C 
HETATM    4  C18 UNL     1      25.564   1.846 -17.802  1.00  0.00     0.184 C 
HETATM    5  C19 UNL     1      25.593   2.106 -16.294  1.00  0.00     0.172 C 
HETATM    6  C28 UNL     1      24.209   2.280 -15.807  1.00  0.00     0.176 C 
ENDROOT
BRANCH   3   7
HETATM    7  S1  UNL     1      24.435   0.010 -19.540  1.00  0.00    -0.100 SA
BRANCH   7   8
HETATM    8  C4  UNL     1      23.502  -1.541 -19.248  1.00  0.00     0.216 C 
HETATM    9  O3  UNL     1      22.284  -1.555 -19.836  1.00  0.00    -0.363 OA
HETATM   10  C5  UNL     1      21.177  -1.688 -19.026  1.00  0.00     0.177 C 
HETATM   11  C7  UNL     1      21.259  -2.775 -18.010  1.00  0.00     0.176 C 
HETATM   12  C8  UNL     1      22.675  -3.138 -17.632  1.00  0.00     0.169 C 
HETATM   13  C17 UNL     1      23.524  -1.920 -17.787  1.00  0.00     0.184 C 
BRANCH  10  14
HETATM   14  C6  UNL     1      20.708  -0.380 -18.444  1.00  0.00     0.198 C 
BRANCH  14  15
HETATM   15  O4  UNL     1      19.349  -0.244 -18.718  1.00  0.00    -0.398 OA
ATOM     16  H4  UNL     1      19.018   0.494 -18.220  1.00  0.00     0.209 HD
ENDBRANCH  14  15
ENDBRANCH  10  14
BRANCH  11  17
HETATM   17  O5  UNL     1      20.501  -2.431 -16.887  1.00  0.00    -0.391 OA
ATOM     18  H5  UNL     1      21.070  -2.340 -16.131  1.00  0.00     0.210 HD
ENDBRANCH  11  17
BRANCH  12  19
HETATM   19  N1  UNL     1      22.720  -3.741 -16.320  1.00  0.00    -0.275 N 
HETATM   20  C9  UNL     1      22.832  -5.044 -16.016  1.00  0.00     0.140 A 
HETATM   21  C10 UNL     1      22.836  -5.209 -14.633  1.00  0.00     0.073 A 
HETATM   22  N2  UNL     1      22.724  -3.961 -14.146  1.00  0.00    -0.282 N 
HETATM   23  N3  UNL     1      22.657  -3.108 -15.155  1.00  0.00    -0.020 NA
ATOM     24  H2  UNL     1      22.695  -3.712 -13.157  1.00  0.00     0.184 HD
BRANCH  21  25
HETATM   25  C11 UNL     1      22.941  -6.468 -13.911  1.00  0.00    -0.004 A 
HETATM   26  C12 UNL     1      22.916  -7.666 -14.587  1.00  0.00     0.014 A 
HETATM   27  C13 UNL     1      23.017  -8.864 -13.876  1.00  0.00     0.004 A 
HETATM   28  C14 UNL     1      23.142  -8.875 -12.510  1.00  0.00     0.042 A 
HETATM   29  C15 UNL     1      23.167  -7.677 -11.825  1.00  0.00     0.117 A 
HETATM   30  F1  UNL     1      23.289  -7.629 -10.461  1.00  0.00    -0.206 F 
HETATM   31  C16 UNL     1      23.066  -6.490 -12.540  1.00  0.00     0.056 A 
ENDBRANCH  21  25
ENDBRANCH  12  19
BRANCH  13  32
HETATM   32  O6  UNL     1      24.857  -2.306 -17.503  1.00  0.00    -0.390 OA
ATOM     33  H6  UNL     1      24.794  -3.046 -16.911  1.00  0.00     0.210 HD
ENDBRANCH  13  32
ENDBRANCH   7   8
ENDBRANCH   3   7
BRANCH   4  34
HETATM   34  O7  UNL     1      26.687   1.066 -18.159  1.00  0.00    -0.390 OA
ATOM     35  H7  UNL     1      27.211   0.990 -17.370  1.00  0.00     0.210 HD
ENDBRANCH   4  34
BRANCH   1  36
HETATM   36  C1  UNL     1      22.943   3.921 -17.243  1.00  0.00     0.198 C 
BRANCH  36  37
HETATM   37  O1  UNL     1      21.984   4.575 -16.473  1.00  0.00    -0.398 OA
ATOM     38  H1  UNL     1      22.338   4.850 -15.636  1.00  0.00     0.209 HD
ENDBRANCH  36  37
ENDBRANCH   1  36
BRANCH   5  39
HETATM   39  N4  UNL     1      26.513   3.143 -15.954  1.00  0.00    -0.277 N 
HETATM   40  C20 UNL     1      27.481   3.113 -15.040  1.00  0.00     0.144 A 
HETATM   41  C21 UNL     1      28.135   4.353 -15.044  1.00  0.00     0.076 A 
HETATM   42  N5  UNL     1      27.507   5.077 -15.986  1.00  0.00    -0.284 N 
HETATM   43  N6  UNL     1      26.565   4.341 -16.496  1.00  0.00    -0.240 N 
ATOM     44  H5  UNL     1      27.729   6.036 -16.253  1.00  0.00     0.188 HD
ATOM     45  H6  UNL     1      25.936   4.656 -17.235  1.00  0.00     0.208 HD
BRANCH  41  46
HETATM   46  C22 UNL     1      29.253   4.739 -14.195  1.00  0.00    -0.004 A 
HETATM   47  C23 UNL     1      29.967   5.873 -14.481  1.00  0.00     0.014 A 
HETATM   48  C24 UNL     1      31.047   6.284 -13.697  1.00  0.00     0.004 A 
HETATM   49  C25 UNL     1      31.387   5.513 -12.612  1.00  0.00     0.042 A 
HETATM   50  C26 UNL     1      30.669   4.373 -12.326  1.00  0.00     0.117 A 
HETATM   51  F2  UNL     1      31.038   3.636 -11.244  1.00  0.00    -0.206 F 
HETATM   52  C27 UNL     1      29.592   3.970 -13.114  1.00  0.00     0.056 A 
ENDBRANCH  41  46
ENDBRANCH   5  39
BRANCH   6  53
HETATM   53  O8  UNL     1      24.193   3.409 -14.949  1.00  0.00    -0.391 OA
ATOM     54  H8  UNL     1      24.293   4.173 -15.504  1.00  0.00     0.210 HD
ENDBRANCH   6  53
TORSDOF 14
ENDMDL
