MODEL 3
REMARK VINA RESULT: -7.860370137      1.024      1.102
REMARK  4 active torsions:
REMARK  status: ('A' for Active; 'I' for Inactive)
REMARK    1  A    between atoms: C2_2  and  N1_3 
REMARK    2  A    between atoms: C3_4  and  N2_5 
REMARK    3  A    between atoms: N2_5  and  C4_7 
REMARK    4  A    between atoms: C8_13  and  C9_14 
ROOT
HETATM    1  N1  UNL     1     -42.678  31.084  -1.494  1.00  0.00    -0.147 N 
HETATM    2  C3  UNL     1     -43.931  30.678  -1.355  1.00  0.00     0.684 A 
HETATM    3  N3  UNL     1     -44.320  29.405  -1.256  1.00  0.00    -0.189 N 
ATOM      4  H3  UNL     1     -45.313  29.196  -1.152  1.00  0.00     0.184 HD
HETATM    5  C7  UNL     1     -43.416  28.369  -1.290  1.00  0.00     0.083 A 
HETATM    6  C8  UNL     1     -43.671  27.043  -1.203  1.00  0.00     0.011 A 
HETATM    7  C14 UNL     1     -42.592  26.203  -1.264  1.00  0.00     0.065 A 
HETATM    8  S1  UNL     1     -41.275  27.263  -1.441  1.00  0.00    -0.093 SA
HETATM    9  C15 UNL     1     -42.112  28.747  -1.433  1.00  0.00     0.101 A 
HETATM   10  C16 UNL     1     -41.745  30.098  -1.535  1.00  0.00     0.281 A 
HETATM   11  O1  UNL     1     -40.544  30.354  -1.661  1.00  0.00    -0.266 OA
ENDROOT
BRANCH   6  12
HETATM   12  C9  UNL     1     -45.047  26.474  -1.043  1.00  0.00    -0.008 A 
HETATM   13  C10 UNL     1     -45.254  25.314  -0.334  1.00  0.00     0.015 A 
HETATM   14  C11 UNL     1     -46.512  24.775  -0.175  1.00  0.00     0.018 A 
HETATM   15  C12 UNL     1     -47.571  25.432  -0.750  1.00  0.00     0.087 A 
HETATM   16  N4  UNL     1     -47.358  26.582  -1.452  1.00  0.00    -0.374 N 
HETATM   17  C13 UNL     1     -46.141  27.093  -1.599  1.00  0.00     0.100 A 
ATOM     18  H4  UNL     1     -48.154  27.061  -1.874  1.00  0.00     0.164 HD
ENDBRANCH   6  12
BRANCH   2  19
HETATM   19  N2  UNL     1     -44.978  31.659  -1.298  1.00  0.00    -0.222 N 
ATOM     20  H2  UNL     1     -45.103  32.290  -2.090  1.00  0.00     0.178 HD
BRANCH  19  21
HETATM   21  C4  UNL     1     -45.866  31.786  -0.157  1.00  0.00     0.091 C 
HETATM   22  C5  UNL     1     -47.166  32.468  -0.511  1.00  0.00     0.032 C 
HETATM   23  C6  UNL     1     -45.134  32.591   0.921  1.00  0.00     0.032 C 
ENDBRANCH  19  21
ENDBRANCH   2  19
BRANCH   1  24
HETATM   24  C2  UNL     1     -42.301  32.448  -1.604  1.00  0.00     0.146 C 
HETATM   25  C1  UNL     1     -42.245  32.949  -3.027  1.00  0.00     0.027 C 
ENDBRANCH   1  24
TORSDOF 4
ENDMDL
