MODEL 6
REMARK VINA RESULT: -7.622208556      3.292      5.784
REMARK  4 active torsions:
REMARK  status: ('A' for Active; 'I' for Inactive)
REMARK    1  A    between atoms: C2_2  and  N1_3 
REMARK    2  A    between atoms: C3_4  and  N2_5 
REMARK    3  A    between atoms: N2_5  and  C4_7 
REMARK    4  A    between atoms: C8_13  and  C9_14 
ROOT
HETATM    1  N1  UNL     1     -43.408  25.874  -0.782  1.00  0.00    -0.147 N 
HETATM    2  C3  UNL     1     -43.701  27.016  -1.384  1.00  0.00     0.684 A 
HETATM    3  N3  UNL     1     -44.934  27.443  -1.665  1.00  0.00    -0.189 N 
ATOM      4  H3  UNL     1     -45.055  28.341  -2.133  1.00  0.00     0.184 HD
HETATM    5  C7  UNL     1     -46.046  26.703  -1.339  1.00  0.00     0.083 A 
HETATM    6  C8  UNL     1     -47.345  27.012  -1.564  1.00  0.00     0.011 A 
HETATM    7  C14 UNL     1     -48.277  26.103  -1.143  1.00  0.00     0.065 A 
HETATM    8  S1  UNL     1     -47.338  24.862  -0.459  1.00  0.00    -0.093 SA
HETATM    9  C15 UNL     1     -45.786  25.516  -0.717  1.00  0.00     0.101 A 
HETATM   10  C16 UNL     1     -44.473  25.103  -0.439  1.00  0.00     0.281 A 
HETATM   11  O1  UNL     1     -44.325  24.017   0.127  1.00  0.00    -0.266 OA
ENDROOT
BRANCH   6  12
HETATM   12  C9  UNL     1     -47.789  28.275  -2.234  1.00  0.00    -0.008 A 
HETATM   13  C10 UNL     1     -47.964  28.329  -3.597  1.00  0.00     0.015 A 
HETATM   14  C11 UNL     1     -48.373  29.482  -4.232  1.00  0.00     0.018 A 
HETATM   15  C12 UNL     1     -48.605  30.593  -3.461  1.00  0.00     0.087 A 
HETATM   16  N4  UNL     1     -48.429  30.533  -2.109  1.00  0.00    -0.374 N 
HETATM   17  C13 UNL     1     -48.035  29.417  -1.508  1.00  0.00     0.100 A 
ATOM     18  H4  UNL     1     -48.606  31.367  -1.548  1.00  0.00     0.164 HD
ENDBRANCH   6  12
BRANCH   2  19
HETATM   19  N2  UNL     1     -42.632  27.892  -1.775  1.00  0.00    -0.222 N 
ATOM     20  H2  UNL     1     -41.670  27.576  -1.653  1.00  0.00     0.178 HD
BRANCH  19  21
HETATM   21  C4  UNL     1     -42.869  29.209  -2.337  1.00  0.00     0.091 C 
HETATM   22  C5  UNL     1     -42.444  29.305  -3.783  1.00  0.00     0.032 C 
HETATM   23  C6  UNL     1     -42.089  30.226  -1.498  1.00  0.00     0.032 C 
ENDBRANCH  19  21
ENDBRANCH   2  19
BRANCH   1  24
HETATM   24  C2  UNL     1     -42.082  25.448  -0.506  1.00  0.00     0.146 C 
HETATM   25  C1  UNL     1     -41.426  24.723  -1.656  1.00  0.00     0.027 C 
ENDBRANCH   1  24
TORSDOF 4
ENDMDL
