MODEL 2
REMARK VINA RESULT: -7.865306151      1.074      1.348
REMARK  4 active torsions:
REMARK  status: ('A' for Active; 'I' for Inactive)
REMARK    1  A    between atoms: C2_2  and  N1_3 
REMARK    2  A    between atoms: C3_4  and  N2_5 
REMARK    3  A    between atoms: N2_5  and  C4_7 
REMARK    4  A    between atoms: C8_13  and  C9_14 
ROOT
HETATM    1  N1  UNL     1     -42.995  31.777  -0.997  1.00  0.00    -0.147 N 
HETATM    2  C3  UNL     1     -43.986  30.960  -0.673  1.00  0.00     0.684 A 
HETATM    3  N3  UNL     1     -43.933  29.627  -0.730  1.00  0.00    -0.189 N 
ATOM      4  H3  UNL     1     -44.753  29.085  -0.459  1.00  0.00     0.184 HD
HETATM    5  C7  UNL     1     -42.801  28.967  -1.146  1.00  0.00     0.083 A 
HETATM    6  C8  UNL     1     -42.611  27.630  -1.253  1.00  0.00     0.011 A 
HETATM    7  C14 UNL     1     -41.383  27.216  -1.696  1.00  0.00     0.065 A 
HETATM    8  S1  UNL     1     -40.542  28.671  -1.949  1.00  0.00    -0.093 SA
HETATM    9  C15 UNL     1     -41.756  29.775  -1.490  1.00  0.00     0.101 A 
HETATM   10  C16 UNL     1     -41.853  31.174  -1.416  1.00  0.00     0.281 A 
HETATM   11  O1  UNL     1     -40.862  31.832  -1.744  1.00  0.00    -0.266 OA
ENDROOT
BRANCH   6  12
HETATM   12  C9  UNL     1     -43.659  26.617  -0.913  1.00  0.00    -0.008 A 
HETATM   13  C10 UNL     1     -44.991  26.878  -1.132  1.00  0.00     0.015 A 
HETATM   14  C11 UNL     1     -45.971  25.958  -0.826  1.00  0.00     0.018 A 
HETATM   15  C12 UNL     1     -45.581  24.757  -0.289  1.00  0.00     0.087 A 
HETATM   16  N4  UNL     1     -44.257  24.504  -0.074  1.00  0.00    -0.374 N 
HETATM   17  C13 UNL     1     -43.321  25.398  -0.373  1.00  0.00     0.100 A 
ATOM     18  H4  UNL     1     -43.980  23.607   0.325  1.00  0.00     0.164 HD
ENDBRANCH   6  12
BRANCH   2  19
HETATM   19  N2  UNL     1     -45.227  31.517  -0.216  1.00  0.00    -0.222 N 
ATOM     20  H2  UNL     1     -45.212  32.170   0.568  1.00  0.00     0.178 HD
BRANCH  19  21
HETATM   21  C4  UNL     1     -46.503  31.186  -0.826  1.00  0.00     0.091 C 
HETATM   22  C5  UNL     1     -46.574  31.606  -2.275  1.00  0.00     0.032 C 
HETATM   23  C6  UNL     1     -47.604  31.890  -0.026  1.00  0.00     0.032 C 
ENDBRANCH  19  21
ENDBRANCH   2  19
BRANCH   1  24
HETATM   24  C2  UNL     1     -43.090  33.192  -0.930  1.00  0.00     0.146 C 
HETATM   25  C1  UNL     1     -43.568  33.828  -2.213  1.00  0.00     0.027 C 
ENDBRANCH   1  24
TORSDOF 4
ENDMDL
