MODEL 1
REMARK VINA RESULT: -7.904913445      0.000      0.000
REMARK  4 active torsions:
REMARK  status: ('A' for Active; 'I' for Inactive)
REMARK    1  A    between atoms: C2_2  and  N1_3 
REMARK    2  A    between atoms: C3_4  and  N2_5 
REMARK    3  A    between atoms: N2_5  and  C4_7 
REMARK    4  A    between atoms: C8_13  and  C9_14 
ROOT
HETATM    1  N1  UNL     1     -43.120  31.741  -1.020  1.00  0.00    -0.147 N 
HETATM    2  C3  UNL     1     -44.241  31.106  -0.715  1.00  0.00     0.684 A 
HETATM    3  N3  UNL     1     -44.440  29.792  -0.845  1.00  0.00    -0.189 N 
ATOM      4  H3  UNL     1     -45.343  29.398  -0.582  1.00  0.00     0.184 HD
HETATM    5  C7  UNL     1     -43.458  28.957  -1.324  1.00  0.00     0.083 A 
HETATM    6  C8  UNL     1     -43.524  27.618  -1.507  1.00  0.00     0.011 A 
HETATM    7  C14 UNL     1     -42.403  27.007  -2.002  1.00  0.00     0.065 A 
HETATM    8  S1  UNL     1     -41.308  28.292  -2.199  1.00  0.00    -0.093 SA
HETATM    9  C15 UNL     1     -42.286  29.575  -1.651  1.00  0.00     0.101 A 
HETATM   10  C16 UNL     1     -42.117  30.961  -1.499  1.00  0.00     0.281 A 
HETATM   11  O1  UNL     1     -41.026  31.440  -1.817  1.00  0.00    -0.266 OA
ENDROOT
BRANCH   6  12
HETATM   12  C9  UNL     1     -44.739  26.800  -1.195  1.00  0.00    -0.008 A 
HETATM   13  C10 UNL     1     -44.638  25.627  -0.484  1.00  0.00     0.015 A 
HETATM   14  C11 UNL     1     -45.744  24.861  -0.187  1.00  0.00     0.018 A 
HETATM   15  C12 UNL     1     -46.968  25.301  -0.623  1.00  0.00     0.087 A 
HETATM   16  N4  UNL     1     -47.062  26.465  -1.328  1.00  0.00    -0.374 N 
HETATM   17  C13 UNL     1     -45.989  27.196  -1.610  1.00  0.00     0.100 A 
ATOM     18  H4  UNL     1     -47.978  26.782  -1.647  1.00  0.00     0.164 HD
ENDBRANCH   6  12
BRANCH   2  19
HETATM   19  N2  UNL     1     -45.349  31.858  -0.197  1.00  0.00    -0.222 N 
ATOM     20  H2  UNL     1     -45.220  32.393   0.662  1.00  0.00     0.178 HD
BRANCH  19  21
HETATM   21  C4  UNL     1     -46.646  31.887  -0.850  1.00  0.00     0.091 C 
HETATM   22  C5  UNL     1     -46.752  32.994  -1.871  1.00  0.00     0.032 C 
HETATM   23  C6  UNL     1     -47.713  32.074   0.232  1.00  0.00     0.032 C 
ENDBRANCH  19  21
ENDBRANCH   2  19
BRANCH   1  24
HETATM   24  C2  UNL     1     -42.946  33.143  -0.875  1.00  0.00     0.146 C 
HETATM   25  C1  UNL     1     -43.190  33.918  -2.148  1.00  0.00     0.027 C 
ENDBRANCH   1  24
TORSDOF 4
ENDMDL
