MODEL 1
REMARK VINA RESULT: -7.663456931      0.000      0.000
REMARK  2 active torsions:
REMARK  status: ('A' for Active; 'I' for Inactive)
REMARK    1  A    between atoms: C1_2  and  C2_5 
REMARK    2  A    between atoms: C6_11  and  N2_12 
ROOT
HETATM    1  C2  UNL     1     -17.294 -12.059  70.491  1.00  0.00     0.091 A 
HETATM    2  C3  UNL     1     -17.131 -12.560  71.787  1.00  0.00     0.021 A 
HETATM    3  C4  UNL     1     -17.015 -11.725  72.878  1.00  0.00     0.018 A 
HETATM    4  C5  UNL     1     -17.059 -10.360  72.698  1.00  0.00     0.089 A 
HETATM    5  N1  UNL     1     -17.215  -9.901  71.458  1.00  0.00    -0.352 N 
ATOM      6  H1  UNL     1     -17.248  -8.889  71.325  1.00  0.00     0.166 HD
HETATM    7  C6  UNL     1     -17.335 -10.696  70.346  1.00  0.00     0.118 A 
ENDROOT
BRANCH   7   8
HETATM    8  N2  UNL     1     -17.503 -10.113  69.073  1.00  0.00    -0.363 N 
HETATM    9  C7  UNL     1     -18.754 -10.026  68.375  1.00  0.00     0.152 C 
HETATM   10  C8  UNL     1     -18.432 -10.404  66.913  1.00  0.00     0.252 C 
HETATM   11  N3  UNL     1     -17.670  -9.338  66.305  1.00  0.00    -0.072 N 
HETATM   12  C9  UNL     1     -16.715  -8.769  67.183  1.00  0.00     0.252 C 
ATOM     13  H32 UNL     1     -17.229  -9.653  65.441  1.00  0.00     0.277 HD
ATOM     14  H31 UNL     1     -18.288  -8.620  65.926  1.00  0.00     0.277 HD
HETATM   15  C10 UNL     1     -16.354  -9.561  68.393  1.00  0.00     0.152 C 
ENDBRANCH   7   8
BRANCH   1  16
HETATM   16  C1  UNL     1     -17.409 -12.980  69.333  1.00  0.00     0.421 C 
HETATM   17  F1  UNL     1     -18.695 -13.161  68.908  1.00  0.00    -0.166 F 
HETATM   18  F2  UNL     1     -16.999 -14.277  69.737  1.00  0.00    -0.166 F 
HETATM   19  F3  UNL     1     -16.538 -12.665  68.316  1.00  0.00    -0.166 F 
ENDBRANCH   1  16
TORSDOF 2
ENDMDL
