MODEL 2
REMARK VINA RESULT: -7.304248439      0.350      1.252
REMARK  2 active torsions:
REMARK  status: ('A' for Active; 'I' for Inactive)
REMARK    1  A    between atoms: C1_2  and  C2_5 
REMARK    2  A    between atoms: C6_11  and  N2_12 
ROOT
HETATM    1  C2  UNL     1     -17.230 -12.238  70.434  1.00  0.00     0.091 A 
HETATM    2  C3  UNL     1     -17.131 -12.585  71.786  1.00  0.00     0.021 A 
HETATM    3  C4  UNL     1     -17.042 -11.630  72.775  1.00  0.00     0.018 A 
HETATM    4  C5  UNL     1     -17.050 -10.294  72.434  1.00  0.00     0.089 A 
HETATM    5  N1  UNL     1     -17.145  -9.982  71.143  1.00  0.00    -0.352 N 
ATOM      6  H1  UNL     1     -17.150  -8.993  70.891  1.00  0.00     0.166 HD
HETATM    7  C6  UNL     1     -17.235 -10.902  70.129  1.00  0.00     0.118 A 
ENDROOT
BRANCH   7   8
HETATM    8  N2  UNL     1     -17.338 -10.470  68.789  1.00  0.00    -0.363 N 
HETATM    9  C7  UNL     1     -16.228 -10.069  67.974  1.00  0.00     0.152 C 
HETATM   10  C8  UNL     1     -16.702  -8.800  67.235  1.00  0.00     0.252 C 
HETATM   11  N3  UNL     1     -17.688  -9.169  66.245  1.00  0.00    -0.072 N 
HETATM   12  C9  UNL     1     -18.576 -10.176  66.697  1.00  0.00     0.252 C 
ATOM     13  H32 UNL     1     -18.202  -8.349  65.920  1.00  0.00     0.277 HD
ATOM     14  H31 UNL     1     -17.241  -9.444  65.371  1.00  0.00     0.277 HD
HETATM   15  C10 UNL     1     -18.640 -10.411  68.167  1.00  0.00     0.152 C 
ENDBRANCH   7   8
BRANCH   1  16
HETATM   16  C1  UNL     1     -17.316 -13.288  69.388  1.00  0.00     0.421 C 
HETATM   17  F1  UNL     1     -18.597 -13.574  69.010  1.00  0.00    -0.166 F 
HETATM   18  F2  UNL     1     -16.838 -14.511  69.926  1.00  0.00    -0.166 F 
HETATM   19  F3  UNL     1     -16.474 -13.048  68.326  1.00  0.00    -0.166 F 
ENDBRANCH   1  16
TORSDOF 2
ENDMDL
