MODEL 3
REMARK VINA RESULT: -7.143353672      3.171      5.651
REMARK  2 active torsions:
REMARK  status: ('A' for Active; 'I' for Inactive)
REMARK    1  A    between atoms: C1_2  and  C2_5 
REMARK    2  A    between atoms: C6_11  and  N2_12 
ROOT
HETATM    1  C2  UNL     1     -16.667 -10.704  72.047  1.00  0.00     0.091 A 
HETATM    2  C3  UNL     1     -17.263 -11.052  70.830  1.00  0.00     0.021 A 
HETATM    3  C4  UNL     1     -17.275 -10.188  69.756  1.00  0.00     0.018 A 
HETATM    4  C5  UNL     1     -16.688  -8.947  69.873  1.00  0.00     0.089 A 
HETATM    5  N1  UNL     1     -16.125  -8.633  71.039  1.00  0.00    -0.352 N 
ATOM      6  H1  UNL     1     -15.691  -7.714  71.126  1.00  0.00     0.166 HD
HETATM    7  C6  UNL     1     -16.092  -9.463  72.131  1.00  0.00     0.118 A 
ENDROOT
BRANCH   7   8
HETATM    8  N2  UNL     1     -15.465  -9.040  73.322  1.00  0.00    -0.363 N 
HETATM    9  C7  UNL     1     -14.097  -9.306  73.662  1.00  0.00     0.152 C 
HETATM   10  C8  UNL     1     -14.118  -9.714  75.151  1.00  0.00     0.252 C 
HETATM   11  N3  UNL     1     -14.411  -8.551  75.957  1.00  0.00    -0.072 N 
HETATM   12  C9  UNL     1     -15.386  -7.705  75.375  1.00  0.00     0.252 C 
ATOM     13  H32 UNL     1     -14.681  -8.822  76.903  1.00  0.00     0.277 HD
ATOM     14  H31 UNL     1     -13.559  -8.032  76.169  1.00  0.00     0.277 HD
HETATM   15  C10 UNL     1     -16.228  -8.289  74.292  1.00  0.00     0.152 C 
ENDBRANCH   7   8
BRANCH   1  16
HETATM   16  C1  UNL     1     -16.674 -11.650  73.190  1.00  0.00     0.421 C 
HETATM   17  F1  UNL     1     -15.450 -12.194  73.455  1.00  0.00    -0.166 F 
HETATM   18  F2  UNL     1     -17.478 -12.770  72.853  1.00  0.00    -0.166 F 
HETATM   19  F3  UNL     1     -17.292 -11.131  74.305  1.00  0.00    -0.166 F 
ENDBRANCH   1  16
TORSDOF 2
ENDMDL
