MODEL 10
REMARK VINA RESULT: -6.635143542      0.856      1.546
REMARK  2 active torsions:
REMARK  status: ('A' for Active; 'I' for Inactive)
REMARK    1  A    between atoms: C1_2  and  C2_5 
REMARK    2  A    between atoms: C6_11  and  N2_12 
ROOT
HETATM    1  C2  UNL     1     -16.981 -11.364  70.978  1.00  0.00     0.091 A 
HETATM    2  C3  UNL     1     -16.683 -11.415  72.344  1.00  0.00     0.021 A 
HETATM    3  C4  UNL     1     -16.290 -10.293  73.042  1.00  0.00     0.018 A 
HETATM    4  C5  UNL     1     -16.185  -9.085  72.386  1.00  0.00     0.089 A 
HETATM    5  N1  UNL     1     -16.473  -9.056  71.086  1.00  0.00    -0.352 N 
ATOM      6  H1  UNL     1     -16.395  -8.162  70.601  1.00  0.00     0.166 HD
HETATM    7  C6  UNL     1     -16.867 -10.148  70.355  1.00  0.00     0.118 A 
ENDROOT
BRANCH   7   8
HETATM    8  N2  UNL     1     -17.156 -10.013  68.981  1.00  0.00    -0.363 N 
HETATM    9  C7  UNL     1     -16.170  -9.848  67.953  1.00  0.00     0.152 C 
HETATM   10  C8  UNL     1     -16.730  -8.749  67.024  1.00  0.00     0.252 C 
HETATM   11  N3  UNL     1     -17.852  -9.281  66.285  1.00  0.00    -0.072 N 
HETATM   12  C9  UNL     1     -18.679 -10.126  67.066  1.00  0.00     0.252 C 
ATOM     13  H32 UNL     1     -18.397  -8.530  65.860  1.00  0.00     0.277 HD
ATOM     14  H31 UNL     1     -17.538  -9.758  65.440  1.00  0.00     0.277 HD
HETATM   15  C10 UNL     1     -18.533 -10.033  68.546  1.00  0.00     0.152 C 
ENDBRANCH   7   8
BRANCH   1  16
HETATM   16  C1  UNL     1     -17.394 -12.589  70.248  1.00  0.00     0.421 C 
HETATM   17  F1  UNL     1     -18.749 -12.747  70.173  1.00  0.00    -0.166 F 
HETATM   18  F2  UNL     1     -16.960 -13.726  70.978  1.00  0.00    -0.166 F 
HETATM   19  F3  UNL     1     -16.761 -12.722  69.033  1.00  0.00    -0.166 F 
ENDBRANCH   1  16
TORSDOF 2
ENDMDL
