MODEL 4
REMARK VINA RESULT: -7.023357696      6.269      7.707
REMARK  2 active torsions:
REMARK  status: ('A' for Active; 'I' for Inactive)
REMARK    1  A    between atoms: C1_2  and  C2_5 
REMARK    2  A    between atoms: C6_11  and  N2_12 
ROOT
HETATM    1  C2  UNL     1     -13.913  -8.188  73.717  1.00  0.00     0.091 A 
HETATM    2  C3  UNL     1     -12.732  -8.486  73.029  1.00  0.00     0.021 A 
HETATM    3  C4  UNL     1     -11.658  -9.080  73.657  1.00  0.00     0.018 A 
HETATM    4  C5  UNL     1     -11.739  -9.392  74.997  1.00  0.00     0.089 A 
HETATM    5  N1  UNL     1     -12.872  -9.102  75.635  1.00  0.00    -0.352 N 
ATOM      6  H1  UNL     1     -12.932  -9.334  76.627  1.00  0.00     0.166 HD
HETATM    7  C6  UNL     1     -13.962  -8.512  75.048  1.00  0.00     0.118 A 
ENDROOT
BRANCH   7   8
HETATM    8  N2  UNL     1     -15.121  -8.250  75.810  1.00  0.00    -0.363 N 
HETATM    9  C7  UNL     1     -16.305  -9.060  75.797  1.00  0.00     0.152 C 
HETATM   10  C8  UNL     1     -17.481  -8.061  75.749  1.00  0.00     0.252 C 
HETATM   11  N3  UNL     1     -17.586  -7.390  77.024  1.00  0.00    -0.072 N 
HETATM   12  C9  UNL     1     -16.326  -7.071  77.587  1.00  0.00     0.252 C 
ATOM     13  H32 UNL     1     -18.173  -6.559  76.951  1.00  0.00     0.277 HD
ATOM     14  H31 UNL     1     -18.148  -7.936  77.677  1.00  0.00     0.277 HD
HETATM   15  C10 UNL     1     -15.151  -7.089  76.669  1.00  0.00     0.152 C 
ENDBRANCH   7   8
BRANCH   1  16
HETATM   16  C1  UNL     1     -15.052  -7.542  73.019  1.00  0.00     0.421 C 
HETATM   17  F1  UNL     1     -16.076  -8.401  72.735  1.00  0.00    -0.166 F 
HETATM   18  F2  UNL     1     -14.616  -7.099  71.743  1.00  0.00    -0.166 F 
HETATM   19  F3  UNL     1     -15.468  -6.386  73.640  1.00  0.00    -0.166 F 
ENDBRANCH   1  16
TORSDOF 2
ENDMDL
