MODEL 5
REMARK VINA RESULT: -6.980384273      3.262      5.739
REMARK  2 active torsions:
REMARK  status: ('A' for Active; 'I' for Inactive)
REMARK    1  A    between atoms: C1_2  and  C2_5 
REMARK    2  A    between atoms: C6_11  and  N2_12 
ROOT
HETATM    1  C2  UNL     1     -16.611 -10.652  72.130  1.00  0.00     0.091 A 
HETATM    2  C3  UNL     1     -17.144 -10.806  70.846  1.00  0.00     0.021 A 
HETATM    3  C4  UNL     1     -17.065  -9.804  69.903  1.00  0.00     0.018 A 
HETATM    4  C5  UNL     1     -16.448  -8.614  70.223  1.00  0.00     0.089 A 
HETATM    5  N1  UNL     1     -15.946  -8.485  71.450  1.00  0.00    -0.352 N 
ATOM      6  H1  UNL     1     -15.489  -7.604  71.688  1.00  0.00     0.166 HD
HETATM    7  C6  UNL     1     -16.003  -9.457  72.417  1.00  0.00     0.118 A 
ENDROOT
BRANCH   7   8
HETATM    8  N2  UNL     1     -15.435  -9.225  73.688  1.00  0.00    -0.363 N 
HETATM    9  C7  UNL     1     -16.140  -8.671  74.807  1.00  0.00     0.152 C 
HETATM   10  C8  UNL     1     -15.169  -7.650  75.436  1.00  0.00     0.252 C 
HETATM   11  N3  UNL     1     -14.086  -8.358  76.079  1.00  0.00    -0.072 N 
HETATM   12  C9  UNL     1     -13.649  -9.487  75.343  1.00  0.00     0.252 C 
ATOM     13  H32 UNL     1     -13.308  -7.730  76.280  1.00  0.00     0.277 HD
ATOM     14  H31 UNL     1     -14.339  -8.621  77.032  1.00  0.00     0.277 HD
HETATM   15  C10 UNL     1     -14.045  -9.553  73.908  1.00  0.00     0.152 C 
ENDBRANCH   7   8
BRANCH   1  16
HETATM   16  C1  UNL     1     -16.715 -11.744  73.129  1.00  0.00     0.421 C 
HETATM   17  F1  UNL     1     -15.513 -12.309  73.446  1.00  0.00    -0.166 F 
HETATM   18  F2  UNL     1     -17.455 -12.814  72.562  1.00  0.00    -0.166 F 
HETATM   19  F3  UNL     1     -17.456 -11.385  74.232  1.00  0.00    -0.166 F 
ENDBRANCH   1  16
TORSDOF 2
ENDMDL
