MODEL 9
REMARK VINA RESULT: -4.978523619      3.060      5.817
REMARK  4 active torsions:
REMARK  status: ('A' for Active; 'I' for Inactive)
REMARK    1  A    between atoms: C3_6  and  C4_7 
REMARK    2  A    between atoms: C4_7  and  C5_8 
REMARK    3  A    between atoms: C5_8  and  N3_9 
REMARK    4  A    between atoms: C5_8  and  C6_13 
ROOT
HETATM    1  C4  UNL     1       1.328   5.315   9.470  1.00  0.00     0.102 C 
ENDROOT
BRANCH   1   2
HETATM    2  C3  UNL     1       1.700   6.674   9.917  1.00  0.00     0.028 A 
HETATM    3  N2  UNL     1       2.587   7.536   9.388  1.00  0.00    -0.354 N 
HETATM    4  C2  UNL     1       2.589   8.656  10.135  1.00  0.00     0.182 A 
ATOM      5  H2  UNL     1       3.160   7.369   8.562  1.00  0.00     0.166 HD
HETATM    6  N1  UNL     1       1.716   8.544  11.150  1.00  0.00    -0.355 N 
HETATM    7  C1  UNL     1       1.445   9.558  12.167  1.00  0.00     0.156 C 
HETATM    8  C7  UNL     1       1.170   7.323  11.012  1.00  0.00     0.116 A 
ENDBRANCH   1   2
BRANCH   1   9
HETATM    9  C5  UNL     1      -0.064   4.922   9.889  1.00  0.00     0.289 C 
BRANCH   9  10
HETATM   10  N3  UNL     1      -0.103   3.453   9.862  1.00  0.00    -0.065 N 
ATOM     11  H33 UNL     1       0.814   3.026   9.725  1.00  0.00     0.275 HD
ATOM     12  H32 UNL     1      -0.300   3.035  10.772  1.00  0.00     0.275 HD
ATOM     13  H31 UNL     1      -0.780   3.199   9.143  1.00  0.00     0.275 HD
ENDBRANCH   9  10
BRANCH   9  14
HETATM   14  C6  UNL     1      -1.121   5.473   9.052  1.00  0.00     0.204 C 
HETATM   15  O1  UNL     1      -1.121   5.322   7.810  1.00  0.00    -0.646 OA
HETATM   16  O2  UNL     1      -2.160   6.184   9.622  1.00  0.00    -0.646 OA
ENDBRANCH   9  14
ENDBRANCH   1   9
TORSDOF 4
ENDMDL
