MODEL 8
REMARK VINA RESULT: -5.013775671      3.339      4.574
REMARK  4 active torsions:
REMARK  status: ('A' for Active; 'I' for Inactive)
REMARK    1  A    between atoms: C3_6  and  C4_7 
REMARK    2  A    between atoms: C4_7  and  C5_8 
REMARK    3  A    between atoms: C5_8  and  N3_9 
REMARK    4  A    between atoms: C5_8  and  C6_13 
ROOT
HETATM    1  C4  UNL     1      -0.710   5.028   9.353  1.00  0.00     0.102 C 
ENDROOT
BRANCH   1   2
HETATM    2  C3  UNL     1      -1.648   5.454   8.293  1.00  0.00     0.028 A 
HETATM    3  N2  UNL     1      -2.151   4.750   7.263  1.00  0.00    -0.354 N 
HETATM    4  C2  UNL     1      -2.968   5.555   6.557  1.00  0.00     0.182 A 
ATOM      5  H2  UNL     1      -1.949   3.773   7.053  1.00  0.00     0.166 HD
HETATM    6  N1  UNL     1      -3.009   6.780   7.107  1.00  0.00    -0.355 N 
HETATM    7  C1  UNL     1      -3.785   7.916   6.618  1.00  0.00     0.156 C 
HETATM    8  C7  UNL     1      -2.195   6.713   8.176  1.00  0.00     0.116 A 
ENDBRANCH   1   2
BRANCH   1   9
HETATM    9  C5  UNL     1       0.644   5.676   9.230  1.00  0.00     0.289 C 
BRANCH   9  10
HETATM   10  N3  UNL     1       1.588   4.597   8.904  1.00  0.00    -0.065 N 
ATOM     11  H33 UNL     1       1.733   4.474   7.902  1.00  0.00     0.275 HD
ATOM     12  H32 UNL     1       2.555   4.818   9.143  1.00  0.00     0.275 HD
ATOM     13  H31 UNL     1       1.236   3.761   9.369  1.00  0.00     0.275 HD
ENDBRANCH   9  10
BRANCH   9  14
HETATM   14  C6  UNL     1       1.080   6.388  10.424  1.00  0.00     0.204 C 
HETATM   15  O1  UNL     1       2.029   5.974  11.126  1.00  0.00    -0.646 OA
HETATM   16  O2  UNL     1       0.443   7.552  10.809  1.00  0.00    -0.646 OA
ENDBRANCH   9  14
ENDBRANCH   1   9
TORSDOF 4
ENDMDL
