MODEL 5
REMARK VINA RESULT: -5.093528626      2.699      5.271
REMARK  4 active torsions:
REMARK  status: ('A' for Active; 'I' for Inactive)
REMARK    1  A    between atoms: C3_6  and  C4_7 
REMARK    2  A    between atoms: C4_7  and  C5_8 
REMARK    3  A    between atoms: C5_8  and  N3_9 
REMARK    4  A    between atoms: C5_8  and  C6_13 
ROOT
HETATM    1  C4  UNL     1      -1.216   3.855   9.894  1.00  0.00     0.102 C 
ENDROOT
BRANCH   1   2
HETATM    2  C3  UNL     1      -0.070   4.788   9.854  1.00  0.00     0.028 A 
HETATM    3  N2  UNL     1       1.234   4.532   9.650  1.00  0.00    -0.354 N 
HETATM    4  C2  UNL     1       1.910   5.696   9.700  1.00  0.00     0.182 A 
ATOM      5  H2  UNL     1       1.643   3.612   9.484  1.00  0.00     0.166 HD
HETATM    6  N1  UNL     1       1.068   6.715   9.936  1.00  0.00    -0.355 N 
HETATM    7  C1  UNL     1       1.436   8.124  10.057  1.00  0.00     0.156 C 
HETATM    8  C7  UNL     1      -0.150   6.153  10.030  1.00  0.00     0.116 A 
ENDBRANCH   1   2
BRANCH   1   9
HETATM    9  C5  UNL     1      -0.962   2.654  10.767  1.00  0.00     0.289 C 
BRANCH   9  10
HETATM   10  N3  UNL     1      -0.342   1.640   9.902  1.00  0.00    -0.065 N 
ATOM     11  H33 UNL     1      -1.008   0.962   9.530  1.00  0.00     0.275 HD
ATOM     12  H32 UNL     1      -0.027   2.010   9.005  1.00  0.00     0.275 HD
ATOM     13  H31 UNL     1       0.405   1.216  10.450  1.00  0.00     0.275 HD
ENDBRANCH   9  10
BRANCH   9  14
HETATM   14  C6  UNL     1      -2.153   2.115  11.408  1.00  0.00     0.204 C 
HETATM   15  O1  UNL     1      -2.288   0.889  11.620  1.00  0.00    -0.646 OA
HETATM   16  O2  UNL     1      -3.173   2.960  11.801  1.00  0.00    -0.646 OA
ENDBRANCH   9  14
ENDBRANCH   1   9
TORSDOF 4
ENDMDL
