MODEL 2
REMARK VINA RESULT: -4.393999221      1.043      1.043
REMARK  5 active torsions:
REMARK  status: ('A' for Active; 'I' for Inactive)
REMARK    1  A    between atoms: C2_2  and  C4_4 
REMARK    2  A    between atoms: C4_4  and  C5_5 
REMARK    3  A    between atoms: C5_5  and  N1_6 
REMARK    4  A    between atoms: C5_5  and  C6_10 
REMARK    5  A    between atoms: C6_10  and  O1_11 
ROOT
HETATM    1  C5  UNL     1      -0.192   5.117   9.777  1.00  0.00     0.207 C 
ENDROOT
BRANCH   1   2
HETATM    2  C4  UNL     1      -0.500   3.757  10.288  1.00  0.00     0.039 C 
BRANCH   2   3
HETATM    3  C2  UNL     1      -1.891   3.465  10.667  1.00  0.00    -0.021 C 
HETATM    4  C1  UNL     1      -1.877   2.358  11.713  1.00  0.00     0.009 C 
HETATM    5  C3  UNL     1      -2.845   3.073   9.631  1.00  0.00     0.009 C 
ENDBRANCH   2   3
ENDBRANCH   1   2
BRANCH   1   6
HETATM    6  N1  UNL     1      -0.250   5.117   8.325  1.00  0.00    -0.073 N 
ATOM      7  H13 UNL     1      -0.600   6.001   7.954  1.00  0.00     0.274 HD
ATOM      8  H12 UNL     1       0.678   5.138   7.903  1.00  0.00     0.274 HD
ATOM      9  H11 UNL     1      -0.800   4.321   8.004  1.00  0.00     0.274 HD
ENDBRANCH   1   6
BRANCH   1  10
HETATM   10  C6  UNL     1       1.243   5.514  10.132  1.00  0.00     0.196 C 
BRANCH  10  11
HETATM   11  O1  UNL     1       2.143   5.103   9.159  1.00  0.00    -0.399 OA
ATOM     12  H1  UNL     1       3.040   5.160   9.465  1.00  0.00     0.209 HD
ENDBRANCH  10  11
ENDBRANCH   1  10
TORSDOF 5
ENDMDL
