MODEL 1
REMARK VINA RESULT: -4.421003191      0.000      0.000
REMARK  5 active torsions:
REMARK  status: ('A' for Active; 'I' for Inactive)
REMARK    1  A    between atoms: C2_2  and  C4_4 
REMARK    2  A    between atoms: C4_4  and  C5_5 
REMARK    3  A    between atoms: C5_5  and  N1_6 
REMARK    4  A    between atoms: C5_5  and  C6_10 
REMARK    5  A    between atoms: C6_10  and  O1_11 
ROOT
HETATM    1  C5  UNL     1       0.352   4.915   9.556  1.00  0.00     0.207 C 
ENDROOT
BRANCH   1   2
HETATM    2  C4  UNL     1      -0.169   3.702  10.237  1.00  0.00     0.039 C 
BRANCH   2   3
HETATM    3  C2  UNL     1      -1.589   3.687  10.620  1.00  0.00    -0.021 C 
HETATM    4  C1  UNL     1      -1.835   2.461  11.489  1.00  0.00     0.009 C 
HETATM    5  C3  UNL     1      -2.610   3.692   9.573  1.00  0.00     0.009 C 
ENDBRANCH   2   3
ENDBRANCH   1   2
BRANCH   1   6
HETATM    6  N1  UNL     1       1.491   4.557   8.728  1.00  0.00    -0.073 N 
ATOM      7  H13 UNL     1       1.937   3.695   9.039  1.00  0.00     0.274 HD
ATOM      8  H12 UNL     1       1.208   4.249   7.797  1.00  0.00     0.274 HD
ATOM      9  H11 UNL     1       2.146   5.338   8.691  1.00  0.00     0.274 HD
ENDBRANCH   1   6
BRANCH   1  10
HETATM   10  C6  UNL     1       0.887   5.919  10.580  1.00  0.00     0.196 C 
BRANCH  10  11
HETATM   11  O1  UNL     1       2.180   5.608  10.975  1.00  0.00    -0.399 OA
ATOM     12  H1  UNL     1       2.755   6.362  10.921  1.00  0.00     0.209 HD
ENDBRANCH  10  11
ENDBRANCH   1  10
TORSDOF 5
ENDMDL
