MODEL 2
REMARK VINA RESULT: -5.737812640      1.482      1.533
REMARK  6 active torsions:
REMARK  status: ('A' for Active; 'I' for Inactive)
REMARK    1  A    between atoms: N1_1  and  C1_5 
REMARK    2  A    between atoms: C1_5  and  C2_6 
REMARK    3  A    between atoms: C2_6  and  O1_7 
REMARK    4  A    between atoms: C2_6  and  C3_9 
REMARK    5  A    between atoms: C6_12  and  O2_13 
REMARK    6  A    between atoms: C7_15  and  O3_16 
ROOT
HETATM    1  C3  UNL     1      -1.172   4.361   9.831  1.00  0.00    -0.025 A 
HETATM    2  C4  UNL     1      -1.665   5.598   9.551  1.00  0.00     0.012 A 
HETATM    3  C5  UNL     1      -0.868   6.675   9.215  1.00  0.00     0.040 A 
HETATM    4  C6  UNL     1       0.479   6.520   9.156  1.00  0.00     0.098 A 
HETATM    5  C7  UNL     1       1.027   5.293   9.430  1.00  0.00     0.099 A 
HETATM    6  C8  UNL     1       0.225   4.235   9.761  1.00  0.00     0.049 A 
ENDROOT
BRANCH   1   7
HETATM    7  C2  UNL     1      -1.886   3.153  10.186  1.00  0.00     0.176 C 
BRANCH   7   8
HETATM    8  C1  UNL     1      -2.532   3.032  11.491  1.00  0.00     0.265 C 
BRANCH   8   9
HETATM    9  N1  UNL     1      -3.975   2.988  11.476  1.00  0.00    -0.077 N 
ATOM     10  H13 UNL     1      -4.313   3.005  10.513  1.00  0.00     0.274 HD
ATOM     11  H12 UNL     1      -4.298   2.065  11.766  1.00  0.00     0.274 HD
ATOM     12  H11 UNL     1      -4.446   3.709  12.023  1.00  0.00     0.274 HD
ENDBRANCH   8   9
ENDBRANCH   7   8
BRANCH   7  13
HETATM   13  O1  UNL     1      -0.998   2.071   9.985  1.00  0.00    -0.389 OA
ATOM     14  H1  UNL     1      -0.130   2.397   9.779  1.00  0.00     0.210 HD
ENDBRANCH   7  13
ENDBRANCH   1   7
BRANCH   5  15
HETATM   15  O3  UNL     1       2.413   5.175   9.357  1.00  0.00    -0.358 OA
ATOM     16  H3  UNL     1       2.795   5.009   8.503  1.00  0.00     0.217 HD
ENDBRANCH   5  15
BRANCH   4  17
HETATM   17  O2  UNL     1       1.277   7.614   8.815  1.00  0.00    -0.358 OA
ATOM     18  H2  UNL     1       1.080   8.465   9.187  1.00  0.00     0.217 HD
ENDBRANCH   4  17
TORSDOF 6
ENDMDL
