MODEL 10
REMARK VINA RESULT: -5.469131322      2.356      5.549
REMARK  6 active torsions:
REMARK  status: ('A' for Active; 'I' for Inactive)
REMARK    1  A    between atoms: N1_1  and  C1_5 
REMARK    2  A    between atoms: C1_5  and  C2_6 
REMARK    3  A    between atoms: C2_6  and  O1_7 
REMARK    4  A    between atoms: C2_6  and  C3_9 
REMARK    5  A    between atoms: C6_12  and  O2_13 
REMARK    6  A    between atoms: C7_15  and  O3_16 
ROOT
HETATM    1  C3  UNL     1      -1.798   2.588  10.531  1.00  0.00    -0.025 A 
HETATM    2  C4  UNL     1      -1.648   1.270  10.222  1.00  0.00     0.012 A 
HETATM    3  C5  UNL     1      -2.671   0.347  10.322  1.00  0.00     0.040 A 
HETATM    4  C6  UNL     1      -3.896   0.746  10.746  1.00  0.00     0.098 A 
HETATM    5  C7  UNL     1      -4.100   2.064  11.069  1.00  0.00     0.099 A 
HETATM    6  C8  UNL     1      -3.078   2.967  10.966  1.00  0.00     0.049 A 
ENDROOT
BRANCH   1   7
HETATM    7  C2  UNL     1      -0.824   3.656  10.466  1.00  0.00     0.176 C 
BRANCH   7   8
HETATM    8  C1  UNL     1      -1.159   4.925   9.822  1.00  0.00     0.265 C 
BRANCH   8   9
HETATM    9  N1  UNL     1      -0.795   5.038   8.429  1.00  0.00    -0.077 N 
ATOM     10  H13 UNL     1       0.148   4.674   8.285  1.00  0.00     0.274 HD
ATOM     11  H12 UNL     1      -1.333   4.372   7.874  1.00  0.00     0.274 HD
ATOM     12  H11 UNL     1      -0.874   5.971   8.025  1.00  0.00     0.274 HD
ENDBRANCH   8   9
ENDBRANCH   7   8
BRANCH   7  13
HETATM   13  O1  UNL     1       0.347   3.116   9.885  1.00  0.00    -0.389 OA
ATOM     14  H1  UNL     1       0.436   2.201  10.126  1.00  0.00     0.210 HD
ENDBRANCH   7  13
ENDBRANCH   1   7
BRANCH   5  15
HETATM   15  O3  UNL     1      -5.372   2.433  11.500  1.00  0.00    -0.358 OA
ATOM     16  H3  UNL     1      -6.037   2.572  10.836  1.00  0.00     0.217 HD
ENDBRANCH   5  15
BRANCH   4  17
HETATM   17  O2  UNL     1      -4.925  -0.194  10.843  1.00  0.00    -0.358 OA
ATOM     18  H2  UNL     1      -5.627  -0.050  11.466  1.00  0.00     0.217 HD
ENDBRANCH   4  17
TORSDOF 6
ENDMDL
