MODEL 3
REMARK VINA RESULT: -5.720214910      3.746      6.595
REMARK  6 active torsions:
REMARK  status: ('A' for Active; 'I' for Inactive)
REMARK    1  A    between atoms: N1_1  and  C1_5 
REMARK    2  A    between atoms: C1_5  and  C2_6 
REMARK    3  A    between atoms: C2_6  and  O1_7 
REMARK    4  A    between atoms: C2_6  and  C3_9 
REMARK    5  A    between atoms: C6_12  and  O2_13 
REMARK    6  A    between atoms: C7_15  and  O3_16 
ROOT
HETATM    1  C3  UNL     1      -3.092   0.642  10.581  1.00  0.00    -0.025 A 
HETATM    2  C4  UNL     1      -3.618  -0.609  10.474  1.00  0.00     0.012 A 
HETATM    3  C5  UNL     1      -4.955  -0.890  10.677  1.00  0.00     0.040 A 
HETATM    4  C6  UNL     1      -5.809   0.114  11.001  1.00  0.00     0.098 A 
HETATM    5  C7  UNL     1      -5.329   1.393  11.121  1.00  0.00     0.099 A 
HETATM    6  C8  UNL     1      -4.003   1.656  10.917  1.00  0.00     0.049 A 
ENDROOT
BRANCH   1   7
HETATM    7  C2  UNL     1      -1.724   1.076  10.389  1.00  0.00     0.176 C 
BRANCH   7   8
HETATM    8  C1  UNL     1      -1.350   2.469  10.623  1.00  0.00     0.265 C 
BRANCH   8   9
HETATM    9  N1  UNL     1      -0.064   2.870  10.103  1.00  0.00    -0.077 N 
ATOM     10  H13 UNL     1       0.640   2.820  10.840  1.00  0.00     0.274 HD
ATOM     11  H12 UNL     1       0.290   2.158   9.464  1.00  0.00     0.274 HD
ATOM     12  H11 UNL     1      -0.033   3.785   9.654  1.00  0.00     0.274 HD
ENDBRANCH   8   9
ENDBRANCH   7   8
BRANCH   7  13
HETATM   13  O1  UNL     1      -1.344   0.688   9.083  1.00  0.00    -0.389 OA
ATOM     14  H1  UNL     1      -0.431   0.903   8.934  1.00  0.00     0.210 HD
ENDBRANCH   7  13
ENDBRANCH   1   7
BRANCH   5  15
HETATM   15  O3  UNL     1      -6.238   2.394  11.454  1.00  0.00    -0.358 OA
ATOM     16  H3  UNL     1      -6.396   2.555  12.377  1.00  0.00     0.217 HD
ENDBRANCH   5  15
BRANCH   4  17
HETATM   17  O2  UNL     1      -7.159  -0.179  11.204  1.00  0.00    -0.358 OA
ATOM     18  H2  UNL     1      -7.712   0.460  11.638  1.00  0.00     0.217 HD
ENDBRANCH   4  17
TORSDOF 6
ENDMDL
