MODEL 5
REMARK VINA RESULT: -5.593764059      1.133      2.032
REMARK  6 active torsions:
REMARK  status: ('A' for Active; 'I' for Inactive)
REMARK    1  A    between atoms: N1_1  and  C1_5 
REMARK    2  A    between atoms: C1_5  and  C2_6 
REMARK    3  A    between atoms: C2_6  and  O1_7 
REMARK    4  A    between atoms: C2_6  and  C3_9 
REMARK    5  A    between atoms: C6_12  and  O2_13 
REMARK    6  A    between atoms: C7_15  and  O3_16 
ROOT
HETATM    1  C3  UNL     1      -1.411   3.716  10.624  1.00  0.00    -0.025 A 
HETATM    2  C4  UNL     1      -0.084   3.656  10.326  1.00  0.00     0.012 A 
HETATM    3  C5  UNL     1       0.582   4.644   9.626  1.00  0.00     0.040 A 
HETATM    4  C6  UNL     1      -0.099   5.738   9.200  1.00  0.00     0.098 A 
HETATM    5  C7  UNL     1      -1.438   5.846   9.474  1.00  0.00     0.099 A 
HETATM    6  C8  UNL     1      -2.084   4.861  10.168  1.00  0.00     0.049 A 
ENDROOT
BRANCH   1   7
HETATM    7  C2  UNL     1      -2.225   2.766  11.351  1.00  0.00     0.176 C 
BRANCH   7   8
HETATM    8  C1  UNL     1      -2.273   1.364  10.939  1.00  0.00     0.265 C 
BRANCH   8   9
HETATM    9  N1  UNL     1      -1.973   1.108   9.550  1.00  0.00    -0.077 N 
ATOM     10  H13 UNL     1      -2.307   1.881   8.973  1.00  0.00     0.274 HD
ATOM     11  H12 UNL     1      -0.968   1.182   9.392  1.00  0.00     0.274 HD
ATOM     12  H11 UNL     1      -2.318   0.223   9.178  1.00  0.00     0.274 HD
ENDBRANCH   8   9
ENDBRANCH   7   8
BRANCH   7  13
HETATM   13  O1  UNL     1      -3.535   3.297  11.406  1.00  0.00    -0.389 OA
ATOM     14  H1  UNL     1      -3.527   4.131  11.860  1.00  0.00     0.210 HD
ENDBRANCH   7  13
ENDBRANCH   1   7
BRANCH   5  15
HETATM   15  O3  UNL     1      -2.099   6.984   9.020  1.00  0.00    -0.358 OA
ATOM     16  H3  UNL     1      -3.047   6.947   8.958  1.00  0.00     0.217 HD
ENDBRANCH   5  15
BRANCH   4  17
HETATM   17  O2  UNL     1       0.582   6.731   8.492  1.00  0.00    -0.358 OA
ATOM     18  H2  UNL     1       0.459   7.641   8.737  1.00  0.00     0.217 HD
ENDBRANCH   4  17
TORSDOF 6
ENDMDL
