MODEL 1
REMARK VINA RESULT: -5.985691724      0.000      0.000
REMARK  6 active torsions:
REMARK  status: ('A' for Active; 'I' for Inactive)
REMARK    1  A    between atoms: N1_1  and  C1_5 
REMARK    2  A    between atoms: C1_5  and  C2_6 
REMARK    3  A    between atoms: C2_6  and  O1_7 
REMARK    4  A    between atoms: C2_6  and  C3_9 
REMARK    5  A    between atoms: C6_12  and  O2_13 
REMARK    6  A    between atoms: C7_15  and  O3_16 
ROOT
HETATM    1  C3  UNL     1      -1.438   4.291  10.122  1.00  0.00    -0.025 A 
HETATM    2  C4  UNL     1      -1.954   5.482   9.711  1.00  0.00     0.012 A 
HETATM    3  C5  UNL     1      -1.189   6.487   9.152  1.00  0.00     0.040 A 
HETATM    4  C6  UNL     1       0.146   6.305   8.994  1.00  0.00     0.098 A 
HETATM    5  C7  UNL     1       0.715   5.122   9.392  1.00  0.00     0.099 A 
HETATM    6  C8  UNL     1      -0.054   4.136   9.944  1.00  0.00     0.049 A 
ENDROOT
BRANCH   1   7
HETATM    7  C2  UNL     1      -2.118   3.157  10.711  1.00  0.00     0.176 C 
BRANCH   7   8
HETATM    8  C1  UNL     1      -2.513   2.019   9.884  1.00  0.00     0.265 C 
BRANCH   8   9
HETATM    9  N1  UNL     1      -1.496   1.016   9.670  1.00  0.00    -0.077 N 
ATOM     10  H13 UNL     1      -0.610   1.463   9.433  1.00  0.00     0.274 HD
ATOM     11  H12 UNL     1      -1.248   0.579  10.558  1.00  0.00     0.274 HD
ATOM     12  H11 UNL     1      -1.720   0.298   8.981  1.00  0.00     0.274 HD
ENDBRANCH   8   9
ENDBRANCH   7   8
BRANCH   7  13
HETATM   13  O1  UNL     1      -3.243   3.662  11.405  1.00  0.00    -0.389 OA
ATOM     14  H1  UNL     1      -3.240   4.611  11.381  1.00  0.00     0.210 HD
ENDBRANCH   7  13
ENDBRANCH   1   7
BRANCH   5  15
HETATM   15  O3  UNL     1       2.089   4.975   9.212  1.00  0.00    -0.358 OA
ATOM     16  H3  UNL     1       2.413   4.109   8.993  1.00  0.00     0.217 HD
ENDBRANCH   5  15
BRANCH   4  17
HETATM   17  O2  UNL     1       0.912   7.327   8.428  1.00  0.00    -0.358 OA
ATOM     18  H2  UNL     1       1.849   7.205   8.333  1.00  0.00     0.217 HD
ENDBRANCH   4  17
TORSDOF 6
ENDMDL
