MODEL 9
REMARK VINA RESULT: -5.491755723      3.584      6.635
REMARK  6 active torsions:
REMARK  status: ('A' for Active; 'I' for Inactive)
REMARK    1  A    between atoms: N1_1  and  C1_5 
REMARK    2  A    between atoms: C1_5  and  C2_6 
REMARK    3  A    between atoms: C2_6  and  O1_7 
REMARK    4  A    between atoms: C2_6  and  C3_9 
REMARK    5  A    between atoms: C6_12  and  O2_13 
REMARK    6  A    between atoms: C7_15  and  O3_16 
ROOT
HETATM    1  C3  UNL     1      -3.380   1.483  10.786  1.00  0.00    -0.025 A 
HETATM    2  C4  UNL     1      -2.911   0.211  10.660  1.00  0.00     0.012 A 
HETATM    3  C5  UNL     1      -3.729  -0.902  10.657  1.00  0.00     0.040 A 
HETATM    4  C6  UNL     1      -5.071  -0.748  10.786  1.00  0.00     0.098 A 
HETATM    5  C7  UNL     1      -5.594   0.513  10.916  1.00  0.00     0.099 A 
HETATM    6  C8  UNL     1      -4.772   1.606  10.917  1.00  0.00     0.049 A 
ENDROOT
BRANCH   1   7
HETATM    7  C2  UNL     1      -2.643   2.729  10.797  1.00  0.00     0.176 C 
BRANCH   7   8
HETATM    8  C1  UNL     1      -1.249   2.760  11.233  1.00  0.00     0.265 C 
BRANCH   8   9
HETATM    9  N1  UNL     1      -0.261   2.716  10.181  1.00  0.00    -0.077 N 
ATOM     10  H13 UNL     1      -0.713   2.833   9.274  1.00  0.00     0.274 HD
ATOM     11  H12 UNL     1       0.314   3.559  10.209  1.00  0.00     0.274 HD
ATOM     12  H11 UNL     1       0.336   1.889  10.169  1.00  0.00     0.274 HD
ENDBRANCH   8   9
ENDBRANCH   7   8
BRANCH   7  13
HETATM   13  O1  UNL     1      -3.404   3.655  11.547  1.00  0.00    -0.389 OA
ATOM     14  H1  UNL     1      -2.957   4.492  11.578  1.00  0.00     0.210 HD
ENDBRANCH   7  13
ENDBRANCH   1   7
BRANCH   5  15
HETATM   15  O3  UNL     1      -6.976   0.628  11.045  1.00  0.00    -0.358 OA
ATOM     16  H3  UNL     1      -7.311   1.054  11.825  1.00  0.00     0.217 HD
ENDBRANCH   5  15
BRANCH   4  17
HETATM   17  O2  UNL     1      -5.891  -1.879  10.781  1.00  0.00    -0.358 OA
ATOM     18  H2  UNL     1      -5.536  -2.707  10.482  1.00  0.00     0.217 HD
ENDBRANCH   4  17
TORSDOF 6
ENDMDL
