MODEL 3
REMARK VINA RESULT: -10.650107886      4.399      7.123
REMARK  2 active torsions:
REMARK  status: ('A' for Active; 'I' for Inactive)
REMARK    1  A    between atoms: C5_9  and  C6_10 
REMARK    2  A    between atoms: C10_14  and  C11_15 
ROOT
HETATM    1  O1  UNL     1       9.113 -10.398  -4.712  1.00  0.00    -0.267 OA
HETATM    2  C1  UNL     1       9.415  -9.316  -5.279  1.00  0.00     0.258 A 
HETATM    3  N1  UNL     1       8.926  -9.088  -6.508  1.00  0.00    -0.333 N 
ATOM      4  H1  UNL     1       8.327  -9.766  -6.979  1.00  0.00     0.168 HD
HETATM    5  C2  UNL     1       9.269  -7.912  -7.094  1.00  0.00     0.094 A 
HETATM    6  C3  UNL     1      10.080  -6.979  -6.471  1.00  0.00     0.055 A 
HETATM    7  C4  UNL     1      10.579  -7.219  -5.197  1.00  0.00     0.093 A 
HETATM    8  O2  UNL     1      11.341  -6.535  -4.379  1.00  0.00    -0.309 OA
HETATM    9  C5  UNL     1      11.529  -7.206  -3.252  1.00  0.00     0.087 A 
HETATM   10  C13 UNL     1      10.851  -8.384  -3.358  1.00  0.00     0.058 A 
HETATM   11  C14 UNL     1      10.221  -8.420  -4.616  1.00  0.00     0.068 A 
ENDROOT
BRANCH   9  12
HETATM   12  C6  UNL     1      12.329  -6.744  -2.118  1.00  0.00    -0.002 A 
HETATM   13  C7  UNL     1      11.797  -6.626  -0.863  1.00  0.00     0.014 A 
HETATM   14  C8  UNL     1      12.548  -6.267   0.224  1.00  0.00     0.002 A 
HETATM   15  C9  UNL     1      13.917  -6.011   0.040  1.00  0.00     0.016 A 
HETATM   16  C10 UNL     1      14.488  -6.119  -1.207  1.00  0.00     0.048 A 
HETATM   17  C12 UNL     1      13.696  -6.481  -2.258  1.00  0.00     0.030 A 
BRANCH  16  18
HETATM   18  C11 UNL     1      15.960  -5.867  -1.365  1.00  0.00     0.417 C 
HETATM   19  F1  UNL     1      16.666  -6.435  -0.342  1.00  0.00    -0.166 F 
HETATM   20  F2  UNL     1      16.343  -6.430  -2.602  1.00  0.00    -0.166 F 
HETATM   21  F3  UNL     1      16.136  -4.505  -1.503  1.00  0.00    -0.166 F 
ENDBRANCH  16  18
ENDBRANCH   9  12
TORSDOF 2
ENDMDL
