MODEL 1
REMARK VINA RESULT: -11.082901541      0.000      0.000
REMARK  2 active torsions:
REMARK  status: ('A' for Active; 'I' for Inactive)
REMARK    1  A    between atoms: C5_9  and  C6_10 
REMARK    2  A    between atoms: C10_14  and  C11_15 
ROOT
HETATM    1  O1  UNL     1      13.824  -4.102  -2.842  1.00  0.00    -0.267 OA
HETATM    2  C1  UNL     1      13.389  -4.951  -2.022  1.00  0.00     0.258 A 
HETATM    3  N1  UNL     1      13.748  -4.830  -0.735  1.00  0.00    -0.333 N 
ATOM      4  H1  UNL     1      14.356  -4.074  -0.418  1.00  0.00     0.168 HD
HETATM    5  C2  UNL     1      13.263  -5.761   0.126  1.00  0.00     0.094 A 
HETATM    6  C3  UNL     1      12.435  -6.792  -0.282  1.00  0.00     0.055 A 
HETATM    7  C4  UNL     1      12.063  -6.911  -1.615  1.00  0.00     0.093 A 
HETATM    8  O2  UNL     1      11.306  -7.754  -2.274  1.00  0.00    -0.309 OA
HETATM    9  C5  UNL     1      11.258  -7.428  -3.557  1.00  0.00     0.087 A 
HETATM   10  C13 UNL     1      12.029  -6.316  -3.727  1.00  0.00     0.058 A 
HETATM   11  C14 UNL     1      12.567  -5.956  -2.478  1.00  0.00     0.068 A 
ENDROOT
BRANCH   9  12
HETATM   12  C6  UNL     1      10.510  -8.152  -4.584  1.00  0.00    -0.002 A 
HETATM   13  C7  UNL     1       9.969  -7.511  -5.666  1.00  0.00     0.014 A 
HETATM   14  C8  UNL     1       9.330  -8.182  -6.674  1.00  0.00     0.002 A 
HETATM   15  C9  UNL     1       9.227  -9.580  -6.593  1.00  0.00     0.016 A 
HETATM   16  C10 UNL     1       9.759 -10.259  -5.520  1.00  0.00     0.048 A 
HETATM   17  C12 UNL     1      10.386  -9.545  -4.541  1.00  0.00     0.030 A 
BRANCH  16  18
HETATM   18  C11 UNL     1       9.658 -11.757  -5.477  1.00  0.00     0.417 C 
HETATM   19  F1  UNL     1       8.941 -12.169  -4.388  1.00  0.00    -0.166 F 
HETATM   20  F2  UNL     1       9.019 -12.161  -6.670  1.00  0.00    -0.166 F 
HETATM   21  F3  UNL     1      10.940 -12.262  -5.549  1.00  0.00    -0.166 F 
ENDBRANCH  16  18
ENDBRANCH   9  12
TORSDOF 2
ENDMDL
