MODEL 2
REMARK VINA RESULT: -10.739799747      1.036      1.873
REMARK  2 active torsions:
REMARK  status: ('A' for Active; 'I' for Inactive)
REMARK    1  A    between atoms: C5_9  and  C6_10 
REMARK    2  A    between atoms: C10_14  and  C11_15 
ROOT
HETATM    1  O1  UNL     1      12.478  -6.961   0.456  1.00  0.00    -0.267 OA
HETATM    2  C1  UNL     1      12.865  -6.221  -0.485  1.00  0.00     0.258 A 
HETATM    3  N1  UNL     1      13.714  -5.223  -0.197  1.00  0.00    -0.333 N 
ATOM      4  H1  UNL     1      14.045  -5.060   0.754  1.00  0.00     0.168 HD
HETATM    5  C2  UNL     1      14.114  -4.441  -1.233  1.00  0.00     0.094 A 
HETATM    6  C3  UNL     1      13.679  -4.648  -2.532  1.00  0.00     0.055 A 
HETATM    7  C4  UNL     1      12.803  -5.684  -2.824  1.00  0.00     0.093 A 
HETATM    8  O2  UNL     1      12.244  -6.115  -3.928  1.00  0.00    -0.309 OA
HETATM    9  C5  UNL     1      11.476  -7.166  -3.680  1.00  0.00     0.087 A 
HETATM   10  C13 UNL     1      11.547  -7.419  -2.342  1.00  0.00     0.058 A 
HETATM   11  C14 UNL     1      12.406  -6.470  -1.758  1.00  0.00     0.068 A 
ENDROOT
BRANCH   9  12
HETATM   12  C6  UNL     1      10.698  -7.897  -4.679  1.00  0.00    -0.002 A 
HETATM   13  C7  UNL     1      10.100  -7.260  -5.732  1.00  0.00     0.014 A 
HETATM   14  C8  UNL     1       9.431  -7.936  -6.717  1.00  0.00     0.002 A 
HETATM   15  C9  UNL     1       9.359  -9.336  -6.642  1.00  0.00     0.016 A 
HETATM   16  C10 UNL     1       9.948 -10.012  -5.599  1.00  0.00     0.048 A 
HETATM   17  C12 UNL     1      10.603  -9.292  -4.642  1.00  0.00     0.030 A 
BRANCH  16  18
HETATM   18  C11 UNL     1       9.878 -11.512  -5.563  1.00  0.00     0.417 C 
HETATM   19  F1  UNL     1      11.102 -12.053  -5.286  1.00  0.00    -0.166 F 
HETATM   20  F2  UNL     1       8.947 -11.856  -4.557  1.00  0.00    -0.166 F 
HETATM   21  F3  UNL     1       9.317 -11.930  -6.752  1.00  0.00    -0.166 F 
ENDBRANCH  16  18
ENDBRANCH   9  12
TORSDOF 2
ENDMDL
