MODEL 4
REMARK VINA RESULT: -10.493812254      4.410      6.949
REMARK  2 active torsions:
REMARK  status: ('A' for Active; 'I' for Inactive)
REMARK    1  A    between atoms: C5_9  and  C6_10 
REMARK    2  A    between atoms: C10_14  and  C11_15 
ROOT
HETATM    1  O1  UNL     1      10.216  -6.755  -7.268  1.00  0.00    -0.267 OA
HETATM    2  C1  UNL     1       9.945  -7.720  -6.507  1.00  0.00     0.258 A 
HETATM    3  N1  UNL     1       9.165  -8.702  -6.985  1.00  0.00    -0.333 N 
ATOM      4  H1  UNL     1       8.796  -8.678  -7.936  1.00  0.00     0.168 HD
HETATM    5  C2  UNL     1       8.889  -9.730  -6.141  1.00  0.00     0.094 A 
HETATM    6  C3  UNL     1       9.382  -9.783  -4.848  1.00  0.00     0.055 A 
HETATM    7  C4  UNL     1      10.192  -8.766  -4.361  1.00  0.00     0.093 A 
HETATM    8  O2  UNL     1      10.793  -8.555  -3.215  1.00  0.00    -0.309 OA
HETATM    9  C5  UNL     1      11.470  -7.417  -3.250  1.00  0.00     0.087 A 
HETATM   10  C13 UNL     1      11.289  -6.869  -4.485  1.00  0.00     0.058 A 
HETATM   11  C14 UNL     1      10.461  -7.727  -5.232  1.00  0.00     0.068 A 
ENDROOT
BRANCH   9  12
HETATM   12  C6  UNL     1      12.255  -6.869  -2.145  1.00  0.00    -0.002 A 
HETATM   13  C7  UNL     1      11.727  -6.726  -0.890  1.00  0.00     0.014 A 
HETATM   14  C8  UNL     1      12.468  -6.284   0.174  1.00  0.00     0.002 A 
HETATM   15  C9  UNL     1      13.821  -5.967  -0.034  1.00  0.00     0.016 A 
HETATM   16  C10 UNL     1      14.386  -6.098  -1.282  1.00  0.00     0.048 A 
HETATM   17  C12 UNL     1      13.605  -6.542  -2.309  1.00  0.00     0.030 A 
BRANCH  16  18
HETATM   18  C11 UNL     1      15.842  -5.779  -1.464  1.00  0.00     0.417 C 
HETATM   19  F1  UNL     1      16.051  -4.428  -1.466  1.00  0.00    -0.166 F 
HETATM   20  F2  UNL     1      16.534  -6.385  -0.392  1.00  0.00    -0.166 F 
HETATM   21  F3  UNL     1      16.271  -6.430  -2.602  1.00  0.00    -0.166 F 
ENDBRANCH  16  18
ENDBRANCH   9  12
TORSDOF 2
ENDMDL
