MODEL 5
REMARK VINA RESULT: -10.231713529      1.112      1.856
REMARK  2 active torsions:
REMARK  status: ('A' for Active; 'I' for Inactive)
REMARK    1  A    between atoms: C5_9  and  C6_10 
REMARK    2  A    between atoms: C10_14  and  C11_15 
ROOT
HETATM    1  O1  UNL     1      12.458  -7.095   0.399  1.00  0.00    -0.267 OA
HETATM    2  C1  UNL     1      12.838  -6.330  -0.524  1.00  0.00     0.258 A 
HETATM    3  N1  UNL     1      13.662  -5.318  -0.209  1.00  0.00    -0.333 N 
ATOM      4  H1  UNL     1      13.978  -5.165   0.749  1.00  0.00     0.168 HD
HETATM    5  C2  UNL     1      14.054  -4.508  -1.226  1.00  0.00     0.094 A 
HETATM    6  C3  UNL     1      13.637  -4.701  -2.532  1.00  0.00     0.055 A 
HETATM    7  C4  UNL     1      12.787  -5.751  -2.853  1.00  0.00     0.093 A 
HETATM    8  O2  UNL     1      12.250  -6.173  -3.971  1.00  0.00    -0.309 OA
HETATM    9  C5  UNL     1      11.503  -7.245  -3.750  1.00  0.00     0.087 A 
HETATM   10  C13 UNL     1      11.567  -7.522  -2.417  1.00  0.00     0.058 A 
HETATM   11  C14 UNL     1      12.397  -6.565  -1.806  1.00  0.00     0.068 A 
ENDROOT
BRANCH   9  12
HETATM   12  C6  UNL     1      10.753  -7.976  -4.771  1.00  0.00    -0.002 A 
HETATM   13  C7  UNL     1       9.975  -7.327  -5.692  1.00  0.00     0.014 A 
HETATM   14  C8  UNL     1       9.325  -7.988  -6.701  1.00  0.00     0.002 A 
HETATM   15  C9  UNL     1       9.463  -9.382  -6.791  1.00  0.00     0.016 A 
HETATM   16  C10 UNL     1      10.237 -10.068  -5.882  1.00  0.00     0.048 A 
HETATM   17  C12 UNL     1      10.865  -9.364  -4.897  1.00  0.00     0.030 A 
BRANCH  16  18
HETATM   18  C11 UNL     1      10.389 -11.555  -6.023  1.00  0.00     0.417 C 
HETATM   19  F1  UNL     1       9.254 -12.117  -6.539  1.00  0.00    -0.166 F 
HETATM   20  F2  UNL     1      11.486 -11.777  -6.886  1.00  0.00    -0.166 F 
HETATM   21  F3  UNL     1      10.772 -12.053  -4.795  1.00  0.00    -0.166 F 
ENDBRANCH  16  18
ENDBRANCH   9  12
TORSDOF 2
ENDMDL
