MODEL 6
REMARK VINA RESULT: -9.481112602      4.544      7.075
REMARK  2 active torsions:
REMARK  status: ('A' for Active; 'I' for Inactive)
REMARK    1  A    between atoms: C5_9  and  C6_10 
REMARK    2  A    between atoms: C10_14  and  C11_15 
ROOT
HETATM    1  O1  UNL     1       8.976  -7.116  -7.035  1.00  0.00    -0.267 OA
HETATM    2  C1  UNL     1       9.328  -8.218  -6.540  1.00  0.00     0.258 A 
HETATM    3  N1  UNL     1       8.944  -9.343  -7.163  1.00  0.00    -0.333 N 
ATOM      4  H1  UNL     1       8.384  -9.318  -8.015  1.00  0.00     0.168 HD
HETATM    5  C2  UNL     1       9.338 -10.517  -6.605  1.00  0.00     0.094 A 
HETATM    6  C3  UNL     1      10.101 -10.572  -5.451  1.00  0.00     0.055 A 
HETATM    7  C4  UNL     1      10.498  -9.405  -4.813  1.00  0.00     0.093 A 
HETATM    8  O2  UNL     1      11.210  -9.154  -3.741  1.00  0.00    -0.309 OA
HETATM    9  C5  UNL     1      11.315  -7.847  -3.549  1.00  0.00     0.087 A 
HETATM   10  C13 UNL     1      10.631  -7.229  -4.553  1.00  0.00     0.058 A 
HETATM   11  C14 UNL     1      10.088  -8.219  -5.393  1.00  0.00     0.068 A 
ENDROOT
BRANCH   9  12
HETATM   12  C6  UNL     1      12.036  -7.212  -2.447  1.00  0.00    -0.002 A 
HETATM   13  C7  UNL     1      11.931  -7.668  -1.161  1.00  0.00     0.014 A 
HETATM   14  C8  UNL     1      12.655  -7.133  -0.129  1.00  0.00     0.002 A 
HETATM   15  C9  UNL     1      13.538  -6.077  -0.404  1.00  0.00     0.016 A 
HETATM   16  C10 UNL     1      13.671  -5.591  -1.685  1.00  0.00     0.048 A 
HETATM   17  C12 UNL     1      12.928  -6.159  -2.678  1.00  0.00     0.030 A 
BRANCH  16  18
HETATM   18  C11 UNL     1      14.646  -4.480  -1.951  1.00  0.00     0.417 C 
HETATM   19  F1  UNL     1      15.857  -4.742  -1.373  1.00  0.00    -0.166 F 
HETATM   20  F2  UNL     1      14.780  -4.377  -3.353  1.00  0.00    -0.166 F 
HETATM   21  F3  UNL     1      14.055  -3.302  -1.544  1.00  0.00    -0.166 F 
ENDBRANCH  16  18
ENDBRANCH   9  12
TORSDOF 2
ENDMDL
