MODEL 5
REMARK VINA RESULT: -8.441278732      3.268      7.453
REMARK  3 active torsions:
REMARK  status: ('A' for Active; 'I' for Inactive)
REMARK    1  A    between atoms: O1_2  and  C2_3 
REMARK    2  A    between atoms: C2_3  and  C3_5 
REMARK    3  A    between atoms: C7_9  and  C8_10 
ROOT
HETATM    1  C8  UNL     1       9.975  -9.880  -5.945  1.00  0.00     0.087 A 
HETATM    2  C9  UNL     1      10.139 -11.017  -5.180  1.00  0.00     0.058 A 
HETATM    3  C10 UNL     1       9.739 -12.103  -5.936  1.00  0.00     0.068 A 
HETATM    4  C11 UNL     1       9.697 -13.440  -5.660  1.00  0.00     0.258 A 
HETATM    5  O3  UNL     1      10.051 -13.940  -4.573  1.00  0.00    -0.267 OA
HETATM    6  N1  UNL     1       9.249 -14.278  -6.613  1.00  0.00    -0.333 N 
ATOM      7  H1  UNL     1       9.212 -15.280  -6.424  1.00  0.00     0.168 HD
HETATM    8  C12 UNL     1       8.848 -13.809  -7.820  1.00  0.00     0.094 A 
HETATM    9  C13 UNL     1       8.889 -12.457  -8.101  1.00  0.00     0.055 A 
HETATM   10  C14 UNL     1       9.343 -11.559  -7.150  1.00  0.00     0.093 A 
HETATM   11  O4  UNL     1       9.505 -10.261  -7.090  1.00  0.00    -0.309 OA
ENDROOT
BRANCH   1  12
HETATM   12  C7  UNL     1      10.294  -8.513  -5.488  1.00  0.00    -0.001 A 
HETATM   13  C6  UNL     1      10.003  -7.429  -6.271  1.00  0.00     0.014 A 
HETATM   14  C5  UNL     1      10.276  -6.127  -5.898  1.00  0.00     0.002 A 
HETATM   15  C4  UNL     1      10.871  -5.952  -4.667  1.00  0.00     0.017 A 
HETATM   16  C3  UNL     1      11.180  -7.017  -3.845  1.00  0.00     0.040 A 
HETATM   17  C15 UNL     1      10.887  -8.308  -4.264  1.00  0.00     0.032 A 
BRANCH  16  18
HETATM   18  C2  UNL     1      11.810  -6.810  -2.546  1.00  0.00     0.292 C 
HETATM   19  O2  UNL     1      11.131  -7.004  -1.506  1.00  0.00    -0.259 OA
BRANCH  18  20
HETATM   20  O1  UNL     1      13.133  -6.406  -2.471  1.00  0.00    -0.323 OA
HETATM   21  C1  UNL     1      13.767  -6.487  -1.207  1.00  0.00     0.213 C 
ENDBRANCH  18  20
ENDBRANCH  16  18
ENDBRANCH   1  12
TORSDOF 3
ENDMDL
