MODEL 1
REMARK VINA RESULT: -10.959131173      0.000      0.000
REMARK  3 active torsions:
REMARK  status: ('A' for Active; 'I' for Inactive)
REMARK    1  A    between atoms: O1_2  and  C2_3 
REMARK    2  A    between atoms: C2_3  and  C3_5 
REMARK    3  A    between atoms: C7_9  and  C8_10 
ROOT
HETATM    1  C8  UNL     1      11.259  -6.818  -3.339  1.00  0.00     0.087 A 
HETATM    2  C9  UNL     1      12.034  -5.690  -3.510  1.00  0.00     0.058 A 
HETATM    3  C10 UNL     1      12.555  -5.337  -2.279  1.00  0.00     0.068 A 
HETATM    4  C11 UNL     1      13.374  -4.314  -1.894  1.00  0.00     0.258 A 
HETATM    5  O3  UNL     1      13.827  -3.451  -2.674  1.00  0.00    -0.267 OA
HETATM    6  N1  UNL     1      13.720  -4.222  -0.597  1.00  0.00    -0.333 N 
ATOM      7  H1  UNL     1      14.331  -3.465  -0.292  1.00  0.00     0.168 HD
HETATM    8  C12 UNL     1      13.268  -5.124   0.310  1.00  0.00     0.094 A 
HETATM    9  C13 UNL     1      12.439  -6.159  -0.078  1.00  0.00     0.055 A 
HETATM   10  C14 UNL     1      12.058  -6.291  -1.402  1.00  0.00     0.093 A 
HETATM   11  O4  UNL     1      11.311  -7.124  -2.082  1.00  0.00    -0.309 OA
ENDROOT
BRANCH   1  12
HETATM   12  C7  UNL     1      10.531  -7.502  -4.425  1.00  0.00    -0.001 A 
HETATM   13  C6  UNL     1       9.989  -6.789  -5.461  1.00  0.00     0.014 A 
HETATM   14  C5  UNL     1       9.297  -7.373  -6.506  1.00  0.00     0.002 A 
HETATM   15  C4  UNL     1       9.168  -8.744  -6.467  1.00  0.00     0.017 A 
HETATM   16  C3  UNL     1       9.699  -9.502  -5.443  1.00  0.00     0.040 A 
HETATM   17  C15 UNL     1      10.386  -8.870  -4.414  1.00  0.00     0.032 A 
BRANCH  16  18
HETATM   18  C2  UNL     1       9.550 -10.952  -5.421  1.00  0.00     0.292 C 
HETATM   19  O2  UNL     1       8.445 -11.452  -5.753  1.00  0.00    -0.259 OA
BRANCH  18  20
HETATM   20  O1  UNL     1      10.613 -11.756  -5.041  1.00  0.00    -0.323 OA
HETATM   21  C1  UNL     1      10.318 -12.895  -4.253  1.00  0.00     0.213 C 
ENDBRANCH  18  20
ENDBRANCH  16  18
ENDBRANCH   1  12
TORSDOF 3
ENDMDL
