MODEL 4
REMARK VINA RESULT: -8.736329376      3.100      7.317
REMARK  3 active torsions:
REMARK  status: ('A' for Active; 'I' for Inactive)
REMARK    1  A    between atoms: O1_2  and  C2_3 
REMARK    2  A    between atoms: C2_3  and  C3_5 
REMARK    3  A    between atoms: C7_9  and  C8_10 
ROOT
HETATM    1  C8  UNL     1      10.354 -10.437  -5.289  1.00  0.00     0.087 A 
HETATM    2  C9  UNL     1       9.257 -11.176  -5.682  1.00  0.00     0.058 A 
HETATM    3  C10 UNL     1       9.585 -12.515  -5.584  1.00  0.00     0.068 A 
HETATM    4  C11 UNL     1       8.873 -13.650  -5.847  1.00  0.00     0.258 A 
HETATM    5  O3  UNL     1       7.695 -13.656  -6.260  1.00  0.00    -0.267 OA
HETATM    6  N1  UNL     1       9.469 -14.841  -5.653  1.00  0.00    -0.333 N 
ATOM      7  H1  UNL     1       8.952 -15.699  -5.845  1.00  0.00     0.168 HD
HETATM    8  C12 UNL     1      10.746 -14.916  -5.205  1.00  0.00     0.094 A 
HETATM    9  C13 UNL     1      11.469 -13.769  -4.939  1.00  0.00     0.055 A 
HETATM   10  C14 UNL     1      10.895 -12.523  -5.124  1.00  0.00     0.093 A 
HETATM   11  O4  UNL     1      11.283 -11.282  -4.973  1.00  0.00    -0.309 OA
ENDROOT
BRANCH   1  12
HETATM   12  C7  UNL     1      10.398  -8.962  -5.257  1.00  0.00    -0.001 A 
HETATM   13  C6  UNL     1       9.858  -8.224  -6.275  1.00  0.00     0.014 A 
HETATM   14  C5  UNL     1       9.868  -6.842  -6.301  1.00  0.00     0.002 A 
HETATM   15  C4  UNL     1      10.461  -6.212  -5.229  1.00  0.00     0.017 A 
HETATM   16  C3  UNL     1      11.017  -6.917  -4.180  1.00  0.00     0.040 A 
HETATM   17  C15 UNL     1      10.983  -8.305  -4.199  1.00  0.00     0.032 A 
BRANCH  16  18
HETATM   18  C2  UNL     1      11.640  -6.230  -3.055  1.00  0.00     0.292 C 
HETATM   19  O2  UNL     1      12.440  -5.289  -3.288  1.00  0.00    -0.259 OA
BRANCH  18  20
HETATM   20  O1  UNL     1      11.349  -6.615  -1.756  1.00  0.00    -0.323 OA
HETATM   21  C1  UNL     1      12.436  -6.758  -0.861  1.00  0.00     0.213 C 
ENDBRANCH  18  20
ENDBRANCH  16  18
ENDBRANCH   1  12
TORSDOF 3
ENDMDL
