MODEL 2
REMARK VINA RESULT: -10.464301170      1.123      1.932
REMARK  3 active torsions:
REMARK  status: ('A' for Active; 'I' for Inactive)
REMARK    1  A    between atoms: O1_2  and  C2_3 
REMARK    2  A    between atoms: C2_3  and  C3_5 
REMARK    3  A    between atoms: C7_9  and  C8_10 
ROOT
HETATM    1  C8  UNL     1      11.481  -6.512  -3.605  1.00  0.00     0.087 A 
HETATM    2  C9  UNL     1      11.504  -6.769  -2.250  1.00  0.00     0.058 A 
HETATM    3  C10 UNL     1      12.355  -5.856  -1.656  1.00  0.00     0.068 A 
HETATM    4  C11 UNL     1      12.731  -5.671  -0.356  1.00  0.00     0.258 A 
HETATM    5  O3  UNL     1      12.323  -6.368   0.595  1.00  0.00    -0.267 OA
HETATM    6  N1  UNL     1      13.594  -4.678  -0.072  1.00  0.00    -0.333 N 
ATOM      7  H1  UNL     1      13.886  -4.526   0.893  1.00  0.00     0.168 HD
HETATM    8  C12 UNL     1      14.082  -3.878  -1.053  1.00  0.00     0.094 A 
HETATM    9  C13 UNL     1      13.703  -4.064  -2.368  1.00  0.00     0.055 A 
HETATM   10  C14 UNL     1      12.817  -5.073  -2.704  1.00  0.00     0.093 A 
HETATM   11  O4  UNL     1      12.270  -5.507  -3.812  1.00  0.00    -0.309 OA
ENDROOT
BRANCH   1  12
HETATM   12  C7  UNL     1      10.685  -7.277  -4.585  1.00  0.00    -0.001 A 
HETATM   13  C6  UNL     1      10.041  -6.641  -5.612  1.00  0.00     0.014 A 
HETATM   14  C5  UNL     1       9.283  -7.302  -6.560  1.00  0.00     0.002 A 
HETATM   15  C4  UNL     1       9.195  -8.671  -6.431  1.00  0.00     0.017 A 
HETATM   16  C3  UNL     1       9.830  -9.353  -5.412  1.00  0.00     0.040 A 
HETATM   17  C15 UNL     1      10.580  -8.645  -4.483  1.00  0.00     0.032 A 
BRANCH  16  18
HETATM   18  C2  UNL     1       9.723 -10.803  -5.294  1.00  0.00     0.292 C 
HETATM   19  O2  UNL     1      10.754 -11.465  -5.012  1.00  0.00    -0.259 OA
BRANCH  18  20
HETATM   20  O1  UNL     1       8.503 -11.430  -5.490  1.00  0.00    -0.323 OA
HETATM   21  C1  UNL     1       8.495 -12.603  -6.283  1.00  0.00     0.213 C 
ENDBRANCH  18  20
ENDBRANCH  16  18
ENDBRANCH   1  12
TORSDOF 3
ENDMDL
