MODEL 3
REMARK VINA RESULT: -8.858051398      3.155      7.371
REMARK  3 active torsions:
REMARK  status: ('A' for Active; 'I' for Inactive)
REMARK    1  A    between atoms: O1_2  and  C2_3 
REMARK    2  A    between atoms: C2_3  and  C3_5 
REMARK    3  A    between atoms: C7_9  and  C8_10 
ROOT
HETATM    1  C8  UNL     1       9.773 -10.336  -5.512  1.00  0.00     0.087 A 
HETATM    2  C9  UNL     1      10.570 -11.359  -5.044  1.00  0.00     0.058 A 
HETATM    3  C10 UNL     1       9.975 -12.558  -5.390  1.00  0.00     0.068 A 
HETATM    4  C11 UNL     1      10.343 -13.855  -5.172  1.00  0.00     0.258 A 
HETATM    5  O3  UNL     1      11.379 -14.195  -4.565  1.00  0.00    -0.267 OA
HETATM    6  N1  UNL     1       9.546 -14.835  -5.636  1.00  0.00    -0.333 N 
ATOM      7  H1  UNL     1       9.805 -15.809  -5.482  1.00  0.00     0.168 HD
HETATM    8  C12 UNL     1       8.403 -14.544  -6.306  1.00  0.00     0.094 A 
HETATM    9  C13 UNL     1       8.029 -13.233  -6.527  1.00  0.00     0.055 A 
HETATM   10  C14 UNL     1       8.819 -12.194  -6.066  1.00  0.00     0.093 A 
HETATM   11  O4  UNL     1       8.761 -10.886  -6.103  1.00  0.00    -0.309 OA
ENDROOT
BRANCH   1  12
HETATM   12  C7  UNL     1      10.070  -8.900  -5.340  1.00  0.00    -0.001 A 
HETATM   13  C6  UNL     1       9.675  -7.986  -6.279  1.00  0.00     0.014 A 
HETATM   14  C5  UNL     1       9.923  -6.631  -6.173  1.00  0.00     0.002 A 
HETATM   15  C4  UNL     1      10.607  -6.217  -5.050  1.00  0.00     0.017 A 
HETATM   16  C3  UNL     1      11.024  -7.105  -4.078  1.00  0.00     0.040 A 
HETATM   17  C15 UNL     1      10.751  -8.458  -4.229  1.00  0.00     0.032 A 
BRANCH  16  18
HETATM   18  C2  UNL     1      11.747  -6.645  -2.898  1.00  0.00     0.292 C 
HETATM   19  O2  UNL     1      12.782  -5.950  -3.055  1.00  0.00    -0.259 OA
BRANCH  18  20
HETATM   20  O1  UNL     1      11.292  -6.975  -1.631  1.00  0.00    -0.323 OA
HETATM   21  C1  UNL     1      12.239  -6.970  -0.578  1.00  0.00     0.213 C 
ENDBRANCH  18  20
ENDBRANCH  16  18
ENDBRANCH   1  12
TORSDOF 3
ENDMDL
