MODEL 4
REMARK VINA RESULT: -8.807846659      1.855      2.882
REMARK  6 active torsions:
REMARK  status: ('A' for Active; 'I' for Inactive)
REMARK    1  A    between atoms: C2_2  and  C3_3 
REMARK    2  A    between atoms: C2_2  and  N2_11 
REMARK       I    between atoms: C3_3  and  N1_5 
REMARK    3  A    between atoms: C10_14  and  N3_15 
REMARK    4  A    between atoms: N3_15  and  S1_17 
REMARK    5  A    between atoms: S1_17  and  C11_20 
REMARK    6  A    between atoms: C12_21  and  C13_22 
ROOT
HETATM    1  N2  UNL     1       7.509   9.464  19.737  1.00  0.00    -0.337 N 
HETATM    2  C8  UNL     1       6.789  10.334  18.825  1.00  0.00     0.129 C 
HETATM    3  C9  UNL     1       5.679   9.382  18.359  1.00  0.00     0.055 C 
HETATM    4  C10 UNL     1       6.499   8.117  18.110  1.00  0.00     0.186 C 
HETATM    5  C19 UNL     1       7.393   8.118  19.294  1.00  0.00     0.244 C 
HETATM    6  O5  UNL     1       7.966   7.129  19.838  1.00  0.00    -0.271 OA
ENDROOT
BRANCH   4   7
HETATM    7  N3  UNL     1       5.662   6.952  18.043  1.00  0.00    -0.302 N 
ATOM      8  H3  UNL     1       5.059   6.604  18.789  1.00  0.00     0.173 HD
BRANCH   7   9
HETATM    9  S1  UNL     1       5.854   6.240  16.481  1.00  0.00     0.249 S 
HETATM   10  O3  UNL     1       6.504   7.224  15.532  1.00  0.00    -0.201 OA
HETATM   11  O4  UNL     1       4.496   5.946  15.909  1.00  0.00    -0.201 OA
BRANCH   9  12
HETATM   12  C11 UNL     1       6.867   4.833  16.520  1.00  0.00     0.132 C 
HETATM   13  C12 UNL     1       7.444   4.449  17.635  1.00  0.00     0.025 C 
BRANCH  13  14
HETATM   14  C13 UNL     1       8.307   3.274  17.734  1.00  0.00    -0.035 A 
HETATM   15  C14 UNL     1       9.198   2.970  16.696  1.00  0.00     0.013 A 
HETATM   16  C15 UNL     1      10.024   1.874  16.753  1.00  0.00     0.024 A 
HETATM   17  C16 UNL     1      10.022   1.015  17.829  1.00  0.00     0.034 A 
HETATM   18 CL1  UNL     1      11.083  -0.380  17.886  1.00  0.00    -0.084 Cl
HETATM   19  C17 UNL     1       9.155   1.294  18.859  1.00  0.00     0.024 A 
HETATM   20  C18 UNL     1       8.311   2.411  18.806  1.00  0.00     0.013 A 
ENDBRANCH  13  14
ENDBRANCH   9  12
ENDBRANCH   7   9
ENDBRANCH   4   7
BRANCH   1  21
HETATM   21  C2  UNL     1       8.217   9.991  20.913  1.00  0.00     0.175 C 
HETATM   22  C1  UNL     1       8.095  11.491  20.856  1.00  0.00     0.042 C 
BRANCH  21  23
HETATM   23  C3  UNL     1       7.632   9.465  22.159  1.00  0.00     0.242 C 
HETATM   24  O1  UNL     1       6.439   9.685  22.481  1.00  0.00    -0.271 OA
HETATM   25  N1  UNL     1       8.430   8.686  23.023  1.00  0.00    -0.346 N 
HETATM   26  C4  UNL     1       9.819   8.343  22.784  1.00  0.00     0.152 C 
HETATM   27  C7  UNL     1       7.879   8.145  24.279  1.00  0.00     0.152 C 
HETATM   28  C5  UNL     1      10.606   8.806  24.005  1.00  0.00     0.187 C 
HETATM   29  O2  UNL     1      10.157   7.977  25.060  1.00  0.00    -0.388 OA
HETATM   30  C6  UNL     1       8.867   8.393  25.389  1.00  0.00     0.187 C 
ENDBRANCH  21  23
ENDBRANCH   1  21
TORSDOF 6
ENDMDL
