MODEL 6
REMARK VINA RESULT: -8.667749965      1.316      1.777
REMARK  6 active torsions:
REMARK  status: ('A' for Active; 'I' for Inactive)
REMARK    1  A    between atoms: C2_2  and  C3_3 
REMARK    2  A    between atoms: C2_2  and  N2_11 
REMARK       I    between atoms: C3_3  and  N1_5 
REMARK    3  A    between atoms: C10_14  and  N3_15 
REMARK    4  A    between atoms: N3_15  and  S1_17 
REMARK    5  A    between atoms: S1_17  and  C11_20 
REMARK    6  A    between atoms: C12_21  and  C13_22 
ROOT
HETATM    1  N2  UNL     1       7.920   8.999  21.272  1.00  0.00    -0.337 N 
HETATM    2  C8  UNL     1       7.004  10.023  20.805  1.00  0.00     0.129 C 
HETATM    3  C9  UNL     1       5.836   9.148  20.331  1.00  0.00     0.055 C 
HETATM    4  C10 UNL     1       6.604   8.063  19.578  1.00  0.00     0.186 C 
HETATM    5  C19 UNL     1       7.735   7.815  20.507  1.00  0.00     0.244 C 
HETATM    6  O5  UNL     1       8.429   6.764  20.626  1.00  0.00    -0.271 OA
ENDROOT
BRANCH   4   7
HETATM    7  N3  UNL     1       5.792   6.897  19.363  1.00  0.00    -0.302 N 
ATOM      8  H3  UNL     1       5.224   6.425  20.067  1.00  0.00     0.173 HD
BRANCH   7   9
HETATM    9  S1  UNL     1       5.947   6.432  17.707  1.00  0.00     0.249 S 
HETATM   10  O3  UNL     1       6.627   7.527  16.915  1.00  0.00    -0.201 OA
HETATM   11  O4  UNL     1       4.574   6.280  17.113  1.00  0.00    -0.201 OA
BRANCH   9  12
HETATM   12  C11 UNL     1       6.905   4.999  17.513  1.00  0.00     0.132 C 
HETATM   13  C12 UNL     1       7.607   4.518  18.513  1.00  0.00     0.025 C 
BRANCH  13  14
HETATM   14  C13 UNL     1       8.433   3.317  18.415  1.00  0.00    -0.035 A 
HETATM   15  C14 UNL     1       9.582   3.321  17.611  1.00  0.00     0.013 A 
HETATM   16  C15 UNL     1      10.382   2.211  17.493  1.00  0.00     0.024 A 
HETATM   17  C16 UNL     1      10.103   1.036  18.155  1.00  0.00     0.034 A 
HETATM   18 CL1  UNL     1      11.136  -0.372  17.994  1.00  0.00    -0.084 Cl
HETATM   19  C17 UNL     1       8.981   1.011  18.950  1.00  0.00     0.024 A 
HETATM   20  C18 UNL     1       8.161   2.140  19.073  1.00  0.00     0.013 A 
ENDBRANCH  13  14
ENDBRANCH   9  12
ENDBRANCH   7   9
ENDBRANCH   4   7
BRANCH   1  21
HETATM   21  C2  UNL     1       8.859   9.245  22.378  1.00  0.00     0.175 C 
HETATM   22  C1  UNL     1       8.727  10.700  22.741  1.00  0.00     0.042 C 
BRANCH  21  23
HETATM   23  C3  UNL     1       8.546   8.387  23.534  1.00  0.00     0.242 C 
HETATM   24  O1  UNL     1       7.390   7.951  23.748  1.00  0.00    -0.271 OA
HETATM   25  N1  UNL     1       9.576   8.036  24.433  1.00  0.00    -0.346 N 
HETATM   26  C4  UNL     1      10.959   8.456  24.314  1.00  0.00     0.152 C 
HETATM   27  C7  UNL     1       9.300   7.181  25.601  1.00  0.00     0.152 C 
HETATM   28  C5  UNL     1      11.329   9.137  25.627  1.00  0.00     0.187 C 
HETATM   29  O2  UNL     1      11.299   8.103  26.592  1.00  0.00    -0.388 OA
HETATM   30  C6  UNL     1       9.958   7.787  26.813  1.00  0.00     0.187 C 
ENDBRANCH  21  23
ENDBRANCH   1  21
TORSDOF 6
ENDMDL
