MODEL 9
REMARK VINA RESULT: -8.594927322      3.674      8.077
REMARK  6 active torsions:
REMARK  status: ('A' for Active; 'I' for Inactive)
REMARK    1  A    between atoms: C2_2  and  C3_3 
REMARK    2  A    between atoms: C2_2  and  N2_11 
REMARK       I    between atoms: C3_3  and  N1_5 
REMARK    3  A    between atoms: C10_14  and  N3_15 
REMARK    4  A    between atoms: N3_15  and  S1_17 
REMARK    5  A    between atoms: S1_17  and  C11_20 
REMARK    6  A    between atoms: C12_21  and  C13_22 
ROOT
HETATM    1  N2  UNL     1       5.605   4.014  20.164  1.00  0.00    -0.337 N 
HETATM    2  C8  UNL     1       4.224   4.267  20.527  1.00  0.00     0.129 C 
HETATM    3  C9  UNL     1       4.225   5.802  20.551  1.00  0.00     0.055 C 
HETATM    4  C10 UNL     1       5.529   6.056  21.305  1.00  0.00     0.186 C 
HETATM    5  C19 UNL     1       6.426   5.058  20.672  1.00  0.00     0.244 C 
HETATM    6  O5  UNL     1       7.688   5.093  20.580  1.00  0.00    -0.271 OA
ENDROOT
BRANCH   4   7
HETATM    7  N3  UNL     1       5.984   7.407  21.130  1.00  0.00    -0.302 N 
ATOM      8  H3  UNL     1       6.145   7.873  20.237  1.00  0.00     0.173 HD
BRANCH   7   9
HETATM    9  S1  UNL     1       6.211   8.106  22.694  1.00  0.00     0.249 S 
HETATM   10  O3  UNL     1       5.198   7.548  23.670  1.00  0.00    -0.201 OA
HETATM   11  O4  UNL     1       5.941   9.582  22.611  1.00  0.00    -0.201 OA
BRANCH   9  12
HETATM   12  C11 UNL     1       7.781   7.763  23.345  1.00  0.00     0.132 C 
HETATM   13  C12 UNL     1       8.231   8.410  24.394  1.00  0.00     0.025 C 
BRANCH  13  14
HETATM   14  C13 UNL     1       9.543   8.169  24.991  1.00  0.00    -0.035 A 
HETATM   15  C14 UNL     1      10.700   8.633  24.349  1.00  0.00     0.013 A 
HETATM   16  C15 UNL     1      11.950   8.425  24.878  1.00  0.00     0.024 A 
HETATM   17  C16 UNL     1      12.137   7.750  26.064  1.00  0.00     0.034 A 
HETATM   18 CL1  UNL     1      13.740   7.493  26.726  1.00  0.00    -0.084 Cl
HETATM   19  C17 UNL     1      11.015   7.287  26.710  1.00  0.00     0.024 A 
HETATM   20  C18 UNL     1       9.738   7.496  26.175  1.00  0.00     0.013 A 
ENDBRANCH  13  14
ENDBRANCH   9  12
ENDBRANCH   7   9
ENDBRANCH   4   7
BRANCH   1  21
HETATM   21  C2  UNL     1       5.996   2.829  19.385  1.00  0.00     0.175 C 
HETATM   22  C1  UNL     1       4.733   2.063  19.099  1.00  0.00     0.042 C 
BRANCH  21  23
HETATM   23  C3  UNL     1       6.667   3.221  18.133  1.00  0.00     0.242 C 
HETATM   24  O1  UNL     1       6.054   3.791  17.198  1.00  0.00    -0.271 OA
HETATM   25  N1  UNL     1       8.043   2.953  17.970  1.00  0.00    -0.346 N 
HETATM   26  C4  UNL     1       8.883   2.308  18.962  1.00  0.00     0.152 C 
HETATM   27  C7  UNL     1       8.745   3.328  16.731  1.00  0.00     0.152 C 
HETATM   28  C5  UNL     1       9.530   1.107  18.280  1.00  0.00     0.187 C 
HETATM   29  O2  UNL     1      10.397   1.665  17.311  1.00  0.00    -0.388 OA
HETATM   30  C6  UNL     1       9.597   2.168  16.285  1.00  0.00     0.187 C 
ENDBRANCH  21  23
ENDBRANCH   1  21
TORSDOF 6
ENDMDL
