MODEL 10
REMARK VINA RESULT: -8.534661281      3.585      8.042
REMARK  6 active torsions:
REMARK  status: ('A' for Active; 'I' for Inactive)
REMARK    1  A    between atoms: C2_2  and  C3_3 
REMARK    2  A    between atoms: C2_2  and  N2_11 
REMARK       I    between atoms: C3_3  and  N1_5 
REMARK    3  A    between atoms: C10_14  and  N3_15 
REMARK    4  A    between atoms: N3_15  and  S1_17 
REMARK    5  A    between atoms: S1_17  and  C11_20 
REMARK    6  A    between atoms: C12_21  and  C13_22 
ROOT
HETATM    1  N2  UNL     1       6.228   5.228  19.991  1.00  0.00    -0.337 N 
HETATM    2  C8  UNL     1       4.832   4.991  20.304  1.00  0.00     0.129 C 
HETATM    3  C9  UNL     1       4.438   6.367  20.856  1.00  0.00     0.055 C 
HETATM    4  C10 UNL     1       5.640   6.647  21.757  1.00  0.00     0.186 C 
HETATM    5  C19 UNL     1       6.757   6.190  20.894  1.00  0.00     0.244 C 
HETATM    6  O5  UNL     1       7.967   6.562  20.925  1.00  0.00    -0.271 OA
ENDROOT
BRANCH   4   7
HETATM    7  N3  UNL     1       5.730   8.040  22.097  1.00  0.00    -0.302 N 
ATOM      8  H3  UNL     1       5.692   8.820  21.440  1.00  0.00     0.173 HD
BRANCH   7   9
HETATM    9  S1  UNL     1       5.914   8.165  23.810  1.00  0.00     0.249 S 
HETATM   10  O3  UNL     1       4.937   7.246  24.512  1.00  0.00    -0.201 OA
HETATM   11  O4  UNL     1       5.554   9.560  24.238  1.00  0.00    -0.201 OA
BRANCH   9  12
HETATM   12  C11 UNL     1       7.502   7.709  24.335  1.00  0.00     0.132 C 
HETATM   13  C12 UNL     1       8.366   8.614  24.733  1.00  0.00     0.025 C 
BRANCH  13  14
HETATM   14  C13 UNL     1       9.718   8.295  25.187  1.00  0.00    -0.035 A 
HETATM   15  C14 UNL     1      10.825   8.709  24.434  1.00  0.00     0.013 A 
HETATM   16  C15 UNL     1      12.110   8.428  24.828  1.00  0.00     0.024 A 
HETATM   17  C16 UNL     1      12.383   7.726  25.981  1.00  0.00     0.034 A 
HETATM   18 CL1  UNL     1      14.030   7.376  26.470  1.00  0.00    -0.084 Cl
HETATM   19  C17 UNL     1      11.311   7.311  26.735  1.00  0.00     0.024 A 
HETATM   20  C18 UNL     1       9.998   7.595  26.338  1.00  0.00     0.013 A 
ENDBRANCH  13  14
ENDBRANCH   9  12
ENDBRANCH   7   9
ENDBRANCH   4   7
BRANCH   1  21
HETATM   21  C2  UNL     1       6.904   4.530  18.886  1.00  0.00     0.175 C 
HETATM   22  C1  UNL     1       7.781   5.546  18.205  1.00  0.00     0.042 C 
BRANCH  21  23
HETATM   23  C3  UNL     1       7.703   3.400  19.388  1.00  0.00     0.242 C 
HETATM   24  O1  UNL     1       8.000   3.279  20.601  1.00  0.00    -0.271 OA
HETATM   25  N1  UNL     1       8.154   2.414  18.484  1.00  0.00    -0.346 N 
HETATM   26  C4  UNL     1       7.887   2.414  17.058  1.00  0.00     0.152 C 
HETATM   27  C7  UNL     1       8.958   1.271  18.950  1.00  0.00     0.152 C 
HETATM   28  C5  UNL     1       9.237   2.335  16.355  1.00  0.00     0.187 C 
HETATM   29  O2  UNL     1       9.737   1.051  16.676  1.00  0.00    -0.388 OA
HETATM   30  C6  UNL     1      10.124   1.084  18.015  1.00  0.00     0.187 C 
ENDBRANCH  21  23
ENDBRANCH   1  21
TORSDOF 6
ENDMDL
