MODEL 1
REMARK VINA RESULT: -9.591027255      0.000      0.000
REMARK  6 active torsions:
REMARK  status: ('A' for Active; 'I' for Inactive)
REMARK    1  A    between atoms: C2_2  and  C3_3 
REMARK    2  A    between atoms: C2_2  and  N2_11 
REMARK       I    between atoms: C3_3  and  N1_5 
REMARK    3  A    between atoms: C10_14  and  N3_15 
REMARK    4  A    between atoms: N3_15  and  S1_17 
REMARK    5  A    between atoms: S1_17  and  C11_20 
REMARK    6  A    between atoms: C12_21  and  C13_22 
ROOT
HETATM    1  N2  UNL     1       8.136   8.768  22.685  1.00  0.00    -0.337 N 
HETATM    2  C8  UNL     1       7.606   9.998  22.128  1.00  0.00     0.129 C 
HETATM    3  C9  UNL     1       6.445   9.442  21.294  1.00  0.00     0.055 C 
HETATM    4  C10 UNL     1       7.138   8.252  20.633  1.00  0.00     0.186 C 
HETATM    5  C19 UNL     1       7.913   7.702  21.772  1.00  0.00     0.244 C 
HETATM    6  O5  UNL     1       8.318   6.514  21.937  1.00  0.00    -0.271 OA
ENDROOT
BRANCH   4   7
HETATM    7  N3  UNL     1       6.186   7.316  20.102  1.00  0.00    -0.302 N 
ATOM      8  H3  UNL     1       5.455   6.840  20.631  1.00  0.00     0.173 HD
BRANCH   7   9
HETATM    9  S1  UNL     1       6.492   7.137  18.411  1.00  0.00     0.249 S 
HETATM   10  O3  UNL     1       7.351   8.278  17.909  1.00  0.00    -0.201 OA
HETATM   11  O4  UNL     1       5.190   7.238  17.667  1.00  0.00    -0.201 OA
BRANCH   9  12
HETATM   12  C11 UNL     1       7.341   5.669  18.049  1.00  0.00     0.132 C 
HETATM   13  C12 UNL     1       7.721   4.856  19.008  1.00  0.00     0.025 C 
BRANCH  13  14
HETATM   14  C13 UNL     1       8.437   3.605  18.769  1.00  0.00    -0.035 A 
HETATM   15  C14 UNL     1       9.561   3.591  17.930  1.00  0.00     0.013 A 
HETATM   16  C15 UNL     1      10.259   2.436  17.682  1.00  0.00     0.024 A 
HETATM   17  C16 UNL     1       9.897   1.230  18.240  1.00  0.00     0.034 A 
HETATM   18 CL1  UNL     1      10.801  -0.237  17.913  1.00  0.00    -0.084 Cl
HETATM   19  C17 UNL     1       8.798   1.221  19.066  1.00  0.00     0.024 A 
HETATM   20  C18 UNL     1       8.082   2.397  19.323  1.00  0.00     0.013 A 
ENDBRANCH  13  14
ENDBRANCH   9  12
ENDBRANCH   7   9
ENDBRANCH   4   7
BRANCH   1  21
HETATM   21  C2  UNL     1       8.787   8.733  24.004  1.00  0.00     0.175 C 
HETATM   22  C1  UNL     1       8.304   7.484  24.692  1.00  0.00     0.042 C 
BRANCH  21  23
HETATM   23  C3  UNL     1      10.254   8.722  23.867  1.00  0.00     0.242 C 
HETATM   24  O1  UNL     1      10.822   8.876  22.760  1.00  0.00    -0.271 OA
HETATM   25  N1  UNL     1      11.055   8.534  25.014  1.00  0.00    -0.346 N 
HETATM   26  C4  UNL     1      10.545   8.349  26.360  1.00  0.00     0.152 C 
HETATM   27  C7  UNL     1      12.525   8.514  24.915  1.00  0.00     0.152 C 
HETATM   28  C5  UNL     1      11.140   7.047  26.883  1.00  0.00     0.187 C 
HETATM   29  O2  UNL     1      12.526   7.306  27.005  1.00  0.00    -0.388 OA
HETATM   30  C6  UNL     1      13.050   7.350  25.713  1.00  0.00     0.187 C 
ENDBRANCH  21  23
ENDBRANCH   1  21
TORSDOF 6
ENDMDL
