MODEL 3
REMARK VINA RESULT: -8.986267760      3.629      7.878
REMARK  6 active torsions:
REMARK  status: ('A' for Active; 'I' for Inactive)
REMARK    1  A    between atoms: C2_2  and  C3_3 
REMARK    2  A    between atoms: C2_2  and  N2_11 
REMARK       I    between atoms: C3_3  and  N1_5 
REMARK    3  A    between atoms: C10_14  and  N3_15 
REMARK    4  A    between atoms: N3_15  and  S1_17 
REMARK    5  A    between atoms: S1_17  and  C11_20 
REMARK    6  A    between atoms: C12_21  and  C13_22 
ROOT
HETATM    1  N2  UNL     1       6.456   4.338  20.616  1.00  0.00    -0.337 N 
HETATM    2  C8  UNL     1       5.072   4.383  21.048  1.00  0.00     0.129 C 
HETATM    3  C9  UNL     1       4.655   5.750  20.489  1.00  0.00     0.055 C 
HETATM    4  C10 UNL     1       5.867   6.586  20.898  1.00  0.00     0.186 C 
HETATM    5  C19 UNL     1       6.978   5.660  20.569  1.00  0.00     0.244 C 
HETATM    6  O5  UNL     1       8.179   5.951  20.293  1.00  0.00    -0.271 OA
ENDROOT
BRANCH   4   7
HETATM    7  N3  UNL     1       5.929   7.818  20.162  1.00  0.00    -0.302 N 
ATOM      8  H3  UNL     1       5.872   7.913  19.148  1.00  0.00     0.173 HD
BRANCH   7   9
HETATM    9  S1  UNL     1       6.119   9.111  21.292  1.00  0.00     0.249 S 
HETATM   10  O3  UNL     1       4.774   9.517  21.856  1.00  0.00    -0.201 OA
HETATM   11  O4  UNL     1       6.648  10.317  20.568  1.00  0.00    -0.201 OA
BRANCH   9  12
HETATM   12  C11 UNL     1       7.117   8.666  22.638  1.00  0.00     0.132 C 
HETATM   13  C12 UNL     1       8.406   8.914  22.632  1.00  0.00     0.025 C 
BRANCH  13  14
HETATM   14  C13 UNL     1       9.302   8.566  23.733  1.00  0.00    -0.035 A 
HETATM   15  C14 UNL     1       8.802   7.885  24.852  1.00  0.00     0.013 A 
HETATM   16  C15 UNL     1       9.611   7.541  25.907  1.00  0.00     0.024 A 
HETATM   17  C16 UNL     1      10.955   7.845  25.925  1.00  0.00     0.034 A 
HETATM   18 CL1  UNL     1      11.975   7.399  27.280  1.00  0.00    -0.084 Cl
HETATM   19  C17 UNL     1      11.465   8.513  24.837  1.00  0.00     0.024 A 
HETATM   20  C18 UNL     1      10.644   8.866  23.758  1.00  0.00     0.013 A 
ENDBRANCH  13  14
ENDBRANCH   9  12
ENDBRANCH   7   9
ENDBRANCH   4   7
BRANCH   1  21
HETATM   21  C2  UNL     1       7.127   3.069  20.296  1.00  0.00     0.175 C 
HETATM   22  C1  UNL     1       6.568   2.035  21.236  1.00  0.00     0.042 C 
BRANCH  21  23
HETATM   23  C3  UNL     1       6.887   2.686  18.893  1.00  0.00     0.242 C 
HETATM   24  O1  UNL     1       5.779   2.248  18.501  1.00  0.00    -0.271 OA
HETATM   25  N1  UNL     1       7.931   2.815  17.952  1.00  0.00    -0.346 N 
HETATM   26  C4  UNL     1       9.261   3.311  18.253  1.00  0.00     0.152 C 
HETATM   27  C7  UNL     1       7.729   2.440  16.542  1.00  0.00     0.152 C 
HETATM   28  C5  UNL     1      10.246   2.242  17.795  1.00  0.00     0.187 C 
HETATM   29  O2  UNL     1      10.128   2.222  16.385  1.00  0.00    -0.388 OA
HETATM   30  C6  UNL     1       8.906   1.620  16.084  1.00  0.00     0.187 C 
ENDBRANCH  21  23
ENDBRANCH   1  21
TORSDOF 6
ENDMDL
