MODEL 5
REMARK VINA RESULT: -10.531753204      2.021      6.422
REMARK  2 active torsions:
REMARK  status: ('A' for Active; 'I' for Inactive)
REMARK    1  A    between atoms: C2_7  and  C3_8 
REMARK    2  A    between atoms: C7_16  and  C8_17 
ROOT
HETATM    1  C3  UNL     1      12.690   3.212 199.728  1.00  0.00     0.046 A 
HETATM    2  C4  UNL     1      12.171   2.993 200.989  1.00  0.00     0.106 A 
HETATM    3  N4  UNL     1      12.137   1.668 201.216  1.00  0.00    -0.351 N 
ATOM      4  H4  UNL     1      11.800   1.218 202.067  1.00  0.00     0.166 HD
HETATM    5  C5  UNL     1      12.623   1.034 200.125  1.00  0.00     0.116 A 
HETATM    6  N5  UNL     1      12.803  -0.251 199.838  1.00  0.00    -0.351 N 
ATOM      7  H5  UNL     1      12.545  -0.955 200.530  1.00  0.00     0.166 HD
HETATM    8  C6  UNL     1      13.318  -0.649 198.655  1.00  0.00     0.102 A 
HETATM    9  C7  UNL     1      13.692   0.240 197.667  1.00  0.00    -0.007 A 
HETATM   10  C16 UNL     1      13.506   1.579 197.959  1.00  0.00     0.030 A 
HETATM   11  C17 UNL     1      12.979   1.971 199.176  1.00  0.00     0.025 A 
ENDROOT
BRANCH   9  12
HETATM   12  C8  UNL     1      14.250  -0.175 196.384  1.00  0.00     0.003 A 
HETATM   13  C9  UNL     1      14.697  -1.430 196.010  1.00  0.00     0.101 A 
HETATM   14  N6  UNL     1      15.140  -1.410 194.747  1.00  0.00    -0.364 N 
HETATM   15  C10 UNL     1      14.997  -0.162 194.265  1.00  0.00     0.043 A 
ATOM     16  H6  UNL     1      15.522  -2.206 194.236  1.00  0.00     0.165 HD
HETATM   17  C11 UNL     1      15.306   0.346 193.033  1.00  0.00     0.030 A 
HETATM   18  C15 UNL     1      14.442   0.624 195.277  1.00  0.00     0.003 A 
HETATM   19  C12 UNL     1      15.065   1.673 192.777  1.00  0.00     0.002 A 
HETATM   20  C13 UNL     1      14.516   2.448 193.777  1.00  0.00     0.001 A 
HETATM   21  C14 UNL     1      14.198   1.952 195.023  1.00  0.00     0.014 A 
ENDBRANCH   9  12
BRANCH   1  22
HETATM   22  C2  UNL     1      12.915   4.486 199.050  1.00  0.00     0.178 A 
HETATM   23  N3  UNL     1      12.915   5.708 199.607  1.00  0.00    -0.276 N 
HETATM   24  N2  UNL     1      13.159   6.601 198.649  1.00  0.00    -0.265 N 
ATOM     25  H3  UNL     1      12.756   5.916 200.593  1.00  0.00     0.189 HD
HETATM   26  C1  UNL     1      13.311   5.921 197.484  1.00  0.00     0.253 A 
ATOM     27  H2  UNL     1      13.220   7.611 198.770  1.00  0.00     0.190 HD
HETATM   28  N1  UNL     1      13.582   6.532 196.242  1.00  0.00    -0.054 NA
HETATM   29  O1  UNL     1      13.155   4.652 197.776  1.00  0.00    -0.261 OA
ENDBRANCH   1  22
TORSDOF 2
ENDMDL
