MODEL 1
REMARK VINA RESULT: -12.138180854      0.000      0.000
REMARK  2 active torsions:
REMARK  status: ('A' for Active; 'I' for Inactive)
REMARK    1  A    between atoms: C2_7  and  C3_8 
REMARK    2  A    between atoms: C7_16  and  C8_17 
ROOT
HETATM    1  C3  UNL     1      14.361   0.501 195.678  1.00  0.00     0.046 A 
HETATM    2  C4  UNL     1      14.709  -0.819 195.465  1.00  0.00     0.106 A 
HETATM    3  N4  UNL     1      14.479  -1.511 196.595  1.00  0.00    -0.351 N 
ATOM      4  H4  UNL     1      14.645  -2.509 196.727  1.00  0.00     0.166 HD
HETATM    5  C5  UNL     1      13.990  -0.662 197.527  1.00  0.00     0.116 A 
HETATM    6  N5  UNL     1      13.607  -0.834 198.787  1.00  0.00    -0.351 N 
ATOM      7  H5  UNL     1      13.666  -1.765 199.202  1.00  0.00     0.166 HD
HETATM    8  C6  UNL     1      13.143   0.191 199.534  1.00  0.00     0.102 A 
HETATM    9  C7  UNL     1      13.033   1.479 199.050  1.00  0.00    -0.007 A 
HETATM   10  C16 UNL     1      13.431   1.665 197.738  1.00  0.00     0.030 A 
HETATM   11  C17 UNL     1      13.904   0.605 196.986  1.00  0.00     0.025 A 
ENDROOT
BRANCH   9  12
HETATM   12  C8  UNL     1      12.533   2.595 199.845  1.00  0.00     0.003 A 
HETATM   13  C9  UNL     1      12.926   3.921 199.800  1.00  0.00     0.101 A 
HETATM   14  N6  UNL     1      12.231   4.643 200.688  1.00  0.00    -0.364 N 
HETATM   15  C10 UNL     1      11.377   3.825 201.328  1.00  0.00     0.043 A 
ATOM     16  H6  UNL     1      12.333   5.645 200.852  1.00  0.00     0.165 HD
HETATM   17  C11 UNL     1      10.467   4.098 202.312  1.00  0.00     0.030 A 
HETATM   18  C15 UNL     1      11.553   2.539 200.813  1.00  0.00     0.003 A 
HETATM   19  C12 UNL     1       9.699   3.077 202.814  1.00  0.00     0.002 A 
HETATM   20  C13 UNL     1       9.874   1.808 202.304  1.00  0.00     0.001 A 
HETATM   21  C14 UNL     1      10.785   1.516 201.313  1.00  0.00     0.014 A 
ENDBRANCH   9  12
BRANCH   1  22
HETATM   22  C2  UNL     1      14.437   1.620 194.742  1.00  0.00     0.178 A 
HETATM   23  N3  UNL     1      14.623   1.550 193.414  1.00  0.00    -0.276 N 
HETATM   24  N2  UNL     1      14.632   2.791 192.930  1.00  0.00    -0.265 N 
ATOM     25  H3  UNL     1      14.738   0.694 192.870  1.00  0.00     0.189 HD
HETATM   26  C1  UNL     1      14.450   3.639 193.974  1.00  0.00     0.253 A 
ATOM     27  H2  UNL     1      14.754   3.055 191.953  1.00  0.00     0.190 HD
HETATM   28  N1  UNL     1      14.402   5.043 193.852  1.00  0.00    -0.054 NA
HETATM   29  O1  UNL     1      14.338   2.888 195.043  1.00  0.00    -0.261 OA
ENDBRANCH   1  22
TORSDOF 2
ENDMDL
