MODEL 2
REMARK VINA RESULT: -10.640661647      2.314      6.476
REMARK  2 active torsions:
REMARK  status: ('A' for Active; 'I' for Inactive)
REMARK    1  A    between atoms: C2_7  and  C3_8 
REMARK    2  A    between atoms: C7_16  and  C8_17 
ROOT
HETATM    1  C3  UNL     1      12.400   3.872 199.984  1.00  0.00     0.046 A 
HETATM    2  C4  UNL     1      11.892   3.678 201.254  1.00  0.00     0.106 A 
HETATM    3  N4  UNL     1      11.861   2.357 201.507  1.00  0.00    -0.351 N 
ATOM      4  H4  UNL     1      11.532   1.924 202.370  1.00  0.00     0.166 HD
HETATM    5  C5  UNL     1      12.340   1.702 200.426  1.00  0.00     0.116 A 
HETATM    6  N5  UNL     1      12.518   0.411 200.163  1.00  0.00    -0.351 N 
ATOM      7  H5  UNL     1      12.267  -0.279 200.870  1.00  0.00     0.166 HD
HETATM    8  C6  UNL     1      13.024  -0.009 198.983  1.00  0.00     0.102 A 
HETATM    9  C7  UNL     1      13.388   0.860 197.974  1.00  0.00    -0.007 A 
HETATM   10  C16 UNL     1      13.204   2.205 198.241  1.00  0.00     0.030 A 
HETATM   11  C17 UNL     1      12.686   2.620 199.454  1.00  0.00     0.025 A 
ENDROOT
BRANCH   9  12
HETATM   12  C8  UNL     1      13.936   0.420 196.695  1.00  0.00     0.003 A 
HETATM   13  C9  UNL     1      14.297  -0.860 196.313  1.00  0.00     0.101 A 
HETATM   14  N6  UNL     1      14.761  -0.858 195.058  1.00  0.00    -0.364 N 
HETATM   15  C10 UNL     1      14.717   0.402 194.589  1.00  0.00     0.043 A 
ATOM     16  H6  UNL     1      15.093  -1.674 194.543  1.00  0.00     0.165 HD
HETATM   17  C11 UNL     1      15.082   0.900 193.368  1.00  0.00     0.030 A 
HETATM   18  C15 UNL     1      14.203   1.215 195.601  1.00  0.00     0.003 A 
HETATM   19  C12 UNL     1      14.941   2.244 193.125  1.00  0.00     0.002 A 
HETATM   20  C13 UNL     1      14.433   3.045 194.126  1.00  0.00     0.001 A 
HETATM   21  C14 UNL     1      14.061   2.560 195.360  1.00  0.00     0.014 A 
ENDBRANCH   9  12
BRANCH   1  22
HETATM   22  C2  UNL     1      12.618   5.132 199.279  1.00  0.00     0.178 A 
HETATM   23  N3  UNL     1      13.459   5.348 198.253  1.00  0.00    -0.276 N 
HETATM   24  N2  UNL     1      13.360   6.628 197.899  1.00  0.00    -0.265 N 
ATOM     25  H3  UNL     1      14.068   4.652 197.822  1.00  0.00     0.189 HD
HETATM   26  C1  UNL     1      12.446   7.211 198.716  1.00  0.00     0.253 A 
ATOM     27  H2  UNL     1      13.876   7.086 197.148  1.00  0.00     0.190 HD
HETATM   28  N1  UNL     1      12.073   8.569 198.643  1.00  0.00    -0.054 NA
HETATM   29  O1  UNL     1      12.029   6.271 199.529  1.00  0.00    -0.261 OA
ENDBRANCH   1  22
TORSDOF 2
ENDMDL
