MODEL 3
REMARK VINA RESULT: -10.638131251      2.263      7.143
REMARK  2 active torsions:
REMARK  status: ('A' for Active; 'I' for Inactive)
REMARK    1  A    between atoms: C2_7  and  C3_8 
REMARK    2  A    between atoms: C7_16  and  C8_17 
ROOT
HETATM    1  C3  UNL     1      13.179   5.402 197.647  1.00  0.00     0.046 A 
HETATM    2  C4  UNL     1      13.144   6.761 197.404  1.00  0.00     0.106 A 
HETATM    3  N4  UNL     1      13.541   6.981 196.138  1.00  0.00    -0.351 N 
ATOM      4  H4  UNL     1      13.612   7.893 195.686  1.00  0.00     0.166 HD
HETATM    5  C5  UNL     1      13.830   5.791 195.565  1.00  0.00     0.116 A 
HETATM    6  N5  UNL     1      14.256   5.457 194.352  1.00  0.00    -0.351 N 
ATOM      7  H5  UNL     1      14.421   6.192 193.664  1.00  0.00     0.166 HD
HETATM    8  C6  UNL     1      14.478   4.170 194.008  1.00  0.00     0.102 A 
HETATM    9  C7  UNL     1      14.281   3.118 194.880  1.00  0.00    -0.007 A 
HETATM   10  C16 UNL     1      13.838   3.460 196.145  1.00  0.00     0.030 A 
HETATM   11  C17 UNL     1      13.614   4.782 196.483  1.00  0.00     0.025 A 
ENDROOT
BRANCH   9  12
HETATM   12  C8  UNL     1      14.517   1.724 194.522  1.00  0.00     0.003 A 
HETATM   13  C9  UNL     1      14.715   1.185 193.263  1.00  0.00     0.101 A 
HETATM   14  N6  UNL     1      14.897  -0.139 193.346  1.00  0.00    -0.364 N 
HETATM   15  C10 UNL     1      14.824  -0.499 194.640  1.00  0.00     0.043 A 
ATOM     16  H6  UNL     1      15.061  -0.769 192.560  1.00  0.00     0.165 HD
HETATM   17  C11 UNL     1      14.946  -1.733 195.218  1.00  0.00     0.030 A 
HETATM   18  C15 UNL     1      14.587   0.655 195.390  1.00  0.00     0.003 A 
HETATM   19  C12 UNL     1      14.831  -1.846 196.581  1.00  0.00     0.002 A 
HETATM   20  C13 UNL     1      14.596  -0.706 197.320  1.00  0.00     0.001 A 
HETATM   21  C14 UNL     1      14.471   0.544 196.754  1.00  0.00     0.014 A 
ENDBRANCH   9  12
BRANCH   1  22
HETATM   22  C2  UNL     1      12.836   4.693 198.877  1.00  0.00     0.178 A 
HETATM   23  N3  UNL     1      12.407   5.235 200.029  1.00  0.00    -0.276 N 
HETATM   24  N2  UNL     1      12.207   4.250 200.902  1.00  0.00    -0.265 N 
ATOM     25  H3  UNL     1      12.261   6.230 200.204  1.00  0.00     0.189 HD
HETATM   26  C1  UNL     1      12.516   3.082 200.282  1.00  0.00     0.253 A 
ATOM     27  H2  UNL     1      11.880   4.354 201.862  1.00  0.00     0.190 HD
HETATM   28  N1  UNL     1      12.428   1.815 200.894  1.00  0.00    -0.054 NA
HETATM   29  O1  UNL     1      12.890   3.401 199.066  1.00  0.00    -0.261 OA
ENDBRANCH   1  22
TORSDOF 2
ENDMDL
