MODEL 3
REMARK VINA RESULT: -10.188131567      4.046     10.528
REMARK  10 active torsions:
REMARK  status: ('A' for Active; 'I' for Inactive)
REMARK    1  A    between atoms: O1_2  and  C2_3 
REMARK       I    between atoms: C2_3  and  N1_5 
REMARK    2  A    between atoms: N1_5  and  C3_7 
REMARK    3  A    between atoms: C6_10  and  C7_11 
REMARK    4  A    between atoms: C8_14  and  C9_15 
REMARK    5  A    between atoms: C9_15  and  C10_16 
REMARK    6  A    between atoms: C9_15  and  N3_23 
REMARK    7  A    between atoms: C10_16  and  C11_17 
REMARK       I    between atoms: N3_23  and  C17_25 
REMARK    8  A    between atoms: C17_25  and  C18_27 
REMARK    9  A    between atoms: C19_28  and  C20_29 
REMARK   10  A    between atoms: C25_35  and  N4_36 
ROOT
HETATM    1  C9  UNL     1      38.286 -17.566  27.041  1.00  0.00     0.157 C 
ENDROOT
BRANCH   1   2
HETATM    2  C8  UNL     1      37.602 -18.179  25.842  1.00  0.00     0.106 A 
HETATM    3  N2  UNL     1      37.397 -19.499  25.657  1.00  0.00    -0.341 N 
HETATM    4  C7  UNL     1      36.769 -19.751  24.475  1.00  0.00     0.083 A 
ATOM      5  H2  UNL     1      37.678 -20.220  26.321  1.00  0.00     0.167 HD
HETATM    6  C27 UNL     1      36.584 -18.522  23.916  1.00  0.00     0.132 A 
HETATM    7  N8  UNL     1      37.095 -17.576  24.757  1.00  0.00    -0.333 N 
HETATM    8 CL2  UNL     1      35.823 -18.188  22.386  1.00  0.00    -0.062 Cl
ATOM      9  H8  UNL     1      37.092 -16.570  24.586  1.00  0.00     0.168 HD
BRANCH   4  10
HETATM   10  C6  UNL     1      36.422 -21.108  24.016  1.00  0.00    -0.006 A 
HETATM   11  C5  UNL     1      37.260 -22.165  24.066  1.00  0.00     0.016 A 
HETATM   12  C4  UNL     1      36.881 -23.417  23.610  1.00  0.00     0.030 A 
HETATM   13  C3  UNL     1      35.608 -23.658  23.070  1.00  0.00     0.036 A 
HETATM   14  C29 UNL     1      34.767 -22.583  23.023  1.00  0.00     0.030 A 
HETATM   15  C28 UNL     1      35.159 -21.341  23.483  1.00  0.00     0.016 A 
BRANCH  13  16
HETATM   16  N1  UNL     1      35.302 -24.967  22.639  1.00  0.00    -0.303 N 
HETATM   17  C2  UNL     1      34.577 -25.915  23.378  1.00  0.00     0.364 C 
HETATM   18  O2  UNL     1      34.128 -25.651  24.513  1.00  0.00    -0.238 OA
ATOM     19  H1  UNL     1      35.635 -25.247  21.717  1.00  0.00     0.171 HD
BRANCH  17  20
HETATM   20  O1  UNL     1      34.318 -27.200  22.881  1.00  0.00    -0.309 OA
HETATM   21  C1  UNL     1      34.880 -28.295  23.568  1.00  0.00     0.215 C 
ENDBRANCH  17  20
ENDBRANCH  13  16
ENDBRANCH   4  10
ENDBRANCH   1   2
BRANCH   1  22
HETATM   22  C10 UNL     1      38.401 -16.091  26.985  1.00  0.00     0.071 C 
BRANCH  22  23
HETATM   23  C11 UNL     1      37.290 -15.357  27.600  1.00  0.00    -0.056 A 
HETATM   24  C12 UNL     1      36.551 -15.969  28.577  1.00  0.00     0.007 A 
HETATM   25  C13 UNL     1      35.504 -15.295  29.159  1.00  0.00     0.001 A 
HETATM   26  C14 UNL     1      35.205 -13.998  28.750  1.00  0.00     0.000 A 
HETATM   27  C15 UNL     1      35.949 -13.387  27.769  1.00  0.00     0.001 A 
HETATM   28  C16 UNL     1      36.989 -14.088  27.205  1.00  0.00     0.007 A 
ENDBRANCH  22  23
ENDBRANCH   1  22
BRANCH   1  29
HETATM   29  N3  UNL     1      39.525 -18.266  27.363  1.00  0.00    -0.346 N 
HETATM   30  C17 UNL     1      39.543 -19.383  28.233  1.00  0.00     0.241 C 
HETATM   31  O3  UNL     1      38.400 -19.715  28.694  1.00  0.00    -0.269 OA
ATOM     32  H3  UNL     1      40.399 -17.943  26.951  1.00  0.00     0.163 HD
BRANCH  30  33
HETATM   33  C18 UNL     1      40.741 -20.141  28.617  1.00  0.00     0.075 C 
HETATM   34  C19 UNL     1      40.716 -21.276  29.248  1.00  0.00     0.019 C 
BRANCH  34  35
HETATM   35  C20 UNL     1      41.774 -22.141  29.703  1.00  0.00    -0.006 A 
HETATM   36  C21 UNL     1      42.840 -21.518  30.420  1.00  0.00     0.037 A 
HETATM   37  C22 UNL     1      43.885 -22.284  30.859  1.00  0.00     0.035 A 
HETATM   38 CL1  UNL     1      45.187 -21.500  31.751  1.00  0.00    -0.084 Cl
HETATM   39  C23 UNL     1      43.952 -23.641  30.636  1.00  0.00     0.026 A 
HETATM   40  C24 UNL     1      42.922 -24.228  29.942  1.00  0.00     0.034 A 
HETATM   41  C25 UNL     1      41.818 -23.472  29.466  1.00  0.00     0.069 A 
BRANCH  41  42
HETATM   42  N4  UNL     1      40.855 -24.170  28.708  1.00  0.00    -0.234 N 
HETATM   43  C26 UNL     1      39.819 -24.944  29.102  1.00  0.00     0.226 A 
HETATM   44  N5  UNL     1      39.268 -25.404  27.970  1.00  0.00    -0.279 N 
HETATM   45  N6  UNL     1      39.906 -24.953  26.907  1.00  0.00    -0.227 N 
ATOM     46  H5  UNL     1      38.459 -26.024  27.934  1.00  0.00     0.189 HD
HETATM   47  N7  UNL     1      40.871 -24.203  27.362  1.00  0.00    -0.220 N 
ATOM     48  H6  UNL     1      39.690 -25.151  25.931  1.00  0.00     0.210 HD
ATOM     49  H7  UNL     1      41.545 -23.709  26.778  1.00  0.00     0.210 HD
ENDBRANCH  41  42
ENDBRANCH  34  35
ENDBRANCH  30  33
ENDBRANCH   1  29
TORSDOF 10
ENDMDL
