MODEL 6
REMARK VINA RESULT: -9.962298862      4.408      8.495
REMARK  10 active torsions:
REMARK  status: ('A' for Active; 'I' for Inactive)
REMARK    1  A    between atoms: O1_2  and  C2_3 
REMARK       I    between atoms: C2_3  and  N1_5 
REMARK    2  A    between atoms: N1_5  and  C3_7 
REMARK    3  A    between atoms: C6_10  and  C7_11 
REMARK    4  A    between atoms: C8_14  and  C9_15 
REMARK    5  A    between atoms: C9_15  and  C10_16 
REMARK    6  A    between atoms: C9_15  and  N3_23 
REMARK    7  A    between atoms: C10_16  and  C11_17 
REMARK       I    between atoms: N3_23  and  C17_25 
REMARK    8  A    between atoms: C17_25  and  C18_27 
REMARK    9  A    between atoms: C19_28  and  C20_29 
REMARK   10  A    between atoms: C25_35  and  N4_36 
ROOT
HETATM    1  C9  UNL     1      40.393 -21.262  28.057  1.00  0.00     0.157 C 
ENDROOT
BRANCH   1   2
HETATM    2  C8  UNL     1      39.672 -21.800  26.843  1.00  0.00     0.106 A 
HETATM    3  N2  UNL     1      38.906 -22.910  26.825  1.00  0.00    -0.341 N 
HETATM    4  C7  UNL     1      38.401 -23.153  25.584  1.00  0.00     0.083 A 
ATOM      5  H2  UNL     1      38.728 -23.495  27.641  1.00  0.00     0.167 HD
HETATM    6  C27 UNL     1      38.884 -22.141  24.812  1.00  0.00     0.132 A 
HETATM    7  N8  UNL     1      39.656 -21.326  25.589  1.00  0.00    -0.333 N 
HETATM    8 CL2  UNL     1      38.581 -21.902  23.113  1.00  0.00    -0.062 Cl
ATOM      9  H8  UNL     1      40.143 -20.489  25.267  1.00  0.00     0.168 HD
BRANCH   4  10
HETATM   10  C6  UNL     1      37.530 -24.302  25.275  1.00  0.00    -0.006 A 
HETATM   11  C5  UNL     1      36.293 -24.198  24.743  1.00  0.00     0.016 A 
HETATM   12  C4  UNL     1      35.516 -25.314  24.484  1.00  0.00     0.030 A 
HETATM   13  C3  UNL     1      35.966 -26.614  24.758  1.00  0.00     0.036 A 
HETATM   14  C29 UNL     1      37.218 -26.711  25.296  1.00  0.00     0.030 A 
HETATM   15  C28 UNL     1      37.982 -25.588  25.548  1.00  0.00     0.016 A 
BRANCH  13  16
HETATM   16  N1  UNL     1      35.111 -27.696  24.452  1.00  0.00    -0.303 N 
HETATM   17  C2  UNL     1      35.113 -28.413  23.246  1.00  0.00     0.364 C 
HETATM   18  O2  UNL     1      35.909 -28.136  22.324  1.00  0.00    -0.238 OA
ATOM     19  H1  UNL     1      34.439 -27.978  25.164  1.00  0.00     0.171 HD
BRANCH  17  20
HETATM   20  O1  UNL     1      34.227 -29.475  23.015  1.00  0.00    -0.309 OA
HETATM   21  C1  UNL     1      34.555 -30.394  21.998  1.00  0.00     0.215 C 
ENDBRANCH  17  20
ENDBRANCH  13  16
ENDBRANCH   4  10
ENDBRANCH   1   2
BRANCH   1  22
HETATM   22  C10 UNL     1      40.314 -22.139  29.246  1.00  0.00     0.071 C 
BRANCH  22  23
HETATM   23  C11 UNL     1      41.603 -22.645  29.731  1.00  0.00    -0.056 A 
HETATM   24  C12 UNL     1      41.921 -23.960  29.519  1.00  0.00     0.007 A 
HETATM   25  C13 UNL     1      43.123 -24.449  29.973  1.00  0.00     0.001 A 
HETATM   26  C14 UNL     1      44.005 -23.604  30.642  1.00  0.00     0.000 A 
HETATM   27  C15 UNL     1      43.681 -22.285  30.853  1.00  0.00     0.001 A 
HETATM   28  C16 UNL     1      42.471 -21.826  30.389  1.00  0.00     0.007 A 
ENDBRANCH  22  23
ENDBRANCH   1  22
BRANCH   1  29
HETATM   29  N3  UNL     1      40.052 -19.864  28.301  1.00  0.00    -0.346 N 
HETATM   30  C17 UNL     1      38.707 -19.424  28.354  1.00  0.00     0.241 C 
HETATM   31  O3  UNL     1      37.841 -20.345  28.178  1.00  0.00    -0.269 OA
ATOM     32  H3  UNL     1      40.802 -19.187  28.438  1.00  0.00     0.163 HD
BRANCH  30  33
HETATM   33  C18 UNL     1      38.275 -18.041  28.587  1.00  0.00     0.075 C 
HETATM   34  C19 UNL     1      37.473 -17.384  27.804  1.00  0.00     0.019 C 
BRANCH  34  35
HETATM   35  C20 UNL     1      36.956 -16.041  27.872  1.00  0.00    -0.006 A 
HETATM   36  C21 UNL     1      35.883 -15.819  28.787  1.00  0.00     0.037 A 
HETATM   37  C22 UNL     1      35.335 -14.569  28.880  1.00  0.00     0.035 A 
HETATM   38 CL1  UNL     1      34.016 -14.312  30.021  1.00  0.00    -0.084 Cl
HETATM   39  C23 UNL     1      35.779 -13.508  28.124  1.00  0.00     0.026 A 
HETATM   40  C24 UNL     1      36.812 -13.735  27.246  1.00  0.00     0.034 A 
HETATM   41  C25 UNL     1      37.409 -15.017  27.114  1.00  0.00     0.069 A 
BRANCH  41  42
HETATM   42  N4  UNL     1      38.413 -15.146  26.132  1.00  0.00    -0.234 N 
HETATM   43  C26 UNL     1      39.716 -15.491  26.247  1.00  0.00     0.226 A 
HETATM   44  N5  UNL     1      40.218 -15.399  25.008  1.00  0.00    -0.279 N 
HETATM   45  N6  UNL     1      39.298 -15.021  24.142  1.00  0.00    -0.227 N 
ATOM     46  H5  UNL     1      41.189 -15.596  24.766  1.00  0.00     0.189 HD
HETATM   47  N7  UNL     1      38.202 -14.868  24.832  1.00  0.00    -0.220 N 
ATOM     48  H6  UNL     1      39.419 -14.878  23.140  1.00  0.00     0.210 HD
ATOM     49  H7  UNL     1      37.307 -14.577  24.439  1.00  0.00     0.210 HD
ENDBRANCH  41  42
ENDBRANCH  34  35
ENDBRANCH  30  33
ENDBRANCH   1  29
TORSDOF 10
ENDMDL
