MODEL 2
REMARK VINA RESULT: -10.514924621      1.323      2.300
REMARK  10 active torsions:
REMARK  status: ('A' for Active; 'I' for Inactive)
REMARK    1  A    between atoms: O1_2  and  C2_3 
REMARK       I    between atoms: C2_3  and  N1_5 
REMARK    2  A    between atoms: N1_5  and  C3_7 
REMARK    3  A    between atoms: C6_10  and  C7_11 
REMARK    4  A    between atoms: C8_14  and  C9_15 
REMARK    5  A    between atoms: C9_15  and  C10_16 
REMARK    6  A    between atoms: C9_15  and  N3_23 
REMARK    7  A    between atoms: C10_16  and  C11_17 
REMARK       I    between atoms: N3_23  and  C17_25 
REMARK    8  A    between atoms: C17_25  and  C18_27 
REMARK    9  A    between atoms: C19_28  and  C20_29 
REMARK   10  A    between atoms: C25_35  and  N4_36 
ROOT
HETATM    1  C9  UNL     1      39.810 -21.058  28.241  1.00  0.00     0.157 C 
ENDROOT
BRANCH   1   2
HETATM    2  C8  UNL     1      41.319 -21.009  28.266  1.00  0.00     0.106 A 
HETATM    3  N2  UNL     1      42.087 -21.292  29.338  1.00  0.00    -0.341 N 
HETATM    4  C7  UNL     1      43.413 -21.145  29.062  1.00  0.00     0.083 A 
ATOM      5  H2  UNL     1      41.720 -21.581  30.244  1.00  0.00     0.167 HD
HETATM    6  C27 UNL     1      43.449 -20.753  27.758  1.00  0.00     0.132 A 
HETATM    7  N8  UNL     1      42.171 -20.673  27.286  1.00  0.00    -0.333 N 
HETATM    8 CL2  UNL     1      44.879 -20.407  26.824  1.00  0.00    -0.062 Cl
ATOM      9  H8  UNL     1      41.906 -20.402  26.339  1.00  0.00     0.168 HD
BRANCH   4  10
HETATM   10  C6  UNL     1      44.478 -21.388  30.051  1.00  0.00    -0.006 A 
HETATM   11  C5  UNL     1      45.391 -20.468  30.428  1.00  0.00     0.016 A 
HETATM   12  C4  UNL     1      46.376 -20.757  31.356  1.00  0.00     0.030 A 
HETATM   13  C3  UNL     1      46.483 -22.021  31.958  1.00  0.00     0.036 A 
HETATM   14  C29 UNL     1      45.556 -22.946  31.571  1.00  0.00     0.030 A 
HETATM   15  C28 UNL     1      44.578 -22.642  30.645  1.00  0.00     0.016 A 
BRANCH  13  16
HETATM   16  N1  UNL     1      47.513 -22.225  32.903  1.00  0.00    -0.303 N 
HETATM   17  C2  UNL     1      48.887 -22.117  32.640  1.00  0.00     0.364 C 
HETATM   18  O2  UNL     1      49.311 -21.813  31.506  1.00  0.00    -0.238 OA
ATOM     19  H1  UNL     1      47.235 -22.472  33.853  1.00  0.00     0.171 HD
BRANCH  17  20
HETATM   20  O1  UNL     1      49.850 -22.341  33.634  1.00  0.00    -0.309 OA
HETATM   21  C1  UNL     1      49.448 -22.213  34.978  1.00  0.00     0.215 C 
ENDBRANCH  17  20
ENDBRANCH  13  16
ENDBRANCH   4  10
ENDBRANCH   1   2
BRANCH   1  22
HETATM   22  C10 UNL     1      39.252 -22.079  27.326  1.00  0.00     0.071 C 
BRANCH  22  23
HETATM   23  C11 UNL     1      39.679 -23.456  27.596  1.00  0.00    -0.056 A 
HETATM   24  C12 UNL     1      40.009 -24.266  26.542  1.00  0.00     0.007 A 
HETATM   25  C13 UNL     1      40.406 -25.561  26.779  1.00  0.00     0.001 A 
HETATM   26  C14 UNL     1      40.469 -26.035  28.087  1.00  0.00     0.000 A 
HETATM   27  C15 UNL     1      40.137 -25.218  29.142  1.00  0.00     0.001 A 
HETATM   28  C16 UNL     1      39.742 -23.929  28.872  1.00  0.00     0.007 A 
ENDBRANCH  22  23
ENDBRANCH   1  22
BRANCH   1  29
HETATM   29  N3  UNL     1      39.235 -19.725  28.097  1.00  0.00    -0.346 N 
HETATM   30  C17 UNL     1      39.216 -18.803  29.172  1.00  0.00     0.241 C 
HETATM   31  O3  UNL     1      39.743 -19.236  30.251  1.00  0.00    -0.269 OA
ATOM     32  H3  UNL     1      38.838 -19.449  27.200  1.00  0.00     0.163 HD
BRANCH  30  33
HETATM   33  C18 UNL     1      38.655 -17.447  29.118  1.00  0.00     0.075 C 
HETATM   34  C19 UNL     1      37.660 -17.098  28.360  1.00  0.00     0.019 C 
BRANCH  34  35
HETATM   35  C20 UNL     1      36.994 -15.834  28.176  1.00  0.00    -0.006 A 
HETATM   36  C21 UNL     1      35.886 -15.568  29.037  1.00  0.00     0.037 A 
HETATM   37  C22 UNL     1      35.199 -14.393  28.896  1.00  0.00     0.035 A 
HETATM   38 CL1  UNL     1      33.841 -14.079  29.974  1.00  0.00    -0.084 Cl
HETATM   39  C23 UNL     1      35.535 -13.450  27.953  1.00  0.00     0.026 A 
HETATM   40  C24 UNL     1      36.601 -13.718  27.128  1.00  0.00     0.034 A 
HETATM   41  C25 UNL     1      37.342 -14.925  27.237  1.00  0.00     0.069 A 
BRANCH  41  42
HETATM   42  N4  UNL     1      38.371 -15.121  26.293  1.00  0.00    -0.234 N 
HETATM   43  C26 UNL     1      39.651 -15.523  26.460  1.00  0.00     0.226 A 
HETATM   44  N5  UNL     1      40.198 -15.480  25.237  1.00  0.00    -0.279 N 
HETATM   45  N6  UNL     1      39.326 -15.079  24.333  1.00  0.00    -0.227 N 
ATOM     46  H5  UNL     1      41.167 -15.727  25.032  1.00  0.00     0.189 HD
HETATM   47  N7  UNL     1      38.216 -14.862  24.981  1.00  0.00    -0.220 N 
ATOM     48  H6  UNL     1      39.487 -14.962  23.333  1.00  0.00     0.210 HD
ATOM     49  H7  UNL     1      37.348 -14.539  24.553  1.00  0.00     0.210 HD
ENDBRANCH  41  42
ENDBRANCH  34  35
ENDBRANCH  30  33
ENDBRANCH   1  29
TORSDOF 10
ENDMDL
