MODEL 7
REMARK VINA RESULT: -9.887065820      3.616      6.311
REMARK  10 active torsions:
REMARK  status: ('A' for Active; 'I' for Inactive)
REMARK    1  A    between atoms: O1_2  and  C2_3 
REMARK       I    between atoms: C2_3  and  N1_5 
REMARK    2  A    between atoms: N1_5  and  C3_7 
REMARK    3  A    between atoms: C6_10  and  C7_11 
REMARK    4  A    between atoms: C8_14  and  C9_15 
REMARK    5  A    between atoms: C9_15  and  C10_16 
REMARK    6  A    between atoms: C9_15  and  N3_23 
REMARK    7  A    between atoms: C10_16  and  C11_17 
REMARK       I    between atoms: N3_23  and  C17_25 
REMARK    8  A    between atoms: C17_25  and  C18_27 
REMARK    9  A    between atoms: C19_28  and  C20_29 
REMARK   10  A    between atoms: C25_35  and  N4_36 
ROOT
HETATM    1  C9  UNL     1      39.191 -19.771  28.305  1.00  0.00     0.157 C 
ENDROOT
BRANCH   1   2
HETATM    2  C8  UNL     1      40.243 -20.667  28.913  1.00  0.00     0.106 A 
HETATM    3  N2  UNL     1      41.519 -20.308  29.160  1.00  0.00    -0.341 N 
HETATM    4  C7  UNL     1      42.237 -21.333  29.698  1.00  0.00     0.083 A 
ATOM      5  H2  UNL     1      41.900 -19.381  28.968  1.00  0.00     0.167 HD
HETATM    6  C27 UNL     1      41.352 -22.365  29.780  1.00  0.00     0.132 A 
HETATM    7  N8  UNL     1      40.144 -21.948  29.299  1.00  0.00    -0.333 N 
HETATM    8 CL2  UNL     1      41.682 -23.961  30.395  1.00  0.00    -0.062 Cl
ATOM      9  H8  UNL     1      39.301 -22.519  29.244  1.00  0.00     0.168 HD
BRANCH   4  10
HETATM   10  C6  UNL     1      43.660 -21.219  30.065  1.00  0.00    -0.006 A 
HETATM   11  C5  UNL     1      44.194 -21.716  31.202  1.00  0.00     0.016 A 
HETATM   12  C4  UNL     1      45.539 -21.570  31.499  1.00  0.00     0.030 A 
HETATM   13  C3  UNL     1      46.422 -20.899  30.640  1.00  0.00     0.036 A 
HETATM   14  C29 UNL     1      45.874 -20.399  29.493  1.00  0.00     0.030 A 
HETATM   15  C28 UNL     1      44.531 -20.555  29.209  1.00  0.00     0.016 A 
BRANCH  13  16
HETATM   16  N1  UNL     1      47.780 -20.806  31.017  1.00  0.00    -0.303 N 
HETATM   17  C2  UNL     1      48.836 -21.512  30.421  1.00  0.00     0.364 C 
HETATM   18  O2  UNL     1      48.640 -22.300  29.472  1.00  0.00    -0.238 OA
ATOM     19  H1  UNL     1      48.011 -20.175  31.784  1.00  0.00     0.171 HD
BRANCH  17  20
HETATM   20  O1  UNL     1      50.161 -21.368  30.857  1.00  0.00    -0.309 OA
HETATM   21  C1  UNL     1      50.485 -20.217  31.602  1.00  0.00     0.215 C 
ENDBRANCH  17  20
ENDBRANCH  13  16
ENDBRANCH   4  10
ENDBRANCH   1   2
BRANCH   1  22
HETATM   22  C10 UNL     1      38.800 -18.628  29.161  1.00  0.00     0.071 C 
BRANCH  22  23
HETATM   23  C11 UNL     1      38.679 -17.343  28.465  1.00  0.00    -0.056 A 
HETATM   24  C12 UNL     1      39.456 -17.111  27.361  1.00  0.00     0.007 A 
HETATM   25  C13 UNL     1      39.358 -15.909  26.702  1.00  0.00     0.001 A 
HETATM   26  C14 UNL     1      38.469 -14.940  27.161  1.00  0.00     0.000 A 
HETATM   27  C15 UNL     1      37.691 -15.177  28.269  1.00  0.00     0.001 A 
HETATM   28  C16 UNL     1      37.814 -16.388  28.907  1.00  0.00     0.007 A 
ENDBRANCH  22  23
ENDBRANCH   1  22
BRANCH   1  29
HETATM   29  N3  UNL     1      38.076 -20.546  27.769  1.00  0.00    -0.346 N 
HETATM   30  C17 UNL     1      38.069 -21.012  26.432  1.00  0.00     0.241 C 
HETATM   31  O3  UNL     1      39.108 -20.703  25.757  1.00  0.00    -0.269 OA
ATOM     32  H3  UNL     1      37.283 -20.758  28.373  1.00  0.00     0.163 HD
BRANCH  30  33
HETATM   33  C18 UNL     1      36.991 -21.790  25.809  1.00  0.00     0.075 C 
HETATM   34  C19 UNL     1      37.183 -22.798  25.013  1.00  0.00     0.019 C 
BRANCH  34  35
HETATM   35  C20 UNL     1      36.259 -23.658  24.318  1.00  0.00    -0.006 A 
HETATM   36  C21 UNL     1      36.293 -25.042  24.668  1.00  0.00     0.037 A 
HETATM   37  C22 UNL     1      35.455 -25.912  24.027  1.00  0.00     0.035 A 
HETATM   38 CL1  UNL     1      35.504 -27.615  24.479  1.00  0.00    -0.084 Cl
HETATM   39  C23 UNL     1      34.573 -25.506  23.051  1.00  0.00     0.026 A 
HETATM   40  C24 UNL     1      34.552 -24.172  22.721  1.00  0.00     0.034 A 
HETATM   41  C25 UNL     1      35.405 -23.233  23.360  1.00  0.00     0.069 A 
BRANCH  41  42
HETATM   42  N4  UNL     1      35.344 -21.904  22.890  1.00  0.00    -0.234 N 
HETATM   43  C26 UNL     1      34.609 -20.854  23.321  1.00  0.00     0.226 A 
HETATM   44  N5  UNL     1      34.898 -19.851  22.480  1.00  0.00    -0.279 N 
HETATM   45  N6  UNL     1      35.770 -20.226  21.564  1.00  0.00    -0.227 N 
ATOM     46  H5  UNL     1      34.496 -18.915  22.541  1.00  0.00     0.189 HD
HETATM   47  N7  UNL     1      36.037 -21.476  21.819  1.00  0.00    -0.220 N 
ATOM     48  H6  UNL     1      36.155 -19.656  20.812  1.00  0.00     0.210 HD
ATOM     49  H7  UNL     1      36.683 -22.052  21.279  1.00  0.00     0.210 HD
ENDBRANCH  41  42
ENDBRANCH  34  35
ENDBRANCH  30  33
ENDBRANCH   1  29
TORSDOF 10
ENDMDL
