MODEL 2
REMARK VINA RESULT: -10.761827822      2.252      4.053
REMARK  10 active torsions:
REMARK  status: ('A' for Active; 'I' for Inactive)
REMARK    1  A    between atoms: C3_5  and  N2_6 
REMARK    2  A    between atoms: N2_6  and  C4_8 
REMARK    3  A    between atoms: C6_12  and  C7_13 
REMARK       I    between atoms: C7_13  and  N4_15 
REMARK    4  A    between atoms: N4_15  and  C8_17 
REMARK    5  A    between atoms: C11_20  and  O2_21 
REMARK    6  A    between atoms: O2_21  and  C12_22 
REMARK    7  A    between atoms: C21_32  and  N5_33 
REMARK    8  A    between atoms: N6_36  and  C24_37 
REMARK    9  A    between atoms: C24_37  and  C25_38 
REMARK   10  A    between atoms: C25_38  and  O3_39 
ROOT
HETATM    1  C4  UNL     1      66.753  59.894 110.372  1.00  0.00     0.150 A 
HETATM    2  N3  UNL     1      66.801  61.209 110.479  1.00  0.00    -0.345 N 
ATOM      3  H3  UNL     1      67.583  61.654 110.960  1.00  0.00     0.167 HD
HETATM    4  C5  UNL     1      65.855  61.935 109.973  1.00  0.00     0.115 A 
HETATM    5  C6  UNL     1      64.829  61.279 109.337  1.00  0.00     0.091 A 
HETATM    6  S1  UNL     1      65.297  59.649 109.512  1.00  0.00    -0.047 SA
ENDROOT
BRANCH   1   7
HETATM    7  N2  UNL     1      67.711  58.961 110.874  1.00  0.00    -0.323 N 
ATOM      8  H2  UNL     1      68.698  59.043 110.631  1.00  0.00     0.169 HD
BRANCH   7   9
HETATM    9  C3  UNL     1      67.254  57.920 111.717  1.00  0.00     0.111 A 
HETATM   10  N1  UNL     1      65.962  57.497 111.728  1.00  0.00    -0.332 N 
HETATM   11  C2  UNL     1      65.554  56.513 112.532  1.00  0.00     0.080 A 
ATOM     12  H1  UNL     1      65.288  57.943 111.107  1.00  0.00     0.168 HD
HETATM   13  C1  UNL     1      64.143  56.079 112.519  1.00  0.00     0.089 C 
HETATM   14  N7  UNL     1      66.423  55.918 113.353  1.00  0.00    -0.332 N 
HETATM   15  C21 UNL     1      67.751  56.263 113.424  1.00  0.00     0.108 A 
ATOM     16  H7  UNL     1      66.083  55.169 113.958  1.00  0.00     0.168 HD
HETATM   17  C20 UNL     1      68.119  57.285 112.573  1.00  0.00     0.097 A 
BRANCH  15  18
HETATM   18  N5  UNL     1      68.627  55.616 114.298  1.00  0.00    -0.364 N 
HETATM   19  C22 UNL     1      70.020  55.947 114.383  1.00  0.00     0.154 C 
HETATM   20  C23 UNL     1      70.356  56.169 115.820  1.00  0.00     0.292 C 
HETATM   21  N6  UNL     1      69.279  56.162 116.741  1.00  0.00     0.093 N 
HETATM   22  C26 UNL     1      68.249  55.198 116.562  1.00  0.00     0.292 C 
HETATM   23  C27 UNL     1      68.215  54.575 115.179  1.00  0.00     0.154 C 
BRANCH  21  24
HETATM   24  C24 UNL     1      69.804  56.021 118.090  1.00  0.00     0.298 C 
BRANCH  24  25
HETATM   25  C25 UNL     1      70.337  57.373 118.585  1.00  0.00     0.194 C 
BRANCH  25  26
HETATM   26  O3  UNL     1      69.343  58.345 118.391  1.00  0.00    -0.399 OA
ATOM     27  H3  UNL     1      68.496  57.952 118.565  1.00  0.00     0.209 HD
ENDBRANCH  25  26
ENDBRANCH  24  25
ENDBRANCH  21  24
ENDBRANCH  15  18
ENDBRANCH   7   9
ENDBRANCH   1   7
BRANCH   5  28
HETATM   28  C7  UNL     1      63.635  61.854 108.679  1.00  0.00     0.264 C 
HETATM   29  O1  UNL     1      63.790  62.960 108.133  1.00  0.00    -0.267 OA
HETATM   30  N4  UNL     1      62.403  61.217 108.657  1.00  0.00    -0.322 N 
ATOM     31  H4  UNL     1      62.358  60.313 109.127  1.00  0.00     0.169 HD
BRANCH  30  32
HETATM   32  C8  UNL     1      61.195  61.668 108.059  1.00  0.00     0.035 A 
HETATM   33  C9  UNL     1      60.965  61.692 106.716  1.00  0.00     0.032 A 
HETATM   34  C10 UNL     1      59.775  62.146 106.199  1.00  0.00     0.039 A 
HETATM   35  C11 UNL     1      58.745  62.603 106.989  1.00  0.00     0.076 A 
HETATM   36  C18 UNL     1      58.969  62.584 108.349  1.00  0.00     0.039 A 
HETATM   37  C19 UNL     1      60.157  62.129 108.862  1.00  0.00     0.032 A 
BRANCH  35  38
HETATM   38  O2  UNL     1      57.560  63.053 106.422  1.00  0.00    -0.311 OA
BRANCH  38  39
HETATM   39  C12 UNL     1      57.018  64.304 106.659  1.00  0.00     0.076 A 
HETATM   40  C13 UNL     1      55.654  64.417 106.764  1.00  0.00     0.037 A 
HETATM   41  C14 UNL     1      55.117  65.668 107.002  1.00  0.00     0.003 A 
HETATM   42  C15 UNL     1      55.898  66.802 107.136  1.00  0.00     0.000 A 
HETATM   43  C16 UNL     1      57.257  66.640 107.024  1.00  0.00     0.003 A 
HETATM   44  C17 UNL     1      57.808  65.418 106.790  1.00  0.00     0.037 A 
ENDBRANCH  38  39
ENDBRANCH  35  38
ENDBRANCH  30  32
ENDBRANCH   5  28
TORSDOF 10
ENDMDL
