MODEL 8
REMARK VINA RESULT: -10.165126652      3.216      5.577
REMARK  10 active torsions:
REMARK  status: ('A' for Active; 'I' for Inactive)
REMARK    1  A    between atoms: C3_5  and  N2_6 
REMARK    2  A    between atoms: N2_6  and  C4_8 
REMARK    3  A    between atoms: C6_12  and  C7_13 
REMARK       I    between atoms: C7_13  and  N4_15 
REMARK    4  A    between atoms: N4_15  and  C8_17 
REMARK    5  A    between atoms: C11_20  and  O2_21 
REMARK    6  A    between atoms: O2_21  and  C12_22 
REMARK    7  A    between atoms: C21_32  and  N5_33 
REMARK    8  A    between atoms: N6_36  and  C24_37 
REMARK    9  A    between atoms: C24_37  and  C25_38 
REMARK   10  A    between atoms: C25_38  and  O3_39 
ROOT
HETATM    1  C4  UNL     1      66.797  60.054 110.263  1.00  0.00     0.150 A 
HETATM    2  N3  UNL     1      66.641  61.292 109.830  1.00  0.00    -0.345 N 
ATOM      3  H3  UNL     1      67.437  61.929 109.806  1.00  0.00     0.167 HD
HETATM    4  C5  UNL     1      65.475  61.697 109.438  1.00  0.00     0.115 A 
HETATM    5  C6  UNL     1      64.441  60.794 109.494  1.00  0.00     0.091 A 
HETATM    6  S1  UNL     1      65.222  59.411 110.114  1.00  0.00    -0.047 SA
ENDROOT
BRANCH   1   7
HETATM    7  N2  UNL     1      68.010  59.460 110.727  1.00  0.00    -0.323 N 
ATOM      8  H2  UNL     1      68.916  59.814 110.424  1.00  0.00     0.169 HD
BRANCH   7   9
HETATM    9  C3  UNL     1      67.920  58.366 111.621  1.00  0.00     0.111 A 
HETATM   10  N1  UNL     1      66.736  57.793 111.966  1.00  0.00    -0.332 N 
HETATM   11  C2  UNL     1      66.675  56.762 112.810  1.00  0.00     0.080 A 
ATOM     12  H1  UNL     1      65.872  58.162 111.569  1.00  0.00     0.168 HD
HETATM   13  C1  UNL     1      65.371  56.166 113.163  1.00  0.00     0.089 C 
HETATM   14  N7  UNL     1      67.796  56.266 113.340  1.00  0.00    -0.332 N 
HETATM   15  C21 UNL     1      69.046  56.764 113.062  1.00  0.00     0.108 A 
ATOM     16  H7  UNL     1      67.720  55.478 113.984  1.00  0.00     0.168 HD
HETATM   17  C20 UNL     1      69.052  57.829 112.184  1.00  0.00     0.097 A 
BRANCH  15  18
HETATM   18  N5  UNL     1      70.194  56.218 113.639  1.00  0.00    -0.364 N 
HETATM   19  C22 UNL     1      71.026  55.267 112.958  1.00  0.00     0.154 C 
HETATM   20  C23 UNL     1      72.437  55.745 113.040  1.00  0.00     0.292 C 
HETATM   21  N6  UNL     1      72.649  57.030 113.601  1.00  0.00     0.093 N 
HETATM   22  C26 UNL     1      71.877  57.403 114.735  1.00  0.00     0.292 C 
HETATM   23  C27 UNL     1      70.638  56.554 114.950  1.00  0.00     0.154 C 
BRANCH  21  24
HETATM   24  C24 UNL     1      74.057  57.176 113.940  1.00  0.00     0.298 C 
BRANCH  24  25
HETATM   25  C25 UNL     1      74.210  58.156 115.112  1.00  0.00     0.194 C 
BRANCH  25  26
HETATM   26  O3  UNL     1      74.828  59.325 114.642  1.00  0.00    -0.399 OA
ATOM     27  H3  UNL     1      75.144  59.167 113.759  1.00  0.00     0.209 HD
ENDBRANCH  25  26
ENDBRANCH  24  25
ENDBRANCH  21  24
ENDBRANCH  15  18
ENDBRANCH   7   9
ENDBRANCH   1   7
BRANCH   5  28
HETATM   28  C7  UNL     1      63.025  60.988 109.113  1.00  0.00     0.264 C 
HETATM   29  O1  UNL     1      62.206  60.212 109.636  1.00  0.00    -0.267 OA
HETATM   30  N4  UNL     1      62.607  61.971 108.229  1.00  0.00    -0.322 N 
ATOM     31  H4  UNL     1      63.340  62.567 107.844  1.00  0.00     0.169 HD
BRANCH  30  32
HETATM   32  C8  UNL     1      61.283  62.251 107.793  1.00  0.00     0.035 A 
HETATM   33  C9  UNL     1      60.803  61.950 106.553  1.00  0.00     0.032 A 
HETATM   34  C10 UNL     1      59.513  62.251 106.189  1.00  0.00     0.039 A 
HETATM   35  C11 UNL     1      58.623  62.869 107.039  1.00  0.00     0.076 A 
HETATM   36  C18 UNL     1      59.101  63.178 108.295  1.00  0.00     0.039 A 
HETATM   37  C19 UNL     1      60.389  62.875 108.655  1.00  0.00     0.032 A 
BRANCH  35  38
HETATM   38  O2  UNL     1      57.328  63.154 106.628  1.00  0.00    -0.311 OA
BRANCH  38  39
HETATM   39  C12 UNL     1      56.727  64.392 106.778  1.00  0.00     0.076 A 
HETATM   40  C13 UNL     1      57.524  65.510 106.787  1.00  0.00     0.037 A 
HETATM   41  C14 UNL     1      56.919  66.743 106.937  1.00  0.00     0.003 A 
HETATM   42  C15 UNL     1      55.550  66.891 107.078  1.00  0.00     0.000 A 
HETATM   43  C16 UNL     1      54.795  65.745 107.064  1.00  0.00     0.003 A 
HETATM   44  C17 UNL     1      55.367  64.520 106.917  1.00  0.00     0.037 A 
ENDBRANCH  38  39
ENDBRANCH  35  38
ENDBRANCH  30  32
ENDBRANCH   5  28
TORSDOF 10
ENDMDL
