MODEL 6
REMARK VINA RESULT: -10.338329332      3.083      4.431
REMARK  10 active torsions:
REMARK  status: ('A' for Active; 'I' for Inactive)
REMARK    1  A    between atoms: C3_5  and  N2_6 
REMARK    2  A    between atoms: N2_6  and  C4_8 
REMARK    3  A    between atoms: C6_12  and  C7_13 
REMARK       I    between atoms: C7_13  and  N4_15 
REMARK    4  A    between atoms: N4_15  and  C8_17 
REMARK    5  A    between atoms: C11_20  and  O2_21 
REMARK    6  A    between atoms: O2_21  and  C12_22 
REMARK    7  A    between atoms: C21_32  and  N5_33 
REMARK    8  A    between atoms: N6_36  and  C24_37 
REMARK    9  A    between atoms: C24_37  and  C25_38 
REMARK   10  A    between atoms: C25_38  and  O3_39 
ROOT
HETATM    1  C4  UNL     1      63.439  57.965 112.872  1.00  0.00     0.150 A 
HETATM    2  N3  UNL     1      64.420  58.354 112.078  1.00  0.00    -0.345 N 
ATOM      3  H3  UNL     1      65.366  58.004 112.227  1.00  0.00     0.167 HD
HETATM    4  C5  UNL     1      64.179  59.180 111.110  1.00  0.00     0.115 A 
HETATM    5  C6  UNL     1      62.885  59.616 110.959  1.00  0.00     0.091 A 
HETATM    6  S1  UNL     1      62.094  58.803 112.232  1.00  0.00    -0.047 SA
ENDROOT
BRANCH   1   7
HETATM    7  N2  UNL     1      63.541  57.066 113.977  1.00  0.00    -0.323 N 
ATOM      8  H2  UNL     1      64.443  56.680 114.256  1.00  0.00     0.169 HD
BRANCH   7   9
HETATM    9  C3  UNL     1      62.358  56.725 114.674  1.00  0.00     0.111 A 
HETATM   10  N1  UNL     1      62.194  56.958 116.004  1.00  0.00    -0.332 N 
HETATM   11  C2  UNL     1      61.070  56.629 116.641  1.00  0.00     0.080 A 
ATOM     12  H1  UNL     1      62.952  57.397 116.528  1.00  0.00     0.168 HD
HETATM   13  C1  UNL     1      60.927  56.896 118.086  1.00  0.00     0.089 C 
HETATM   14  N7  UNL     1      60.067  56.054 115.972  1.00  0.00    -0.332 N 
HETATM   15  C21 UNL     1      60.121  55.773 114.628  1.00  0.00     0.108 A 
ATOM     16  H7  UNL     1      59.219  55.811 116.484  1.00  0.00     0.168 HD
HETATM   17  C20 UNL     1      61.306  56.134 114.018  1.00  0.00     0.097 A 
BRANCH  15  18
HETATM   18  N5  UNL     1      59.052  55.169 113.965  1.00  0.00    -0.364 N 
HETATM   19  C22 UNL     1      57.788  54.921 114.598  1.00  0.00     0.154 C 
HETATM   20  C23 UNL     1      56.714  55.463 113.715  1.00  0.00     0.292 C 
HETATM   21  N6  UNL     1      57.128  56.201 112.578  1.00  0.00     0.093 N 
HETATM   22  C26 UNL     1      58.254  55.732 111.847  1.00  0.00     0.292 C 
HETATM   23  C27 UNL     1      59.121  54.745 112.607  1.00  0.00     0.154 C 
BRANCH  21  24
HETATM   24  C24 UNL     1      56.008  56.328 111.658  1.00  0.00     0.298 C 
BRANCH  24  25
HETATM   25  C25 UNL     1      56.032  55.174 110.646  1.00  0.00     0.194 C 
BRANCH  25  26
HETATM   26  O3  UNL     1      54.933  54.338 110.894  1.00  0.00    -0.399 OA
ATOM     27  H3  UNL     1      55.251  53.514 111.245  1.00  0.00     0.209 HD
ENDBRANCH  25  26
ENDBRANCH  24  25
ENDBRANCH  21  24
ENDBRANCH  15  18
ENDBRANCH   7   9
ENDBRANCH   1   7
BRANCH   5  28
HETATM   28  C7  UNL     1      62.338  60.550 109.951  1.00  0.00     0.264 C 
HETATM   29  O1  UNL     1      63.172  61.225 109.321  1.00  0.00    -0.267 OA
HETATM   30  N4  UNL     1      60.981  60.684 109.701  1.00  0.00    -0.322 N 
ATOM     31  H4  UNL     1      60.363  60.094 110.259  1.00  0.00     0.169 HD
BRANCH  30  32
HETATM   32  C8  UNL     1      60.344  61.541 108.763  1.00  0.00     0.035 A 
HETATM   33  C9  UNL     1      60.483  61.439 107.411  1.00  0.00     0.032 A 
HETATM   34  C10 UNL     1      59.844  62.304 106.555  1.00  0.00     0.039 A 
HETATM   35  C11 UNL     1      59.027  63.321 106.995  1.00  0.00     0.076 A 
HETATM   36  C18 UNL     1      58.881  63.431 108.362  1.00  0.00     0.039 A 
HETATM   37  C19 UNL     1      59.520  62.567 109.213  1.00  0.00     0.032 A 
BRANCH  35  38
HETATM   38  O2  UNL     1      58.401  64.171 106.094  1.00  0.00    -0.311 OA
BRANCH  38  39
HETATM   39  C12 UNL     1      57.321  64.975 106.414  1.00  0.00     0.076 A 
HETATM   40  C13 UNL     1      57.561  66.277 106.776  1.00  0.00     0.037 A 
HETATM   41  C14 UNL     1      56.479  67.077 107.095  1.00  0.00     0.003 A 
HETATM   42  C15 UNL     1      55.175  66.615 107.064  1.00  0.00     0.000 A 
HETATM   43  C16 UNL     1      54.986  65.306 106.697  1.00  0.00     0.003 A 
HETATM   44  C17 UNL     1      56.034  64.500 106.378  1.00  0.00     0.037 A 
ENDBRANCH  38  39
ENDBRANCH  35  38
ENDBRANCH  30  32
ENDBRANCH   5  28
TORSDOF 10
ENDMDL
