MODEL 4
REMARK VINA RESULT: -10.505531631      1.593      2.095
REMARK  10 active torsions:
REMARK  status: ('A' for Active; 'I' for Inactive)
REMARK    1  A    between atoms: C3_5  and  N2_6 
REMARK    2  A    between atoms: N2_6  and  C4_8 
REMARK    3  A    between atoms: C6_12  and  C7_13 
REMARK       I    between atoms: C7_13  and  N4_15 
REMARK    4  A    between atoms: N4_15  and  C8_17 
REMARK    5  A    between atoms: C11_20  and  O2_21 
REMARK    6  A    between atoms: O2_21  and  C12_22 
REMARK    7  A    between atoms: C21_32  and  N5_33 
REMARK    8  A    between atoms: N6_36  and  C24_37 
REMARK    9  A    between atoms: C24_37  and  C25_38 
REMARK   10  A    between atoms: C25_38  and  O3_39 
ROOT
HETATM    1  C4  UNL     1      66.540  59.700 110.494  1.00  0.00     0.150 A 
HETATM    2  N3  UNL     1      66.848  60.941 110.161  1.00  0.00    -0.345 N 
ATOM      3  H3  UNL     1      67.783  61.302 110.348  1.00  0.00     0.167 HD
HETATM    4  C5  UNL     1      65.960  61.698 109.600  1.00  0.00     0.115 A 
HETATM    5  C6  UNL     1      64.719  61.156 109.374  1.00  0.00     0.091 A 
HETATM    6  S1  UNL     1      64.912  59.579 109.993  1.00  0.00    -0.047 SA
ENDROOT
BRANCH   1   7
HETATM    7  N2  UNL     1      67.401  58.745 111.117  1.00  0.00    -0.323 N 
ATOM      8  H2  UNL     1      68.391  58.700 110.878  1.00  0.00     0.169 HD
BRANCH   7   9
HETATM    9  C3  UNL     1      66.842  57.865 112.074  1.00  0.00     0.111 A 
HETATM   10  N1  UNL     1      67.595  57.003 112.808  1.00  0.00    -0.332 N 
HETATM   11  C2  UNL     1      67.048  56.182 113.705  1.00  0.00     0.080 A 
ATOM     12  H1  UNL     1      68.606  56.983 112.668  1.00  0.00     0.168 HD
HETATM   13  C1  UNL     1      67.896  55.257 114.483  1.00  0.00     0.089 C 
HETATM   14  N7  UNL     1      65.727  56.193 113.901  1.00  0.00    -0.332 N 
HETATM   15  C21 UNL     1      64.870  57.023 113.219  1.00  0.00     0.108 A 
ATOM     16  H7  UNL     1      65.334  55.554 114.593  1.00  0.00     0.168 HD
HETATM   17  C20 UNL     1      65.489  57.850 112.303  1.00  0.00     0.097 A 
BRANCH  15  18
HETATM   18  N5  UNL     1      63.494  57.002 113.452  1.00  0.00    -0.364 N 
HETATM   19  C22 UNL     1      62.539  57.484 112.495  1.00  0.00     0.154 C 
HETATM   20  C23 UNL     1      61.500  56.429 112.307  1.00  0.00     0.292 C 
HETATM   21  N6  UNL     1      61.725  55.184 112.947  1.00  0.00     0.093 N 
HETATM   22  C26 UNL     1      62.265  55.194 114.263  1.00  0.00     0.292 C 
HETATM   23  C27 UNL     1      62.919  56.505 114.657  1.00  0.00     0.154 C 
BRANCH  21  24
HETATM   24  C24 UNL     1      60.482  54.428 112.971  1.00  0.00     0.298 C 
BRANCH  24  25
HETATM   25  C25 UNL     1      59.682  54.703 111.690  1.00  0.00     0.194 C 
BRANCH  25  26
HETATM   26  O3  UNL     1      60.035  53.745 110.727  1.00  0.00    -0.399 OA
ATOM     27  H3  UNL     1      60.874  53.369 110.965  1.00  0.00     0.209 HD
ENDBRANCH  25  26
ENDBRANCH  24  25
ENDBRANCH  21  24
ENDBRANCH  15  18
ENDBRANCH   7   9
ENDBRANCH   1   7
BRANCH   5  28
HETATM   28  C7  UNL     1      63.533  61.790 108.757  1.00  0.00     0.264 C 
HETATM   29  O1  UNL     1      63.719  62.901 108.230  1.00  0.00    -0.267 OA
HETATM   30  N4  UNL     1      62.277  61.202 108.752  1.00  0.00    -0.322 N 
ATOM     31  H4  UNL     1      62.208  60.291 109.205  1.00  0.00     0.169 HD
BRANCH  30  32
HETATM   32  C8  UNL     1      61.074  61.713 108.193  1.00  0.00     0.035 A 
HETATM   33  C9  UNL     1      60.037  62.209 108.925  1.00  0.00     0.032 A 
HETATM   34  C10 UNL     1      58.896  62.684 108.324  1.00  0.00     0.039 A 
HETATM   35  C11 UNL     1      58.720  62.694 106.959  1.00  0.00     0.076 A 
HETATM   36  C18 UNL     1      59.764  62.193 106.211  1.00  0.00     0.039 A 
HETATM   37  C19 UNL     1      60.902  61.720 106.812  1.00  0.00     0.032 A 
BRANCH  35  38
HETATM   38  O2  UNL     1      57.550  63.184 106.396  1.00  0.00    -0.311 OA
BRANCH  38  39
HETATM   39  C12 UNL     1      57.030  64.437 106.668  1.00  0.00     0.076 A 
HETATM   40  C13 UNL     1      55.668  64.571 106.776  1.00  0.00     0.037 A 
HETATM   41  C14 UNL     1      55.153  65.824 107.047  1.00  0.00     0.003 A 
HETATM   42  C15 UNL     1      55.954  66.941 107.214  1.00  0.00     0.000 A 
HETATM   43  C16 UNL     1      57.310  66.758 107.097  1.00  0.00     0.003 A 
HETATM   44  C17 UNL     1      57.840  65.534 106.830  1.00  0.00     0.037 A 
ENDBRANCH  38  39
ENDBRANCH  35  38
ENDBRANCH  30  32
ENDBRANCH   5  28
TORSDOF 10
ENDMDL
