MODEL 1
REMARK VINA RESULT: -10.821802862      0.000      0.000
REMARK  10 active torsions:
REMARK  status: ('A' for Active; 'I' for Inactive)
REMARK    1  A    between atoms: C3_5  and  N2_6 
REMARK    2  A    between atoms: N2_6  and  C4_8 
REMARK    3  A    between atoms: C6_12  and  C7_13 
REMARK       I    between atoms: C7_13  and  N4_15 
REMARK    4  A    between atoms: N4_15  and  C8_17 
REMARK    5  A    between atoms: C11_20  and  O2_21 
REMARK    6  A    between atoms: O2_21  and  C12_22 
REMARK    7  A    between atoms: C21_32  and  N5_33 
REMARK    8  A    between atoms: N6_36  and  C24_37 
REMARK    9  A    between atoms: C24_37  and  C25_38 
REMARK   10  A    between atoms: C25_38  and  O3_39 
ROOT
HETATM    1  C4  UNL     1      66.599  59.644 110.502  1.00  0.00     0.150 A 
HETATM    2  N3  UNL     1      66.836  60.933 110.337  1.00  0.00    -0.345 N 
ATOM      3  H3  UNL     1      67.723  61.332 110.646  1.00  0.00     0.167 HD
HETATM    4  C5  UNL     1      65.942  61.689 109.783  1.00  0.00     0.115 A 
HETATM    5  C6  UNL     1      64.769  61.094 109.388  1.00  0.00     0.091 A 
HETATM    6  S1  UNL     1      65.031  59.473 109.845  1.00  0.00    -0.047 SA
ENDROOT
BRANCH   1   7
HETATM    7  N2  UNL     1      67.476  58.684 111.093  1.00  0.00    -0.323 N 
ATOM      8  H2  UNL     1      68.473  58.687 110.882  1.00  0.00     0.169 HD
BRANCH   7   9
HETATM    9  C3  UNL     1      66.923  57.728 111.978  1.00  0.00     0.111 A 
HETATM   10  N1  UNL     1      67.688  56.949 112.789  1.00  0.00    -0.332 N 
HETATM   11  C2  UNL     1      67.145  56.054 113.617  1.00  0.00     0.080 A 
ATOM     12  H1  UNL     1      68.702  57.051 112.764  1.00  0.00     0.168 HD
HETATM   13  C1  UNL     1      68.006  55.224 114.483  1.00  0.00     0.089 C 
HETATM   14  N7  UNL     1      65.819  55.907 113.664  1.00  0.00    -0.332 N 
HETATM   15  C21 UNL     1      64.951  56.640 112.892  1.00  0.00     0.108 A 
ATOM     16  H7  UNL     1      65.430  55.214 114.305  1.00  0.00     0.168 HD
HETATM   17  C20 UNL     1      65.564  57.550 112.054  1.00  0.00     0.097 A 
BRANCH  15  18
HETATM   18  N5  UNL     1      63.569  56.454 112.969  1.00  0.00    -0.364 N 
HETATM   19  C22 UNL     1      62.976  55.302 113.586  1.00  0.00     0.154 C 
HETATM   20  C23 UNL     1      61.948  55.776 114.559  1.00  0.00     0.292 C 
HETATM   21  N6  UNL     1      61.870  57.174 114.781  1.00  0.00     0.093 N 
HETATM   22  C26 UNL     1      62.006  58.041 113.661  1.00  0.00     0.292 C 
HETATM   23  C27 UNL     1      62.630  57.387 112.442  1.00  0.00     0.154 C 
BRANCH  21  24
HETATM   24  C24 UNL     1      60.612  57.482 115.445  1.00  0.00     0.298 C 
BRANCH  24  25
HETATM   25  C25 UNL     1      60.486  56.652 116.730  1.00  0.00     0.194 C 
BRANCH  25  26
HETATM   26  O3  UNL     1      60.935  57.428 117.810  1.00  0.00    -0.399 OA
ATOM     27  H3  UNL     1      61.184  56.846 118.519  1.00  0.00     0.209 HD
ENDBRANCH  25  26
ENDBRANCH  24  25
ENDBRANCH  21  24
ENDBRANCH  15  18
ENDBRANCH   7   9
ENDBRANCH   1   7
BRANCH   5  28
HETATM   28  C7  UNL     1      63.594  61.715 108.739  1.00  0.00     0.264 C 
HETATM   29  O1  UNL     1      63.771  62.844 108.250  1.00  0.00    -0.267 OA
HETATM   30  N4  UNL     1      62.355  61.095 108.665  1.00  0.00    -0.322 N 
ATOM     31  H4  UNL     1      62.292  60.170 109.091  1.00  0.00     0.169 HD
BRANCH  30  32
HETATM   32  C8  UNL     1      61.163  61.590 108.070  1.00  0.00     0.035 A 
HETATM   33  C9  UNL     1      60.947  61.659 106.727  1.00  0.00     0.032 A 
HETATM   34  C10 UNL     1      59.772  62.154 106.212  1.00  0.00     0.039 A 
HETATM   35  C11 UNL     1      58.743  62.608 107.005  1.00  0.00     0.076 A 
HETATM   36  C18 UNL     1      58.954  62.542 108.366  1.00  0.00     0.039 A 
HETATM   37  C19 UNL     1      60.126  62.047 108.877  1.00  0.00     0.032 A 
BRANCH  35  38
HETATM   38  O2  UNL     1      57.574  63.099 106.441  1.00  0.00    -0.311 OA
BRANCH  38  39
HETATM   39  C12 UNL     1      57.080  64.371 106.675  1.00  0.00     0.076 A 
HETATM   40  C13 UNL     1      55.721  64.536 106.780  1.00  0.00     0.037 A 
HETATM   41  C14 UNL     1      55.233  65.807 107.014  1.00  0.00     0.003 A 
HETATM   42  C15 UNL     1      56.057  66.911 107.146  1.00  0.00     0.000 A 
HETATM   43  C16 UNL     1      57.409  66.697 107.033  1.00  0.00     0.003 A 
HETATM   44  C17 UNL     1      57.913  65.454 106.803  1.00  0.00     0.037 A 
ENDBRANCH  38  39
ENDBRANCH  35  38
ENDBRANCH  30  32
ENDBRANCH   5  28
TORSDOF 10
ENDMDL
