MODEL 9
REMARK VINA RESULT: -10.139480649      3.035      5.560
REMARK  10 active torsions:
REMARK  status: ('A' for Active; 'I' for Inactive)
REMARK    1  A    between atoms: C3_5  and  N2_6 
REMARK    2  A    between atoms: N2_6  and  C4_8 
REMARK    3  A    between atoms: C6_12  and  C7_13 
REMARK       I    between atoms: C7_13  and  N4_15 
REMARK    4  A    between atoms: N4_15  and  C8_17 
REMARK    5  A    between atoms: C11_20  and  O2_21 
REMARK    6  A    between atoms: O2_21  and  C12_22 
REMARK    7  A    between atoms: C21_32  and  N5_33 
REMARK    8  A    between atoms: N6_36  and  C24_37 
REMARK    9  A    between atoms: C24_37  and  C25_38 
REMARK   10  A    between atoms: C25_38  and  O3_39 
ROOT
HETATM    1  C4  UNL     1      66.736  60.027 110.352  1.00  0.00     0.150 A 
HETATM    2  N3  UNL     1      66.622  61.239 109.841  1.00  0.00    -0.345 N 
ATOM      3  H3  UNL     1      67.437  61.851 109.792  1.00  0.00     0.167 HD
HETATM    4  C5  UNL     1      65.475  61.650 109.401  1.00  0.00     0.115 A 
HETATM    5  C6  UNL     1      64.415  60.782 109.494  1.00  0.00     0.091 A 
HETATM    6  S1  UNL     1      65.145  59.419 110.214  1.00  0.00    -0.047 SA
ENDROOT
BRANCH   1   7
HETATM    7  N2  UNL     1      67.923  59.430 110.877  1.00  0.00    -0.323 N 
ATOM      8  H2  UNL     1      68.837  59.848 110.708  1.00  0.00     0.169 HD
BRANCH   7   9
HETATM    9  C3  UNL     1      67.796  58.244 111.637  1.00  0.00     0.111 A 
HETATM   10  N1  UNL     1      66.591  57.727 111.999  1.00  0.00    -0.332 N 
HETATM   11  C2  UNL     1      66.495  56.607 112.716  1.00  0.00     0.080 A 
ATOM     12  H1  UNL     1      65.739  58.210 111.715  1.00  0.00     0.168 HD
HETATM   13  C1  UNL     1      65.170  56.075 113.093  1.00  0.00     0.089 C 
HETATM   14  N7  UNL     1      67.601  55.961 113.097  1.00  0.00    -0.332 N 
HETATM   15  C21 UNL     1      68.869  56.390 112.787  1.00  0.00     0.108 A 
ATOM     16  H7  UNL     1      67.498  55.107 113.646  1.00  0.00     0.168 HD
HETATM   17  C20 UNL     1      68.910  57.553 112.045  1.00  0.00     0.097 A 
BRANCH  15  18
HETATM   18  N5  UNL     1      70.000  55.687 113.207  1.00  0.00    -0.364 N 
HETATM   19  C22 UNL     1      70.660  54.718 112.380  1.00  0.00     0.154 C 
HETATM   20  C23 UNL     1      72.116  55.045 112.357  1.00  0.00     0.292 C 
HETATM   21  N6  UNL     1      72.514  56.252 112.985  1.00  0.00     0.093 N 
HETATM   22  C26 UNL     1      71.892  56.605 114.214  1.00  0.00     0.292 C 
HETATM   23  C27 UNL     1      70.594  55.869 114.488  1.00  0.00     0.154 C 
BRANCH  21  24
HETATM   24  C24 UNL     1      73.954  56.230 113.193  1.00  0.00     0.298 C 
BRANCH  24  25
HETATM   25  C25 UNL     1      74.647  57.077 112.117  1.00  0.00     0.194 C 
BRANCH  25  26
HETATM   26  O3  UNL     1      73.860  58.210 111.862  1.00  0.00    -0.399 OA
ATOM     27  H3  UNL     1      74.098  58.561 111.011  1.00  0.00     0.209 HD
ENDBRANCH  25  26
ENDBRANCH  24  25
ENDBRANCH  21  24
ENDBRANCH  15  18
ENDBRANCH   7   9
ENDBRANCH   1   7
BRANCH   5  28
HETATM   28  C7  UNL     1      63.012  60.990 109.075  1.00  0.00     0.264 C 
HETATM   29  O1  UNL     1      62.186  60.163 109.499  1.00  0.00    -0.267 OA
HETATM   30  N4  UNL     1      62.614  62.038 108.257  1.00  0.00    -0.322 N 
ATOM     31  H4  UNL     1      63.352  62.672 107.952  1.00  0.00     0.169 HD
BRANCH  30  32
HETATM   32  C8  UNL     1      61.304  62.337 107.794  1.00  0.00     0.035 A 
HETATM   33  C9  UNL     1      60.805  61.935 106.591  1.00  0.00     0.032 A 
HETATM   34  C10 UNL     1      59.529  62.261 106.197  1.00  0.00     0.039 A 
HETATM   35  C11 UNL     1      58.675  63.007 106.977  1.00  0.00     0.076 A 
HETATM   36  C18 UNL     1      59.173  63.419 108.196  1.00  0.00     0.039 A 
HETATM   37  C19 UNL     1      60.446  63.091 108.587  1.00  0.00     0.032 A 
BRANCH  35  38
HETATM   38  O2  UNL     1      57.394  63.313 106.538  1.00  0.00    -0.311 OA
BRANCH  38  39
HETATM   39  C12 UNL     1      56.792  64.546 106.718  1.00  0.00     0.076 A 
HETATM   40  C13 UNL     1      55.433  64.588 106.911  1.00  0.00     0.037 A 
HETATM   41  C14 UNL     1      54.836  65.821 107.090  1.00  0.00     0.003 A 
HETATM   42  C15 UNL     1      55.551  67.006 107.083  1.00  0.00     0.000 A 
HETATM   43  C16 UNL     1      56.907  66.913 106.887  1.00  0.00     0.003 A 
HETATM   44  C17 UNL     1      57.517  65.711 106.708  1.00  0.00     0.037 A 
ENDBRANCH  38  39
ENDBRANCH  35  38
ENDBRANCH  30  32
ENDBRANCH   5  28
TORSDOF 10
ENDMDL
