MODEL 1
REMARK VINA RESULT: -8.846869256      0.000      0.000
REMARK  2 active torsions:
REMARK  status: ('A' for Active; 'I' for Inactive)
REMARK    1  A    between atoms: C1_2  and  C2_4 
REMARK    2  A    between atoms: C2_4  and  C3_5 
ROOT
HETATM    1  C3  UNL     1       3.545 -14.466  -5.439  1.00  0.00     0.047 A 
HETATM    2  N1  UNL     1       2.789 -13.482  -5.932  1.00  0.00    -0.301 N 
ATOM      3  H1  UNL     1       3.157 -12.532  -5.891  1.00  0.00     0.186 HD
HETATM    4  N2  UNL     1       1.588 -13.660  -6.473  1.00  0.00    -0.266 N 
ATOM      5  H2  UNL     1       1.053 -12.870  -6.834  1.00  0.00     0.190 HD
HETATM    6  C4  UNL     1       1.099 -14.909  -6.531  1.00  0.00     0.271 A 
HETATM    7  O3  UNL     1      -0.036 -15.102  -7.038  1.00  0.00    -0.266 OA
HETATM    8  C5  UNL     1       1.802 -15.996  -6.050  1.00  0.00     0.045 A 
HETATM    9  C6  UNL     1       1.312 -17.287  -6.103  1.00  0.00     0.018 A 
HETATM   10  C7  UNL     1       2.036 -18.371  -5.614  1.00  0.00     0.001 A 
HETATM   11  C8  UNL     1       3.281 -18.133  -5.059  1.00  0.00     0.001 A 
HETATM   12  C9  UNL     1       3.759 -16.836  -5.011  1.00  0.00     0.014 A 
HETATM   13  C10 UNL     1       3.046 -15.756  -5.496  1.00  0.00     0.004 A 
ENDROOT
BRANCH   1  14
HETATM   14  C2  UNL     1       4.885 -14.244  -4.835  1.00  0.00     0.172 C 
BRANCH  14  15
HETATM   15  C1  UNL     1       5.802 -13.645  -5.837  1.00  0.00     0.178 C 
HETATM   16  O1  UNL     1       6.814 -14.301  -6.212  1.00  0.00    -0.648 OA
HETATM   17  O2  UNL     1       5.605 -12.392  -6.384  1.00  0.00    -0.648 OA
ENDBRANCH  14  15
ENDBRANCH   1  14
TORSDOF 2
ENDMDL
