MODEL 4
REMARK VINA RESULT: -8.658197092      1.161      1.503
REMARK  2 active torsions:
REMARK  status: ('A' for Active; 'I' for Inactive)
REMARK    1  A    between atoms: C1_2  and  C2_4 
REMARK    2  A    between atoms: C2_4  and  C3_5 
ROOT
HETATM    1  C3  UNL     1       3.010 -14.824  -5.792  1.00  0.00     0.047 A 
HETATM    2  N1  UNL     1       2.083 -14.173  -6.498  1.00  0.00    -0.301 N 
ATOM      3  H1  UNL     1       2.227 -13.178  -6.672  1.00  0.00     0.186 HD
HETATM    4  N2  UNL     1       0.984 -14.737  -6.989  1.00  0.00    -0.266 N 
ATOM      5  H2  UNL     1       0.308 -14.190  -7.523  1.00  0.00     0.190 HD
HETATM    6  C4  UNL     1       0.790 -16.046  -6.764  1.00  0.00     0.271 A 
HETATM    7  O3  UNL     1      -0.242 -16.602  -7.219  1.00  0.00    -0.266 OA
HETATM    8  C5  UNL     1       1.690 -16.809  -6.046  1.00  0.00     0.045 A 
HETATM    9  C6  UNL     1       1.505 -18.158  -5.807  1.00  0.00     0.018 A 
HETATM   10  C7  UNL     1       2.424 -18.910  -5.081  1.00  0.00     0.001 A 
HETATM   11  C8  UNL     1       3.550 -18.276  -4.590  1.00  0.00     0.001 A 
HETATM   12  C9  UNL     1       3.724 -16.926  -4.836  1.00  0.00     0.014 A 
HETATM   13  C10 UNL     1       2.816 -16.173  -5.556  1.00  0.00     0.004 A 
ENDROOT
BRANCH   1  14
HETATM   14  C2  UNL     1       4.231 -14.171  -5.248  1.00  0.00     0.172 C 
BRANCH  14  15
HETATM   15  C1  UNL     1       4.201 -12.715  -5.535  1.00  0.00     0.178 C 
HETATM   16  O1  UNL     1       3.232 -12.026  -5.107  1.00  0.00    -0.648 OA
HETATM   17  O2  UNL     1       5.187 -12.069  -6.254  1.00  0.00    -0.648 OA
ENDBRANCH  14  15
ENDBRANCH   1  14
TORSDOF 2
ENDMDL
