MODEL 6
REMARK VINA RESULT: -8.386401970      0.864      1.255
REMARK  2 active torsions:
REMARK  status: ('A' for Active; 'I' for Inactive)
REMARK    1  A    between atoms: C1_2  and  C2_4 
REMARK    2  A    between atoms: C2_4  and  C3_5 
ROOT
HETATM    1  C3  UNL     1       3.450 -13.853  -5.475  1.00  0.00     0.047 A 
HETATM    2  N1  UNL     1       2.471 -13.144  -6.043  1.00  0.00    -0.301 N 
ATOM      3  H1  UNL     1       2.578 -12.131  -6.085  1.00  0.00     0.186 HD
HETATM    4  N2  UNL     1       1.366 -13.674  -6.559  1.00  0.00    -0.266 N 
ATOM      5  H2  UNL     1       0.649 -13.084  -6.981  1.00  0.00     0.190 HD
HETATM    6  C4  UNL     1       1.221 -15.008  -6.509  1.00  0.00     0.271 A 
HETATM    7  O3  UNL     1       0.184 -15.532  -6.990  1.00  0.00    -0.266 OA
HETATM    8  C5  UNL     1       2.176 -15.830  -5.944  1.00  0.00     0.045 A 
HETATM    9  C6  UNL     1       2.041 -17.204  -5.885  1.00  0.00     0.018 A 
HETATM   10  C7  UNL     1       3.015 -18.016  -5.312  1.00  0.00     0.001 A 
HETATM   11  C8  UNL     1       4.146 -17.416  -4.788  1.00  0.00     0.001 A 
HETATM   12  C9  UNL     1       4.269 -16.040  -4.852  1.00  0.00     0.014 A 
HETATM   13  C10 UNL     1       3.306 -15.228  -5.421  1.00  0.00     0.004 A 
ENDROOT
BRANCH   1  14
HETATM   14  C2  UNL     1       4.676 -13.239  -4.901  1.00  0.00     0.172 C 
BRANCH  14  15
HETATM   15  C1  UNL     1       5.264 -12.277  -5.867  1.00  0.00     0.178 C 
HETATM   16  O1  UNL     1       4.853 -11.082  -5.870  1.00  0.00    -0.648 OA
HETATM   17  O2  UNL     1       6.246 -12.625  -6.773  1.00  0.00    -0.648 OA
ENDBRANCH  14  15
ENDBRANCH   1  14
TORSDOF 2
ENDMDL
