MODEL 15
REMARK VINA RESULT: -7.234961256      2.117      4.430
REMARK  2 active torsions:
REMARK  status: ('A' for Active; 'I' for Inactive)
REMARK    1  A    between atoms: C1_2  and  C2_4 
REMARK    2  A    between atoms: C2_4  and  C3_5 
ROOT
HETATM    1  C3  UNL     1       2.741 -16.576  -5.849  1.00  0.00     0.047 A 
HETATM    2  N1  UNL     1       1.735 -16.063  -6.563  1.00  0.00    -0.301 N 
ATOM      3  H1  UNL     1       1.055 -16.710  -6.961  1.00  0.00     0.186 HD
HETATM    4  N2  UNL     1       1.563 -14.764  -6.786  1.00  0.00    -0.266 N 
ATOM      5  H2  UNL     1       0.775 -14.428  -7.340  1.00  0.00     0.190 HD
HETATM    6  C4  UNL     1       2.454 -13.908  -6.262  1.00  0.00     0.271 A 
HETATM    7  O3  UNL     1       2.312 -12.674  -6.461  1.00  0.00    -0.266 OA
HETATM    8  C5  UNL     1       3.529 -14.336  -5.509  1.00  0.00     0.045 A 
HETATM    9  C6  UNL     1       4.455 -13.467  -4.962  1.00  0.00     0.018 A 
HETATM   10  C7  UNL     1       5.532 -13.919  -4.205  1.00  0.00     0.001 A 
HETATM   11  C8  UNL     1       5.668 -15.280  -4.002  1.00  0.00     0.001 A 
HETATM   12  C9  UNL     1       4.736 -16.139  -4.554  1.00  0.00     0.014 A 
HETATM   13  C10 UNL     1       3.664 -15.698  -5.307  1.00  0.00     0.004 A 
ENDROOT
BRANCH   1  14
HETATM   14  C2  UNL     1       2.918 -18.033  -5.615  1.00  0.00     0.172 C 
BRANCH  14  15
HETATM   15  C1  UNL     1       1.596 -18.711  -5.602  1.00  0.00     0.178 C 
HETATM   16  O1  UNL     1       1.540 -19.949  -5.845  1.00  0.00    -0.648 OA
HETATM   17  O2  UNL     1       0.413 -18.049  -5.339  1.00  0.00    -0.648 OA
ENDBRANCH  14  15
ENDBRANCH   1  14
TORSDOF 2
ENDMDL
