MODEL 12
REMARK VINA RESULT: -7.821923501      2.720      5.421
REMARK  2 active torsions:
REMARK  status: ('A' for Active; 'I' for Inactive)
REMARK    1  A    between atoms: C1_2  and  C2_4 
REMARK    2  A    between atoms: C2_4  and  C3_5 
ROOT
HETATM    1  C3  UNL     1       3.137 -16.791  -5.579  1.00  0.00     0.047 A 
HETATM    2  N1  UNL     1       3.684 -17.937  -5.165  1.00  0.00    -0.301 N 
ATOM      3  H1  UNL     1       3.212 -18.807  -5.411  1.00  0.00     0.186 HD
HETATM    4  N2  UNL     1       4.804 -18.017  -4.454  1.00  0.00    -0.266 N 
ATOM      5  H2  UNL     1       5.177 -18.922  -4.164  1.00  0.00     0.190 HD
HETATM    6  C4  UNL     1       5.430 -16.876  -4.129  1.00  0.00     0.271 A 
HETATM    7  O3  UNL     1       6.492 -16.926  -3.456  1.00  0.00    -0.266 OA
HETATM    8  C5  UNL     1       4.947 -15.639  -4.509  1.00  0.00     0.045 A 
HETATM    9  C6  UNL     1       5.581 -14.455  -4.183  1.00  0.00     0.018 A 
HETATM   10  C7  UNL     1       5.079 -13.218  -4.576  1.00  0.00     0.001 A 
HETATM   11  C8  UNL     1       3.909 -13.187  -5.313  1.00  0.00     0.001 A 
HETATM   12  C9  UNL     1       3.284 -14.379  -5.633  1.00  0.00     0.014 A 
HETATM   13  C10 UNL     1       3.777 -15.611  -5.247  1.00  0.00     0.004 A 
ENDROOT
BRANCH   1  14
HETATM   14  C2  UNL     1       1.880 -16.724  -6.371  1.00  0.00     0.172 C 
BRANCH  14  15
HETATM   15  C1  UNL     1       0.898 -17.709  -5.851  1.00  0.00     0.178 C 
HETATM   16  O1  UNL     1      -0.250 -17.307  -5.510  1.00  0.00    -0.648 OA
HETATM   17  O2  UNL     1       1.178 -19.054  -5.719  1.00  0.00    -0.648 OA
ENDBRANCH  14  15
ENDBRANCH   1  14
TORSDOF 2
ENDMDL
