MODEL 9
REMARK VINA RESULT: -8.010480667      1.526      4.417
REMARK  2 active torsions:
REMARK  status: ('A' for Active; 'I' for Inactive)
REMARK    1  A    between atoms: C1_2  and  C2_4 
REMARK    2  A    between atoms: C2_4  and  C3_5 
ROOT
HETATM    1  C3  UNL     1       2.772 -16.114  -5.726  1.00  0.00     0.047 A 
HETATM    2  N1  UNL     1       2.508 -14.850  -6.064  1.00  0.00    -0.301 N 
ATOM      3  H1  UNL     1       1.664 -14.668  -6.608  1.00  0.00     0.186 HD
HETATM    4  N2  UNL     1       3.273 -13.813  -5.738  1.00  0.00    -0.266 N 
ATOM      5  H2  UNL     1       3.023 -12.866  -6.024  1.00  0.00     0.190 HD
HETATM    6  C4  UNL     1       4.383 -14.047  -5.021  1.00  0.00     0.271 A 
HETATM    7  O3  UNL     1       5.124 -13.081  -4.701  1.00  0.00    -0.266 OA
HETATM    8  C5  UNL     1       4.745 -15.318  -4.620  1.00  0.00     0.045 A 
HETATM    9  C6  UNL     1       5.885 -15.574  -3.881  1.00  0.00     0.018 A 
HETATM   10  C7  UNL     1       6.232 -16.863  -3.486  1.00  0.00     0.001 A 
HETATM   11  C8  UNL     1       5.403 -17.908  -3.851  1.00  0.00     0.001 A 
HETATM   12  C9  UNL     1       4.267 -17.639  -4.591  1.00  0.00     0.014 A 
HETATM   13  C10 UNL     1       3.915 -16.362  -4.987  1.00  0.00     0.004 A 
ENDROOT
BRANCH   1  14
HETATM   14  C2  UNL     1       1.903 -17.260  -6.105  1.00  0.00     0.172 C 
BRANCH  14  15
HETATM   15  C1  UNL     1       0.525 -16.784  -6.383  1.00  0.00     0.178 C 
HETATM   16  O1  UNL     1      -0.422 -17.188  -5.650  1.00  0.00    -0.648 OA
HETATM   17  O2  UNL     1       0.221 -15.916  -7.412  1.00  0.00    -0.648 OA
ENDBRANCH  14  15
ENDBRANCH   1  14
TORSDOF 2
ENDMDL
