MODEL 3
REMARK VINA RESULT: -8.670826161      1.588      2.341
REMARK  8 active torsions:
REMARK  status: ('A' for Active; 'I' for Inactive)
REMARK    1  A    between atoms: C5_5  and  C6_6 
REMARK    2  A    between atoms: C6_6  and  O1_7 
REMARK    3  A    between atoms: C6_6  and  N1_9 
REMARK    4  A    between atoms: C10_13  and  C11_14 
REMARK       I    between atoms: C11_14  and  N2_16 
REMARK    5  A    between atoms: N2_16  and  C12_18 
REMARK    6  A    between atoms: C12_18  and  C13_19 
REMARK    7  A    between atoms: C18_25  and  C19_26 
REMARK    8  A    between atoms: C19_26  and  N3_27 
ROOT
HETATM    1  C11 UNL     1       5.114  21.076  50.333  1.00  0.00     0.244 C 
HETATM    2  O2  UNL     1       5.828  20.226  49.666  1.00  0.00    -0.271 OA
HETATM    3  N2  UNL     1       5.887  21.952  51.168  1.00  0.00    -0.335 N 
ATOM      4  H2  UNL     1       5.409  22.583  51.812  1.00  0.00     0.168 HD
ENDROOT
BRANCH   1   5
HETATM    5  C10 UNL     1       3.661  21.005  50.106  1.00  0.00     0.178 C 
HETATM    6  N1  UNL     1       3.255  19.546  50.254  1.00  0.00    -0.347 N 
HETATM    7  C7  UNL     1       3.824  19.230  51.481  1.00  0.00     0.126 C 
HETATM    8  C8  UNL     1       3.268  20.374  52.379  1.00  0.00     0.022 C 
HETATM    9  C9  UNL     1       3.072  21.517  51.402  1.00  0.00     0.037 C 
BRANCH   6  10
HETATM   10  C6  UNL     1       2.721  18.918  49.132  1.00  0.00     0.166 C 
BRANCH  10  11
HETATM   11  C5  UNL     1       3.387  18.218  48.058  1.00  0.00     0.083 A 
HETATM   12  C4  UNL     1       3.232  18.336  46.692  1.00  0.00     0.036 A 
HETATM   13  C3  UNL     1       3.859  17.284  46.076  1.00  0.00     0.027 A 
HETATM   14  C2  UNL     1       4.413  16.506  47.065  1.00  0.00     0.005 A 
HETATM   15  C1  UNL     1       5.158  15.213  46.983  1.00  0.00     0.068 C 
HETATM   16  N4  UNL     1       4.116  17.100  48.253  1.00  0.00    -0.357 N 
ATOM     17  H4  UNL     1       4.405  16.749  49.166  1.00  0.00     0.166 HD
ENDBRANCH  10  11
BRANCH  10  18
HETATM   18  O1  UNL     1       1.411  18.991  49.022  1.00  0.00    -0.344 OA
ATOM     19  H1  UNL     1       0.994  19.629  49.590  1.00  0.00     0.219 HD
ENDBRANCH  10  18
ENDBRANCH   6  10
ENDBRANCH   1   5
BRANCH   3  20
HETATM   20  C12 UNL     1       7.284  21.954  51.114  1.00  0.00     0.103 C 
BRANCH  20  21
HETATM   21  C13 UNL     1       8.153  22.377  50.095  1.00  0.00    -0.011 A 
HETATM   22  C14 UNL     1       8.198  23.547  49.361  1.00  0.00     0.037 A 
HETATM   23  C15 UNL     1       9.116  23.720  48.362  1.00  0.00     0.035 A 
HETATM   24 CL1  UNL     1       9.173  25.204  47.406  1.00  0.00    -0.084 Cl
HETATM   25  C16 UNL     1      10.047  22.727  48.051  1.00  0.00     0.024 A 
HETATM   26  C17 UNL     1      10.030  21.551  48.754  1.00  0.00     0.011 A 
HETATM   27  C18 UNL     1       9.129  21.370  49.734  1.00  0.00    -0.021 A 
BRANCH  27  28
HETATM   28  C19 UNL     1       9.046  20.088  50.482  1.00  0.00     0.269 C 
BRANCH  28  29
HETATM   29  N3  UNL     1       8.441  19.090  49.600  1.00  0.00    -0.075 N 
ATOM     30  H33 UNL     1       7.842  19.505  48.886  1.00  0.00     0.274 HD
ATOM     31  H32 UNL     1       9.118  18.655  48.973  1.00  0.00     0.274 HD
ATOM     32  H31 UNL     1       7.950  18.412  50.182  1.00  0.00     0.274 HD
ENDBRANCH  28  29
ENDBRANCH  27  28
ENDBRANCH  20  21
ENDBRANCH   3  20
TORSDOF 8
ENDMDL
