MODEL 12
REMARK VINA RESULT: -8.178869057      1.005      1.098
REMARK  8 active torsions:
REMARK  status: ('A' for Active; 'I' for Inactive)
REMARK    1  A    between atoms: C5_5  and  C6_6 
REMARK    2  A    between atoms: C6_6  and  O1_7 
REMARK    3  A    between atoms: C6_6  and  N1_9 
REMARK    4  A    between atoms: C10_13  and  C11_14 
REMARK       I    between atoms: C11_14  and  N2_16 
REMARK    5  A    between atoms: N2_16  and  C12_18 
REMARK    6  A    between atoms: C12_18  and  C13_19 
REMARK    7  A    between atoms: C18_25  and  C19_26 
REMARK    8  A    between atoms: C19_26  and  N3_27 
ROOT
HETATM    1  C11 UNL     1       5.144  21.019  50.226  1.00  0.00     0.244 C 
HETATM    2  O2  UNL     1       5.963  20.242  49.590  1.00  0.00    -0.271 OA
HETATM    3  N2  UNL     1       5.792  21.927  51.130  1.00  0.00    -0.335 N 
ATOM      4  H2  UNL     1       5.227  22.503  51.754  1.00  0.00     0.168 HD
ENDROOT
BRANCH   1   5
HETATM    5  C10 UNL     1       3.719  20.846  49.900  1.00  0.00     0.178 C 
HETATM    6  N1  UNL     1       3.479  19.355  49.716  1.00  0.00    -0.347 N 
HETATM    7  C7  UNL     1       4.033  18.845  50.883  1.00  0.00     0.126 C 
HETATM    8  C8  UNL     1       3.316  19.707  51.963  1.00  0.00     0.022 C 
HETATM    9  C9  UNL     1       3.026  21.005  51.236  1.00  0.00     0.037 C 
BRANCH   6  10
HETATM   10  C6  UNL     1       3.064  18.929  48.458  1.00  0.00     0.166 C 
BRANCH  10  11
HETATM   11  C5  UNL     1       1.746  18.566  47.991  1.00  0.00     0.083 A 
HETATM   12  C4  UNL     1       0.700  19.365  47.576  1.00  0.00     0.036 A 
HETATM   13  C3  UNL     1      -0.440  18.607  47.494  1.00  0.00     0.027 A 
HETATM   14  C2  UNL     1      -0.102  17.325  47.857  1.00  0.00     0.005 A 
HETATM   15  C1  UNL     1      -0.947  16.101  48.005  1.00  0.00     0.068 C 
HETATM   16  N4  UNL     1       1.228  17.330  48.146  1.00  0.00    -0.357 N 
ATOM     17  H4  UNL     1       1.761  16.511  48.439  1.00  0.00     0.166 HD
ENDBRANCH  10  11
BRANCH  10  18
HETATM   18  O1  UNL     1       4.022  18.817  47.561  1.00  0.00    -0.344 OA
ATOM     19  H1  UNL     1       4.525  19.609  47.409  1.00  0.00     0.219 HD
ENDBRANCH  10  18
ENDBRANCH   6  10
ENDBRANCH   1   5
BRANCH   3  20
HETATM   20  C12 UNL     1       7.185  22.034  51.170  1.00  0.00     0.103 C 
BRANCH  20  21
HETATM   21  C13 UNL     1       8.096  22.419  50.173  1.00  0.00    -0.011 A 
HETATM   22  C14 UNL     1       8.184  23.569  49.412  1.00  0.00     0.037 A 
HETATM   23  C15 UNL     1       9.139  23.705  48.442  1.00  0.00     0.035 A 
HETATM   24 CL1  UNL     1       9.251  25.164  47.453  1.00  0.00    -0.084 Cl
HETATM   25  C16 UNL     1      10.066  22.692  48.189  1.00  0.00     0.024 A 
HETATM   26  C17 UNL     1      10.007  21.535  48.920  1.00  0.00     0.011 A 
HETATM   27  C18 UNL     1       9.069  21.390  49.872  1.00  0.00    -0.021 A 
BRANCH  27  28
HETATM   28  C19 UNL     1       8.941  20.129  50.647  1.00  0.00     0.269 C 
BRANCH  28  29
HETATM   29  N3  UNL     1       8.528  19.072  49.724  1.00  0.00    -0.075 N 
ATOM     30  H33 UNL     1       7.744  19.349  49.133  1.00  0.00     0.274 HD
ATOM     31  H32 UNL     1       9.208  18.908  48.982  1.00  0.00     0.274 HD
ATOM     32  H31 UNL     1       8.333  18.234  50.272  1.00  0.00     0.274 HD
ENDBRANCH  28  29
ENDBRANCH  27  28
ENDBRANCH  20  21
ENDBRANCH   3  20
TORSDOF 8
ENDMDL
