MODEL 4
REMARK VINA RESULT: -8.557523486      2.969      7.300
REMARK  8 active torsions:
REMARK  status: ('A' for Active; 'I' for Inactive)
REMARK    1  A    between atoms: C5_5  and  C6_6 
REMARK    2  A    between atoms: C6_6  and  O1_7 
REMARK    3  A    between atoms: C6_6  and  N1_9 
REMARK    4  A    between atoms: C10_13  and  C11_14 
REMARK       I    between atoms: C11_14  and  N2_16 
REMARK    5  A    between atoms: N2_16  and  C12_18 
REMARK    6  A    between atoms: C12_18  and  C13_19 
REMARK    7  A    between atoms: C18_25  and  C19_26 
REMARK    8  A    between atoms: C19_26  and  N3_27 
ROOT
HETATM    1  C11 UNL     1       3.090  19.077  50.884  1.00  0.00     0.244 C 
HETATM    2  O2  UNL     1       2.082  18.282  51.054  1.00  0.00    -0.271 OA
HETATM    3  N2  UNL     1       3.648  19.029  49.562  1.00  0.00    -0.335 N 
ATOM      4  H2  UNL     1       4.509  19.538  49.362  1.00  0.00     0.168 HD
ENDROOT
BRANCH   1   5
HETATM    5  C10 UNL     1       3.466  19.888  52.053  1.00  0.00     0.178 C 
HETATM    6  N1  UNL     1       3.900  21.250  51.534  1.00  0.00    -0.347 N 
HETATM    7  C7  UNL     1       2.824  21.586  50.721  1.00  0.00     0.126 C 
HETATM    8  C8  UNL     1       1.628  21.377  51.695  1.00  0.00     0.022 C 
HETATM    9  C9  UNL     1       2.134  20.305  52.641  1.00  0.00     0.037 C 
BRANCH   6  10
HETATM   10  C6  UNL     1       5.218  21.629  51.767  1.00  0.00     0.166 C 
BRANCH  10  11
HETATM   11  C5  UNL     1       6.362  21.595  50.885  1.00  0.00     0.083 A 
HETATM   12  C4  UNL     1       7.070  20.518  50.391  1.00  0.00     0.036 A 
HETATM   13  C3  UNL     1       8.236  20.968  49.827  1.00  0.00     0.027 A 
HETATM   14  C2  UNL     1       8.254  22.336  49.967  1.00  0.00     0.005 A 
HETATM   15  C1  UNL     1       9.297  23.339  49.592  1.00  0.00     0.068 C 
HETATM   16  N4  UNL     1       7.104  22.686  50.604  1.00  0.00    -0.357 N 
ATOM     17  H4  UNL     1       6.838  23.643  50.838  1.00  0.00     0.166 HD
ENDBRANCH  10  11
BRANCH  10  18
HETATM   18  O1  UNL     1       5.467  22.065  52.985  1.00  0.00    -0.344 OA
ATOM     19  H1  UNL     1       4.770  22.574  53.381  1.00  0.00     0.219 HD
ENDBRANCH  10  18
ENDBRANCH   6  10
ENDBRANCH   1   5
BRANCH   3  20
HETATM   20  C12 UNL     1       3.031  18.295  48.544  1.00  0.00     0.103 C 
BRANCH  20  21
HETATM   21  C13 UNL     1       1.971  18.640  47.691  1.00  0.00    -0.011 A 
HETATM   22  C14 UNL     1       0.714  19.149  47.955  1.00  0.00     0.037 A 
HETATM   23  C15 UNL     1      -0.191  19.358  46.950  1.00  0.00     0.035 A 
HETATM   24 CL1  UNL     1      -1.805  19.994  47.278  1.00  0.00    -0.084 Cl
HETATM   25  C16 UNL     1       0.122  19.073  45.620  1.00  0.00     0.024 A 
HETATM   26  C17 UNL     1       1.357  18.561  45.320  1.00  0.00     0.011 A 
HETATM   27  C18 UNL     1       2.252  18.348  46.300  1.00  0.00    -0.021 A 
BRANCH  27  28
HETATM   28  C19 UNL     1       3.580  17.745  46.018  1.00  0.00     0.269 C 
BRANCH  28  29
HETATM   29  N3  UNL     1       3.377  16.329  45.713  1.00  0.00    -0.075 N 
ATOM     30  H33 UNL     1       4.239  15.785  45.771  1.00  0.00     0.274 HD
ATOM     31  H32 UNL     1       2.858  15.839  46.442  1.00  0.00     0.274 HD
ATOM     32  H31 UNL     1       2.930  16.265  44.799  1.00  0.00     0.274 HD
ENDBRANCH  28  29
ENDBRANCH  27  28
ENDBRANCH  20  21
ENDBRANCH   3  20
TORSDOF 8
ENDMDL
