MODEL 2
REMARK VINA RESULT: -9.046144083      0.644      1.063
REMARK  8 active torsions:
REMARK  status: ('A' for Active; 'I' for Inactive)
REMARK    1  A    between atoms: C5_5  and  C6_6 
REMARK    2  A    between atoms: C6_6  and  O1_7 
REMARK    3  A    between atoms: C6_6  and  N1_9 
REMARK    4  A    between atoms: C10_13  and  C11_14 
REMARK       I    between atoms: C11_14  and  N2_16 
REMARK    5  A    between atoms: N2_16  and  C12_18 
REMARK    6  A    between atoms: C12_18  and  C13_19 
REMARK    7  A    between atoms: C18_25  and  C19_26 
REMARK    8  A    between atoms: C19_26  and  N3_27 
ROOT
HETATM    1  C11 UNL     1       5.152  21.050  50.273  1.00  0.00     0.244 C 
HETATM    2  O2  UNL     1       5.923  20.221  49.644  1.00  0.00    -0.271 OA
HETATM    3  N2  UNL     1       5.859  21.975  51.113  1.00  0.00    -0.335 N 
ATOM      4  H2  UNL     1       5.334  22.595  51.730  1.00  0.00     0.168 HD
ENDROOT
BRANCH   1   5
HETATM    5  C10 UNL     1       3.712  20.909  50.004  1.00  0.00     0.178 C 
HETATM    6  N1  UNL     1       3.378  19.429  50.111  1.00  0.00    -0.347 N 
HETATM    7  C7  UNL     1       3.929  19.116  51.348  1.00  0.00     0.126 C 
HETATM    8  C8  UNL     1       3.291  20.211  52.252  1.00  0.00     0.022 C 
HETATM    9  C9  UNL     1       3.062  21.363  51.293  1.00  0.00     0.037 C 
BRANCH   6  10
HETATM   10  C6  UNL     1       2.908  18.798  48.964  1.00  0.00     0.166 C 
BRANCH  10  11
HETATM   11  C5  UNL     1       1.840  19.179  48.069  1.00  0.00     0.083 A 
HETATM   12  C4  UNL     1       0.472  19.116  48.242  1.00  0.00     0.036 A 
HETATM   13  C3  UNL     1      -0.144  19.317  47.033  1.00  0.00     0.027 A 
HETATM   14  C2  UNL     1       0.847  19.509  46.100  1.00  0.00     0.005 A 
HETATM   15  C1  UNL     1       0.765  19.713  44.621  1.00  0.00     0.068 C 
HETATM   16  N4  UNL     1       2.036  19.426  46.757  1.00  0.00    -0.357 N 
ATOM     17  H4  UNL     1       2.950  19.536  46.319  1.00  0.00     0.166 HD
ENDBRANCH  10  11
BRANCH  10  18
HETATM   18  O1  UNL     1       3.514  17.669  48.659  1.00  0.00    -0.344 OA
ATOM     19  H1  UNL     1       3.451  16.987  49.318  1.00  0.00     0.219 HD
ENDBRANCH  10  18
ENDBRANCH   6  10
ENDBRANCH   1   5
BRANCH   3  20
HETATM   20  C12 UNL     1       7.256  22.039  51.101  1.00  0.00     0.103 C 
BRANCH  20  21
HETATM   21  C13 UNL     1       8.138  22.432  50.082  1.00  0.00    -0.011 A 
HETATM   22  C14 UNL     1       8.202  23.586  49.324  1.00  0.00     0.037 A 
HETATM   23  C15 UNL     1       9.131  23.730  48.330  1.00  0.00     0.035 A 
HETATM   24 CL1  UNL     1       9.211  25.193  47.345  1.00  0.00    -0.084 Cl
HETATM   25  C16 UNL     1      10.054  22.722  48.048  1.00  0.00     0.024 A 
HETATM   26  C17 UNL     1      10.019  21.561  48.776  1.00  0.00     0.011 A 
HETATM   27  C18 UNL     1       9.107  21.408  49.751  1.00  0.00    -0.021 A 
BRANCH  27  28
HETATM   28  C19 UNL     1       9.005  20.143  50.524  1.00  0.00     0.269 C 
BRANCH  28  29
HETATM   29  N3  UNL     1       8.481  19.110  49.631  1.00  0.00    -0.075 N 
ATOM     30  H33 UNL     1       7.549  19.330  49.276  1.00  0.00     0.274 HD
ATOM     31  H32 UNL     1       8.965  19.081  48.733  1.00  0.00     0.274 HD
ATOM     32  H31 UNL     1       8.514  18.220  50.126  1.00  0.00     0.274 HD
ENDBRANCH  28  29
ENDBRANCH  27  28
ENDBRANCH  20  21
ENDBRANCH   3  20
TORSDOF 8
ENDMDL
