MODEL 6
REMARK VINA RESULT: -8.494883803      2.819      7.737
REMARK  8 active torsions:
REMARK  status: ('A' for Active; 'I' for Inactive)
REMARK    1  A    between atoms: C5_5  and  C6_6 
REMARK    2  A    between atoms: C6_6  and  O1_7 
REMARK    3  A    between atoms: C6_6  and  N1_9 
REMARK    4  A    between atoms: C10_13  and  C11_14 
REMARK       I    between atoms: C11_14  and  N2_16 
REMARK    5  A    between atoms: N2_16  and  C12_18 
REMARK    6  A    between atoms: C12_18  and  C13_19 
REMARK    7  A    between atoms: C18_25  and  C19_26 
REMARK    8  A    between atoms: C19_26  and  N3_27 
ROOT
HETATM    1  C11 UNL     1       5.773  20.084  49.992  1.00  0.00     0.244 C 
HETATM    2  O2  UNL     1       5.114  21.150  50.321  1.00  0.00    -0.271 OA
HETATM    3  N2  UNL     1       4.936  18.962  49.673  1.00  0.00    -0.335 N 
ATOM      4  H2  UNL     1       5.361  18.050  49.507  1.00  0.00     0.168 HD
ENDROOT
BRANCH   1   5
HETATM    5  C10 UNL     1       7.239  20.217  49.988  1.00  0.00     0.178 C 
HETATM    6  N1  UNL     1       7.603  21.198  51.092  1.00  0.00    -0.347 N 
HETATM    7  C7  UNL     1       6.917  20.656  52.173  1.00  0.00     0.126 C 
HETATM    8  C8  UNL     1       7.407  19.179  52.136  1.00  0.00     0.022 C 
HETATM    9  C9  UNL     1       7.714  18.952  50.669  1.00  0.00     0.037 C 
BRANCH   6  10
HETATM   10  C6  UNL     1       8.228  22.382  50.711  1.00  0.00     0.166 C 
BRANCH  10  11
HETATM   11  C5  UNL     1       8.775  22.770  49.432  1.00  0.00     0.083 A 
HETATM   12  C4  UNL     1       9.775  22.187  48.681  1.00  0.00     0.036 A 
HETATM   13  C3  UNL     1      10.150  23.051  47.684  1.00  0.00     0.027 A 
HETATM   14  C2  UNL     1       9.375  24.179  47.812  1.00  0.00     0.005 A 
HETATM   15  C1  UNL     1       9.386  25.461  47.042  1.00  0.00     0.068 C 
HETATM   16  N4  UNL     1       8.548  23.977  48.874  1.00  0.00    -0.357 N 
ATOM     17  H4  UNL     1       7.852  24.646  49.204  1.00  0.00     0.166 HD
ENDBRANCH  10  11
BRANCH  10  18
HETATM   18  O1  UNL     1       8.361  23.277  51.669  1.00  0.00    -0.344 OA
ATOM     19  H1  UNL     1       7.999  23.022  52.510  1.00  0.00     0.219 HD
ENDBRANCH  10  18
ENDBRANCH   6  10
ENDBRANCH   1   5
BRANCH   3  20
HETATM   20  C12 UNL     1       3.547  19.099  49.586  1.00  0.00     0.103 C 
BRANCH  20  21
HETATM   21  C13 UNL     1       2.656  18.696  48.579  1.00  0.00    -0.011 A 
HETATM   22  C14 UNL     1       2.375  19.235  47.339  1.00  0.00     0.037 A 
HETATM   23  C15 UNL     1       1.409  18.696  46.534  1.00  0.00     0.035 A 
HETATM   24 CL1  UNL     1       1.031  19.387  44.953  1.00  0.00    -0.084 Cl
HETATM   25  C16 UNL     1       0.676  17.577  46.930  1.00  0.00     0.024 A 
HETATM   26  C17 UNL     1       0.922  17.016  48.156  1.00  0.00     0.011 A 
HETATM   27  C18 UNL     1       1.866  17.541  48.956  1.00  0.00    -0.021 A 
BRANCH  27  28
HETATM   28  C19 UNL     1       2.123  16.994  50.313  1.00  0.00     0.269 C 
BRANCH  28  29
HETATM   29  N3  UNL     1       0.916  16.296  50.754  1.00  0.00    -0.075 N 
ATOM     30  H33 UNL     1       0.073  16.863  50.655  1.00  0.00     0.274 HD
ATOM     31  H32 UNL     1       0.646  15.539  50.126  1.00  0.00     0.274 HD
ATOM     32  H31 UNL     1       1.068  15.979  51.712  1.00  0.00     0.274 HD
ENDBRANCH  28  29
ENDBRANCH  27  28
ENDBRANCH  20  21
ENDBRANCH   3  20
TORSDOF 8
ENDMDL
