MODEL 5
REMARK VINA RESULT: -8.497021208      2.898      7.371
REMARK  8 active torsions:
REMARK  status: ('A' for Active; 'I' for Inactive)
REMARK    1  A    between atoms: C5_5  and  C6_6 
REMARK    2  A    between atoms: C6_6  and  O1_7 
REMARK    3  A    between atoms: C6_6  and  N1_9 
REMARK    4  A    between atoms: C10_13  and  C11_14 
REMARK       I    between atoms: C11_14  and  N2_16 
REMARK    5  A    between atoms: N2_16  and  C12_18 
REMARK    6  A    between atoms: C12_18  and  C13_19 
REMARK    7  A    between atoms: C18_25  and  C19_26 
REMARK    8  A    between atoms: C19_26  and  N3_27 
ROOT
HETATM    1  C11 UNL     1       6.002  19.749  50.020  1.00  0.00     0.244 C 
HETATM    2  O2  UNL     1       5.242  20.797  50.079  1.00  0.00    -0.271 OA
HETATM    3  N2  UNL     1       5.282  18.523  49.815  1.00  0.00    -0.335 N 
ATOM      4  H2  UNL     1       5.781  17.635  49.863  1.00  0.00     0.168 HD
ENDROOT
BRANCH   1   5
HETATM    5  C10 UNL     1       7.445  20.001  50.155  1.00  0.00     0.178 C 
HETATM    6  N1  UNL     1       7.617  21.069  51.224  1.00  0.00    -0.347 N 
HETATM    7  C7  UNL     1       6.863  20.536  52.263  1.00  0.00     0.126 C 
HETATM    8  C8  UNL     1       7.464  19.105  52.372  1.00  0.00     0.022 C 
HETATM    9  C9  UNL     1       7.940  18.819  50.961  1.00  0.00     0.037 C 
BRANCH   6  10
HETATM   10  C6  UNL     1       8.187  22.276  50.831  1.00  0.00     0.166 C 
BRANCH  10  11
HETATM   11  C5  UNL     1       8.741  22.667  49.555  1.00  0.00     0.083 A 
HETATM   12  C4  UNL     1       9.775  22.112  48.829  1.00  0.00     0.036 A 
HETATM   13  C3  UNL     1      10.134  22.975  47.826  1.00  0.00     0.027 A 
HETATM   14  C2  UNL     1       9.315  24.075  47.925  1.00  0.00     0.005 A 
HETATM   15  C1  UNL     1       9.292  25.346  47.137  1.00  0.00     0.068 C 
HETATM   16  N4  UNL     1       8.479  23.857  48.976  1.00  0.00    -0.357 N 
ATOM     17  H4  UNL     1       7.753  24.504  49.285  1.00  0.00     0.166 HD
ENDBRANCH  10  11
BRANCH  10  18
HETATM   18  O1  UNL     1       8.253  23.196  51.772  1.00  0.00    -0.344 OA
ATOM     19  H1  UNL     1       7.952  22.916  52.629  1.00  0.00     0.219 HD
ENDBRANCH  10  18
ENDBRANCH   6  10
ENDBRANCH   1   5
BRANCH   3  20
HETATM   20  C12 UNL     1       3.909  18.528  49.553  1.00  0.00     0.103 C 
BRANCH  20  21
HETATM   21  C13 UNL     1       3.218  18.525  48.330  1.00  0.00    -0.011 A 
HETATM   22  C14 UNL     1       2.388  19.463  47.748  1.00  0.00     0.037 A 
HETATM   23  C15 UNL     1       1.768  19.217  46.554  1.00  0.00     0.035 A 
HETATM   24 CL1  UNL     1       0.692  20.403  45.809  1.00  0.00    -0.084 Cl
HETATM   25  C16 UNL     1       1.956  18.013  45.873  1.00  0.00     0.024 A 
HETATM   26  C17 UNL     1       2.769  17.056  46.421  1.00  0.00     0.011 A 
HETATM   27  C18 UNL     1       3.379  17.286  47.596  1.00  0.00    -0.021 A 
BRANCH  27  28
HETATM   28  C19 UNL     1       4.224  16.252  48.246  1.00  0.00     0.269 C 
BRANCH  28  29
HETATM   29  N3  UNL     1       5.256  15.847  47.292  1.00  0.00    -0.075 N 
ATOM     30  H33 UNL     1       5.260  16.421  46.448  1.00  0.00     0.274 HD
ATOM     31  H32 UNL     1       6.198  16.068  47.613  1.00  0.00     0.274 HD
ATOM     32  H31 UNL     1       5.129  14.855  47.094  1.00  0.00     0.274 HD
ENDBRANCH  28  29
ENDBRANCH  27  28
ENDBRANCH  20  21
ENDBRANCH   3  20
TORSDOF 8
ENDMDL
