MODEL 2
REMARK VINA RESULT: -5.628807602      3.231      6.224
REMARK  3 active torsions:
REMARK  status: ('A' for Active; 'I' for Inactive)
REMARK       I    between atoms: C2_2  and  N1_4 
REMARK    1  A    between atoms: N1_4  and  C3_6 
REMARK    2  A    between atoms: C4_11  and  S1_12 
REMARK    3  A    between atoms: S1_12  and  N4_13 
ROOT
HETATM    1  C3  UNL     1     -10.573 -39.884 -78.921  1.00  0.00     0.168 A 
HETATM    2  N2  UNL     1     -10.484 -39.023 -79.931  1.00  0.00    -0.278 N 
ATOM      3  H2  UNL     1     -10.665 -38.031 -79.777  1.00  0.00     0.189 HD
HETATM    4  N3  UNL     1     -10.176 -39.439 -81.081  1.00  0.00    -0.281 N 
ATOM      5  H3  UNL     1     -10.106 -38.783 -81.858  1.00  0.00     0.188 HD
HETATM    6  C4  UNL     1      -9.942 -40.732 -81.279  1.00  0.00     0.208 A 
HETATM    7  S2  UNL     1     -10.187 -41.355 -79.705  1.00  0.00    -0.020 SA
ENDROOT
BRANCH   6   8
HETATM    8  S1  UNL     1      -9.497 -41.538 -82.793  1.00  0.00     0.280 S 
HETATM    9  O2  UNL     1      -8.734 -42.778 -82.495  1.00  0.00    -0.199 OA
HETATM   10  O3  UNL     1     -10.787 -41.865 -83.488  1.00  0.00    -0.199 OA
BRANCH   8  11
HETATM   11  N4  UNL     1      -8.599 -40.432 -83.755  1.00  0.00    -0.323 N 
ATOM     12  H42 UNL     1      -8.349 -39.483 -83.476  1.00  0.00     0.169 HD
ATOM     13  H41 UNL     1      -8.366 -40.886 -84.637  1.00  0.00     0.169 HD
ENDBRANCH   8  11
ENDBRANCH   6   8
BRANCH   1  14
HETATM   14  N1  UNL     1     -10.907 -39.625 -77.545  1.00  0.00    -0.306 N 
HETATM   15  C2  UNL     1     -10.083 -38.760 -76.791  1.00  0.00     0.219 C 
HETATM   16  C1  UNL     1     -10.355 -38.440 -75.368  1.00  0.00     0.117 C 
HETATM   17  O1  UNL     1      -9.085 -38.248 -77.362  1.00  0.00    -0.274 OA
ATOM     18  H1  UNL     1     -11.726 -40.061 -77.120  1.00  0.00     0.171 HD
ENDBRANCH   1  14
TORSDOF 3
ENDMDL
