MODEL 9
REMARK VINA RESULT: -5.255122600      3.066      3.088
REMARK  3 active torsions:
REMARK  status: ('A' for Active; 'I' for Inactive)
REMARK       I    between atoms: C2_2  and  N1_4 
REMARK    1  A    between atoms: N1_4  and  C3_6 
REMARK    2  A    between atoms: C4_11  and  S1_12 
REMARK    3  A    between atoms: S1_12  and  N4_13 
ROOT
HETATM    1  C3  UNL     1     -12.016 -41.944 -78.682  1.00  0.00     0.168 A 
HETATM    2  N2  UNL     1     -12.239 -41.836 -77.375  1.00  0.00    -0.278 N 
ATOM      3  H2  UNL     1     -12.973 -42.390 -76.933  1.00  0.00     0.189 HD
HETATM    4  N3  UNL     1     -11.539 -41.046 -76.686  1.00  0.00    -0.281 N 
ATOM      5  H3  UNL     1     -11.705 -40.960 -75.684  1.00  0.00     0.188 HD
HETATM    6  C4  UNL     1     -10.585 -40.326 -77.266  1.00  0.00     0.208 A 
HETATM    7  S2  UNL     1     -10.728 -40.838 -78.891  1.00  0.00    -0.020 SA
ENDROOT
BRANCH   6   8
HETATM    8  S1  UNL     1      -9.486 -39.162 -76.505  1.00  0.00     0.280 S 
HETATM    9  O2  UNL     1      -8.147 -39.781 -76.325  1.00  0.00    -0.199 OA
HETATM   10  O3  UNL     1      -9.405 -37.990 -77.441  1.00  0.00    -0.199 OA
BRANCH   8  11
HETATM   11  N4  UNL     1     -10.179 -38.652 -75.017  1.00  0.00    -0.323 N 
ATOM     12  H42 UNL     1     -11.127 -38.294 -74.906  1.00  0.00     0.169 HD
ATOM     13  H41 UNL     1      -9.484 -38.770 -74.280  1.00  0.00     0.169 HD
ENDBRANCH   8  11
ENDBRANCH   6   8
BRANCH   1  14
HETATM   14  N1  UNL     1     -12.691 -42.776 -79.645  1.00  0.00    -0.306 N 
HETATM   15  C2  UNL     1     -12.613 -44.181 -79.511  1.00  0.00     0.219 C 
HETATM   16  C1  UNL     1     -13.277 -45.109 -80.458  1.00  0.00     0.117 C 
HETATM   17  O1  UNL     1     -11.950 -44.646 -78.548  1.00  0.00    -0.274 OA
ATOM     18  H1  UNL     1     -13.218 -42.358 -80.411  1.00  0.00     0.171 HD
ENDBRANCH   1  14
TORSDOF 3
ENDMDL
