MODEL 11
REMARK VINA RESULT: -5.236240661      3.117      3.229
REMARK  3 active torsions:
REMARK  status: ('A' for Active; 'I' for Inactive)
REMARK       I    between atoms: C2_2  and  N1_4 
REMARK    1  A    between atoms: N1_4  and  C3_6 
REMARK    2  A    between atoms: C4_11  and  S1_12 
REMARK    3  A    between atoms: S1_12  and  N4_13 
ROOT
HETATM    1  C3  UNL     1     -12.160 -42.030 -78.555  1.00  0.00     0.168 A 
HETATM    2  N2  UNL     1     -11.123 -41.587 -79.260  1.00  0.00    -0.278 N 
ATOM      3  H2  UNL     1     -10.988 -41.896 -80.223  1.00  0.00     0.189 HD
HETATM    4  N3  UNL     1     -10.307 -40.783 -78.732  1.00  0.00    -0.281 N 
ATOM      5  H3  UNL     1      -9.511 -40.440 -79.269  1.00  0.00     0.188 HD
HETATM    6  C4  UNL     1     -10.486 -40.383 -77.478  1.00  0.00     0.208 A 
HETATM    7  S2  UNL     1     -11.914 -41.228 -77.064  1.00  0.00    -0.020 SA
ENDROOT
BRANCH   6   8
HETATM    8  S1  UNL     1      -9.479 -39.268 -76.537  1.00  0.00     0.280 S 
HETATM    9  O2  UNL     1      -8.136 -39.866 -76.323  1.00  0.00    -0.199 OA
HETATM   10  O3  UNL     1      -9.374 -38.011 -77.352  1.00  0.00    -0.199 OA
BRANCH   8  11
HETATM   11  N4  UNL     1     -10.287 -38.921 -75.060  1.00  0.00    -0.323 N 
ATOM     12  H42 UNL     1     -10.263 -39.511 -74.228  1.00  0.00     0.169 HD
ATOM     13  H41 UNL     1     -10.783 -38.037 -75.163  1.00  0.00     0.169 HD
ENDBRANCH   8  11
ENDBRANCH   6   8
BRANCH   1  14
HETATM   14  N1  UNL     1     -13.199 -42.942 -78.959  1.00  0.00    -0.306 N 
HETATM   15  C2  UNL     1     -12.929 -44.328 -78.967  1.00  0.00     0.219 C 
HETATM   16  C1  UNL     1     -13.943 -45.334 -79.369  1.00  0.00     0.117 C 
HETATM   17  O1  UNL     1     -11.781 -44.709 -78.618  1.00  0.00    -0.274 OA
ATOM     18  H1  UNL     1     -14.116 -42.591 -79.234  1.00  0.00     0.171 HD
ENDBRANCH   1  14
TORSDOF 3
ENDMDL
