MODEL 4
REMARK VINA RESULT: -5.461134152      3.351      6.207
REMARK  3 active torsions:
REMARK  status: ('A' for Active; 'I' for Inactive)
REMARK       I    between atoms: C2_2  and  N1_4 
REMARK    1  A    between atoms: N1_4  and  C3_6 
REMARK    2  A    between atoms: C4_11  and  S1_12 
REMARK    3  A    between atoms: S1_12  and  N4_13 
ROOT
HETATM    1  C3  UNL     1     -10.506 -39.933 -79.009  1.00  0.00     0.168 A 
HETATM    2  N2  UNL     1     -10.463 -39.042 -79.996  1.00  0.00    -0.278 N 
ATOM      3  H2  UNL     1     -10.710 -38.069 -79.818  1.00  0.00     0.189 HD
HETATM    4  N3  UNL     1     -10.116 -39.407 -81.151  1.00  0.00    -0.281 N 
ATOM      5  H3  UNL     1     -10.081 -38.728 -81.911  1.00  0.00     0.188 HD
HETATM    6  C4  UNL     1      -9.795 -40.676 -81.379  1.00  0.00     0.208 A 
HETATM    7  S2  UNL     1     -10.015 -41.354 -79.825  1.00  0.00    -0.020 SA
ENDROOT
BRANCH   6   8
HETATM    8  S1  UNL     1      -9.281 -41.411 -82.908  1.00  0.00     0.280 S 
HETATM    9  O2  UNL     1      -8.186 -40.606 -83.508  1.00  0.00    -0.199 OA
HETATM   10  O3  UNL     1      -8.797 -42.791 -82.566  1.00  0.00    -0.199 OA
BRANCH   8  11
HETATM   11  N4  UNL     1     -10.650 -41.531 -83.941  1.00  0.00    -0.323 N 
ATOM     12  H42 UNL     1     -10.622 -41.822 -84.918  1.00  0.00     0.169 HD
ATOM     13  H41 UNL     1     -11.479 -41.263 -83.411  1.00  0.00     0.169 HD
ENDBRANCH   8  11
ENDBRANCH   6   8
BRANCH   1  14
HETATM   14  N1  UNL     1     -10.870 -39.733 -77.630  1.00  0.00    -0.306 N 
HETATM   15  C2  UNL     1     -10.135 -38.810 -76.854  1.00  0.00     0.219 C 
HETATM   16  C1  UNL     1     -10.444 -38.545 -75.428  1.00  0.00     0.117 C 
HETATM   17  O1  UNL     1      -9.184 -38.198 -77.408  1.00  0.00    -0.274 OA
ATOM     18  H1  UNL     1     -11.648 -40.250 -77.221  1.00  0.00     0.171 HD
ENDBRANCH   1  14
TORSDOF 3
ENDMDL
