MODEL 3
REMARK VINA RESULT: -5.527304015      3.833      5.823
REMARK  3 active torsions:
REMARK  status: ('A' for Active; 'I' for Inactive)
REMARK       I    between atoms: C2_2  and  N1_4 
REMARK    1  A    between atoms: N1_4  and  C3_6 
REMARK    2  A    between atoms: C4_11  and  S1_12 
REMARK    3  A    between atoms: S1_12  and  N4_13 
ROOT
HETATM    1  C3  UNL     1      -9.255 -39.530 -76.978  1.00  0.00     0.168 A 
HETATM    2  N2  UNL     1      -8.219 -38.719 -76.784  1.00  0.00    -0.278 N 
ATOM      3  H2  UNL     1      -8.352 -37.821 -76.320  1.00  0.00     0.189 HD
HETATM    4  N3  UNL     1      -7.073 -39.067 -77.176  1.00  0.00    -0.281 N 
ATOM      5  H3  UNL     1      -6.275 -38.449 -77.029  1.00  0.00     0.188 HD
HETATM    6  C4  UNL     1      -6.903 -40.238 -77.780  1.00  0.00     0.208 A 
HETATM    7  S2  UNL     1      -8.501 -40.848 -77.767  1.00  0.00    -0.020 SA
ENDROOT
BRANCH   6   8
HETATM    8  S1  UNL     1      -5.398 -40.931 -78.410  1.00  0.00     0.280 S 
HETATM    9  O2  UNL     1      -4.597 -39.869 -79.072  1.00  0.00    -0.199 OA
HETATM   10  O3  UNL     1      -4.664 -41.484 -77.223  1.00  0.00    -0.199 OA
BRANCH   8  11
HETATM   11  N4  UNL     1      -5.797 -42.216 -79.480  1.00  0.00    -0.323 N 
ATOM     12  H42 UNL     1      -6.723 -42.383 -79.874  1.00  0.00     0.169 HD
ATOM     13  H41 UNL     1      -4.957 -42.770 -79.647  1.00  0.00     0.169 HD
ENDBRANCH   8  11
ENDBRANCH   6   8
BRANCH   1  14
HETATM   14  N1  UNL     1     -10.634 -39.332 -76.614  1.00  0.00    -0.306 N 
HETATM   15  C2  UNL     1     -10.986 -39.313 -75.246  1.00  0.00     0.219 C 
HETATM   16  C1  UNL     1     -12.381 -39.115 -74.785  1.00  0.00     0.117 C 
HETATM   17  O1  UNL     1     -10.068 -39.471 -74.398  1.00  0.00    -0.274 OA
ATOM     18  H1  UNL     1     -11.347 -39.208 -77.333  1.00  0.00     0.171 HD
ENDBRANCH   1  14
TORSDOF 3
ENDMDL
