MODEL 14
REMARK VINA RESULT: -5.140839689      3.356      3.732
REMARK  3 active torsions:
REMARK  status: ('A' for Active; 'I' for Inactive)
REMARK       I    between atoms: C2_2  and  N1_4 
REMARK    1  A    between atoms: N1_4  and  C3_6 
REMARK    2  A    between atoms: C4_11  and  S1_12 
REMARK    3  A    between atoms: S1_12  and  N4_13 
ROOT
HETATM    1  C3  UNL     1     -12.406 -41.992 -78.357  1.00  0.00     0.168 A 
HETATM    2  N2  UNL     1     -11.398 -41.729 -79.184  1.00  0.00    -0.278 N 
ATOM      3  H2  UNL     1     -11.386 -42.130 -80.122  1.00  0.00     0.189 HD
HETATM    4  N3  UNL     1     -10.456 -40.983 -78.802  1.00  0.00    -0.281 N 
ATOM      5  H3  UNL     1      -9.681 -40.778 -79.431  1.00  0.00     0.188 HD
HETATM    6  C4  UNL     1     -10.475 -40.463 -77.579  1.00  0.00     0.208 A 
HETATM    7  S2  UNL     1     -11.941 -41.103 -76.973  1.00  0.00    -0.020 SA
ENDROOT
BRANCH   6   8
HETATM    8  S1  UNL     1      -9.273 -39.397 -76.831  1.00  0.00     0.280 S 
HETATM    9  O2  UNL     1      -9.446 -38.012 -77.341  1.00  0.00    -0.199 OA
HETATM   10  O3  UNL     1      -9.527 -39.451 -75.353  1.00  0.00    -0.199 OA
BRANCH   8  11
HETATM   11  N4  UNL     1      -7.707 -40.026 -77.161  1.00  0.00    -0.323 N 
ATOM     12  H42 UNL     1      -7.484 -40.672 -77.918  1.00  0.00     0.169 HD
ATOM     13  H41 UNL     1      -7.055 -39.645 -76.476  1.00  0.00     0.169 HD
ENDBRANCH   8  11
ENDBRANCH   6   8
BRANCH   1  14
HETATM   14  N1  UNL     1     -13.570 -42.809 -78.588  1.00  0.00    -0.306 N 
HETATM   15  C2  UNL     1     -13.410 -44.206 -78.728  1.00  0.00     0.219 C 
HETATM   16  C1  UNL     1     -14.554 -45.118 -78.967  1.00  0.00     0.117 C 
HETATM   17  O1  UNL     1     -12.246 -44.678 -78.643  1.00  0.00    -0.274 OA
ATOM     18  H1  UNL     1     -14.496 -42.386 -78.650  1.00  0.00     0.171 HD
ENDBRANCH   1  14
TORSDOF 3
ENDMDL
