MODEL 2
REMARK VINA RESULT: -8.956273000      2.910      5.445
REMARK  12 active torsions:
REMARK  status: ('A' for Active; 'I' for Inactive)
REMARK    1  A    between atoms: C2_3  and  C3_4 
REMARK    2  A    between atoms: C3_4  and  N2_5 
REMARK    3  A    between atoms: N2_5  and  C4_7 
REMARK    4  A    between atoms: C7_10  and  C8_11 
REMARK    5  A    between atoms: C8_11  and  N4_13 
REMARK    6  A    between atoms: C13_22  and  C14_23 
REMARK    7  A    between atoms: C14_23  and  O1_24 
REMARK    8  A    between atoms: C14_23  and  N6_26 
REMARK    9  A    between atoms: N6_26  and  C15_27 
REMARK   10  A    between atoms: N6_26  and  C18_32 
REMARK   11  A    between atoms: C15_27  and  C16_28 
REMARK   12  A    between atoms: C16_28  and  C17_29 
ROOT
HETATM    1  C1  UNL     1       2.691  21.581  10.305  1.00  0.00     0.158 C 
HETATM    2  N1  UNL     1       1.383  21.741   9.733  1.00  0.00    -0.338 N 
HETATM    3  C2  UNL     1       0.807  22.880   9.354  1.00  0.00     0.102 A 
HETATM    4  N5  UNL     1      -0.407  22.581   8.881  1.00  0.00    -0.343 N 
ATOM      5  H5  UNL     1      -1.081  23.254   8.518  1.00  0.00     0.167 HD
HETATM    6  C11 UNL     1      -0.599  21.243   8.959  1.00  0.00     0.061 A 
HETATM    7  C12 UNL     1      -1.687  20.414   8.604  1.00  0.00     0.047 A 
HETATM    8  C13 UNL     1      -1.659  19.064   8.779  1.00  0.00     0.017 A 
HETATM    9  C23 UNL     1      -0.468  18.564   9.339  1.00  0.00     0.018 A 
HETATM   10  C24 UNL     1       0.586  19.357   9.685  1.00  0.00     0.033 A 
HETATM   11  C25 UNL     1       0.528  20.708   9.497  1.00  0.00     0.062 A 
ENDROOT
BRANCH   8  12
HETATM   12  C14 UNL     1      -2.725  18.164   8.441  1.00  0.00     0.154 C 
BRANCH  12  13
HETATM   13  O1  UNL     1      -2.606  16.953   8.945  1.00  0.00    -0.345 OA
ATOM     14  H1  UNL     1      -3.405  16.595   9.314  1.00  0.00     0.219 HD
ENDBRANCH  12  13
BRANCH  12  15
HETATM   15  N6  UNL     1      -3.874  18.322   7.677  1.00  0.00    -0.313 N 
BRANCH  15  16
HETATM   16  C15 UNL     1      -5.012  19.179   7.889  1.00  0.00     0.143 C 
BRANCH  16  17
HETATM   17  C16 UNL     1      -5.033  19.553   9.369  1.00  0.00     0.133 C 
BRANCH  17  18
HETATM   18  C17 UNL     1      -5.407  20.970   9.570  1.00  0.00     0.174 C 
HETATM   19  O2  UNL     1      -6.555  21.348   9.256  1.00  0.00    -0.648 OA
HETATM   20  O3  UNL     1      -4.504  21.861  10.095  1.00  0.00    -0.648 OA
ENDBRANCH  17  18
ENDBRANCH  16  17
ENDBRANCH  15  16
BRANCH  15  21
HETATM   21  C18 UNL     1      -3.962  17.519   6.446  1.00  0.00     0.109 A 
HETATM   22  C19 UNL     1      -5.125  17.482   5.721  1.00  0.00     0.049 A 
HETATM   23  C20 UNL     1      -5.180  16.724   4.570  1.00  0.00     0.005 A 
HETATM   24  C21 UNL     1      -4.078  16.007   4.147  1.00  0.00     0.017 A 
HETATM   25  C22 UNL     1      -2.920  16.068   4.905  1.00  0.00     0.089 A 
HETATM   26  N7  UNL     1      -2.910  16.815   6.013  1.00  0.00    -0.352 N 
ATOM     27  H7  UNL     1      -2.051  16.850   6.560  1.00  0.00     0.166 HD
ENDBRANCH  15  21
ENDBRANCH  12  15
ENDBRANCH   8  12
BRANCH   3  28
HETATM   28  C3  UNL     1       1.402  24.239   9.446  1.00  0.00     0.196 C 
BRANCH  28  29
HETATM   29  N2  UNL     1       0.839  25.134   8.458  1.00  0.00    -0.383 N 
ATOM     30  H2  UNL     1       0.281  25.942   8.734  1.00  0.00     0.160 HD
BRANCH  29  31
HETATM   31  C4  UNL     1       1.094  24.845   7.085  1.00  0.00     0.028 A 
HETATM   32  C5  UNL     1       0.003  24.859   6.230  1.00  0.00     0.030 A 
HETATM   33  C6  UNL     1       0.169  24.587   4.910  1.00  0.00     0.017 A 
HETATM   34  C7  UNL     1       1.433  24.292   4.400  1.00  0.00     0.005 A 
HETATM   35  C9  UNL     1       2.501  24.285   5.269  1.00  0.00     0.017 A 
HETATM   36  C10 UNL     1       2.345  24.559   6.610  1.00  0.00     0.030 A 
BRANCH  34  37
HETATM   37  C8  UNL     1       1.607  23.998   2.982  1.00  0.00     0.120 C 
HETATM   38  N3  UNL     1       1.687  25.086   2.078  1.00  0.00    -0.082 NA
BRANCH  37  39
HETATM   39  N4  UNL     1       1.687  22.807   2.537  1.00  0.00    -0.387 N 
ATOM     40  H42 UNL     1       2.362  22.591   1.804  1.00  0.00     0.157 HD
ATOM     41  H41 UNL     1       1.095  22.053   2.886  1.00  0.00     0.157 HD
ENDBRANCH  37  39
ENDBRANCH  34  37
ENDBRANCH  29  31
ENDBRANCH  28  29
ENDBRANCH   3  28
TORSDOF 12
ENDMDL
