MODEL 3
REMARK VINA RESULT: -8.845318647      1.105      1.913
REMARK  12 active torsions:
REMARK  status: ('A' for Active; 'I' for Inactive)
REMARK    1  A    between atoms: C2_3  and  C3_4 
REMARK    2  A    between atoms: C3_4  and  N2_5 
REMARK    3  A    between atoms: N2_5  and  C4_7 
REMARK    4  A    between atoms: C7_10  and  C8_11 
REMARK    5  A    between atoms: C8_11  and  N4_13 
REMARK    6  A    between atoms: C13_22  and  C14_23 
REMARK    7  A    between atoms: C14_23  and  O1_24 
REMARK    8  A    between atoms: C14_23  and  N6_26 
REMARK    9  A    between atoms: N6_26  and  C15_27 
REMARK   10  A    between atoms: N6_26  and  C18_32 
REMARK   11  A    between atoms: C15_27  and  C16_28 
REMARK   12  A    between atoms: C16_28  and  C17_29 
ROOT
HETATM    1  C1  UNL     1       2.702  21.624  10.178  1.00  0.00     0.158 C 
HETATM    2  N1  UNL     1       1.386  21.756   9.617  1.00  0.00    -0.338 N 
HETATM    3  C2  UNL     1       0.790  22.881   9.226  1.00  0.00     0.102 A 
HETATM    4  N5  UNL     1      -0.425  22.558   8.770  1.00  0.00    -0.343 N 
ATOM      5  H5  UNL     1      -1.112  23.216   8.404  1.00  0.00     0.167 HD
HETATM    6  C11 UNL     1      -0.597  21.218   8.872  1.00  0.00     0.061 A 
HETATM    7  C12 UNL     1      -1.677  20.369   8.541  1.00  0.00     0.047 A 
HETATM    8  C13 UNL     1      -1.628  19.022   8.738  1.00  0.00     0.017 A 
HETATM    9  C23 UNL     1      -0.425  18.548   9.293  1.00  0.00     0.018 A 
HETATM   10  C24 UNL     1       0.622  19.361   9.616  1.00  0.00     0.033 A 
HETATM   11  C25 UNL     1       0.542  20.708   9.407  1.00  0.00     0.062 A 
ENDROOT
BRANCH   8  12
HETATM   12  C14 UNL     1      -2.685  18.102   8.425  1.00  0.00     0.154 C 
BRANCH  12  13
HETATM   13  O1  UNL     1      -2.557  16.909   8.968  1.00  0.00    -0.345 OA
ATOM     14  H1  UNL     1      -3.322  16.603   9.441  1.00  0.00     0.219 HD
ENDBRANCH  12  13
BRANCH  12  15
HETATM   15  N6  UNL     1      -3.832  18.225   7.652  1.00  0.00    -0.313 N 
BRANCH  15  16
HETATM   16  C15 UNL     1      -5.005  19.034   7.864  1.00  0.00     0.143 C 
BRANCH  16  17
HETATM   17  C16 UNL     1      -4.973  19.515   9.312  1.00  0.00     0.133 C 
BRANCH  17  18
HETATM   18  C17 UNL     1      -5.357  20.938   9.426  1.00  0.00     0.174 C 
HETATM   19  O2  UNL     1      -6.454  21.312   8.962  1.00  0.00    -0.648 OA
HETATM   20  O3  UNL     1      -4.517  21.840  10.032  1.00  0.00    -0.648 OA
ENDBRANCH  17  18
ENDBRANCH  16  17
ENDBRANCH  15  16
BRANCH  15  21
HETATM   21  C18 UNL     1      -3.878  17.435   6.410  1.00  0.00     0.109 A 
HETATM   22  C19 UNL     1      -5.046  17.317   5.703  1.00  0.00     0.049 A 
HETATM   23  C20 UNL     1      -5.061  16.572   4.542  1.00  0.00     0.005 A 
HETATM   24  C21 UNL     1      -3.913  15.950   4.091  1.00  0.00     0.017 A 
HETATM   25  C22 UNL     1      -2.751  16.092   4.831  1.00  0.00     0.089 A 
HETATM   26  N7  UNL     1      -2.781  16.822   5.950  1.00  0.00    -0.352 N 
ATOM     27  H7  UNL     1      -1.918  16.918   6.484  1.00  0.00     0.166 HD
ENDBRANCH  15  21
ENDBRANCH  12  15
ENDBRANCH   8  12
BRANCH   3  28
HETATM   28  C3  UNL     1       1.367  24.249   9.290  1.00  0.00     0.196 C 
BRANCH  28  29
HETATM   29  N2  UNL     1       0.763  25.032  10.347  1.00  0.00    -0.383 N 
ATOM     30  H2  UNL     1       0.546  26.020  10.215  1.00  0.00     0.160 HD
BRANCH  29  31
HETATM   31  C4  UNL     1       0.484  24.371  11.580  1.00  0.00     0.028 A 
HETATM   32  C5  UNL     1      -0.845  24.082  11.847  1.00  0.00     0.030 A 
HETATM   33  C6  UNL     1      -1.187  23.459  13.004  1.00  0.00     0.017 A 
HETATM   34  C7  UNL     1      -0.210  23.104  13.933  1.00  0.00     0.005 A 
HETATM   35  C9  UNL     1       1.103  23.401  13.646  1.00  0.00     0.017 A 
HETATM   36  C10 UNL     1       1.462  24.033  12.475  1.00  0.00     0.030 A 
BRANCH  34  37
HETATM   37  C8  UNL     1      -0.581  22.437  15.176  1.00  0.00     0.120 C 
HETATM   38  N3  UNL     1      -1.150  23.219  16.211  1.00  0.00    -0.082 NA
BRANCH  37  39
HETATM   39  N4  UNL     1      -0.410  21.188  15.358  1.00  0.00    -0.387 N 
ATOM     40  H42 UNL     1       0.476  20.759  15.088  1.00  0.00     0.157 HD
ATOM     41  H41 UNL     1      -1.130  20.591  15.765  1.00  0.00     0.157 HD
ENDBRANCH  37  39
ENDBRANCH  34  37
ENDBRANCH  29  31
ENDBRANCH  28  29
ENDBRANCH   3  28
TORSDOF 12
ENDMDL
