MODEL 1
REMARK VINA RESULT: -8.978520776      0.000      0.000
REMARK  12 active torsions:
REMARK  status: ('A' for Active; 'I' for Inactive)
REMARK    1  A    between atoms: C2_3  and  C3_4 
REMARK    2  A    between atoms: C3_4  and  N2_5 
REMARK    3  A    between atoms: N2_5  and  C4_7 
REMARK    4  A    between atoms: C7_10  and  C8_11 
REMARK    5  A    between atoms: C8_11  and  N4_13 
REMARK    6  A    between atoms: C13_22  and  C14_23 
REMARK    7  A    between atoms: C14_23  and  O1_24 
REMARK    8  A    between atoms: C14_23  and  N6_26 
REMARK    9  A    between atoms: N6_26  and  C15_27 
REMARK   10  A    between atoms: N6_26  and  C18_32 
REMARK   11  A    between atoms: C15_27  and  C16_28 
REMARK   12  A    between atoms: C16_28  and  C17_29 
ROOT
HETATM    1  C1  UNL     1       1.031  23.516   9.613  1.00  0.00     0.158 C 
HETATM    2  N1  UNL     1       1.006  22.094   9.813  1.00  0.00    -0.338 N 
HETATM    3  C2  UNL     1       1.933  21.353  10.418  1.00  0.00     0.102 A 
HETATM    4  N5  UNL     1       1.519  20.082  10.383  1.00  0.00    -0.343 N 
ATOM      5  H5  UNL     1       2.025  19.286  10.770  1.00  0.00     0.167 HD
HETATM    6  C11 UNL     1       0.322  20.019   9.753  1.00  0.00     0.061 A 
HETATM    7  C12 UNL     1      -0.540  18.941   9.449  1.00  0.00     0.047 A 
HETATM    8  C13 UNL     1      -1.719  19.117   8.791  1.00  0.00     0.017 A 
HETATM    9  C23 UNL     1      -2.008  20.449   8.440  1.00  0.00     0.018 A 
HETATM   10  C24 UNL     1      -1.181  21.495   8.729  1.00  0.00     0.033 A 
HETATM   11  C25 UNL     1      -0.006  21.286   9.390  1.00  0.00     0.062 A 
ENDROOT
BRANCH   8  12
HETATM   12  C14 UNL     1      -2.639  18.070   8.450  1.00  0.00     0.154 C 
BRANCH  12  13
HETATM   13  O1  UNL     1      -2.315  16.878   8.910  1.00  0.00    -0.345 OA
ATOM     14  H1  UNL     1      -2.626  16.151   8.383  1.00  0.00     0.219 HD
ENDBRANCH  12  13
BRANCH  12  15
HETATM   15  N6  UNL     1      -3.822  18.066   7.721  1.00  0.00    -0.313 N 
BRANCH  15  16
HETATM   16  C15 UNL     1      -5.085  18.693   8.011  1.00  0.00     0.143 C 
BRANCH  16  17
HETATM   17  C16 UNL     1      -4.926  19.461   9.321  1.00  0.00     0.133 C 
BRANCH  17  18
HETATM   18  C17 UNL     1      -5.688  20.727   9.309  1.00  0.00     0.174 C 
HETATM   19  O2  UNL     1      -6.688  20.830   8.569  1.00  0.00    -0.648 OA
HETATM   20  O3  UNL     1      -5.303  21.780  10.102  1.00  0.00    -0.648 OA
ENDBRANCH  17  18
ENDBRANCH  16  17
ENDBRANCH  15  16
BRANCH  15  21
HETATM   21  C18 UNL     1      -3.806  17.333   6.445  1.00  0.00     0.109 A 
HETATM   22  C19 UNL     1      -4.934  17.263   5.668  1.00  0.00     0.049 A 
HETATM   23  C20 UNL     1      -4.891  16.572   4.475  1.00  0.00     0.005 A 
HETATM   24  C21 UNL     1      -3.728  15.954   4.062  1.00  0.00     0.017 A 
HETATM   25  C22 UNL     1      -2.608  16.045   4.872  1.00  0.00     0.089 A 
HETATM   26  N7  UNL     1      -2.693  16.725   6.020  1.00  0.00    -0.352 N 
ATOM     27  H7  UNL     1      -1.860  16.783   6.605  1.00  0.00     0.166 HD
ENDBRANCH  15  21
ENDBRANCH  12  15
ENDBRANCH   8  12
BRANCH   3  28
HETATM   28  C3  UNL     1       3.199  21.846  11.018  1.00  0.00     0.196 C 
BRANCH  28  29
HETATM   29  N2  UNL     1       3.130  21.871  12.463  1.00  0.00    -0.383 N 
ATOM     30  H2  UNL     1       3.900  21.526  13.036  1.00  0.00     0.160 HD
BRANCH  29  31
HETATM   31  C4  UNL     1       1.943  22.396  13.057  1.00  0.00     0.028 A 
HETATM   32  C5  UNL     1       1.106  21.489  13.687  1.00  0.00     0.030 A 
HETATM   33  C6  UNL     1      -0.044  21.915  14.270  1.00  0.00     0.017 A 
HETATM   34  C7  UNL     1      -0.395  23.264  14.241  1.00  0.00     0.005 A 
HETATM   35  C9  UNL     1       0.452  24.146  13.610  1.00  0.00     0.017 A 
HETATM   36  C10 UNL     1       1.622  23.725  13.015  1.00  0.00     0.030 A 
BRANCH  34  37
HETATM   37  C8  UNL     1      -1.633  23.718  14.866  1.00  0.00     0.120 C 
HETATM   38  N3  UNL     1      -1.618  23.997  16.255  1.00  0.00    -0.082 NA
BRANCH  37  39
HETATM   39  N4  UNL     1      -2.713  23.869  14.208  1.00  0.00    -0.387 N 
ATOM     40  H42 UNL     1      -3.030  23.124  13.588  1.00  0.00     0.157 HD
ATOM     41  H41 UNL     1      -3.281  24.713  14.276  1.00  0.00     0.157 HD
ENDBRANCH  37  39
ENDBRANCH  34  37
ENDBRANCH  29  31
ENDBRANCH  28  29
ENDBRANCH   3  28
TORSDOF 12
ENDMDL
