MODEL 8
REMARK VINA RESULT: -8.176759634      2.941      4.756
REMARK  12 active torsions:
REMARK  status: ('A' for Active; 'I' for Inactive)
REMARK    1  A    between atoms: C2_3  and  C3_4 
REMARK    2  A    between atoms: C3_4  and  N2_5 
REMARK    3  A    between atoms: N2_5  and  C4_7 
REMARK    4  A    between atoms: C7_10  and  C8_11 
REMARK    5  A    between atoms: C8_11  and  N4_13 
REMARK    6  A    between atoms: C13_22  and  C14_23 
REMARK    7  A    between atoms: C14_23  and  O1_24 
REMARK    8  A    between atoms: C14_23  and  N6_26 
REMARK    9  A    between atoms: N6_26  and  C15_27 
REMARK   10  A    between atoms: N6_26  and  C18_32 
REMARK   11  A    between atoms: C15_27  and  C16_28 
REMARK   12  A    between atoms: C16_28  and  C17_29 
ROOT
HETATM    1  C1  UNL     1       2.774 -20.140  11.443  1.00  0.00     0.158 C 
HETATM    2  N1  UNL     1       1.495 -19.499  11.314  1.00  0.00    -0.338 N 
HETATM    3  C2  UNL     1       1.265 -18.220  11.020  1.00  0.00     0.102 A 
HETATM    4  N5  UNL     1      -0.060 -18.041  11.004  1.00  0.00    -0.343 N 
ATOM      5  H5  UNL     1      -0.534 -17.160  10.809  1.00  0.00     0.167 HD
HETATM    6  C11 UNL     1      -0.672 -19.215  11.289  1.00  0.00     0.061 A 
HETATM    7  C12 UNL     1      -2.033 -19.577  11.401  1.00  0.00     0.047 A 
HETATM    8  C13 UNL     1      -2.425 -20.845  11.706  1.00  0.00     0.017 A 
HETATM    9  C23 UNL     1      -1.372 -21.760  11.899  1.00  0.00     0.018 A 
HETATM   10  C24 UNL     1      -0.055 -21.418  11.793  1.00  0.00     0.033 A 
HETATM   11  C25 UNL     1       0.305 -20.138  11.486  1.00  0.00     0.062 A 
ENDROOT
BRANCH   8  12
HETATM   12  C14 UNL     1      -3.786 -21.281  11.836  1.00  0.00     0.154 C 
BRANCH  12  13
HETATM   13  O1  UNL     1      -4.567 -20.461  12.509  1.00  0.00    -0.345 OA
ATOM     14  H1  UNL     1      -5.468 -20.751  12.596  1.00  0.00     0.219 HD
ENDBRANCH  12  13
BRANCH  12  15
HETATM   15  N6  UNL     1      -4.451 -22.414  11.385  1.00  0.00    -0.313 N 
BRANCH  15  16
HETATM   16  C15 UNL     1      -5.065 -23.482  12.131  1.00  0.00     0.143 C 
BRANCH  16  17
HETATM   17  C16 UNL     1      -4.067 -23.925  13.199  1.00  0.00     0.133 C 
BRANCH  17  18
HETATM   18  C17 UNL     1      -4.520 -23.557  14.557  1.00  0.00     0.174 C 
HETATM   19  O2  UNL     1      -5.238 -22.547  14.708  1.00  0.00    -0.648 OA
HETATM   20  O3  UNL     1      -4.157 -24.315  15.643  1.00  0.00    -0.648 OA
ENDBRANCH  17  18
ENDBRANCH  16  17
ENDBRANCH  15  16
BRANCH  15  21
HETATM   21  C18 UNL     1      -4.581 -22.565   9.926  1.00  0.00     0.109 A 
HETATM   22  C19 UNL     1      -5.314 -21.667   9.195  1.00  0.00     0.049 A 
HETATM   23  C20 UNL     1      -5.417 -21.831   7.829  1.00  0.00     0.005 A 
HETATM   24  C21 UNL     1      -4.790 -22.888   7.199  1.00  0.00     0.017 A 
HETATM   25  C22 UNL     1      -4.058 -23.775   7.969  1.00  0.00     0.089 A 
HETATM   26  N7  UNL     1      -3.984 -23.579   9.289  1.00  0.00    -0.352 N 
ATOM     27  H7  UNL     1      -3.441 -24.241   9.843  1.00  0.00     0.166 HD
ENDBRANCH  15  21
ENDBRANCH  12  15
ENDBRANCH   8  12
BRANCH   3  28
HETATM   28  C3  UNL     1       2.294 -17.179  10.762  1.00  0.00     0.196 C 
BRANCH  28  29
HETATM   29  N2  UNL     1       3.435 -17.722  10.057  1.00  0.00    -0.383 N 
ATOM     30  H2  UNL     1       4.036 -18.426  10.486  1.00  0.00     0.160 HD
BRANCH  29  31
HETATM   31  C4  UNL     1       3.689 -17.235   8.741  1.00  0.00     0.028 A 
HETATM   32  C5  UNL     1       2.669 -16.523   8.130  1.00  0.00     0.030 A 
HETATM   33  C6  UNL     1       2.837 -16.034   6.874  1.00  0.00     0.017 A 
HETATM   34  C7  UNL     1       4.032 -16.242   6.187  1.00  0.00     0.005 A 
HETATM   35  C9  UNL     1       5.031 -16.952   6.814  1.00  0.00     0.017 A 
HETATM   36  C10 UNL     1       4.872 -17.453   8.088  1.00  0.00     0.030 A 
BRANCH  34  37
HETATM   37  C8  UNL     1       4.208 -15.718   4.837  1.00  0.00     0.120 C 
HETATM   38  N3  UNL     1       4.204 -14.312   4.659  1.00  0.00    -0.082 NA
BRANCH  37  39
HETATM   39  N4  UNL     1       4.361 -16.477   3.825  1.00  0.00    -0.387 N 
ATOM     40  H42 UNL     1       5.226 -17.008   3.724  1.00  0.00     0.157 HD
ATOM     41  H41 UNL     1       3.648 -16.575   3.103  1.00  0.00     0.157 HD
ENDBRANCH  37  39
ENDBRANCH  34  37
ENDBRANCH  29  31
ENDBRANCH  28  29
ENDBRANCH   3  28
TORSDOF 12
ENDMDL
