MODEL 1
REMARK VINA RESULT: -8.765641005      0.000      0.000
REMARK  12 active torsions:
REMARK  status: ('A' for Active; 'I' for Inactive)
REMARK    1  A    between atoms: C2_3  and  C3_4 
REMARK    2  A    between atoms: C3_4  and  N2_5 
REMARK    3  A    between atoms: N2_5  and  C4_7 
REMARK    4  A    between atoms: C7_10  and  C8_11 
REMARK    5  A    between atoms: C8_11  and  N4_13 
REMARK    6  A    between atoms: C13_22  and  C14_23 
REMARK    7  A    between atoms: C14_23  and  O1_24 
REMARK    8  A    between atoms: C14_23  and  N6_26 
REMARK    9  A    between atoms: N6_26  and  C15_27 
REMARK   10  A    between atoms: N6_26  and  C18_32 
REMARK   11  A    between atoms: C15_27  and  C16_28 
REMARK   12  A    between atoms: C16_28  and  C17_29 
ROOT
HETATM    1  C1  UNL     1       6.062 -21.315  11.903  1.00  0.00     0.158 C 
HETATM    2  N1  UNL     1       4.661 -21.030  11.754  1.00  0.00    -0.338 N 
HETATM    3  C2  UNL     1       4.118 -19.976  11.147  1.00  0.00     0.102 A 
HETATM    4  N5  UNL     1       2.789 -20.098  11.239  1.00  0.00    -0.343 N 
ATOM      5  H5  UNL     1       2.109 -19.437  10.865  1.00  0.00     0.167 HD
HETATM    6  C11 UNL     1       2.491 -21.237  11.908  1.00  0.00     0.061 A 
HETATM    7  C12 UNL     1       1.264 -21.832  12.278  1.00  0.00     0.047 A 
HETATM    8  C13 UNL     1       1.203 -23.005  12.966  1.00  0.00     0.017 A 
HETATM    9  C23 UNL     1       2.452 -23.573  13.278  1.00  0.00     0.018 A 
HETATM   10  C24 UNL     1       3.641 -23.005  12.926  1.00  0.00     0.033 A 
HETATM   11  C25 UNL     1       3.669 -21.828  12.236  1.00  0.00     0.062 A 
ENDROOT
BRANCH   8  12
HETATM   12  C14 UNL     1      -0.006 -23.663  13.372  1.00  0.00     0.154 C 
BRANCH  12  13
HETATM   13  O1  UNL     1      -0.233 -24.818  12.778  1.00  0.00    -0.345 OA
ATOM     14  H1  UNL     1      -0.726 -25.442  13.297  1.00  0.00     0.219 HD
ENDBRANCH  12  13
BRANCH  12  15
HETATM   15  N6  UNL     1      -0.998 -23.318  14.280  1.00  0.00    -0.313 N 
BRANCH  15  16
HETATM   16  C15 UNL     1      -2.336 -23.830  14.424  1.00  0.00     0.143 C 
BRANCH  16  17
HETATM   17  C16 UNL     1      -3.155 -23.308  13.246  1.00  0.00     0.133 C 
BRANCH  17  18
HETATM   18  C17 UNL     1      -4.082 -22.233  13.658  1.00  0.00     0.174 C 
HETATM   19  O2  UNL     1      -4.118 -21.885  14.857  1.00  0.00    -0.648 OA
HETATM   20  O3  UNL     1      -4.896 -21.622  12.736  1.00  0.00    -0.648 OA
ENDBRANCH  17  18
ENDBRANCH  16  17
ENDBRANCH  15  16
BRANCH  15  21
HETATM   21  C18 UNL     1      -0.653 -22.286  15.273  1.00  0.00     0.109 A 
HETATM   22  C19 UNL     1       0.093 -22.604  16.377  1.00  0.00     0.049 A 
HETATM   23  C20 UNL     1       0.405 -21.618  17.290  1.00  0.00     0.005 A 
HETATM   24  C21 UNL     1      -0.029 -20.321  17.098  1.00  0.00     0.017 A 
HETATM   25  C22 UNL     1      -0.781 -20.036  15.971  1.00  0.00     0.089 A 
HETATM   26  N7  UNL     1      -1.060 -21.022  15.112  1.00  0.00    -0.352 N 
ATOM     27  H7  UNL     1      -1.615 -20.797  14.287  1.00  0.00     0.166 HD
ENDBRANCH  15  21
ENDBRANCH  12  15
ENDBRANCH   8  12
BRANCH   3  28
HETATM   28  C3  UNL     1       4.853 -18.864  10.490  1.00  0.00     0.196 C 
BRANCH  28  29
HETATM   29  N2  UNL     1       3.958 -17.802  10.084  1.00  0.00    -0.383 N 
ATOM     30  H2  UNL     1       3.259 -17.425  10.724  1.00  0.00     0.160 HD
BRANCH  29  31
HETATM   31  C4  UNL     1       4.090 -17.301   8.755  1.00  0.00     0.028 A 
HETATM   32  C5  UNL     1       2.995 -16.636   8.226  1.00  0.00     0.030 A 
HETATM   33  C6  UNL     1       3.046 -16.137   6.964  1.00  0.00     0.017 A 
HETATM   34  C7  UNL     1       4.195 -16.288   6.188  1.00  0.00     0.005 A 
HETATM   35  C9  UNL     1       5.269 -16.952   6.735  1.00  0.00     0.017 A 
HETATM   36  C10 UNL     1       5.229 -17.462   8.015  1.00  0.00     0.030 A 
BRANCH  34  37
HETATM   37  C8  UNL     1       4.245 -15.753   4.832  1.00  0.00     0.120 C 
HETATM   38  N3  UNL     1       4.238 -14.346   4.666  1.00  0.00    -0.082 NA
BRANCH  37  39
HETATM   39  N4  UNL     1       4.293 -16.504   3.804  1.00  0.00    -0.387 N 
ATOM     40  H42 UNL     1       3.863 -17.429   3.838  1.00  0.00     0.157 HD
ATOM     41  H41 UNL     1       4.750 -16.217   2.938  1.00  0.00     0.157 HD
ENDBRANCH  37  39
ENDBRANCH  34  37
ENDBRANCH  29  31
ENDBRANCH  28  29
ENDBRANCH   3  28
TORSDOF 12
ENDMDL
