MODEL 2
REMARK VINA RESULT: -8.490818037      4.228      9.752
REMARK  12 active torsions:
REMARK  status: ('A' for Active; 'I' for Inactive)
REMARK    1  A    between atoms: C2_3  and  C3_4 
REMARK    2  A    between atoms: C3_4  and  N2_5 
REMARK    3  A    between atoms: N2_5  and  C4_7 
REMARK    4  A    between atoms: C7_10  and  C8_11 
REMARK    5  A    between atoms: C8_11  and  N4_13 
REMARK    6  A    between atoms: C13_22  and  C14_23 
REMARK    7  A    between atoms: C14_23  and  O1_24 
REMARK    8  A    between atoms: C14_23  and  N6_26 
REMARK    9  A    between atoms: N6_26  and  C15_27 
REMARK   10  A    between atoms: N6_26  and  C18_32 
REMARK   11  A    between atoms: C15_27  and  C16_28 
REMARK   12  A    between atoms: C16_28  and  C17_29 
ROOT
HETATM    1  C1  UNL     1      -0.753 -23.514  12.772  1.00  0.00     0.158 C 
HETATM    2  N1  UNL     1      -1.004 -22.137  12.448  1.00  0.00    -0.338 N 
HETATM    3  C2  UNL     1      -2.182 -21.516  12.446  1.00  0.00     0.102 A 
HETATM    4  N5  UNL     1      -1.968 -20.247  12.083  1.00  0.00    -0.343 N 
ATOM      5  H5  UNL     1      -2.688 -19.531  11.991  1.00  0.00     0.167 HD
HETATM    6  C11 UNL     1      -0.646 -20.064  11.856  1.00  0.00     0.061 A 
HETATM    7  C12 UNL     1       0.106 -18.937  11.455  1.00  0.00     0.047 A 
HETATM    8  C13 UNL     1       1.456 -18.987  11.283  1.00  0.00     0.017 A 
HETATM    9  C23 UNL     1       2.038 -20.244  11.534  1.00  0.00     0.018 A 
HETATM   10  C24 UNL     1       1.320 -21.337  11.920  1.00  0.00     0.033 A 
HETATM   11  C25 UNL     1      -0.032 -21.255  12.084  1.00  0.00     0.062 A 
ENDROOT
BRANCH   8  12
HETATM   12  C14 UNL     1       2.279 -17.883  10.878  1.00  0.00     0.154 C 
BRANCH  12  13
HETATM   13  O1  UNL     1       1.799 -16.695  11.184  1.00  0.00    -0.345 OA
ATOM     14  H1  UNL     1       2.287 -15.964  10.824  1.00  0.00     0.219 HD
ENDBRANCH  12  13
BRANCH  12  15
HETATM   15  N6  UNL     1       3.500 -17.821  10.219  1.00  0.00    -0.313 N 
BRANCH  15  16
HETATM   16  C15 UNL     1       4.795 -18.298  10.629  1.00  0.00     0.143 C 
BRANCH  16  17
HETATM   17  C16 UNL     1       4.892 -19.766  10.221  1.00  0.00     0.133 C 
BRANCH  17  18
HETATM   18  C17 UNL     1       5.998 -20.456  10.919  1.00  0.00     0.174 C 
HETATM   19  O2  UNL     1       7.098 -20.581  10.343  1.00  0.00    -0.648 OA
HETATM   20  O3  UNL     1       5.820 -20.954  12.186  1.00  0.00    -0.648 OA
ENDBRANCH  17  18
ENDBRANCH  16  17
ENDBRANCH  15  16
BRANCH  15  21
HETATM   21  C18 UNL     1       3.498 -17.194   8.887  1.00  0.00     0.109 A 
HETATM   22  C19 UNL     1       4.643 -17.152   8.135  1.00  0.00     0.049 A 
HETATM   23  C20 UNL     1       4.613 -16.561   6.889  1.00  0.00     0.005 A 
HETATM   24  C21 UNL     1       3.444 -16.014   6.399  1.00  0.00     0.017 A 
HETATM   25  C22 UNL     1       2.306 -16.075   7.185  1.00  0.00     0.089 A 
HETATM   26  N7  UNL     1       2.379 -16.657   8.386  1.00  0.00    -0.352 N 
ATOM     27  H7  UNL     1       1.533 -16.694   8.954  1.00  0.00     0.166 HD
ENDBRANCH  15  21
ENDBRANCH  12  15
ENDBRANCH   8  12
BRANCH   3  28
HETATM   28  C3  UNL     1      -3.496 -22.123  12.780  1.00  0.00     0.196 C 
BRANCH  28  29
HETATM   29  N2  UNL     1      -4.440 -21.127  13.241  1.00  0.00    -0.383 N 
ATOM     30  H2  UNL     1      -4.361 -20.714  14.170  1.00  0.00     0.160 HD
BRANCH  29  31
HETATM   31  C4  UNL     1      -5.485 -20.746  12.348  1.00  0.00     0.028 A 
HETATM   32  C5  UNL     1      -5.195 -20.787  10.993  1.00  0.00     0.030 A 
HETATM   33  C6  UNL     1      -6.139 -20.432  10.084  1.00  0.00     0.017 A 
HETATM   34  C7  UNL     1      -7.406 -20.024  10.499  1.00  0.00     0.005 A 
HETATM   35  C9  UNL     1      -7.670 -19.992  11.850  1.00  0.00     0.017 A 
HETATM   36  C10 UNL     1      -6.720 -20.350  12.782  1.00  0.00     0.030 A 
BRANCH  34  37
HETATM   37  C8  UNL     1      -8.416 -19.642   9.520  1.00  0.00     0.120 C 
HETATM   38  N3  UNL     1      -9.273 -20.650   9.013  1.00  0.00    -0.082 NA
BRANCH  37  39
HETATM   39  N4  UNL     1      -8.550 -18.443   9.110  1.00  0.00    -0.387 N 
ATOM     40  H42 UNL     1      -9.477 -18.019   9.094  1.00  0.00     0.157 HD
ATOM     41  H41 UNL     1      -7.758 -17.882   8.793  1.00  0.00     0.157 HD
ENDBRANCH  37  39
ENDBRANCH  34  37
ENDBRANCH  29  31
ENDBRANCH  28  29
ENDBRANCH   3  28
TORSDOF 12
ENDMDL
