MODEL 3
REMARK VINA RESULT: -8.447436744      4.723      9.009
REMARK  12 active torsions:
REMARK  status: ('A' for Active; 'I' for Inactive)
REMARK    1  A    between atoms: C2_3  and  C3_4 
REMARK    2  A    between atoms: C3_4  and  N2_5 
REMARK    3  A    between atoms: N2_5  and  C4_7 
REMARK    4  A    between atoms: C7_10  and  C8_11 
REMARK    5  A    between atoms: C8_11  and  N4_13 
REMARK    6  A    between atoms: C13_22  and  C14_23 
REMARK    7  A    between atoms: C14_23  and  O1_24 
REMARK    8  A    between atoms: C14_23  and  N6_26 
REMARK    9  A    between atoms: N6_26  and  C15_27 
REMARK   10  A    between atoms: N6_26  and  C18_32 
REMARK   11  A    between atoms: C15_27  and  C16_28 
REMARK   12  A    between atoms: C16_28  and  C17_29 
ROOT
HETATM    1  C1  UNL     1      -3.617 -21.161  11.825  1.00  0.00     0.158 C 
HETATM    2  N1  UNL     1      -2.210 -21.330  11.585  1.00  0.00    -0.338 N 
HETATM    3  C2  UNL     1      -1.550 -22.480  11.460  1.00  0.00     0.102 A 
HETATM    4  N5  UNL     1      -0.263 -22.187  11.250  1.00  0.00    -0.343 N 
ATOM      5  H5  UNL     1       0.483 -22.869  11.119  1.00  0.00     0.167 HD
HETATM    6  C11 UNL     1      -0.108 -20.842  11.240  1.00  0.00     0.061 A 
HETATM    7  C12 UNL     1       1.024 -20.014  11.064  1.00  0.00     0.047 A 
HETATM    8  C13 UNL     1       0.943 -18.655  11.096  1.00  0.00     0.017 A 
HETATM    9  C23 UNL     1      -0.351 -18.145  11.318  1.00  0.00     0.018 A 
HETATM   10  C24 UNL     1      -1.448 -18.937  11.489  1.00  0.00     0.033 A 
HETATM   11  C25 UNL     1      -1.334 -20.296  11.452  1.00  0.00     0.062 A 
ENDROOT
BRANCH   8  12
HETATM   12  C14 UNL     1       2.048 -17.757  10.925  1.00  0.00     0.154 C 
BRANCH  12  13
HETATM   13  O1  UNL     1       1.835 -16.530  11.356  1.00  0.00    -0.345 OA
ATOM     14  H1  UNL     1       2.403 -16.253  12.066  1.00  0.00     0.219 HD
ENDBRANCH  12  13
BRANCH  12  15
HETATM   15  N6  UNL     1       3.317 -17.929  10.387  1.00  0.00    -0.313 N 
BRANCH  15  16
HETATM   16  C15 UNL     1       4.462 -18.617  10.926  1.00  0.00     0.143 C 
BRANCH  16  17
HETATM   17  C16 UNL     1       4.245 -20.112  10.699  1.00  0.00     0.133 C 
BRANCH  17  18
HETATM   18  C17 UNL     1       5.481 -20.781  10.241  1.00  0.00     0.174 C 
HETATM   19  O2  UNL     1       6.490 -20.090   9.989  1.00  0.00    -0.648 OA
HETATM   20  O3  UNL     1       5.522 -22.145  10.094  1.00  0.00    -0.648 OA
ENDBRANCH  17  18
ENDBRANCH  16  17
ENDBRANCH  15  16
BRANCH  15  21
HETATM   21  C18 UNL     1       3.554 -17.346   9.056  1.00  0.00     0.109 A 
HETATM   22  C19 UNL     1       4.784 -17.446   8.461  1.00  0.00     0.049 A 
HETATM   23  C20 UNL     1       4.978 -16.893   7.212  1.00  0.00     0.005 A 
HETATM   24  C21 UNL     1       3.946 -16.244   6.563  1.00  0.00     0.017 A 
HETATM   25  C22 UNL     1       2.716 -16.162   7.195  1.00  0.00     0.089 A 
HETATM   26  N7  UNL     1       2.572 -16.712   8.405  1.00  0.00    -0.352 N 
ATOM     27  H7  UNL     1       1.661 -16.644   8.857  1.00  0.00     0.166 HD
ENDBRANCH  15  21
ENDBRANCH  12  15
ENDBRANCH   8  12
BRANCH   3  28
HETATM   28  C3  UNL     1      -2.137 -23.843  11.545  1.00  0.00     0.196 C 
BRANCH  28  29
HETATM   29  N2  UNL     1      -1.691 -24.683  10.454  1.00  0.00    -0.383 N 
ATOM     30  H2  UNL     1      -1.068 -25.474  10.616  1.00  0.00     0.160 HD
BRANCH  29  31
HETATM   31  C4  UNL     1      -2.155 -24.363   9.144  1.00  0.00     0.028 A 
HETATM   32  C5  UNL     1      -1.263 -24.556   8.100  1.00  0.00     0.030 A 
HETATM   33  C6  UNL     1      -1.634 -24.268   6.826  1.00  0.00     0.017 A 
HETATM   34  C7  UNL     1      -2.910 -23.776   6.553  1.00  0.00     0.005 A 
HETATM   35  C9  UNL     1      -3.778 -23.594   7.606  1.00  0.00     0.017 A 
HETATM   36  C10 UNL     1      -3.413 -23.883   8.903  1.00  0.00     0.030 A 
BRANCH  34  37
HETATM   37  C8  UNL     1      -3.303 -23.465   5.184  1.00  0.00     0.120 C 
HETATM   38  N3  UNL     1      -3.734 -24.529   4.353  1.00  0.00    -0.082 NA
BRANCH  37  39
HETATM   39  N4  UNL     1      -3.271 -22.280   4.717  1.00  0.00    -0.387 N 
ATOM     40  H42 UNL     1      -4.035 -21.954   4.125  1.00  0.00     0.157 HD
ATOM     41  H41 UNL     1      -2.504 -21.637   4.912  1.00  0.00     0.157 HD
ENDBRANCH  37  39
ENDBRANCH  34  37
ENDBRANCH  29  31
ENDBRANCH  28  29
ENDBRANCH   3  28
TORSDOF 12
ENDMDL
