MODEL 2
REMARK VINA RESULT: -7.693369512      1.687      2.230
REMARK  8 active torsions:
REMARK  status: ('A' for Active; 'I' for Inactive)
REMARK    1  A    between atoms: N5_13  and  C6_14 
REMARK    2  A    between atoms: C7_16  and  C8_17 
REMARK    3  A    between atoms: C8_17  and  O2_18 
REMARK    4  A    between atoms: O2_18  and  P1_19 
REMARK    5  A    between atoms: P1_19  and  O5_22 
REMARK    6  A    between atoms: O5_22  and  P2_23 
REMARK    7  A    between atoms: C9_27  and  O9_28 
REMARK    8  A    between atoms: C10_30  and  O10_31 
ROOT
HETATM    1  C6  UNL     1      25.624 -54.980   5.848  1.00  0.00     0.262 C 
HETATM    2  O1  UNL     1      26.915 -55.057   6.329  1.00  0.00    -0.353 OA
HETATM    3  C7  UNL     1      27.737 -55.530   5.349  1.00  0.00     0.180 C 
HETATM    4  C9  UNL     1      26.995 -55.405   4.040  1.00  0.00     0.182 C 
HETATM    5  C10 UNL     1      25.589 -55.736   4.557  1.00  0.00     0.198 C 
ENDROOT
BRANCH   1   6
HETATM    6  N5  UNL     1      25.245 -53.608   5.748  1.00  0.00    -0.297 N 
HETATM    7  C3  UNL     1      25.753 -52.549   6.401  1.00  0.00     0.142 A 
HETATM    8  N3  UNL     1      26.723 -52.435   7.306  1.00  0.00    -0.336 N 
HETATM    9  C4  UNL     1      25.095 -51.420   6.003  1.00  0.00     0.119 A 
HETATM   10  C2  UNL     1      27.058 -51.241   7.827  1.00  0.00     0.183 A 
ATOM     11  H3  UNL     1      27.223 -53.271   7.611  1.00  0.00     0.168 HD
HETATM   12  N2  UNL     1      26.426 -50.127   7.450  1.00  0.00    -0.339 N 
HETATM   13  C1  UNL     1      25.448 -50.201   6.544  1.00  0.00     0.148 A 
ATOM     14  H2  UNL     1      26.689 -49.227   7.851  1.00  0.00     0.167 HD
HETATM   15  N1  UNL     1      24.737 -49.063   6.101  1.00  0.00    -0.080 NA
HETATM   16  N4  UNL     1      24.188 -51.797   5.109  1.00  0.00    -0.346 N 
HETATM   17  C5  UNL     1      24.278 -53.110   4.956  1.00  0.00     0.188 A 
ATOM     18  H4  UNL     1      23.535 -51.182   4.625  1.00  0.00     0.167 HD
ENDBRANCH   1   6
BRANCH   5  19
HETATM   19  O10 UNL     1      25.607 -57.101   4.869  1.00  0.00    -0.388 OA
ATOM     20  H10 UNL     1      24.737 -57.443   4.704  1.00  0.00     0.210 HD
ENDBRANCH   5  19
BRANCH   3  21
HETATM   21  C8  UNL     1      29.101 -54.918   5.310  1.00  0.00     0.216 C 
BRANCH  21  22
HETATM   22  O2  UNL     1      29.109 -53.548   5.366  1.00  0.00    -0.287 OA
BRANCH  22  23
HETATM   23  P1  UNL     1      30.165 -53.002   4.136  1.00  0.00     0.418 P 
HETATM   24  O3  UNL     1      30.657 -51.632   4.522  1.00  0.00    -0.624 OA
HETATM   25  O4  UNL     1      29.360 -52.863   2.665  1.00  0.00    -0.624 OA
BRANCH  23  26
HETATM   26  O5  UNL     1      31.457 -54.058   4.031  1.00  0.00    -0.173 OA
BRANCH  26  27
HETATM   27  P2  UNL     1      32.702 -53.706   5.089  1.00  0.00     0.431 P 
HETATM   28  O6  UNL     1      32.191 -53.346   6.470  1.00  0.00    -0.616 OA
HETATM   29  O7  UNL     1      33.643 -52.396   4.564  1.00  0.00    -0.616 OA
HETATM   30  O8  UNL     1      33.716 -55.076   5.166  1.00  0.00    -0.616 OA
ENDBRANCH  26  27
ENDBRANCH  23  26
ENDBRANCH  22  23
ENDBRANCH  21  22
ENDBRANCH   3  21
BRANCH   4  31
HETATM   31  O9  UNL     1      27.415 -56.296   3.082  1.00  0.00    -0.390 OA
ATOM     32  H9  UNL     1      26.815 -57.019   2.945  1.00  0.00     0.210 HD
ENDBRANCH   4  31
TORSDOF 8
ENDMDL
