MODEL 1
REMARK VINA RESULT: -7.897414992      0.000      0.000
REMARK  8 active torsions:
REMARK  status: ('A' for Active; 'I' for Inactive)
REMARK    1  A    between atoms: N5_13  and  C6_14 
REMARK    2  A    between atoms: C7_16  and  C8_17 
REMARK    3  A    between atoms: C8_17  and  O2_18 
REMARK    4  A    between atoms: O2_18  and  P1_19 
REMARK    5  A    between atoms: P1_19  and  O5_22 
REMARK    6  A    between atoms: O5_22  and  P2_23 
REMARK    7  A    between atoms: C9_27  and  O9_28 
REMARK    8  A    between atoms: C10_30  and  O10_31 
ROOT
HETATM    1  C6  UNL     1      27.245 -54.308   5.381  1.00  0.00     0.262 C 
HETATM    2  O1  UNL     1      28.440 -54.600   6.006  1.00  0.00    -0.353 OA
HETATM    3  C7  UNL     1      29.264 -55.245   5.132  1.00  0.00     0.180 C 
HETATM    4  C9  UNL     1      28.706 -55.031   3.746  1.00  0.00     0.182 C 
HETATM    5  C10 UNL     1      27.214 -55.086   4.104  1.00  0.00     0.198 C 
ENDROOT
BRANCH   1   6
HETATM    6  N5  UNL     1      27.136 -52.894   5.221  1.00  0.00    -0.297 N 
HETATM    7  C3  UNL     1      27.031 -51.950   6.172  1.00  0.00     0.142 A 
HETATM    8  N3  UNL     1      26.996 -52.016   7.501  1.00  0.00    -0.336 N 
HETATM    9  C4  UNL     1      26.950 -50.722   5.577  1.00  0.00     0.119 A 
HETATM   10  C2  UNL     1      26.883 -50.908   8.255  1.00  0.00     0.183 A 
ATOM     11  H3  UNL     1      27.057 -52.927   7.957  1.00  0.00     0.168 HD
HETATM   12  N2  UNL     1      26.803 -49.700   7.691  1.00  0.00    -0.339 N 
HETATM   13  C1  UNL     1      26.835 -49.593   6.361  1.00  0.00     0.148 A 
ATOM     14  H2  UNL     1      26.718 -48.867   8.272  1.00  0.00     0.167 HD
HETATM   15  N1  UNL     1      26.753 -48.348   5.698  1.00  0.00    -0.080 NA
HETATM   16  N4  UNL     1      27.006 -50.925   4.266  1.00  0.00    -0.346 N 
HETATM   17  C5  UNL     1      27.117 -52.229   4.052  1.00  0.00     0.188 A 
ATOM     18  H4  UNL     1      26.969 -50.203   3.547  1.00  0.00     0.167 HD
ENDBRANCH   1   6
BRANCH   5  19
HETATM   19  O10 UNL     1      26.949 -56.422   4.431  1.00  0.00    -0.388 OA
ATOM     20  H10 UNL     1      26.956 -56.921   3.623  1.00  0.00     0.210 HD
ENDBRANCH   5  19
BRANCH   3  21
HETATM   21  C8  UNL     1      30.713 -54.890   5.241  1.00  0.00     0.216 C 
BRANCH  21  22
HETATM   22  O2  UNL     1      31.160 -54.034   4.268  1.00  0.00    -0.287 OA
BRANCH  22  23
HETATM   23  P1  UNL     1      32.099 -52.836   5.048  1.00  0.00     0.418 P 
HETATM   24  O3  UNL     1      31.212 -52.117   6.030  1.00  0.00    -0.624 OA
HETATM   25  O4  UNL     1      32.668 -51.700   3.945  1.00  0.00    -0.624 OA
BRANCH  23  26
HETATM   26  O5  UNL     1      33.354 -53.583   5.862  1.00  0.00    -0.173 OA
BRANCH  26  27
HETATM   27  P2  UNL     1      34.660 -53.956   4.887  1.00  0.00     0.431 P 
HETATM   28  O6  UNL     1      34.410 -53.595   3.436  1.00  0.00    -0.616 OA
HETATM   29  O7  UNL     1      35.034 -55.609   4.916  1.00  0.00    -0.616 OA
HETATM   30  O8  UNL     1      36.012 -53.106   5.489  1.00  0.00    -0.616 OA
ENDBRANCH  26  27
ENDBRANCH  23  26
ENDBRANCH  22  23
ENDBRANCH  21  22
ENDBRANCH   3  21
BRANCH   4  31
HETATM   31  O9  UNL     1      29.059 -56.014   2.852  1.00  0.00    -0.390 OA
ATOM     32  H9  UNL     1      29.382 -55.679   2.025  1.00  0.00     0.210 HD
ENDBRANCH   4  31
TORSDOF 8
ENDMDL
