MODEL 3
REMARK VINA RESULT: -7.628277655      1.117      2.383
REMARK  8 active torsions:
REMARK  status: ('A' for Active; 'I' for Inactive)
REMARK    1  A    between atoms: N5_13  and  C6_14 
REMARK    2  A    between atoms: C7_16  and  C8_17 
REMARK    3  A    between atoms: C8_17  and  O2_18 
REMARK    4  A    between atoms: O2_18  and  P1_19 
REMARK    5  A    between atoms: P1_19  and  O5_22 
REMARK    6  A    between atoms: O5_22  and  P2_23 
REMARK    7  A    between atoms: C9_27  and  O9_28 
REMARK    8  A    between atoms: C10_30  and  O10_31 
ROOT
HETATM    1  C6  UNL     1      26.870 -54.420   5.554  1.00  0.00     0.262 C 
HETATM    2  O1  UNL     1      27.973 -54.768   6.306  1.00  0.00    -0.353 OA
HETATM    3  C7  UNL     1      28.813 -55.533   5.552  1.00  0.00     0.180 C 
HETATM    4  C9  UNL     1      28.403 -55.364   4.109  1.00  0.00     0.182 C 
HETATM    5  C10 UNL     1      26.886 -55.274   4.326  1.00  0.00     0.198 C 
ENDROOT
BRANCH   1   6
HETATM    6  N5  UNL     1      26.901 -53.015   5.305  1.00  0.00    -0.297 N 
HETATM    7  C3  UNL     1      26.877 -52.007   6.193  1.00  0.00     0.142 A 
HETATM    8  N3  UNL     1      26.822 -51.985   7.524  1.00  0.00    -0.336 N 
HETATM    9  C4  UNL     1      26.922 -50.817   5.522  1.00  0.00     0.119 A 
HETATM   10  C2  UNL     1      26.809 -50.825   8.205  1.00  0.00     0.183 A 
ATOM     11  H3  UNL     1      26.789 -52.866   8.037  1.00  0.00     0.168 HD
HETATM   12  N2  UNL     1      26.852 -49.654   7.566  1.00  0.00    -0.339 N 
HETATM   13  C1  UNL     1      26.908 -49.635   6.233  1.00  0.00     0.148 A 
ATOM     14  H2  UNL     1      26.842 -48.781   8.093  1.00  0.00     0.167 HD
HETATM   15  N1  UNL     1      26.955 -48.432   5.492  1.00  0.00    -0.080 NA
HETATM   16  N4  UNL     1      26.972 -51.107   4.227  1.00  0.00    -0.346 N 
HETATM   17  C5  UNL     1      26.959 -52.426   4.097  1.00  0.00     0.188 A 
ATOM     18  H4  UNL     1      27.013 -50.432   3.465  1.00  0.00     0.167 HD
ENDBRANCH   1   6
BRANCH   5  19
HETATM   19  O10 UNL     1      26.476 -56.559   4.702  1.00  0.00    -0.388 OA
ATOM     20  H10 UNL     1      25.920 -56.895   4.009  1.00  0.00     0.210 HD
ENDBRANCH   5  19
BRANCH   3  21
HETATM   21  C8  UNL     1      30.272 -55.293   5.777  1.00  0.00     0.216 C 
BRANCH  21  22
HETATM   22  O2  UNL     1      30.978 -54.994   4.641  1.00  0.00    -0.287 OA
BRANCH  22  23
HETATM   23  P1  UNL     1      32.320 -54.047   5.120  1.00  0.00     0.418 P 
HETATM   24  O3  UNL     1      33.542 -54.927   5.096  1.00  0.00    -0.624 OA
HETATM   25  O4  UNL     1      32.129 -53.478   6.692  1.00  0.00    -0.624 OA
BRANCH  23  26
HETATM   26  O5  UNL     1      32.506 -52.791   4.032  1.00  0.00    -0.173 OA
BRANCH  26  27
HETATM   27  P2  UNL     1      31.118 -51.887   3.804  1.00  0.00     0.431 P 
HETATM   28  O6  UNL     1      31.428 -50.469   3.365  1.00  0.00    -0.616 OA
HETATM   29  O7  UNL     1      30.189 -51.764   5.217  1.00  0.00    -0.616 OA
HETATM   30  O8  UNL     1      30.172 -52.682   2.627  1.00  0.00    -0.616 OA
ENDBRANCH  26  27
ENDBRANCH  23  26
ENDBRANCH  22  23
ENDBRANCH  21  22
ENDBRANCH   3  21
BRANCH   4  31
HETATM   31  O9  UNL     1      28.747 -56.429   3.310  1.00  0.00    -0.390 OA
ATOM     32  H9  UNL     1      29.684 -56.573   3.250  1.00  0.00     0.210 HD
ENDBRANCH   4  31
TORSDOF 8
ENDMDL
