MODEL 2
REMARK VINA RESULT: -6.294150378      1.587      2.784
REMARK  0 active torsions:
REMARK  status: ('A' for Active; 'I' for Inactive)
ROOT
HETATM    1  C1  UNL     1     -34.537   1.493 -39.021  1.00  0.00     0.032 C 
HETATM    2  C2  UNL     1     -33.513   2.144 -39.962  1.00  0.00     0.086 C 
HETATM    3  C3  UNL     1     -32.224   1.472 -39.842  1.00  0.00     0.127 C 
HETATM    4  C4  UNL     1     -31.247   1.947 -38.891  1.00  0.00     0.224 C 
HETATM    5  O1  UNL     1     -30.381   1.072 -38.576  1.00  0.00    -0.273 OA
HETATM    6  N1  UNL     1     -31.005   3.173 -38.204  1.00  0.00    -0.325 N 
ATOM      7  H1  UNL     1     -30.298   3.176 -37.469  1.00  0.00     0.169 HD
HETATM    8  C5  UNL     1     -31.680   4.387 -38.476  1.00  0.00     0.061 A 
HETATM    9  C6  UNL     1     -31.061   5.489 -37.949  1.00  0.00     0.032 A 
HETATM   10  C7  UNL     1     -31.589   6.743 -38.124  1.00  0.00     0.002 A 
HETATM   11  C8  UNL     1     -32.746   6.939 -38.828  1.00  0.00     0.002 A 
HETATM   12  C9  UNL     1     -33.384   5.842 -39.365  1.00  0.00     0.031 A 
HETATM   13  C10 UNL     1     -32.852   4.583 -39.188  1.00  0.00     0.055 A 
HETATM   14  N2  UNL     1     -33.620   3.540 -39.800  1.00  0.00    -0.383 N 
ATOM     15  H2  UNL     1     -34.469   3.903 -40.232  1.00  0.00     0.160 HD
ENDROOT
TORSDOF 0
ENDMDL
