MODEL 3
REMARK VINA RESULT: -6.270592523      1.969      3.082
REMARK  0 active torsions:
REMARK  status: ('A' for Active; 'I' for Inactive)
ROOT
HETATM    1  C1  UNL     1     -34.450   0.308 -38.863  1.00  0.00     0.032 C 
HETATM    2  C2  UNL     1     -33.325   0.979 -39.665  1.00  0.00     0.086 C 
HETATM    3  C3  UNL     1     -32.025   0.567 -39.146  1.00  0.00     0.127 C 
HETATM    4  C4  UNL     1     -31.381   1.341 -38.112  1.00  0.00     0.224 C 
HETATM    5  O1  UNL     1     -30.508   0.687 -37.460  1.00  0.00    -0.273 OA
HETATM    6  N1  UNL     1     -31.479   2.679 -37.629  1.00  0.00    -0.325 N 
ATOM      7  H1  UNL     1     -30.979   2.914 -36.772  1.00  0.00     0.169 HD
HETATM    8  C5  UNL     1     -32.225   3.702 -38.260  1.00  0.00     0.061 A 
HETATM    9  C6  UNL     1     -31.905   4.962 -37.826  1.00  0.00     0.032 A 
HETATM   10  C7  UNL     1     -32.538   6.064 -38.341  1.00  0.00     0.002 A 
HETATM   11  C8  UNL     1     -33.506   5.950 -39.302  1.00  0.00     0.002 A 
HETATM   12  C9  UNL     1     -33.841   4.691 -39.751  1.00  0.00     0.031 A 
HETATM   13  C10 UNL     1     -33.204   3.584 -39.232  1.00  0.00     0.055 A 
HETATM   14  N2  UNL     1     -33.655   2.344 -39.791  1.00  0.00    -0.383 N 
ATOM     15  H2  UNL     1     -34.414   2.486 -40.457  1.00  0.00     0.160 HD
ENDROOT
TORSDOF 0
ENDMDL
