MODEL 5
REMARK VINA RESULT: -5.904708273      2.359      4.849
REMARK  0 active torsions:
REMARK  status: ('A' for Active; 'I' for Inactive)
ROOT
HETATM    1  C1  UNL     1     -31.959   3.804 -37.099  1.00  0.00     0.032 C 
HETATM    2  C2  UNL     1     -31.797   3.557 -38.605  1.00  0.00     0.086 C 
HETATM    3  C3  UNL     1     -32.639   4.480 -39.359  1.00  0.00     0.127 C 
HETATM    4  C4  UNL     1     -33.985   4.103 -39.717  1.00  0.00     0.224 C 
HETATM    5  O1  UNL     1     -34.737   5.094 -39.974  1.00  0.00    -0.273 OA
HETATM    6  N1  UNL     1     -34.697   2.875 -39.857  1.00  0.00    -0.325 N 
ATOM      7  H1  UNL     1     -35.706   2.923 -39.996  1.00  0.00     0.169 HD
HETATM    8  C5  UNL     1     -34.095   1.595 -39.817  1.00  0.00     0.061 A 
HETATM    9  C6  UNL     1     -34.895   0.597 -40.308  1.00  0.00     0.032 A 
HETATM   10  C7  UNL     1     -34.458  -0.702 -40.340  1.00  0.00     0.002 A 
HETATM   11  C8  UNL     1     -33.215  -1.050 -39.887  1.00  0.00     0.002 A 
HETATM   12  C9  UNL     1     -32.396  -0.059 -39.389  1.00  0.00     0.031 A 
HETATM   13  C10 UNL     1     -32.837   1.246 -39.358  1.00  0.00     0.055 A 
HETATM   14  N2  UNL     1     -31.881   2.166 -38.815  1.00  0.00    -0.383 N 
ATOM     15  H2  UNL     1     -31.039   1.687 -38.496  1.00  0.00     0.160 HD
ENDROOT
TORSDOF 0
ENDMDL
