MODEL 1
REMARK VINA RESULT: -6.315793552      0.000      0.000
REMARK  0 active torsions:
REMARK  status: ('A' for Active; 'I' for Inactive)
ROOT
HETATM    1  C1  UNL     1     -30.507   1.776 -39.197  1.00  0.00     0.032 C 
HETATM    2  C2  UNL     1     -31.292   2.407 -38.039  1.00  0.00     0.086 C 
HETATM    3  C3  UNL     1     -32.695   2.013 -38.110  1.00  0.00     0.127 C 
HETATM    4  C4  UNL     1     -33.639   2.828 -38.836  1.00  0.00     0.224 C 
HETATM    5  O1  UNL     1     -34.687   2.199 -39.186  1.00  0.00    -0.273 OA
HETATM    6  N1  UNL     1     -33.694   4.186 -39.269  1.00  0.00    -0.325 N 
ATOM      7  H1  UNL     1     -34.449   4.455 -39.899  1.00  0.00     0.169 HD
HETATM    8  C5  UNL     1     -32.769   5.184 -38.880  1.00  0.00     0.061 A 
HETATM    9  C6  UNL     1     -33.202   6.460 -39.130  1.00  0.00     0.032 A 
HETATM   10  C7  UNL     1     -32.422   7.541 -38.811  1.00  0.00     0.002 A 
HETATM   11  C8  UNL     1     -31.190   7.390 -38.234  1.00  0.00     0.002 A 
HETATM   12  C9  UNL     1     -30.738   6.114 -37.976  1.00  0.00     0.031 A 
HETATM   13  C10 UNL     1     -31.523   5.027 -38.297  1.00  0.00     0.055 A 
HETATM   14  N2  UNL     1     -30.925   3.766 -37.973  1.00  0.00    -0.383 N 
ATOM     15  H2  UNL     1     -29.986   3.883 -37.594  1.00  0.00     0.160 HD
ENDROOT
TORSDOF 0
ENDMDL
