MODEL 2
REMARK VINA RESULT: -4.252261471      0.272      1.235
REMARK  4 active torsions:
REMARK  status: ('A' for Active; 'I' for Inactive)
REMARK    1  A    between atoms: N1_1  and  C1_5 
REMARK    2  A    between atoms: C1_5  and  C2_6 
REMARK    3  A    between atoms: C1_5  and  C3_9 
REMARK    4  A    between atoms: C2_6  and  O1_7 
ROOT
HETATM    1  C1  UNL     1       9.212  60.120  44.501  1.00  0.00     0.306 C 
ENDROOT
BRANCH   1   2
HETATM    2  N1  UNL     1       9.822  61.166  43.718  1.00  0.00    -0.063 N 
ATOM      3  H13 UNL     1      10.541  60.802  43.092  1.00  0.00     0.275 HD
ATOM      4  H12 UNL     1       9.182  61.536  43.015  1.00  0.00     0.275 HD
ATOM      5  H11 UNL     1      10.186  61.903  44.324  1.00  0.00     0.275 HD
ENDBRANCH   1   2
BRANCH   1   6
HETATM    6  C2  UNL     1       8.456  59.158  43.607  1.00  0.00     0.208 C 
BRANCH   6   7
HETATM    7  O1  UNL     1       7.482  59.829  42.894  1.00  0.00    -0.398 OA
ATOM      8  H1  UNL     1       6.944  59.214  42.409  1.00  0.00     0.209 HD
ENDBRANCH   6   7
ENDBRANCH   1   6
BRANCH   1   9
HETATM    9  C3  UNL     1       8.243  60.712  45.454  1.00  0.00     0.206 C 
HETATM   10  O2  UNL     1       7.142  60.167  45.605  1.00  0.00    -0.646 OA
HETATM   11  O3  UNL     1       8.566  61.849  46.158  1.00  0.00    -0.646 OA
ENDBRANCH   1   9
TORSDOF 4
ENDMDL
