MODEL 19
REMARK VINA RESULT: -0.317169959      6.369      6.929
REMARK  4 active torsions:
REMARK  status: ('A' for Active; 'I' for Inactive)
REMARK    1  A    between atoms: N1_1  and  C1_5 
REMARK    2  A    between atoms: C1_5  and  C2_6 
REMARK    3  A    between atoms: C1_5  and  C3_9 
REMARK    4  A    between atoms: C2_6  and  O1_7 
ROOT
HETATM    1  C1  UNL     1       6.856  53.394  45.640  1.00  0.00     0.306 C 
ENDROOT
BRANCH   1   2
HETATM    2  N1  UNL     1       8.125  53.476  46.321  1.00  0.00    -0.063 N 
ATOM      3  H13 UNL     1       8.324  52.630  46.855  1.00  0.00     0.275 HD
ATOM      4  H12 UNL     1       8.908  53.433  45.669  1.00  0.00     0.275 HD
ATOM      5  H11 UNL     1       8.165  54.311  46.906  1.00  0.00     0.275 HD
ENDBRANCH   1   2
BRANCH   1   6
HETATM    6  C2  UNL     1       7.041  53.574  44.146  1.00  0.00     0.208 C 
BRANCH   6   7
HETATM    7  O1  UNL     1       8.377  53.762  43.847  1.00  0.00    -0.398 OA
ATOM      8  H1  UNL     1       8.774  54.360  44.469  1.00  0.00     0.209 HD
ENDBRANCH   6   7
ENDBRANCH   1   6
BRANCH   1   9
HETATM    9  C3  UNL     1       5.962  54.474  46.122  1.00  0.00     0.206 C 
HETATM   10  O2  UNL     1       4.910  54.167  46.699  1.00  0.00    -0.646 OA
HETATM   11  O3  UNL     1       6.297  55.794  45.928  1.00  0.00    -0.646 OA
ENDBRANCH   1   9
TORSDOF 4
ENDMDL
