MODEL 3
REMARK VINA RESULT: -3.992027445      1.854      2.246
REMARK  4 active torsions:
REMARK  status: ('A' for Active; 'I' for Inactive)
REMARK    1  A    between atoms: N1_1  and  C1_5 
REMARK    2  A    between atoms: C1_5  and  C2_6 
REMARK    3  A    between atoms: C1_5  and  C3_9 
REMARK    4  A    between atoms: C2_6  and  O1_7 
ROOT
HETATM    1  C1  UNL     1       8.092  60.464  43.910  1.00  0.00     0.306 C 
ENDROOT
BRANCH   1   2
HETATM    2  N1  UNL     1       6.989  59.664  43.436  1.00  0.00    -0.063 N 
ATOM      3  H13 UNL     1       6.563  60.063  42.599  1.00  0.00     0.275 HD
ATOM      4  H12 UNL     1       7.305  58.779  43.040  1.00  0.00     0.275 HD
ATOM      5  H11 UNL     1       6.303  59.523  44.179  1.00  0.00     0.275 HD
ENDBRANCH   1   2
BRANCH   1   6
HETATM    6  C2  UNL     1       9.404  59.732  43.710  1.00  0.00     0.208 C 
BRANCH   6   7
HETATM    7  O1  UNL     1      10.417  60.631  43.432  1.00  0.00    -0.398 OA
ATOM      8  H1  UNL     1      10.556  60.691  42.494  1.00  0.00     0.209 HD
ENDBRANCH   6   7
ENDBRANCH   1   6
BRANCH   1   9
HETATM    9  C3  UNL     1       7.932  60.725  45.360  1.00  0.00     0.206 C 
HETATM   10  O2  UNL     1       7.008  60.168  45.970  1.00  0.00    -0.646 OA
HETATM   11  O3  UNL     1       8.795  61.571  46.015  1.00  0.00    -0.646 OA
ENDBRANCH   1   9
TORSDOF 4
ENDMDL
