MODEL 1
REMARK VINA RESULT: -4.706868156      0.000      0.000
REMARK  4 active torsions:
REMARK  status: ('A' for Active; 'I' for Inactive)
REMARK    1  A    between atoms: N1_1  and  C1_5 
REMARK    2  A    between atoms: C1_5  and  C2_6 
REMARK    3  A    between atoms: C1_5  and  C3_9 
REMARK    4  A    between atoms: C2_6  and  O1_7 
ROOT
HETATM    1  C1  UNL     1       9.148  60.136  44.470  1.00  0.00     0.306 C 
ENDROOT
BRANCH   1   2
HETATM    2  N1  UNL     1       9.832  61.152  43.709  1.00  0.00    -0.063 N 
ATOM      3  H13 UNL     1      10.053  60.833  42.765  1.00  0.00     0.275 HD
ATOM      4  H12 UNL     1       9.213  61.926  43.468  1.00  0.00     0.275 HD
ATOM      5  H11 UNL     1      10.664  61.472  44.205  1.00  0.00     0.275 HD
ENDBRANCH   1   2
BRANCH   1   6
HETATM    6  C2  UNL     1       8.237  59.321  43.574  1.00  0.00     0.208 C 
BRANCH   6   7
HETATM    7  O1  UNL     1       7.103  60.044  43.257  1.00  0.00    -0.398 OA
ATOM      8  H1  UNL     1       6.767  60.487  44.028  1.00  0.00     0.209 HD
ENDBRANCH   6   7
ENDBRANCH   1   6
BRANCH   1   9
HETATM    9  C3  UNL     1       8.308  60.775  45.512  1.00  0.00     0.206 C 
HETATM   10  O2  UNL     1       8.722  61.802  46.067  1.00  0.00    -0.646 OA
HETATM   11  O3  UNL     1       7.092  60.232  45.856  1.00  0.00    -0.646 OA
ENDBRANCH   1   9
TORSDOF 4
ENDMDL
