MODEL 7
REMARK VINA RESULT: -3.741112184      1.876      1.900
REMARK  4 active torsions:
REMARK  status: ('A' for Active; 'I' for Inactive)
REMARK    1  A    between atoms: N1_1  and  C1_5 
REMARK    2  A    between atoms: C1_5  and  C2_6 
REMARK    3  A    between atoms: C1_5  and  C3_9 
REMARK    4  A    between atoms: C2_6  and  O1_7 
ROOT
HETATM    1  C1  UNL     1       8.075  60.400  43.847  1.00  0.00     0.306 C 
ENDROOT
BRANCH   1   2
HETATM    2  N1  UNL     1       6.926  59.652  43.399  1.00  0.00    -0.063 N 
ATOM      3  H13 UNL     1       6.302  60.222  42.827  1.00  0.00     0.275 HD
ATOM      4  H12 UNL     1       7.178  58.953  42.701  1.00  0.00     0.275 HD
ATOM      5  H11 UNL     1       6.438  59.236  44.193  1.00  0.00     0.275 HD
ENDBRANCH   1   2
BRANCH   1   6
HETATM    6  C2  UNL     1       9.344  59.596  43.649  1.00  0.00     0.208 C 
BRANCH   6   7
HETATM    7  O1  UNL     1      10.414  60.437  43.408  1.00  0.00    -0.398 OA
ATOM      8  H1  UNL     1      10.878  60.165  42.626  1.00  0.00     0.209 HD
ENDBRANCH   6   7
ENDBRANCH   1   6
BRANCH   1   9
HETATM    9  C3  UNL     1       7.944  60.697  45.293  1.00  0.00     0.206 C 
HETATM   10  O2  UNL     1       8.755  61.470  45.822  1.00  0.00    -0.646 OA
HETATM   11  O3  UNL     1       6.938  60.120  46.033  1.00  0.00    -0.646 OA
ENDBRANCH   1   9
TORSDOF 4
ENDMDL
