MODEL 18
REMARK VINA RESULT: -0.448064715      6.993      7.415
REMARK  4 active torsions:
REMARK  status: ('A' for Active; 'I' for Inactive)
REMARK    1  A    between atoms: N1_1  and  C1_5 
REMARK    2  A    between atoms: C1_5  and  C2_6 
REMARK    3  A    between atoms: C1_5  and  C3_9 
REMARK    4  A    between atoms: C2_6  and  O1_7 
ROOT
HETATM    1  C1  UNL     1       7.462  53.944  45.584  1.00  0.00     0.306 C 
ENDROOT
BRANCH   1   2
HETATM    2  N1  UNL     1       8.408  53.393  46.524  1.00  0.00    -0.063 N 
ATOM      3  H13 UNL     1       7.944  53.009  47.347  1.00  0.00     0.275 HD
ATOM      4  H12 UNL     1       8.834  52.535  46.174  1.00  0.00     0.275 HD
ATOM      5  H11 UNL     1       9.110  54.090  46.775  1.00  0.00     0.275 HD
ENDBRANCH   1   2
BRANCH   1   6
HETATM    6  C2  UNL     1       6.073  53.396  45.844  1.00  0.00     0.208 C 
BRANCH   6   7
HETATM    7  O1  UNL     1       5.241  54.397  46.308  1.00  0.00    -0.398 OA
ATOM      8  H1  UNL     1       5.632  54.829  47.058  1.00  0.00     0.209 HD
ENDBRANCH   6   7
ENDBRANCH   1   6
BRANCH   1   9
HETATM    9  C3  UNL     1       7.852  53.564  44.205  1.00  0.00     0.206 C 
HETATM   10  O2  UNL     1       9.051  53.395  43.947  1.00  0.00    -0.646 OA
HETATM   11  O3  UNL     1       6.894  53.405  43.231  1.00  0.00    -0.646 OA
ENDBRANCH   1   9
TORSDOF 4
ENDMDL
