MODEL 8
REMARK VINA RESULT: -3.328935913      1.188      1.335
REMARK  4 active torsions:
REMARK  status: ('A' for Active; 'I' for Inactive)
REMARK    1  A    between atoms: N1_1  and  C1_5 
REMARK    2  A    between atoms: C1_5  and  C2_6 
REMARK    3  A    between atoms: C1_5  and  C3_9 
REMARK    4  A    between atoms: C2_6  and  O1_7 
ROOT
HETATM    1  C1  UNL     1       8.926  59.721  44.305  1.00  0.00     0.306 C 
ENDROOT
BRANCH   1   2
HETATM    2  N1  UNL     1       9.545  59.666  43.003  1.00  0.00    -0.063 N 
ATOM      3  H13 UNL     1      10.538  59.438  43.066  1.00  0.00     0.275 HD
ATOM      4  H12 UNL     1       9.235  58.853  42.471  1.00  0.00     0.275 HD
ATOM      5  H11 UNL     1       9.388  60.536  42.494  1.00  0.00     0.275 HD
ENDBRANCH   1   2
BRANCH   1   6
HETATM    6  C2  UNL     1       7.454  59.375  44.209  1.00  0.00     0.208 C 
BRANCH   6   7
HETATM    7  O1  UNL     1       6.938  59.803  43.000  1.00  0.00    -0.398 OA
ATOM      8  H1  UNL     1       7.295  59.286  42.287  1.00  0.00     0.209 HD
ENDBRANCH   6   7
ENDBRANCH   1   6
BRANCH   1   9
HETATM    9  C3  UNL     1       9.036  61.095  44.851  1.00  0.00     0.206 C 
HETATM   10  O2  UNL     1       9.840  61.882  44.333  1.00  0.00    -0.646 OA
HETATM   11  O3  UNL     1       8.258  61.485  45.915  1.00  0.00    -0.646 OA
ENDBRANCH   1   9
TORSDOF 4
ENDMDL
