MODEL 6
REMARK VINA RESULT: -7.852151397      2.953      5.467
REMARK  5 active torsions:
REMARK  status: ('A' for Active; 'I' for Inactive)
REMARK    1  A    between atoms: C2_2  and  C3_3 
REMARK    2  A    between atoms: C3_3  and  C4_4 
REMARK    3  A    between atoms: C6_9  and  C7_10 
REMARK    4  A    between atoms: C8_13  and  C9_14 
REMARK    5  A    between atoms: C13_18  and  C14_19 
ROOT
HETATM    1  C4  UNL     1       1.124  39.595 -13.422  1.00  0.00     0.022 C 
HETATM    2  C5  UNL     1       2.078  40.597 -12.858  1.00  0.00     0.238 C 
HETATM    3  N1  UNL     1       3.446  40.100 -13.148  1.00  0.00    -0.060 N 
ATOM      4  H11 UNL     1       4.173  40.410 -12.502  1.00  0.00     0.278 HD
ATOM      5  H12 UNL     1       3.891  40.496 -13.976  1.00  0.00     0.278 HD
HETATM    6  C6  UNL     1       3.216  38.689 -13.186  1.00  0.00     0.294 C 
HETATM    7  C8  UNL     1       2.035  38.664 -14.178  1.00  0.00     0.066 C 
ENDROOT
BRANCH   7   8
HETATM    8  C9  UNL     1       1.532  37.311 -14.347  1.00  0.00    -0.050 A 
HETATM    9  C10 UNL     1       1.507  36.794 -15.648  1.00  0.00     0.007 A 
HETATM   10  C11 UNL     1       1.050  35.523 -15.919  1.00  0.00     0.002 A 
HETATM   11  C12 UNL     1       0.603  34.735 -14.885  1.00  0.00     0.018 A 
HETATM   12  C13 UNL     1       0.609  35.209 -13.568  1.00  0.00     0.041 A 
HETATM   13  C15 UNL     1       1.079  36.491 -13.364  1.00  0.00     0.026 A 
BRANCH  12  14
HETATM   14  C14 UNL     1       0.135  34.371 -12.480  1.00  0.00     0.209 C 
HETATM   15  O3  UNL     1      -1.010  34.549 -12.030  1.00  0.00    -0.644 OA
HETATM   16  O4  UNL     1       0.937  33.393 -11.948  1.00  0.00    -0.644 OA
ENDBRANCH  12  14
ENDBRANCH   7   8
BRANCH   1  17
HETATM   17  C3  UNL     1       0.054  40.202 -14.218  1.00  0.00     0.006 C 
BRANCH  17  18
HETATM   18  C2  UNL     1      -1.047  40.803 -13.435  1.00  0.00    -0.004 C 
HETATM   19  C1  UNL     1      -1.710  40.020 -12.375  1.00  0.00     0.005 C 
ENDBRANCH  17  18
ENDBRANCH   1  17
BRANCH   6  20
HETATM   20  C7  UNL     1       4.330  37.878 -13.616  1.00  0.00     0.205 C 
HETATM   21  O1  UNL     1       5.021  38.224 -14.595  1.00  0.00    -0.646 OA
HETATM   22  O2  UNL     1       4.662  36.710 -12.965  1.00  0.00    -0.646 OA
ENDBRANCH   6  20
TORSDOF 5
ENDMDL
