MODEL 4
REMARK VINA RESULT: -7.895346498      2.384      5.110
REMARK  5 active torsions:
REMARK  status: ('A' for Active; 'I' for Inactive)
REMARK    1  A    between atoms: C2_2  and  C3_3 
REMARK    2  A    between atoms: C3_3  and  C4_4 
REMARK    3  A    between atoms: C6_9  and  C7_10 
REMARK    4  A    between atoms: C8_13  and  C9_14 
REMARK    5  A    between atoms: C13_18  and  C14_19 
ROOT
HETATM    1  C4  UNL     1       1.378  38.927 -16.866  1.00  0.00     0.022 C 
HETATM    2  C5  UNL     1       2.705  39.359 -17.400  1.00  0.00     0.238 C 
HETATM    3  N1  UNL     1       3.708  39.074 -16.343  1.00  0.00    -0.060 N 
ATOM      4  H11 UNL     1       4.541  39.663 -16.357  1.00  0.00     0.278 HD
ATOM      5  H12 UNL     1       4.218  38.197 -16.447  1.00  0.00     0.278 HD
HETATM    6  C6  UNL     1       2.897  39.180 -15.168  1.00  0.00     0.294 C 
HETATM    7  C8  UNL     1       1.750  38.235 -15.581  1.00  0.00     0.066 C 
ENDROOT
BRANCH   7   8
HETATM    8  C9  UNL     1       0.709  38.214 -14.567  1.00  0.00    -0.050 A 
HETATM    9  C10 UNL     1       0.276  36.961 -14.117  1.00  0.00     0.007 A 
HETATM   10  C11 UNL     1      -0.705  36.829 -13.159  1.00  0.00     0.002 A 
HETATM   11  C12 UNL     1      -1.280  37.959 -12.626  1.00  0.00     0.018 A 
HETATM   12  C13 UNL     1      -0.880  39.233 -13.045  1.00  0.00     0.041 A 
HETATM   13  C15 UNL     1       0.108  39.296 -14.008  1.00  0.00     0.026 A 
BRANCH  12  14
HETATM   14  C14 UNL     1      -1.492  40.422 -12.478  1.00  0.00     0.209 C 
HETATM   15  O3  UNL     1      -0.960  41.529 -12.668  1.00  0.00    -0.644 OA
HETATM   16  O4  UNL     1      -2.645  40.333 -11.740  1.00  0.00    -0.644 OA
ENDBRANCH  12  14
ENDBRANCH   7   8
BRANCH   1  17
HETATM   17  C3  UNL     1       0.614  38.110 -17.813  1.00  0.00     0.006 C 
BRANCH  17  18
HETATM   18  C2  UNL     1       1.100  36.723 -17.981  1.00  0.00    -0.004 C 
HETATM   19  C1  UNL     1       1.485  36.235 -19.318  1.00  0.00     0.005 C 
ENDBRANCH  17  18
ENDBRANCH   1  17
BRANCH   6  20
HETATM   20  C7  UNL     1       3.527  38.795 -13.928  1.00  0.00     0.205 C 
HETATM   21  O1  UNL     1       4.117  37.700 -13.835  1.00  0.00    -0.646 OA
HETATM   22  O2  UNL     1       3.497  39.616 -12.822  1.00  0.00    -0.646 OA
ENDBRANCH   6  20
TORSDOF 5
ENDMDL
