MODEL 8
REMARK VINA RESULT: -7.742561321      0.913      1.047
REMARK  5 active torsions:
REMARK  status: ('A' for Active; 'I' for Inactive)
REMARK    1  A    between atoms: C2_2  and  C3_3 
REMARK    2  A    between atoms: C3_3  and  C4_4 
REMARK    3  A    between atoms: C6_9  and  C7_10 
REMARK    4  A    between atoms: C8_13  and  C9_14 
REMARK    5  A    between atoms: C13_18  and  C14_19 
ROOT
HETATM    1  C4  UNL     1       0.516  36.097 -13.615  1.00  0.00     0.022 C 
HETATM    2  C5  UNL     1      -0.684  35.880 -12.751  1.00  0.00     0.238 C 
HETATM    3  N1  UNL     1      -1.368  37.191 -12.627  1.00  0.00    -0.060 N 
ATOM      4  H11 UNL     1      -1.921  37.320 -11.779  1.00  0.00     0.278 HD
ATOM      5  H12 UNL     1      -2.150  37.340 -13.265  1.00  0.00     0.278 HD
HETATM    6  C6  UNL     1      -0.263  38.086 -12.785  1.00  0.00     0.294 C 
HETATM    7  C8  UNL     1       0.326  37.513 -14.090  1.00  0.00     0.066 C 
ENDROOT
BRANCH   7   8
HETATM    8  C9  UNL     1       1.549  38.211 -14.454  1.00  0.00    -0.050 A 
HETATM    9  C10 UNL     1       1.719  38.547 -15.802  1.00  0.00     0.007 A 
HETATM   10  C11 UNL     1       2.840  39.209 -16.253  1.00  0.00     0.002 A 
HETATM   11  C12 UNL     1       3.824  39.551 -15.356  1.00  0.00     0.018 A 
HETATM   12  C13 UNL     1       3.698  39.236 -13.998  1.00  0.00     0.041 A 
HETATM   13  C15 UNL     1       2.551  38.572 -13.611  1.00  0.00     0.026 A 
BRANCH  12  14
HETATM   14  C14 UNL     1       4.742  39.601 -13.056  1.00  0.00     0.209 C 
HETATM   15  O3  UNL     1       4.942  40.801 -12.805  1.00  0.00    -0.644 OA
HETATM   16  O4  UNL     1       5.504  38.636 -12.446  1.00  0.00    -0.644 OA
ENDBRANCH  12  14
ENDBRANCH   7   8
BRANCH   1  17
HETATM   17  C3  UNL     1       0.650  35.097 -14.679  1.00  0.00     0.006 C 
BRANCH  17  18
HETATM   18  C2  UNL     1       0.174  33.741 -14.328  1.00  0.00    -0.004 C 
HETATM   19  C1  UNL     1       0.695  32.567 -15.053  1.00  0.00     0.005 C 
ENDBRANCH  17  18
ENDBRANCH   1  17
BRANCH   6  20
HETATM   20  C7  UNL     1      -0.593  39.487 -12.883  1.00  0.00     0.205 C 
HETATM   21  O1  UNL     1      -0.778  40.165 -11.852  1.00  0.00    -0.646 OA
HETATM   22  O2  UNL     1      -0.712  40.114 -14.104  1.00  0.00    -0.646 OA
ENDBRANCH   6  20
TORSDOF 5
ENDMDL
