MODEL 3
REMARK VINA RESULT: -7.932594924      2.661      5.039
REMARK  5 active torsions:
REMARK  status: ('A' for Active; 'I' for Inactive)
REMARK    1  A    between atoms: C2_2  and  C3_3 
REMARK    2  A    between atoms: C3_3  and  C4_4 
REMARK    3  A    between atoms: C6_9  and  C7_10 
REMARK    4  A    between atoms: C8_13  and  C9_14 
REMARK    5  A    between atoms: C13_18  and  C14_19 
ROOT
HETATM    1  C4  UNL     1       3.496  37.979 -13.486  1.00  0.00     0.022 C 
HETATM    2  C5  UNL     1       3.820  36.540 -13.250  1.00  0.00     0.238 C 
HETATM    3  N1  UNL     1       2.758  35.745 -13.915  1.00  0.00    -0.060 N 
ATOM      4  H11 UNL     1       2.585  34.822 -13.518  1.00  0.00     0.278 HD
ATOM      5  H12 UNL     1       2.986  35.398 -14.846  1.00  0.00     0.278 HD
HETATM    6  C6  UNL     1       1.659  36.659 -13.851  1.00  0.00     0.294 C 
HETATM    7  C8  UNL     1       2.344  37.903 -14.452  1.00  0.00     0.066 C 
ENDROOT
BRANCH   7   8
HETATM    8  C9  UNL     1       1.446  39.046 -14.435  1.00  0.00    -0.050 A 
HETATM    9  C10 UNL     1       1.293  39.761 -15.629  1.00  0.00     0.007 A 
HETATM   10  C11 UNL     1       0.467  40.859 -15.720  1.00  0.00     0.002 A 
HETATM   11  C12 UNL     1      -0.229  41.271 -14.609  1.00  0.00     0.018 A 
HETATM   12  C13 UNL     1      -0.108  40.588 -13.393  1.00  0.00     0.041 A 
HETATM   13  C15 UNL     1       0.736  39.495 -13.368  1.00  0.00     0.026 A 
BRANCH  12  14
HETATM   14  C14 UNL     1      -0.847  41.029 -12.222  1.00  0.00     0.209 C 
HETATM   15  O3  UNL     1      -0.421  41.992 -11.563  1.00  0.00    -0.644 OA
HETATM   16  O4  UNL     1      -2.001  40.393 -11.841  1.00  0.00    -0.644 OA
ENDBRANCH  12  14
ENDBRANCH   7   8
BRANCH   1  17
HETATM   17  C3  UNL     1       4.646  38.761 -13.950  1.00  0.00     0.006 C 
BRANCH  17  18
HETATM   18  C2  UNL     1       4.716  40.144 -13.429  1.00  0.00    -0.004 C 
HETATM   19  C1  UNL     1       5.713  41.086 -13.971  1.00  0.00     0.005 C 
ENDBRANCH  17  18
ENDBRANCH   1  17
BRANCH   6  20
HETATM   20  C7  UNL     1       0.468  36.269 -14.567  1.00  0.00     0.205 C 
HETATM   21  O1  UNL     1       0.514  36.052 -15.795  1.00  0.00    -0.646 OA
HETATM   22  O2  UNL     1      -0.742  36.125 -13.925  1.00  0.00    -0.646 OA
ENDBRANCH   6  20
TORSDOF 5
ENDMDL
