MODEL 1
REMARK VINA RESULT: -8.299165449      0.000      0.000
REMARK  5 active torsions:
REMARK  status: ('A' for Active; 'I' for Inactive)
REMARK    1  A    between atoms: C2_2  and  C3_3 
REMARK    2  A    between atoms: C3_3  and  C4_4 
REMARK    3  A    between atoms: C6_9  and  C7_10 
REMARK    4  A    between atoms: C8_13  and  C9_14 
REMARK    5  A    between atoms: C13_18  and  C14_19 
ROOT
HETATM    1  C4  UNL     1       0.044  37.127 -13.660  1.00  0.00     0.022 C 
HETATM    2  C5  UNL     1      -1.135  37.042 -12.747  1.00  0.00     0.238 C 
HETATM    3  N1  UNL     1      -1.585  38.434 -12.493  1.00  0.00    -0.060 N 
ATOM      4  H11 UNL     1      -2.071  38.585 -11.609  1.00  0.00     0.278 HD
ATOM      5  H12 UNL     1      -2.358  38.758 -13.074  1.00  0.00     0.278 HD
HETATM    6  C6  UNL     1      -0.354  39.146 -12.650  1.00  0.00     0.294 C 
HETATM    7  C8  UNL     1       0.074  38.589 -14.023  1.00  0.00     0.066 C 
ENDROOT
BRANCH   7   8
HETATM    8  C9  UNL     1       1.378  39.104 -14.405  1.00  0.00    -0.050 A 
HETATM    9  C10 UNL     1       1.538  39.530 -15.729  1.00  0.00     0.007 A 
HETATM   10  C11 UNL     1       2.732  40.035 -16.194  1.00  0.00     0.002 A 
HETATM   11  C12 UNL     1       3.803  40.124 -15.337  1.00  0.00     0.018 A 
HETATM   12  C13 UNL     1       3.691  39.710 -14.005  1.00  0.00     0.041 A 
HETATM   13  C15 UNL     1       2.468  39.213 -13.601  1.00  0.00     0.026 A 
BRANCH  12  14
HETATM   14  C14 UNL     1       4.828  39.806 -13.104  1.00  0.00     0.209 C 
HETATM   15  O3  UNL     1       5.276  40.927 -12.809  1.00  0.00    -0.644 OA
HETATM   16  O4  UNL     1       5.406  38.676 -12.583  1.00  0.00    -0.644 OA
ENDBRANCH  12  14
ENDBRANCH   7   8
BRANCH   1  17
HETATM   17  C3  UNL     1      -0.037  36.205 -14.796  1.00  0.00     0.006 C 
BRANCH  17  18
HETATM   18  C2  UNL     1       0.705  34.937 -14.629  1.00  0.00    -0.004 C 
HETATM   19  C1  UNL     1       0.029  33.758 -14.055  1.00  0.00     0.005 C 
ENDBRANCH  17  18
ENDBRANCH   1  17
BRANCH   6  20
HETATM   20  C7  UNL     1      -0.449  40.586 -12.631  1.00  0.00     0.205 C 
HETATM   21  O1  UNL     1       0.104  41.242 -11.726  1.00  0.00    -0.646 OA
HETATM   22  O2  UNL     1      -1.145  41.273 -13.602  1.00  0.00    -0.646 OA
ENDBRANCH   6  20
TORSDOF 5
ENDMDL
