MODEL 2
REMARK VINA RESULT: -8.113350288      1.206      1.644
REMARK  5 active torsions:
REMARK  status: ('A' for Active; 'I' for Inactive)
REMARK    1  A    between atoms: C2_2  and  C3_3 
REMARK    2  A    between atoms: C3_3  and  C4_4 
REMARK    3  A    between atoms: C6_9  and  C7_10 
REMARK    4  A    between atoms: C8_13  and  C9_14 
REMARK    5  A    between atoms: C13_18  and  C14_19 
ROOT
HETATM    1  C4  UNL     1      -0.424  38.552 -12.991  1.00  0.00     0.022 C 
HETATM    2  C5  UNL     1      -1.593  39.183 -12.308  1.00  0.00     0.238 C 
HETATM    3  N1  UNL     1      -1.681  40.579 -12.806  1.00  0.00    -0.060 N 
ATOM      4  H11 UNL     1      -2.119  41.246 -12.171  1.00  0.00     0.278 HD
ATOM      5  H12 UNL     1      -2.344  40.733 -13.566  1.00  0.00     0.278 HD
HETATM    6  C6  UNL     1      -0.310  40.837 -13.123  1.00  0.00     0.294 C 
HETATM    7  C8  UNL     1      -0.027  39.599 -13.998  1.00  0.00     0.066 C 
ENDROOT
BRANCH   7   8
HETATM    8  C9  UNL     1       1.368  39.565 -14.408  1.00  0.00    -0.050 A 
HETATM    9  C10 UNL     1       1.632  39.417 -15.775  1.00  0.00     0.007 A 
HETATM   10  C11 UNL     1       2.917  39.372 -16.269  1.00  0.00     0.002 A 
HETATM   11  C12 UNL     1       3.975  39.475 -15.397  1.00  0.00     0.018 A 
HETATM   12  C13 UNL     1       3.760  39.624 -14.023  1.00  0.00     0.041 A 
HETATM   13  C15 UNL     1       2.449  39.661 -13.592  1.00  0.00     0.026 A 
BRANCH  12  14
HETATM   14  C14 UNL     1       4.884  39.732 -13.107  1.00  0.00     0.209 C 
HETATM   15  O3  UNL     1       5.254  40.856 -12.729  1.00  0.00    -0.644 OA
HETATM   16  O4  UNL     1       5.535  38.609 -12.662  1.00  0.00    -0.644 OA
ENDBRANCH  12  14
ENDBRANCH   7   8
BRANCH   1  17
HETATM   17  C3  UNL     1      -0.727  37.232 -13.553  1.00  0.00     0.006 C 
BRANCH  17  18
HETATM   18  C2  UNL     1      -0.804  36.133 -12.566  1.00  0.00    -0.004 C 
HETATM   19  C1  UNL     1      -0.737  34.731 -13.018  1.00  0.00     0.005 C 
ENDBRANCH  17  18
ENDBRANCH   1  17
BRANCH   6  20
HETATM   20  C7  UNL     1      -0.041  42.081 -13.803  1.00  0.00     0.205 C 
HETATM   21  O1  UNL     1      -0.732  42.426 -14.783  1.00  0.00    -0.646 OA
HETATM   22  O2  UNL     1       0.974  42.919 -13.395  1.00  0.00    -0.646 OA
ENDBRANCH   6  20
TORSDOF 5
ENDMDL
