MODEL 3
REMARK VINA RESULT: -9.047151519      5.884      8.682
REMARK  10 active torsions:
REMARK  status: ('A' for Active; 'I' for Inactive)
REMARK    1  A    between atoms: N5_13  and  C6_14 
REMARK    2  A    between atoms: C7_16  and  C8_17 
REMARK    3  A    between atoms: C8_17  and  S1_18 
REMARK    4  A    between atoms: S1_18  and  C9_19 
REMARK    5  A    between atoms: C9_19  and  C10_20 
REMARK    6  A    between atoms: C10_20  and  C11_21 
REMARK    7  A    between atoms: C11_21  and  N6_22 
REMARK    8  A    between atoms: C11_21  and  C12_26 
REMARK    9  A    between atoms: C13_29  and  O4_30 
REMARK   10  A    between atoms: C14_32  and  O5_33 
ROOT
HETATM    1  C6  UNL     1      41.219 267.873 159.221  1.00  0.00     0.262 C 
HETATM    2  O1  UNL     1      40.487 268.987 159.666  1.00  0.00    -0.355 OA
HETATM    3  C7  UNL     1      41.044 269.271 160.926  1.00  0.00     0.165 C 
HETATM    4  C13 UNL     1      42.525 269.032 160.762  1.00  0.00     0.180 C 
HETATM    5  C14 UNL     1      42.611 268.406 159.387  1.00  0.00     0.198 C 
ENDROOT
BRANCH   1   6
HETATM    6  N5  UNL     1      40.849 267.522 157.887  1.00  0.00    -0.297 N 
HETATM    7  C3  UNL     1      39.591 267.438 157.423  1.00  0.00     0.142 A 
HETATM    8  N3  UNL     1      38.386 267.629 157.984  1.00  0.00    -0.336 N 
HETATM    9  C4  UNL     1      39.694 267.074 156.080  1.00  0.00     0.119 A 
HETATM   10  C2  UNL     1      37.295 267.459 157.224  1.00  0.00     0.183 A 
ATOM     11  H3  UNL     1      38.303 267.896 158.965  1.00  0.00     0.168 HD
HETATM   12  N2  UNL     1      37.372 267.110 155.934  1.00  0.00    -0.339 N 
HETATM   13  C1  UNL     1      38.561 266.913 155.345  1.00  0.00     0.148 A 
ATOM     14  H2  UNL     1      36.515 266.992 155.391  1.00  0.00     0.167 HD
HETATM   15  N1  UNL     1      38.640 266.541 153.967  1.00  0.00    -0.080 NA
HETATM   16  N4  UNL     1      41.020 266.960 155.818  1.00  0.00    -0.346 N 
HETATM   17  C5  UNL     1      41.727 267.230 156.908  1.00  0.00     0.188 A 
ATOM     18  H4  UNL     1      41.416 266.705 154.914  1.00  0.00     0.167 HD
ENDBRANCH   1   6
BRANCH   5  19
HETATM   19  O5  UNL     1      43.601 267.438 159.320  1.00  0.00    -0.388 OA
ATOM     20  H5  UNL     1      43.669 266.899 160.099  1.00  0.00     0.210 HD
ENDBRANCH   5  19
BRANCH   3  21
HETATM   21  C8  UNL     1      40.828 270.725 161.223  1.00  0.00     0.108 C 
BRANCH  21  22
HETATM   22  S1  UNL     1      39.647 271.592 160.245  1.00  0.00    -0.166 SA
BRANCH  22  23
HETATM   23  C9  UNL     1      37.944 271.338 160.650  1.00  0.00     0.076 C 
BRANCH  23  24
HETATM   24  C10 UNL     1      37.012 271.450 159.479  1.00  0.00     0.054 C 
BRANCH  24  25
HETATM   25  C11 UNL     1      35.661 271.908 159.903  1.00  0.00     0.284 C 
BRANCH  25  26
HETATM   26  N6  UNL     1      35.047 271.039 160.858  1.00  0.00    -0.065 N 
ATOM     27  H63 UNL     1      35.549 270.153 160.918  1.00  0.00     0.275 HD
ATOM     28  H62 UNL     1      35.196 271.381 161.807  1.00  0.00     0.275 HD
ATOM     29  H61 UNL     1      34.055 270.885 160.680  1.00  0.00     0.275 HD
ENDBRANCH  25  26
BRANCH  25  30
HETATM   30  C12 UNL     1      34.743 272.148 158.781  1.00  0.00     0.204 C 
HETATM   31  O2  UNL     1      33.993 273.143 158.795  1.00  0.00    -0.646 OA
HETATM   32  O3  UNL     1      34.706 271.281 157.711  1.00  0.00    -0.646 OA
ENDBRANCH  25  30
ENDBRANCH  24  25
ENDBRANCH  23  24
ENDBRANCH  22  23
ENDBRANCH  21  22
ENDBRANCH   3  21
BRANCH   4  33
HETATM   33  O4  UNL     1      42.968 268.069 161.690  1.00  0.00    -0.390 OA
ATOM     34  H4  UNL     1      43.474 268.485 162.378  1.00  0.00     0.210 HD
ENDBRANCH   4  33
TORSDOF 10
ENDMDL
