MODEL 5
REMARK VINA RESULT: -8.776909666      4.892      7.236
REMARK  10 active torsions:
REMARK  status: ('A' for Active; 'I' for Inactive)
REMARK    1  A    between atoms: N5_13  and  C6_14 
REMARK    2  A    between atoms: C7_16  and  C8_17 
REMARK    3  A    between atoms: C8_17  and  S1_18 
REMARK    4  A    between atoms: S1_18  and  C9_19 
REMARK    5  A    between atoms: C9_19  and  C10_20 
REMARK    6  A    between atoms: C10_20  and  C11_21 
REMARK    7  A    between atoms: C11_21  and  N6_22 
REMARK    8  A    between atoms: C11_21  and  C12_26 
REMARK    9  A    between atoms: C13_29  and  O4_30 
REMARK   10  A    between atoms: C14_32  and  O5_33 
ROOT
HETATM    1  C6  UNL     1      42.319 269.160 161.132  1.00  0.00     0.262 C 
HETATM    2  O1  UNL     1      41.148 269.920 161.295  1.00  0.00    -0.355 OA
HETATM    3  C7  UNL     1      41.297 270.495 162.570  1.00  0.00     0.165 C 
HETATM    4  C13 UNL     1      42.758 270.854 162.669  1.00  0.00     0.180 C 
HETATM    5  C14 UNL     1      43.343 270.215 161.429  1.00  0.00     0.198 C 
ENDROOT
BRANCH   1   6
HETATM    6  N5  UNL     1      42.379 268.594 159.823  1.00  0.00    -0.297 N 
HETATM    7  C3  UNL     1      41.321 268.203 159.092  1.00  0.00     0.142 A 
HETATM    8  N3  UNL     1      39.997 268.207 159.313  1.00  0.00    -0.336 N 
HETATM    9  C4  UNL     1      41.835 267.720 157.889  1.00  0.00     0.119 A 
HETATM   10  C2  UNL     1      39.190 267.734 158.352  1.00  0.00     0.183 A 
ATOM     11  H3  UNL     1      39.614 268.560 160.189  1.00  0.00     0.168 HD
HETATM   12  N2  UNL     1      39.662 267.265 157.190  1.00  0.00    -0.339 N 
HETATM   13  C1  UNL     1      40.980 267.250 156.941  1.00  0.00     0.148 A 
ATOM     14  H2  UNL     1      39.012 266.915 156.486  1.00  0.00     0.167 HD
HETATM   15  N1  UNL     1      41.482 266.749 155.699  1.00  0.00    -0.080 NA
HETATM   16  N4  UNL     1      43.183 267.850 157.972  1.00  0.00    -0.346 N 
HETATM   17  C5  UNL     1      43.521 268.379 159.141  1.00  0.00     0.188 A 
ATOM     18  H4  UNL     1      43.841 267.580 157.241  1.00  0.00     0.167 HD
ENDBRANCH   1   6
BRANCH   5  19
HETATM   19  O5  UNL     1      44.618 269.719 161.654  1.00  0.00    -0.388 OA
ATOM     20  H5  UNL     1      45.302 270.377 161.621  1.00  0.00     0.210 HD
ENDBRANCH   5  19
BRANCH   3  21
HETATM   21  C8  UNL     1      40.493 271.760 162.617  1.00  0.00     0.108 C 
BRANCH  21  22
HETATM   22  S1  UNL     1      39.494 272.146 161.217  1.00  0.00    -0.166 SA
BRANCH  22  23
HETATM   23  C9  UNL     1      37.936 271.317 161.105  1.00  0.00     0.076 C 
BRANCH  23  24
HETATM   24  C10 UNL     1      37.270 271.443 159.765  1.00  0.00     0.054 C 
BRANCH  24  25
HETATM   25  C11 UNL     1      35.822 271.759 159.907  1.00  0.00     0.284 C 
BRANCH  25  26
HETATM   26  N6  UNL     1      35.188 271.027 160.957  1.00  0.00    -0.065 N 
ATOM     27  H63 UNL     1      34.247 271.382 161.130  1.00  0.00     0.275 HD
ATOM     28  H62 UNL     1      34.957 270.082 160.651  1.00  0.00     0.275 HD
ATOM     29  H61 UNL     1      35.733 271.007 161.818  1.00  0.00     0.275 HD
ENDBRANCH  25  26
BRANCH  25  30
HETATM   30  C12 UNL     1      35.063 271.606 158.658  1.00  0.00     0.204 C 
HETATM   31  O2  UNL     1      35.369 270.706 157.853  1.00  0.00    -0.646 OA
HETATM   32  O3  UNL     1      34.014 272.452 158.371  1.00  0.00    -0.646 OA
ENDBRANCH  25  30
ENDBRANCH  24  25
ENDBRANCH  23  24
ENDBRANCH  22  23
ENDBRANCH  21  22
ENDBRANCH   3  21
BRANCH   4  33
HETATM   33  O4  UNL     1      43.341 270.219 163.784  1.00  0.00    -0.390 OA
ATOM     34  H4  UNL     1      44.287 270.215 163.702  1.00  0.00     0.210 HD
ENDBRANCH   4  33
TORSDOF 10
ENDMDL
