MODEL 1
REMARK VINA RESULT: -9.395919200      0.000      0.000
REMARK  10 active torsions:
REMARK  status: ('A' for Active; 'I' for Inactive)
REMARK    1  A    between atoms: N5_13  and  C6_14 
REMARK    2  A    between atoms: C7_16  and  C8_17 
REMARK    3  A    between atoms: C8_17  and  S1_18 
REMARK    4  A    between atoms: S1_18  and  C9_19 
REMARK    5  A    between atoms: C9_19  and  C10_20 
REMARK    6  A    between atoms: C10_20  and  C11_21 
REMARK    7  A    between atoms: C11_21  and  N6_22 
REMARK    8  A    between atoms: C11_21  and  C12_26 
REMARK    9  A    between atoms: C13_29  and  O4_30 
REMARK   10  A    between atoms: C14_32  and  O5_33 
ROOT
HETATM    1  C6  UNL     1      41.262 272.579 164.478  1.00  0.00     0.262 C 
HETATM    2  O1  UNL     1      41.004 271.425 163.718  1.00  0.00    -0.355 OA
HETATM    3  C7  UNL     1      40.510 271.930 162.501  1.00  0.00     0.165 C 
HETATM    4  C13 UNL     1      41.337 273.161 162.224  1.00  0.00     0.180 C 
HETATM    5  C14 UNL     1      42.122 273.329 163.506  1.00  0.00     0.198 C 
ENDROOT
BRANCH   1   6
HETATM    6  N5  UNL     1      41.883 272.240 165.718  1.00  0.00    -0.297 N 
HETATM    7  C3  UNL     1      41.409 272.545 166.938  1.00  0.00     0.142 A 
HETATM    8  N3  UNL     1      40.317 273.198 167.365  1.00  0.00    -0.336 N 
HETATM    9  C4  UNL     1      42.323 272.023 167.854  1.00  0.00     0.119 A 
HETATM   10  C2  UNL     1      40.132 273.334 168.686  1.00  0.00     0.183 A 
ATOM     11  H3  UNL     1      39.644 273.581 166.702  1.00  0.00     0.168 HD
HETATM   12  N2  UNL     1      40.996 272.841 169.582  1.00  0.00    -0.339 N 
HETATM   13  C1  UNL     1      42.096 272.183 169.185  1.00  0.00     0.148 A 
ATOM     14  H2  UNL     1      40.816 272.967 170.579  1.00  0.00     0.167 HD
HETATM   15  N1  UNL     1      43.017 271.656 170.144  1.00  0.00    -0.080 NA
HETATM   16  N4  UNL     1      43.299 271.431 167.121  1.00  0.00    -0.346 N 
HETATM   17  C5  UNL     1      43.041 271.558 165.826  1.00  0.00     0.188 A 
ATOM     18  H4  UNL     1      44.114 270.957 167.510  1.00  0.00     0.167 HD
ENDBRANCH   1   6
BRANCH   5  19
HETATM   19  O5  UNL     1      42.308 274.665 163.827  1.00  0.00    -0.388 OA
ATOM     20  H5  UNL     1      43.193 274.979 163.689  1.00  0.00     0.210 HD
ENDBRANCH   5  19
BRANCH   3  21
HETATM   21  C8  UNL     1      40.782 270.923 161.424  1.00  0.00     0.108 C 
BRANCH  21  22
HETATM   22  S1  UNL     1      39.524 270.654 160.220  1.00  0.00    -0.166 SA
BRANCH  22  23
HETATM   23  C9  UNL     1      37.897 271.203 160.640  1.00  0.00     0.076 C 
BRANCH  23  24
HETATM   24  C10 UNL     1      37.038 271.539 159.455  1.00  0.00     0.054 C 
BRANCH  24  25
HETATM   25  C11 UNL     1      35.676 271.967 159.876  1.00  0.00     0.284 C 
BRANCH  25  26
HETATM   26  N6  UNL     1      35.086 271.095 160.841  1.00  0.00    -0.065 N 
ATOM     27  H63 UNL     1      34.735 271.622 161.641  1.00  0.00     0.275 HD
ATOM     28  H62 UNL     1      34.207 270.712 160.494  1.00  0.00     0.275 HD
ATOM     29  H61 UNL     1      35.712 270.349 161.144  1.00  0.00     0.275 HD
ENDBRANCH  25  26
BRANCH  25  30
HETATM   30  C12 UNL     1      34.752 272.172 158.752  1.00  0.00     0.204 C 
HETATM   31  O2  UNL     1      33.970 273.142 158.760  1.00  0.00    -0.646 OA
HETATM   32  O3  UNL     1      34.742 271.297 157.688  1.00  0.00    -0.646 OA
ENDBRANCH  25  30
ENDBRANCH  24  25
ENDBRANCH  23  24
ENDBRANCH  22  23
ENDBRANCH  21  22
ENDBRANCH   3  21
BRANCH   4  33
HETATM   33  O4  UNL     1      40.502 274.288 162.091  1.00  0.00    -0.390 OA
ATOM     34  H4  UNL     1      39.904 274.170 161.363  1.00  0.00     0.210 HD
ENDBRANCH   4  33
TORSDOF 10
ENDMDL
