MODEL 2
REMARK VINA RESULT: -9.102535669      1.353      1.866
REMARK  10 active torsions:
REMARK  status: ('A' for Active; 'I' for Inactive)
REMARK    1  A    between atoms: N5_13  and  C6_14 
REMARK    2  A    between atoms: C7_16  and  C8_17 
REMARK    3  A    between atoms: C8_17  and  S1_18 
REMARK    4  A    between atoms: S1_18  and  C9_19 
REMARK    5  A    between atoms: C9_19  and  C10_20 
REMARK    6  A    between atoms: C10_20  and  C11_21 
REMARK    7  A    between atoms: C11_21  and  N6_22 
REMARK    8  A    between atoms: C11_21  and  C12_26 
REMARK    9  A    between atoms: C13_29  and  O4_30 
REMARK   10  A    between atoms: C14_32  and  O5_33 
ROOT
HETATM    1  C6  UNL     1      42.824 271.940 164.207  1.00  0.00     0.262 C 
HETATM    2  O1  UNL     1      41.770 272.758 163.766  1.00  0.00    -0.355 OA
HETATM    3  C7  UNL     1      41.803 272.622 162.366  1.00  0.00     0.165 C 
HETATM    4  C13 UNL     1      42.126 271.169 162.122  1.00  0.00     0.180 C 
HETATM    5  C14 UNL     1      42.455 270.664 163.510  1.00  0.00     0.198 C 
ENDROOT
BRANCH   1   6
HETATM    6  N5  UNL     1      42.856 271.877 165.633  1.00  0.00    -0.297 N 
HETATM    7  C3  UNL     1      41.876 272.288 166.454  1.00  0.00     0.142 A 
HETATM    8  N3  UNL     1      40.668 272.838 166.246  1.00  0.00    -0.336 N 
HETATM    9  C4  UNL     1      42.323 272.038 167.752  1.00  0.00     0.119 A 
HETATM   10  C2  UNL     1      39.913 273.139 167.312  1.00  0.00     0.183 A 
ATOM     11  H3  UNL     1      40.334 273.022 165.300  1.00  0.00     0.168 HD
HETATM   12  N2  UNL     1      40.323 272.908 168.565  1.00  0.00    -0.339 N 
HETATM   13  C1  UNL     1      41.524 272.359 168.805  1.00  0.00     0.148 A 
ATOM     14  H2  UNL     1      39.716 273.152 169.348  1.00  0.00     0.167 HD
HETATM   15  N1  UNL     1      41.959 272.112 170.144  1.00  0.00    -0.080 NA
HETATM   16  N4  UNL     1      43.556 271.487 167.629  1.00  0.00    -0.346 N 
HETATM   17  C5  UNL     1      43.887 271.386 166.347  1.00  0.00     0.188 A 
ATOM     18  H4  UNL     1      44.144 271.194 168.408  1.00  0.00     0.167 HD
ENDBRANCH   1   6
BRANCH   5  19
HETATM   19  O5  UNL     1      43.468 269.716 163.490  1.00  0.00    -0.388 OA
ATOM     20  H5  UNL     1      43.783 269.504 162.619  1.00  0.00     0.210 HD
ENDBRANCH   5  19
BRANCH   3  21
HETATM   21  C8  UNL     1      40.431 272.899 161.830  1.00  0.00     0.108 C 
BRANCH  21  22
HETATM   22  S1  UNL     1      39.691 271.672 160.805  1.00  0.00    -0.166 SA
BRANCH  22  23
HETATM   23  C9  UNL     1      37.948 271.435 160.986  1.00  0.00     0.076 C 
BRANCH  23  24
HETATM   24  C10 UNL     1      37.186 271.479 159.693  1.00  0.00     0.054 C 
BRANCH  24  25
HETATM   25  C11 UNL     1      35.752 271.806 159.920  1.00  0.00     0.284 C 
BRANCH  25  26
HETATM   26  N6  UNL     1      35.154 271.026 160.957  1.00  0.00    -0.065 N 
ATOM     27  H63 UNL     1      35.621 271.189 161.850  1.00  0.00     0.275 HD
ATOM     28  H62 UNL     1      34.225 271.379 161.187  1.00  0.00     0.275 HD
ATOM     29  H61 UNL     1      35.120 270.030 160.741  1.00  0.00     0.275 HD
ENDBRANCH  25  26
BRANCH  25  30
HETATM   30  C12 UNL     1      34.933 271.733 158.702  1.00  0.00     0.204 C 
HETATM   31  O2  UNL     1      35.095 270.793 157.901  1.00  0.00    -0.646 OA
HETATM   32  O3  UNL     1      33.986 272.698 158.439  1.00  0.00    -0.646 OA
ENDBRANCH  25  30
ENDBRANCH  24  25
ENDBRANCH  23  24
ENDBRANCH  22  23
ENDBRANCH  21  22
ENDBRANCH   3  21
BRANCH   4  33
HETATM   33  O4  UNL     1      43.295 271.053 161.345  1.00  0.00    -0.390 OA
ATOM     34  H4  UNL     1      44.058 270.992 161.907  1.00  0.00     0.210 HD
ENDBRANCH   4  33
TORSDOF 10
ENDMDL
