MODEL 11
REMARK VINA RESULT: -8.256870901      3.558      8.136
REMARK  10 active torsions:
REMARK  status: ('A' for Active; 'I' for Inactive)
REMARK    1  A    between atoms: N5_13  and  C6_14 
REMARK    2  A    between atoms: C7_16  and  C8_17 
REMARK    3  A    between atoms: C8_17  and  S1_18 
REMARK    4  A    between atoms: S1_18  and  C9_19 
REMARK    5  A    between atoms: C9_19  and  C10_20 
REMARK    6  A    between atoms: C10_20  and  C11_21 
REMARK    7  A    between atoms: C11_21  and  N6_22 
REMARK    8  A    between atoms: C11_21  and  C12_26 
REMARK    9  A    between atoms: C13_29  and  O4_30 
REMARK   10  A    between atoms: C14_32  and  O5_33 
ROOT
HETATM    1  C6  UNL     1      41.765 272.481 161.695  1.00  0.00     0.262 C 
HETATM    2  O1  UNL     1      43.004 272.022 162.174  1.00  0.00    -0.355 OA
HETATM    3  C7  UNL     1      43.483 273.095 162.946  1.00  0.00     0.165 C 
HETATM    4  C13 UNL     1      42.267 273.645 163.649  1.00  0.00     0.180 C 
HETATM    5  C14 UNL     1      41.133 272.889 162.992  1.00  0.00     0.198 C 
ENDROOT
BRANCH   1   6
HETATM    6  N5  UNL     1      41.086 271.452 160.974  1.00  0.00    -0.297 N 
HETATM    7  C3  UNL     1      41.649 270.326 160.507  1.00  0.00     0.142 A 
HETATM    8  N3  UNL     1      42.897 269.833 160.547  1.00  0.00    -0.336 N 
HETATM    9  C4  UNL     1      40.628 269.612 159.878  1.00  0.00     0.119 A 
HETATM   10  C2  UNL     1      43.133 268.647 159.968  1.00  0.00     0.183 A 
ATOM     11  H3  UNL     1      43.648 270.348 161.006  1.00  0.00     0.168 HD
HETATM   12  N2  UNL     1      42.168 267.946 159.359  1.00  0.00    -0.339 N 
HETATM   13  C1  UNL     1      40.911 268.412 159.303  1.00  0.00     0.148 A 
ATOM     14  H2  UNL     1      42.391 267.047 158.931  1.00  0.00     0.167 HD
HETATM   15  N1  UNL     1      39.883 267.661 158.653  1.00  0.00    -0.080 NA
HETATM   16  N4  UNL     1      39.505 270.361 160.007  1.00  0.00    -0.346 N 
HETATM   17  C5  UNL     1      39.774 271.479 160.670  1.00  0.00     0.188 A 
ATOM     18  H4  UNL     1      38.587 270.104 159.646  1.00  0.00     0.167 HD
ENDBRANCH   1   6
BRANCH   5  19
HETATM   19  O5  UNL     1      40.001 273.677 162.848  1.00  0.00    -0.388 OA
ATOM     20  H5  UNL     1      39.985 274.440 163.413  1.00  0.00     0.210 HD
ENDBRANCH   5  19
BRANCH   3  21
HETATM   21  C8  UNL     1      44.424 272.553 163.981  1.00  0.00     0.108 C 
BRANCH  21  22
HETATM   22  S1  UNL     1      43.896 271.153 164.912  1.00  0.00    -0.166 SA
BRANCH  22  23
HETATM   23  C9  UNL     1      43.528 271.430 166.619  1.00  0.00     0.076 C 
BRANCH  23  24
HETATM   24  C10 UNL     1      42.101 271.814 166.884  1.00  0.00     0.054 C 
BRANCH  24  25
HETATM   25  C11 UNL     1      41.940 272.401 168.242  1.00  0.00     0.284 C 
BRANCH  25  26
HETATM   26  N6  UNL     1      41.918 271.419 169.280  1.00  0.00    -0.065 N 
ATOM     27  H63 UNL     1      42.322 270.539 168.956  1.00  0.00     0.275 HD
ATOM     28  H62 UNL     1      42.587 271.651 170.013  1.00  0.00     0.275 HD
ATOM     29  H61 UNL     1      40.988 271.270 169.671  1.00  0.00     0.275 HD
ENDBRANCH  25  26
BRANCH  25  30
HETATM   30  C12 UNL     1      40.775 273.287 168.365  1.00  0.00     0.204 C 
HETATM   31  O2  UNL     1      40.188 273.685 167.341  1.00  0.00    -0.646 OA
HETATM   32  O3  UNL     1      40.326 273.682 169.606  1.00  0.00    -0.646 OA
ENDBRANCH  25  30
ENDBRANCH  24  25
ENDBRANCH  23  24
ENDBRANCH  22  23
ENDBRANCH  21  22
ENDBRANCH   3  21
BRANCH   4  33
HETATM   33  O4  UNL     1      42.099 275.008 163.338  1.00  0.00    -0.390 OA
ATOM     34  H4  UNL     1      42.024 275.123 162.398  1.00  0.00     0.210 HD
ENDBRANCH   4  33
TORSDOF 10
ENDMDL
