MODEL 3
REMARK VINA RESULT: -6.830755019      3.443      5.732
REMARK  5 active torsions:
REMARK  status: ('A' for Active; 'I' for Inactive)
REMARK    1  A    between atoms: S1_2  and  C2_3 
REMARK    2  A    between atoms: C2_3  and  C3_4 
REMARK    3  A    between atoms: N1_6  and  C5_7 
REMARK    4  A    between atoms: C5_7  and  C6_8 
REMARK    5  A    between atoms: C13_22  and  O1_23 
ROOT
HETATM    1  C6  UNL     1     -25.130  -1.095 -26.022  1.00  0.00     0.014 A 
HETATM    2  C7  UNL     1     -25.795  -2.266 -25.723  1.00  0.00     0.099 A 
HETATM    3  N2  UNL     1     -25.181  -2.783 -24.653  1.00  0.00    -0.361 N 
ATOM      4  H2  UNL     1     -25.448  -3.654 -24.195  1.00  0.00     0.165 HD
HETATM    5  C8  UNL     1     -24.149  -1.986 -24.258  1.00  0.00     0.101 A 
HETATM    6  C9  UNL     1     -23.229  -2.059 -23.243  1.00  0.00     0.146 A 
HETATM    7  N3  UNL     1     -23.270  -3.160 -22.359  1.00  0.00    -0.080 NA
HETATM    8  N4  UNL     1     -22.314  -1.095 -23.107  1.00  0.00    -0.339 N 
ATOM      9  H4  UNL     1     -21.637  -1.162 -22.348  1.00  0.00     0.167 HD
HETATM   10  C10 UNL     1     -22.259  -0.035 -23.944  1.00  0.00     0.182 A 
HETATM   11  N5  UNL     1     -23.157   0.043 -24.941  1.00  0.00    -0.350 N 
ATOM     12  H5  UNL     1     -23.125   0.838 -25.580  1.00  0.00     0.166 HD
HETATM   13  C11 UNL     1     -24.095  -0.904 -25.113  1.00  0.00     0.072 A 
ENDROOT
BRANCH   1  14
HETATM   14  C5  UNL     1     -25.460  -0.179 -27.137  1.00  0.00     0.315 C 
BRANCH  14  15
HETATM   15  N1  UNL     1     -25.384  -0.849 -28.398  1.00  0.00     0.095 N 
HETATM   16  C4  UNL     1     -24.595  -0.172 -29.397  1.00  0.00     0.280 C 
HETATM   17  C3  UNL     1     -25.248  -0.421 -30.737  1.00  0.00     0.054 C 
HETATM   18  C13 UNL     1     -26.270  -1.472 -30.408  1.00  0.00     0.152 C 
HETATM   19  C12 UNL     1     -26.712  -0.985 -29.020  1.00  0.00     0.304 C 
BRANCH  17  20
HETATM   20  C2  UNL     1     -24.234  -0.869 -31.762  1.00  0.00     0.082 C 
BRANCH  20  21
HETATM   21  S1  UNL     1     -24.261   0.106 -33.256  1.00  0.00    -0.173 SA
HETATM   22  C1  UNL     1     -25.873   0.276 -33.998  1.00  0.00     0.089 C 
ENDBRANCH  20  21
ENDBRANCH  17  20
BRANCH  18  23
HETATM   23  O1  UNL     1     -27.310  -1.556 -31.293  1.00  0.00    -0.393 OA
ATOM     24  H1  UNL     1     -27.345  -2.366 -31.788  1.00  0.00     0.210 HD
ENDBRANCH  18  23
ENDBRANCH  14  15
ENDBRANCH   1  14
TORSDOF 5
ENDMDL
