MODEL 5
REMARK VINA RESULT: -6.244221861      3.247      5.951
REMARK  5 active torsions:
REMARK  status: ('A' for Active; 'I' for Inactive)
REMARK    1  A    between atoms: S1_2  and  C2_3 
REMARK    2  A    between atoms: C2_3  and  C3_4 
REMARK    3  A    between atoms: N1_6  and  C5_7 
REMARK    4  A    between atoms: C5_7  and  C6_8 
REMARK    5  A    between atoms: C13_22  and  O1_23 
ROOT
HETATM    1  C6  UNL     1     -24.392  -2.112 -24.756  1.00  0.00     0.014 A 
HETATM    2  C7  UNL     1     -25.525  -2.813 -24.397  1.00  0.00     0.099 A 
HETATM    3  N2  UNL     1     -26.490  -2.420 -25.236  1.00  0.00    -0.361 N 
ATOM      4  H2  UNL     1     -27.450  -2.764 -25.218  1.00  0.00     0.165 HD
HETATM    5  C8  UNL     1     -26.016  -1.495 -26.116  1.00  0.00     0.101 A 
HETATM    6  C9  UNL     1     -26.581  -0.794 -27.152  1.00  0.00     0.146 A 
HETATM    7  N3  UNL     1     -27.945  -1.001 -27.455  1.00  0.00    -0.080 NA
HETATM    8  N4  UNL     1     -25.838   0.066 -27.852  1.00  0.00    -0.339 N 
ATOM      9  H4  UNL     1     -26.271   0.580 -28.620  1.00  0.00     0.167 HD
HETATM   10  C10 UNL     1     -24.532   0.278 -27.577  1.00  0.00     0.182 A 
HETATM   11  N5  UNL     1     -23.972  -0.404 -26.564  1.00  0.00    -0.350 N 
ATOM     12  H5  UNL     1     -22.987  -0.253 -26.344  1.00  0.00     0.166 HD
HETATM   13  C11 UNL     1     -24.682  -1.281 -25.832  1.00  0.00     0.072 A 
ENDROOT
BRANCH   1  14
HETATM   14  C5  UNL     1     -23.069  -2.222 -24.102  1.00  0.00     0.315 C 
BRANCH  14  15
HETATM   15  N1  UNL     1     -22.817  -1.100 -23.251  1.00  0.00     0.095 N 
HETATM   16  C4  UNL     1     -23.961  -0.255 -23.009  1.00  0.00     0.280 C 
HETATM   17  C3  UNL     1     -23.461   1.167 -22.907  1.00  0.00     0.054 C 
HETATM   18  C13 UNL     1     -21.970   0.983 -22.857  1.00  0.00     0.152 C 
HETATM   19  C12 UNL     1     -21.816  -0.192 -23.834  1.00  0.00     0.304 C 
BRANCH  17  20
HETATM   20  C2  UNL     1     -24.023   1.856 -21.687  1.00  0.00     0.082 C 
BRANCH  20  21
HETATM   21  S1  UNL     1     -24.352   3.591 -21.944  1.00  0.00    -0.173 SA
HETATM   22  C1  UNL     1     -22.895   4.613 -22.042  1.00  0.00     0.089 C 
ENDBRANCH  20  21
ENDBRANCH  17  20
BRANCH  18  23
HETATM   23  O1  UNL     1     -21.245   2.080 -23.233  1.00  0.00    -0.393 OA
ATOM     24  H1  UNL     1     -20.365   2.116 -22.875  1.00  0.00     0.210 HD
ENDBRANCH  18  23
ENDBRANCH  14  15
ENDBRANCH   1  14
TORSDOF 5
ENDMDL
