MODEL 4
REMARK VINA RESULT: -6.333876622      3.789      5.957
REMARK  5 active torsions:
REMARK  status: ('A' for Active; 'I' for Inactive)
REMARK    1  A    between atoms: S1_2  and  C2_3 
REMARK    2  A    between atoms: C2_3  and  C3_4 
REMARK    3  A    between atoms: N1_6  and  C5_7 
REMARK    4  A    between atoms: C5_7  and  C6_8 
REMARK    5  A    between atoms: C13_22  and  O1_23 
ROOT
HETATM    1  C6  UNL     1     -24.755  -0.630 -25.944  1.00  0.00     0.014 A 
HETATM    2  C7  UNL     1     -23.723   0.089 -25.377  1.00  0.00     0.099 A 
HETATM    3  N2  UNL     1     -23.113  -0.740 -24.522  1.00  0.00    -0.361 N 
ATOM      4  H2  UNL     1     -22.307  -0.492 -23.949  1.00  0.00     0.165 HD
HETATM    5  C8  UNL     1     -23.716  -1.961 -24.524  1.00  0.00     0.101 A 
HETATM    6  C9  UNL     1     -23.486  -3.133 -23.848  1.00  0.00     0.146 A 
HETATM    7  N3  UNL     1     -22.417  -3.194 -22.926  1.00  0.00    -0.080 NA
HETATM    8  N4  UNL     1     -24.270  -4.191 -24.070  1.00  0.00    -0.339 N 
ATOM      9  H4  UNL     1     -24.087  -5.056 -23.562  1.00  0.00     0.167 HD
HETATM   10  C10 UNL     1     -25.298  -4.152 -24.947  1.00  0.00     0.182 A 
HETATM   11  N5  UNL     1     -25.530  -3.007 -25.612  1.00  0.00    -0.350 N 
ATOM     12  H5  UNL     1     -26.302  -2.964 -26.277  1.00  0.00     0.166 HD
HETATM   13  C11 UNL     1     -24.764  -1.918 -25.420  1.00  0.00     0.072 A 
ENDROOT
BRANCH   1  14
HETATM   14  C5  UNL     1     -25.708  -0.118 -26.954  1.00  0.00     0.315 C 
BRANCH  14  15
HETATM   15  N1  UNL     1     -25.568  -0.811 -28.197  1.00  0.00     0.095 N 
HETATM   16  C4  UNL     1     -24.694  -0.174 -29.151  1.00  0.00     0.280 C 
HETATM   17  C3  UNL     1     -25.263  -0.426 -30.528  1.00  0.00     0.054 C 
HETATM   18  C13 UNL     1     -26.336  -1.442 -30.252  1.00  0.00     0.152 C 
HETATM   19  C12 UNL     1     -26.854  -0.919 -28.905  1.00  0.00     0.304 C 
BRANCH  17  20
HETATM   20  C2  UNL     1     -24.196  -0.921 -31.475  1.00  0.00     0.082 C 
BRANCH  20  21
HETATM   21  S1  UNL     1     -24.145  -0.019 -33.014  1.00  0.00    -0.173 SA
HETATM   22  C1  UNL     1     -25.737   0.243 -33.771  1.00  0.00     0.089 C 
ENDBRANCH  20  21
ENDBRANCH  17  20
BRANCH  18  23
HETATM   23  O1  UNL     1     -27.317  -1.511 -31.204  1.00  0.00    -0.393 OA
ATOM     24  H1  UNL     1     -27.815  -2.319 -31.202  1.00  0.00     0.210 HD
ENDBRANCH  18  23
ENDBRANCH  14  15
ENDBRANCH   1  14
TORSDOF 5
ENDMDL
