MODEL 1
REMARK VINA RESULT: -7.840341007      0.000      0.000
REMARK  5 active torsions:
REMARK  status: ('A' for Active; 'I' for Inactive)
REMARK    1  A    between atoms: S1_2  and  C2_3 
REMARK    2  A    between atoms: C2_3  and  C3_4 
REMARK    3  A    between atoms: N1_6  and  C5_7 
REMARK    4  A    between atoms: C5_7  and  C6_8 
REMARK    5  A    between atoms: C13_22  and  O1_23 
ROOT
HETATM    1  C6  UNL     1     -22.435   0.318 -22.795  1.00  0.00     0.014 A 
HETATM    2  C7  UNL     1     -21.356   0.820 -23.492  1.00  0.00     0.099 A 
HETATM    3  N2  UNL     1     -21.461   2.153 -23.438  1.00  0.00    -0.361 N 
ATOM      4  H2  UNL     1     -20.805   2.805 -23.867  1.00  0.00     0.165 HD
HETATM    5  C8  UNL     1     -22.567   2.520 -22.732  1.00  0.00     0.101 A 
HETATM    6  C9  UNL     1     -23.116   3.730 -22.391  1.00  0.00     0.146 A 
HETATM    7  N3  UNL     1     -22.476   4.916 -22.814  1.00  0.00    -0.080 NA
HETATM    8  N4  UNL     1     -24.238   3.769 -21.669  1.00  0.00    -0.339 N 
ATOM      9  H4  UNL     1     -24.635   4.675 -21.422  1.00  0.00     0.167 HD
HETATM   10  C10 UNL     1     -24.865   2.645 -21.255  1.00  0.00     0.182 A 
HETATM   11  N5  UNL     1     -24.334   1.455 -21.586  1.00  0.00    -0.350 N 
ATOM     12  H5  UNL     1     -24.797   0.600 -21.282  1.00  0.00     0.166 HD
HETATM   13  C11 UNL     1     -23.204   1.370 -22.311  1.00  0.00     0.072 A 
ENDROOT
BRANCH   1  14
HETATM   14  C5  UNL     1     -22.734  -1.117 -22.589  1.00  0.00     0.315 C 
BRANCH  14  15
HETATM   15  N1  UNL     1     -23.292  -1.704 -23.768  1.00  0.00     0.095 N 
HETATM   16  C4  UNL     1     -24.482  -1.056 -24.262  1.00  0.00     0.280 C 
HETATM   17  C3  UNL     1     -25.377  -2.130 -24.837  1.00  0.00     0.054 C 
HETATM   18  C13 UNL     1     -24.476  -3.332 -24.844  1.00  0.00     0.152 C 
HETATM   19  C12 UNL     1     -23.710  -3.096 -23.534  1.00  0.00     0.304 C 
BRANCH  17  20
HETATM   20  C2  UNL     1     -25.876  -1.745 -26.209  1.00  0.00     0.082 C 
BRANCH  20  21
HETATM   21  S1  UNL     1     -24.852  -0.526 -27.015  1.00  0.00    -0.173 SA
HETATM   22  C1  UNL     1     -25.122  -0.380 -28.771  1.00  0.00     0.089 C 
ENDBRANCH  20  21
ENDBRANCH  17  20
BRANCH  18  23
HETATM   23  O1  UNL     1     -25.127  -4.535 -24.864  1.00  0.00    -0.393 OA
ATOM     24  H1  UNL     1     -24.558  -5.294 -24.926  1.00  0.00     0.210 HD
ENDBRANCH  18  23
ENDBRANCH  14  15
ENDBRANCH   1  14
TORSDOF 5
ENDMDL
