MODEL 2
REMARK VINA RESULT: -7.194914576      1.341      1.654
REMARK  5 active torsions:
REMARK  status: ('A' for Active; 'I' for Inactive)
REMARK    1  A    between atoms: S1_2  and  C2_3 
REMARK    2  A    between atoms: C2_3  and  C3_4 
REMARK    3  A    between atoms: N1_6  and  C5_7 
REMARK    4  A    between atoms: C5_7  and  C6_8 
REMARK    5  A    between atoms: C13_22  and  O1_23 
ROOT
HETATM    1  C6  UNL     1     -22.555   0.022 -23.368  1.00  0.00     0.014 A 
HETATM    2  C7  UNL     1     -21.325   0.597 -23.607  1.00  0.00     0.099 A 
HETATM    3  N2  UNL     1     -21.422   1.871 -23.208  1.00  0.00    -0.361 N 
ATOM      4  H2  UNL     1     -20.667   2.554 -23.260  1.00  0.00     0.165 HD
HETATM    5  C8  UNL     1     -22.668   2.129 -22.723  1.00  0.00     0.101 A 
HETATM    6  C9  UNL     1     -23.271   3.246 -22.202  1.00  0.00     0.146 A 
HETATM    7  N3  UNL     1     -22.526   4.442 -22.103  1.00  0.00    -0.080 NA
HETATM    8  N4  UNL     1     -24.542   3.186 -21.799  1.00  0.00    -0.339 N 
ATOM      9  H4  UNL     1     -24.977   4.024 -21.413  1.00  0.00     0.167 HD
HETATM   10  C10 UNL     1     -25.271   2.051 -21.886  1.00  0.00     0.182 A 
HETATM   11  N5  UNL     1     -24.688   0.953 -22.397  1.00  0.00    -0.350 N 
ATOM     12  H5  UNL     1     -25.227   0.090 -22.469  1.00  0.00     0.166 HD
HETATM   13  C11 UNL     1     -23.410   0.968 -22.813  1.00  0.00     0.072 A 
ENDROOT
BRANCH   1  14
HETATM   14  C5  UNL     1     -22.918  -1.384 -23.654  1.00  0.00     0.315 C 
BRANCH  14  15
HETATM   15  N1  UNL     1     -23.596  -1.499 -24.908  1.00  0.00     0.095 N 
HETATM   16  C4  UNL     1     -23.670  -0.277 -25.671  1.00  0.00     0.280 C 
HETATM   17  C3  UNL     1     -24.997  -0.274 -26.395  1.00  0.00     0.054 C 
HETATM   18  C13 UNL     1     -25.493  -1.674 -26.167  1.00  0.00     0.152 C 
HETATM   19  C12 UNL     1     -25.002  -1.897 -24.729  1.00  0.00     0.304 C 
BRANCH  17  20
HETATM   20  C2  UNL     1     -24.819   0.071 -27.854  1.00  0.00     0.082 C 
BRANCH  20  21
HETATM   21  S1  UNL     1     -25.165  -1.295 -28.949  1.00  0.00    -0.173 SA
HETATM   22  C1  UNL     1     -26.609  -1.076 -29.971  1.00  0.00     0.089 C 
ENDBRANCH  20  21
ENDBRANCH  17  20
BRANCH  18  23
HETATM   23  O1  UNL     1     -26.846  -1.829 -26.293  1.00  0.00    -0.393 OA
ATOM     24  H1  UNL     1     -27.157  -2.718 -26.166  1.00  0.00     0.210 HD
ENDBRANCH  18  23
ENDBRANCH  14  15
ENDBRANCH   1  14
TORSDOF 5
ENDMDL
