MODEL 1
REMARK VINA RESULT: -10.580243805      0.000      0.000
REMARK  14 active torsions:
REMARK  status: ('A' for Active; 'I' for Inactive)
REMARK    1  A    between atoms: C2_2  and  C3_3 
REMARK    2  A    between atoms: C2_2  and  N1_7 
REMARK    3  A    between atoms: C3_3  and  C4_4 
REMARK    4  A    between atoms: C4_4  and  O1_5 
REMARK       I    between atoms: N1_7  and  C6_9 
REMARK    5  A    between atoms: C6_9  and  C7_11 
REMARK    6  A    between atoms: C7_11  and  C8_12 
REMARK    7  A    between atoms: C8_12  and  C9_13 
REMARK    8  A    between atoms: C9_13  and  N2_14 
REMARK    9  A    between atoms: N3_21  and  C16_22 
REMARK   10  A    between atoms: C16_22  and  C17_23 
REMARK   11  A    between atoms: C20_26  and  C21_27 
REMARK   12  A    between atoms: C21_27  and  O3_28 
REMARK   13  A    between atoms: C21_27  and  C22_30 
REMARK   14  A    between atoms: C21_27  and  C23_34 
ROOT
HETATM    1  N2  UNL     1      -4.172  28.355  15.668  1.00  0.00    -0.257 N 
HETATM    2  C10 UNL     1      -4.523  28.728  17.018  1.00  0.00     0.074 A 
HETATM    3  C11 UNL     1      -3.592  28.920  18.045  1.00  0.00     0.033 A 
HETATM    4  C12 UNL     1      -4.036  29.281  19.313  1.00  0.00     0.002 A 
HETATM    5  C13 UNL     1      -5.371  29.453  19.580  1.00  0.00     0.002 A 
HETATM    6  C14 UNL     1      -6.262  29.256  18.547  1.00  0.00     0.033 A 
HETATM    7  C15 UNL     1      -5.831  28.891  17.254  1.00  0.00     0.074 A 
HETATM    8  N3  UNL     1      -6.698  28.679  16.153  1.00  0.00    -0.252 N 
HETATM    9  S1  UNL     1      -5.681  28.043  14.906  1.00  0.00     0.328 S 
HETATM   10  O4  UNL     1      -5.971  26.581  14.698  1.00  0.00    -0.182 OA
HETATM   11  O5  UNL     1      -5.833  28.818  13.627  1.00  0.00    -0.182 OA
ENDROOT
BRANCH   8  12
HETATM   12  C16 UNL     1      -8.104  28.914  15.984  1.00  0.00     0.182 C 
BRANCH  12  13
HETATM   13  C17 UNL     1      -8.920  27.697  15.750  1.00  0.00    -0.039 A 
HETATM   14  C18 UNL     1      -9.625  27.511  14.600  1.00  0.00     0.009 A 
HETATM   15  C19 UNL     1     -10.380  26.361  14.404  1.00  0.00     0.011 A 
HETATM   16  C20 UNL     1     -10.454  25.358  15.347  1.00  0.00    -0.006 A 
HETATM   17  C24 UNL     1      -9.731  25.575  16.500  1.00  0.00     0.011 A 
HETATM   18  C25 UNL     1      -8.976  26.705  16.721  1.00  0.00     0.009 A 
BRANCH  16  19
HETATM   19  C21 UNL     1     -11.258  24.112  15.128  1.00  0.00     0.281 C 
BRANCH  19  20
HETATM   20  O3  UNL     1     -11.906  24.210  13.902  1.00  0.00    -0.370 OA
ATOM     21  H3  UNL     1     -12.818  23.973  14.020  1.00  0.00     0.211 HD
ENDBRANCH  19  20
BRANCH  19  22
HETATM   22  C22 UNL     1     -12.299  24.008  16.223  1.00  0.00     0.431 C 
HETATM   23  F1  UNL     1     -13.168  22.983  15.886  1.00  0.00    -0.167 F 
HETATM   24  F2  UNL     1     -13.046  25.163  16.205  1.00  0.00    -0.167 F 
HETATM   25  F3  UNL     1     -11.707  23.796  17.451  1.00  0.00    -0.167 F 
ENDBRANCH  19  22
BRANCH  19  26
HETATM   26  C23 UNL     1     -10.385  22.877  15.091  1.00  0.00     0.431 C 
HETATM   27  F4  UNL     1      -9.207  23.141  14.433  1.00  0.00    -0.167 F 
HETATM   28  F5  UNL     1     -10.221  22.288  16.316  1.00  0.00    -0.167 F 
HETATM   29  F6  UNL     1     -11.049  21.943  14.274  1.00  0.00    -0.167 F 
ENDBRANCH  19  26
ENDBRANCH  16  19
ENDBRANCH  12  13
ENDBRANCH   8  12
BRANCH   1  30
HETATM   30  C9  UNL     1      -2.831  28.288  15.117  1.00  0.00     0.144 C 
BRANCH  30  31
HETATM   31  C8  UNL     1      -2.549  27.098  14.264  1.00  0.00     0.030 C 
BRANCH  31  32
HETATM   32  C7  UNL     1      -1.068  26.988  13.975  1.00  0.00     0.104 C 
BRANCH  32  33
HETATM   33  C6  UNL     1      -0.603  25.575  14.130  1.00  0.00     0.219 C 
HETATM   34  N1  UNL     1       0.298  25.130  15.088  1.00  0.00    -0.352 N 
HETATM   35  C5  UNL     1       0.869  25.958  16.129  1.00  0.00     0.153 C 
HETATM   36  O2  UNL     1      -1.114  24.745  13.276  1.00  0.00    -0.273 OA
BRANCH  34  37
HETATM   37  C2  UNL     1       0.720  23.739  15.068  1.00  0.00     0.084 C 
HETATM   38  C1  UNL     1       0.023  22.996  16.212  1.00  0.00     0.032 C 
BRANCH  37  39
HETATM   39  C3  UNL     1       2.176  23.510  15.011  1.00  0.00     0.051 C 
BRANCH  39  40
HETATM   40  C4  UNL     1       2.494  22.307  15.906  1.00  0.00     0.166 C 
BRANCH  40  41
HETATM   41  O1  UNL     1       3.070  21.267  15.200  1.00  0.00    -0.401 OA
ATOM     42  H1  UNL     1       3.875  21.528  14.768  1.00  0.00     0.209 HD
ENDBRANCH  40  41
ENDBRANCH  39  40
ENDBRANCH  37  39
ENDBRANCH  34  37
ENDBRANCH  32  33
ENDBRANCH  31  32
ENDBRANCH  30  31
ENDBRANCH   1  30
TORSDOF 14
ENDMDL
