MODEL 2
REMARK VINA RESULT: -10.491723747      0.774      1.702
REMARK  14 active torsions:
REMARK  status: ('A' for Active; 'I' for Inactive)
REMARK    1  A    between atoms: C2_2  and  C3_3 
REMARK    2  A    between atoms: C2_2  and  N1_7 
REMARK    3  A    between atoms: C3_3  and  C4_4 
REMARK    4  A    between atoms: C4_4  and  O1_5 
REMARK       I    between atoms: N1_7  and  C6_9 
REMARK    5  A    between atoms: C6_9  and  C7_11 
REMARK    6  A    between atoms: C7_11  and  C8_12 
REMARK    7  A    between atoms: C8_12  and  C9_13 
REMARK    8  A    between atoms: C9_13  and  N2_14 
REMARK    9  A    between atoms: N3_21  and  C16_22 
REMARK   10  A    between atoms: C16_22  and  C17_23 
REMARK   11  A    between atoms: C20_26  and  C21_27 
REMARK   12  A    between atoms: C21_27  and  O3_28 
REMARK   13  A    between atoms: C21_27  and  C22_30 
REMARK   14  A    between atoms: C21_27  and  C23_34 
ROOT
HETATM    1  N2  UNL     1      -4.214  28.375  15.611  1.00  0.00    -0.257 N 
HETATM    2  C10 UNL     1      -4.579  28.733  16.961  1.00  0.00     0.074 A 
HETATM    3  C11 UNL     1      -3.658  28.925  17.997  1.00  0.00     0.033 A 
HETATM    4  C12 UNL     1      -4.115  29.271  19.264  1.00  0.00     0.002 A 
HETATM    5  C13 UNL     1      -5.454  29.430  19.523  1.00  0.00     0.002 A 
HETATM    6  C14 UNL     1      -6.335  29.233  18.481  1.00  0.00     0.033 A 
HETATM    7  C15 UNL     1      -5.891  28.882  17.189  1.00  0.00     0.074 A 
HETATM    8  N3  UNL     1      -6.748  28.672  16.079  1.00  0.00    -0.252 N 
HETATM    9  S1  UNL     1      -5.715  28.055  14.834  1.00  0.00     0.328 S 
HETATM   10  O4  UNL     1      -5.990  26.592  14.613  1.00  0.00    -0.182 OA
HETATM   11  O5  UNL     1      -5.864  28.840  13.562  1.00  0.00    -0.182 OA
ENDROOT
BRANCH   8  12
HETATM   12  C16 UNL     1      -8.154  28.896  15.901  1.00  0.00     0.182 C 
BRANCH  12  13
HETATM   13  C17 UNL     1      -8.976  27.666  15.781  1.00  0.00    -0.039 A 
HETATM   14  C18 UNL     1      -9.636  27.349  14.634  1.00  0.00     0.009 A 
HETATM   15  C19 UNL     1     -10.397  26.188  14.546  1.00  0.00     0.011 A 
HETATM   16  C20 UNL     1     -10.522  25.307  15.599  1.00  0.00    -0.006 A 
HETATM   17  C24 UNL     1      -9.842  25.657  16.746  1.00  0.00     0.011 A 
HETATM   18  C25 UNL     1      -9.082  26.799  16.861  1.00  0.00     0.009 A 
BRANCH  16  19
HETATM   19  C21 UNL     1     -11.331  24.051  15.499  1.00  0.00     0.281 C 
BRANCH  19  20
HETATM   20  O3  UNL     1     -11.574  23.574  16.783  1.00  0.00    -0.370 OA
ATOM     21  H3  UNL     1     -12.506  23.426  16.881  1.00  0.00     0.211 HD
ENDBRANCH  19  20
BRANCH  19  22
HETATM   22  C22 UNL     1     -10.529  23.015  14.737  1.00  0.00     0.431 C 
HETATM   23  F1  UNL     1     -11.341  21.909  14.545  1.00  0.00    -0.167 F 
HETATM   24  F2  UNL     1      -9.502  22.598  15.552  1.00  0.00    -0.167 F 
HETATM   25  F3  UNL     1     -10.066  23.528  13.543  1.00  0.00    -0.167 F 
ENDBRANCH  19  22
BRANCH  19  26
HETATM   26  C23 UNL     1     -12.670  24.293  14.837  1.00  0.00     0.431 C 
HETATM   27  F4  UNL     1     -13.264  25.421  15.354  1.00  0.00    -0.167 F 
HETATM   28  F5  UNL     1     -12.615  24.269  13.469  1.00  0.00    -0.167 F 
HETATM   29  F6  UNL     1     -13.508  23.234  15.232  1.00  0.00    -0.167 F 
ENDBRANCH  19  26
ENDBRANCH  16  19
ENDBRANCH  12  13
ENDBRANCH   8  12
BRANCH   1  30
HETATM   30  C9  UNL     1      -2.869  28.323  15.070  1.00  0.00     0.144 C 
BRANCH  30  31
HETATM   31  C8  UNL     1      -2.549  27.111  14.262  1.00  0.00     0.030 C 
BRANCH  31  32
HETATM   32  C7  UNL     1      -1.057  26.988  14.053  1.00  0.00     0.104 C 
BRANCH  32  33
HETATM   33  C6  UNL     1      -0.618  25.567  14.201  1.00  0.00     0.219 C 
HETATM   34  N1  UNL     1       0.340  25.115  15.099  1.00  0.00    -0.352 N 
HETATM   35  C5  UNL     1       1.008  25.945  16.078  1.00  0.00     0.153 C 
HETATM   36  O2  UNL     1      -1.211  24.735  13.405  1.00  0.00    -0.273 OA
BRANCH  34  37
HETATM   37  C2  UNL     1       0.725  23.713  15.075  1.00  0.00     0.084 C 
HETATM   38  C1  UNL     1       0.032  22.992  16.236  1.00  0.00     0.032 C 
BRANCH  37  39
HETATM   39  C3  UNL     1       2.172  23.445  14.989  1.00  0.00     0.051 C 
BRANCH  39  40
HETATM   40  C4  UNL     1       2.483  22.258  15.911  1.00  0.00     0.166 C 
BRANCH  40  41
HETATM   41  O1  UNL     1       3.131  21.235  15.245  1.00  0.00    -0.401 OA
ATOM     42  H1  UNL     1       3.220  20.456  15.782  1.00  0.00     0.209 HD
ENDBRANCH  40  41
ENDBRANCH  39  40
ENDBRANCH  37  39
ENDBRANCH  34  37
ENDBRANCH  32  33
ENDBRANCH  31  32
ENDBRANCH  30  31
ENDBRANCH   1  30
TORSDOF 14
ENDMDL
