MODEL 15
REMARK VINA RESULT: -9.614410635      1.099      1.530
REMARK  14 active torsions:
REMARK  status: ('A' for Active; 'I' for Inactive)
REMARK    1  A    between atoms: C2_2  and  C3_3 
REMARK    2  A    between atoms: C2_2  and  N1_7 
REMARK    3  A    between atoms: C3_3  and  C4_4 
REMARK    4  A    between atoms: C4_4  and  O1_5 
REMARK       I    between atoms: N1_7  and  C6_9 
REMARK    5  A    between atoms: C6_9  and  C7_11 
REMARK    6  A    between atoms: C7_11  and  C8_12 
REMARK    7  A    between atoms: C8_12  and  C9_13 
REMARK    8  A    between atoms: C9_13  and  N2_14 
REMARK    9  A    between atoms: N3_21  and  C16_22 
REMARK   10  A    between atoms: C16_22  and  C17_23 
REMARK   11  A    between atoms: C20_26  and  C21_27 
REMARK   12  A    between atoms: C21_27  and  O3_28 
REMARK   13  A    between atoms: C21_27  and  C22_30 
REMARK   14  A    between atoms: C21_27  and  C23_34 
ROOT
HETATM    1  N2  UNL     1      -4.400  27.239  14.015  1.00  0.00    -0.257 N 
HETATM    2  C10 UNL     1      -4.152  27.856  15.296  1.00  0.00     0.074 A 
HETATM    3  C11 UNL     1      -2.875  28.141  15.794  1.00  0.00     0.033 A 
HETATM    4  C12 UNL     1      -2.745  28.740  17.042  1.00  0.00     0.002 A 
HETATM    5  C13 UNL     1      -3.845  29.060  17.799  1.00  0.00     0.002 A 
HETATM    6  C14 UNL     1      -5.088  28.767  17.280  1.00  0.00     0.033 A 
HETATM    7  C15 UNL     1      -5.240  28.160  16.016  1.00  0.00     0.074 A 
HETATM    8  N3  UNL     1      -6.489  27.838  15.429  1.00  0.00    -0.252 N 
HETATM    9  S1  UNL     1      -6.091  26.926  14.013  1.00  0.00     0.328 S 
HETATM   10  O4  UNL     1      -6.446  25.477  14.216  1.00  0.00    -0.182 OA
HETATM   11  O5  UNL     1      -6.763  27.489  12.793  1.00  0.00    -0.182 OA
ENDROOT
BRANCH   8  12
HETATM   12  C16 UNL     1      -7.836  28.154  15.814  1.00  0.00     0.182 C 
BRANCH  12  13
HETATM   13  C17 UNL     1      -8.827  27.076  15.569  1.00  0.00    -0.039 A 
HETATM   14  C18 UNL     1      -8.880  25.957  16.342  1.00  0.00     0.009 A 
HETATM   15  C19 UNL     1      -9.820  24.962  16.095  1.00  0.00     0.011 A 
HETATM   16  C20 UNL     1     -10.738  25.054  15.071  1.00  0.00    -0.006 A 
HETATM   17  C24 UNL     1     -10.659  26.199  14.306  1.00  0.00     0.011 A 
HETATM   18  C25 UNL     1      -9.738  27.198  14.528  1.00  0.00     0.009 A 
BRANCH  16  19
HETATM   19  C21 UNL     1     -11.759  23.989  14.814  1.00  0.00     0.281 C 
BRANCH  19  20
HETATM   20  O3  UNL     1     -12.543  24.375  13.732  1.00  0.00    -0.370 OA
ATOM     21  H3  UNL     1     -13.022  23.618  13.418  1.00  0.00     0.211 HD
ENDBRANCH  19  20
BRANCH  19  22
HETATM   22  C22 UNL     1     -12.645  23.859  16.036  1.00  0.00     0.431 C 
HETATM   23  F1  UNL     1     -13.726  23.064  15.693  1.00  0.00    -0.167 F 
HETATM   24  F2  UNL     1     -13.160  25.104  16.315  1.00  0.00    -0.167 F 
HETATM   25  F3  UNL     1     -11.942  23.339  17.103  1.00  0.00    -0.167 F 
ENDBRANCH  19  22
BRANCH  19  26
HETATM   26  C23 UNL     1     -11.117  22.664  14.467  1.00  0.00     0.431 C 
HETATM   27  F4  UNL     1     -10.105  22.845  13.553  1.00  0.00    -0.167 F 
HETATM   28  F5  UNL     1     -10.752  21.930  15.565  1.00  0.00    -0.167 F 
HETATM   29  F6  UNL     1     -12.090  21.915  13.780  1.00  0.00    -0.167 F 
ENDBRANCH  19  26
ENDBRANCH  16  19
ENDBRANCH  12  13
ENDBRANCH   8  12
BRANCH   1  30
HETATM   30  C9  UNL     1      -3.415  26.975  12.983  1.00  0.00     0.144 C 
BRANCH  30  31
HETATM   31  C8  UNL     1      -2.859  25.592  12.967  1.00  0.00     0.030 C 
BRANCH  31  32
HETATM   32  C7  UNL     1      -1.397  25.608  12.581  1.00  0.00     0.104 C 
BRANCH  32  33
HETATM   33  C6  UNL     1      -0.661  24.492  13.251  1.00  0.00     0.219 C 
HETATM   34  N1  UNL     1      -0.061  24.567  14.501  1.00  0.00    -0.352 N 
HETATM   35  C5  UNL     1      -0.120  25.719  15.375  1.00  0.00     0.153 C 
HETATM   36  O2  UNL     1      -0.611  23.394  12.566  1.00  0.00    -0.273 OA
BRANCH  34  37
HETATM   37  C2  UNL     1       0.691  23.425  14.992  1.00  0.00     0.084 C 
HETATM   38  C1  UNL     1       0.037  22.923  16.284  1.00  0.00     0.032 C 
BRANCH  37  39
HETATM   39  C3  UNL     1       2.149  23.614  15.100  1.00  0.00     0.051 C 
BRANCH  39  40
HETATM   40  C4  UNL     1       2.702  22.488  15.984  1.00  0.00     0.166 C 
BRANCH  40  41
HETATM   41  O1  UNL     1       2.979  21.343  15.260  1.00  0.00    -0.401 OA
ATOM     42  H1  UNL     1       3.119  20.588  15.820  1.00  0.00     0.209 HD
ENDBRANCH  40  41
ENDBRANCH  39  40
ENDBRANCH  37  39
ENDBRANCH  34  37
ENDBRANCH  32  33
ENDBRANCH  31  32
ENDBRANCH  30  31
ENDBRANCH   1  30
TORSDOF 14
ENDMDL
