MODEL 16
REMARK VINA RESULT: -9.569020616      5.331     10.198
REMARK  14 active torsions:
REMARK  status: ('A' for Active; 'I' for Inactive)
REMARK    1  A    between atoms: C2_2  and  C3_3 
REMARK    2  A    between atoms: C2_2  and  N1_7 
REMARK    3  A    between atoms: C3_3  and  C4_4 
REMARK    4  A    between atoms: C4_4  and  O1_5 
REMARK       I    between atoms: N1_7  and  C6_9 
REMARK    5  A    between atoms: C6_9  and  C7_11 
REMARK    6  A    between atoms: C7_11  and  C8_12 
REMARK    7  A    between atoms: C8_12  and  C9_13 
REMARK    8  A    between atoms: C9_13  and  N2_14 
REMARK    9  A    between atoms: N3_21  and  C16_22 
REMARK   10  A    between atoms: C16_22  and  C17_23 
REMARK   11  A    between atoms: C20_26  and  C21_27 
REMARK   12  A    between atoms: C21_27  and  O3_28 
REMARK   13  A    between atoms: C21_27  and  C22_30 
REMARK   14  A    between atoms: C21_27  and  C23_34 
ROOT
HETATM    1  N2  UNL     1      -6.726  25.178  14.520  1.00  0.00    -0.257 N 
HETATM    2  C10 UNL     1      -6.233  26.531  14.402  1.00  0.00     0.074 A 
HETATM    3  C11 UNL     1      -6.768  27.622  15.095  1.00  0.00     0.033 A 
HETATM    4  C12 UNL     1      -6.218  28.886  14.912  1.00  0.00     0.002 A 
HETATM    5  C13 UNL     1      -5.158  29.088  14.063  1.00  0.00     0.002 A 
HETATM    6  C14 UNL     1      -4.655  27.992  13.395  1.00  0.00     0.033 A 
HETATM    7  C15 UNL     1      -5.199  26.702  13.568  1.00  0.00     0.074 A 
HETATM    8  N3  UNL     1      -4.722  25.539  12.914  1.00  0.00    -0.252 N 
HETATM    9  S1  UNL     1      -5.872  24.307  13.308  1.00  0.00     0.328 S 
HETATM   10  O4  UNL     1      -6.702  23.969  12.098  1.00  0.00    -0.182 OA
HETATM   11  O5  UNL     1      -5.197  23.087  13.867  1.00  0.00    -0.182 OA
ENDROOT
BRANCH   8  12
HETATM   12  C16 UNL     1      -3.562  25.307  12.101  1.00  0.00     0.182 C 
BRANCH  12  13
HETATM   13  C17 UNL     1      -2.343  24.905  12.848  1.00  0.00    -0.039 A 
HETATM   14  C18 UNL     1      -1.238  24.421  12.217  1.00  0.00     0.009 A 
HETATM   15  C19 UNL     1      -0.108  24.054  12.938  1.00  0.00     0.011 A 
HETATM   16  C20 UNL     1      -0.043  24.161  14.311  1.00  0.00    -0.006 A 
HETATM   17  C24 UNL     1      -1.177  24.653  14.921  1.00  0.00     0.011 A 
HETATM   18  C25 UNL     1      -2.310  25.023  14.232  1.00  0.00     0.009 A 
BRANCH  16  19
HETATM   19  C21 UNL     1       1.180  23.777  15.086  1.00  0.00     0.281 C 
BRANCH  19  20
HETATM   20  O3  UNL     1       2.196  23.463  14.189  1.00  0.00    -0.370 OA
ATOM     21  H3  UNL     1       2.991  23.902  14.465  1.00  0.00     0.211 HD
ENDBRANCH  19  20
BRANCH  19  22
HETATM   22  C22 UNL     1       0.866  22.549  15.916  1.00  0.00     0.431 C 
HETATM   23  F1  UNL     1       2.063  21.916  16.208  1.00  0.00    -0.167 F 
HETATM   24  F2  UNL     1       0.156  21.677  15.122  1.00  0.00    -0.167 F 
HETATM   25  F3  UNL     1       0.171  22.889  17.059  1.00  0.00    -0.167 F 
ENDBRANCH  19  22
BRANCH  19  26
HETATM   26  C23 UNL     1       1.672  24.910  15.961  1.00  0.00     0.431 C 
HETATM   27  F4  UNL     1       2.432  25.789  15.225  1.00  0.00    -0.167 F 
HETATM   28  F5  UNL     1       0.679  25.506  16.691  1.00  0.00    -0.167 F 
HETATM   29  F6  UNL     1       2.573  24.342  16.881  1.00  0.00    -0.167 F 
ENDBRANCH  19  26
ENDBRANCH  16  19
ENDBRANCH  12  13
ENDBRANCH   8  12
BRANCH   1  30
HETATM   30  C9  UNL     1      -7.711  24.703  15.473  1.00  0.00     0.144 C 
BRANCH  30  31
HETATM   31  C8  UNL     1      -7.553  23.284  15.903  1.00  0.00     0.030 C 
BRANCH  31  32
HETATM   32  C7  UNL     1      -8.886  22.700  16.314  1.00  0.00     0.104 C 
BRANCH  32  33
HETATM   33  C6  UNL     1      -9.907  22.907  15.241  1.00  0.00     0.219 C 
HETATM   34  N1  UNL     1     -11.189  23.403  15.442  1.00  0.00    -0.352 N 
HETATM   35  C5  UNL     1     -11.704  23.862  16.714  1.00  0.00     0.153 C 
HETATM   36  O2  UNL     1      -9.511  22.582  14.052  1.00  0.00    -0.273 OA
BRANCH  34  37
HETATM   37  C2  UNL     1     -12.103  23.475  14.314  1.00  0.00     0.084 C 
HETATM   38  C1  UNL     1     -12.978  24.723  14.468  1.00  0.00     0.032 C 
BRANCH  37  39
HETATM   39  C3  UNL     1     -12.866  22.247  14.026  1.00  0.00     0.051 C 
BRANCH  39  40
HETATM   40  C4  UNL     1     -12.513  21.801  12.601  1.00  0.00     0.166 C 
BRANCH  40  41
HETATM   41  O1  UNL     1     -11.370  21.024  12.564  1.00  0.00    -0.401 OA
ATOM     42  H1  UNL     1     -10.931  20.989  13.405  1.00  0.00     0.209 HD
ENDBRANCH  40  41
ENDBRANCH  39  40
ENDBRANCH  37  39
ENDBRANCH  34  37
ENDBRANCH  32  33
ENDBRANCH  31  32
ENDBRANCH  30  31
ENDBRANCH   1  30
TORSDOF 14
ENDMDL
