MODEL 20
REMARK VINA RESULT: -9.529978326      3.054      4.675
REMARK  14 active torsions:
REMARK  status: ('A' for Active; 'I' for Inactive)
REMARK    1  A    between atoms: C2_2  and  C3_3 
REMARK    2  A    between atoms: C2_2  and  N1_7 
REMARK    3  A    between atoms: C3_3  and  C4_4 
REMARK    4  A    between atoms: C4_4  and  O1_5 
REMARK       I    between atoms: N1_7  and  C6_9 
REMARK    5  A    between atoms: C6_9  and  C7_11 
REMARK    6  A    between atoms: C7_11  and  C8_12 
REMARK    7  A    between atoms: C8_12  and  C9_13 
REMARK    8  A    between atoms: C9_13  and  N2_14 
REMARK    9  A    between atoms: N3_21  and  C16_22 
REMARK   10  A    between atoms: C16_22  and  C17_23 
REMARK   11  A    between atoms: C20_26  and  C21_27 
REMARK   12  A    between atoms: C21_27  and  O3_28 
REMARK   13  A    between atoms: C21_27  and  C22_30 
REMARK   14  A    between atoms: C21_27  and  C23_34 
ROOT
HETATM    1  N2  UNL     1      -2.953  25.043  14.502  1.00  0.00    -0.257 N 
HETATM    2  C10 UNL     1      -3.485  26.381  14.618  1.00  0.00     0.074 A 
HETATM    3  C11 UNL     1      -2.830  27.429  15.274  1.00  0.00     0.033 A 
HETATM    4  C12 UNL     1      -3.429  28.684  15.327  1.00  0.00     0.002 A 
HETATM    5  C13 UNL     1      -4.652  28.917  14.747  1.00  0.00     0.002 A 
HETATM    6  C14 UNL     1      -5.269  27.863  14.109  1.00  0.00     0.033 A 
HETATM    7  C15 UNL     1      -4.678  26.584  14.044  1.00  0.00     0.074 A 
HETATM    8  N3  UNL     1      -5.262  25.465  13.399  1.00  0.00    -0.252 N 
HETATM    9  S1  UNL     1      -4.239  24.132  13.815  1.00  0.00     0.328 S 
HETATM   10  O4  UNL     1      -4.940  23.228  14.793  1.00  0.00    -0.182 OA
HETATM   11  O5  UNL     1      -3.799  23.378  12.592  1.00  0.00    -0.182 OA
ENDROOT
BRANCH   8  12
HETATM   12  C16 UNL     1      -6.418  25.342  12.558  1.00  0.00     0.182 C 
BRANCH  12  13
HETATM   13  C17 UNL     1      -7.651  24.888  13.248  1.00  0.00    -0.039 A 
HETATM   14  C18 UNL     1      -7.948  23.569  13.400  1.00  0.00     0.009 A 
HETATM   15  C19 UNL     1      -9.108  23.169  14.054  1.00  0.00     0.011 A 
HETATM   16  C20 UNL     1     -10.008  24.072  14.578  1.00  0.00    -0.006 A 
HETATM   17  C24 UNL     1      -9.680  25.400  14.407  1.00  0.00     0.011 A 
HETATM   18  C25 UNL     1      -8.539  25.824  13.764  1.00  0.00     0.009 A 
BRANCH  16  19
HETATM   19  C21 UNL     1     -11.251  23.640  15.293  1.00  0.00     0.281 C 
BRANCH  19  20
HETATM   20  O3  UNL     1     -11.979  24.772  15.644  1.00  0.00    -0.370 OA
ATOM     21  H3  UNL     1     -11.556  25.534  15.268  1.00  0.00     0.211 HD
ENDBRANCH  19  20
BRANCH  19  22
HETATM   22  C22 UNL     1     -10.854  22.905  16.557  1.00  0.00     0.431 C 
HETATM   23  F1  UNL     1     -11.930  22.949  17.429  1.00  0.00    -0.167 F 
HETATM   24  F2  UNL     1      -9.844  23.619  17.159  1.00  0.00    -0.167 F 
HETATM   25  F3  UNL     1     -10.473  21.609  16.276  1.00  0.00    -0.167 F 
ENDBRANCH  19  22
BRANCH  19  26
HETATM   26  C23 UNL     1     -12.134  22.777  14.419  1.00  0.00     0.431 C 
HETATM   27  F4  UNL     1     -12.474  23.449  13.268  1.00  0.00    -0.167 F 
HETATM   28  F5  UNL     1     -11.630  21.522  14.204  1.00  0.00    -0.167 F 
HETATM   29  F6  UNL     1     -13.349  22.617  15.112  1.00  0.00    -0.167 F 
ENDBRANCH  19  26
ENDBRANCH  16  19
ENDBRANCH  12  13
ENDBRANCH   8  12
BRANCH   1  30
HETATM   30  C9  UNL     1      -1.620  24.613  14.880  1.00  0.00     0.144 C 
BRANCH  30  31
HETATM   31  C8  UNL     1      -0.512  25.140  14.034  1.00  0.00     0.030 C 
BRANCH  31  32
HETATM   32  C7  UNL     1      -0.656  24.659  12.607  1.00  0.00     0.104 C 
BRANCH  32  33
HETATM   33  C6  UNL     1      -1.046  25.787  11.706  1.00  0.00     0.219 C 
HETATM   34  N1  UNL     1      -1.533  25.646  10.413  1.00  0.00    -0.352 N 
HETATM   35  C5  UNL     1      -1.804  24.379   9.769  1.00  0.00     0.153 C 
HETATM   36  O2  UNL     1      -0.897  26.965  12.224  1.00  0.00    -0.273 OA
BRANCH  34  37
HETATM   37  C2  UNL     1      -1.795  26.838   9.624  1.00  0.00     0.084 C 
HETATM   38  C1  UNL     1      -3.303  27.105   9.621  1.00  0.00     0.032 C 
BRANCH  37  39
HETATM   39  C3  UNL     1      -1.184  26.867   8.282  1.00  0.00     0.051 C 
BRANCH  39  40
HETATM   40  C4  UNL     1       0.045  27.783   8.348  1.00  0.00     0.166 C 
BRANCH  40  41
HETATM   41  O1  UNL     1      -0.277  29.108   8.116  1.00  0.00    -0.401 OA
ATOM     42  H1  UNL     1      -0.578  29.548   8.902  1.00  0.00     0.209 HD
ENDBRANCH  40  41
ENDBRANCH  39  40
ENDBRANCH  37  39
ENDBRANCH  34  37
ENDBRANCH  32  33
ENDBRANCH  31  32
ENDBRANCH  30  31
ENDBRANCH   1  30
TORSDOF 14
ENDMDL
