MODEL 5
REMARK VINA RESULT: -7.183884551      4.021     10.398
REMARK  6 active torsions:
REMARK  status: ('A' for Active; 'I' for Inactive)
REMARK    1  A    between atoms: C4_9  and  C5_10 
REMARK    2  A    between atoms: C5_10  and  N4_11 
REMARK    3  A    between atoms: C7_13  and  C8_14 
REMARK    4  A    between atoms: C8_14  and  S1_15 
REMARK    5  A    between atoms: S1_15  and  C9_16 
REMARK    6  A    between atoms: C13_24  and  O1_25 
ROOT
HETATM    1  N4  UNL     1      17.302  43.492 -38.311  1.00  0.00     0.095 N 
HETATM    2  C6  UNL     1      16.738  44.698 -37.759  1.00  0.00     0.280 C 
HETATM    3  C7  UNL     1      15.296  44.656 -38.282  1.00  0.00     0.054 C 
HETATM    4  C13 UNL     1      15.123  43.243 -38.863  1.00  0.00     0.153 C 
HETATM    5  C14 UNL     1      16.218  42.521 -38.100  1.00  0.00     0.304 C 
ENDROOT
BRANCH   1   6
HETATM    6  C5  UNL     1      18.526  43.085 -37.726  1.00  0.00     0.315 C 
BRANCH   6   7
HETATM    7  C4  UNL     1      18.761  41.649 -38.010  1.00  0.00     0.014 A 
HETATM    8  C3  UNL     1      18.749  40.620 -37.078  1.00  0.00     0.072 A 
HETATM    9  N3  UNL     1      18.543  40.566 -35.755  1.00  0.00    -0.350 N 
HETATM   10  C16 UNL     1      19.014  39.416 -37.735  1.00  0.00     0.101 A 
HETATM   11  C2  UNL     1      18.582  39.423 -35.055  1.00  0.00     0.182 A 
ATOM     12  H3  UNL     1      18.348  41.435 -35.258  1.00  0.00     0.166 HD
HETATM   13  N2  UNL     1      18.841  38.284 -35.720  1.00  0.00    -0.339 N 
HETATM   14  C1  UNL     1      19.062  38.222 -37.042  1.00  0.00     0.146 A 
ATOM     15  H2  UNL     1      18.870  37.414 -35.188  1.00  0.00     0.167 HD
HETATM   16  N1  UNL     1      19.332  37.001 -37.711  1.00  0.00    -0.080 NA
HETATM   17  N7  UNL     1      19.182  39.698 -39.015  1.00  0.00    -0.361 N 
HETATM   18  C15 UNL     1      19.038  41.027 -39.209  1.00  0.00     0.099 A 
ATOM     19  H7  UNL     1      19.390  39.016 -39.745  1.00  0.00     0.165 HD
ENDBRANCH   6   7
ENDBRANCH   1   6
BRANCH   3  20
HETATM   20  C8  UNL     1      14.415  44.698 -37.062  1.00  0.00     0.089 C 
BRANCH  20  21
HETATM   21  S1  UNL     1      12.719  45.041 -37.568  1.00  0.00    -0.110 SA
BRANCH  21  22
HETATM   22  C9  UNL     1      11.647  45.321 -36.173  1.00  0.00     0.085 A 
HETATM   23  C10 UNL     1      11.115  44.322 -35.389  1.00  0.00     0.124 A 
HETATM   24  N5  UNL     1      10.288  44.602 -34.338  1.00  0.00    -0.371 N 
HETATM   25  C11 UNL     1       9.962  45.868 -34.031  1.00  0.00     0.104 A 
ATOM     26  H5  UNL     1       9.912  43.837 -33.777  1.00  0.00     0.164 HD
HETATM   27  C12 UNL     1      10.486  46.880 -34.807  1.00  0.00     0.105 A 
HETATM   28  N6  UNL     1      11.297  46.597 -35.836  1.00  0.00    -0.358 N 
ATOM     29  H6  UNL     1      11.668  47.367 -36.391  1.00  0.00     0.166 HD
ENDBRANCH  21  22
ENDBRANCH  20  21
ENDBRANCH   3  20
BRANCH   4  30
HETATM   30  O1  UNL     1      15.463  43.197 -40.204  1.00  0.00    -0.393 OA
ATOM     31  H1  UNL     1      15.919  43.985 -40.476  1.00  0.00     0.210 HD
ENDBRANCH   4  30
TORSDOF 6
ENDMDL
