MODEL 4
REMARK VINA RESULT: -7.196802104      3.519      9.572
REMARK  6 active torsions:
REMARK  status: ('A' for Active; 'I' for Inactive)
REMARK    1  A    between atoms: C4_9  and  C5_10 
REMARK    2  A    between atoms: C5_10  and  N4_11 
REMARK    3  A    between atoms: C7_13  and  C8_14 
REMARK    4  A    between atoms: C8_14  and  S1_15 
REMARK    5  A    between atoms: S1_15  and  C9_16 
REMARK    6  A    between atoms: C13_24  and  O1_25 
ROOT
HETATM    1  N4  UNL     1      17.097  43.685 -38.576  1.00  0.00     0.095 N 
HETATM    2  C6  UNL     1      16.503  44.835 -37.944  1.00  0.00     0.280 C 
HETATM    3  C7  UNL     1      15.034  44.726 -38.376  1.00  0.00     0.054 C 
HETATM    4  C13 UNL     1      14.905  43.326 -38.998  1.00  0.00     0.153 C 
HETATM    5  C14 UNL     1      16.086  42.644 -38.335  1.00  0.00     0.304 C 
ENDROOT
BRANCH   1   6
HETATM    6  C5  UNL     1      18.377  43.331 -38.086  1.00  0.00     0.315 C 
BRANCH   6   7
HETATM    7  C4  UNL     1      19.386  44.301 -38.578  1.00  0.00     0.014 A 
HETATM    8  C3  UNL     1      19.808  44.443 -39.894  1.00  0.00     0.072 A 
HETATM    9  N3  UNL     1      19.491  43.831 -41.042  1.00  0.00    -0.350 N 
HETATM   10  C16 UNL     1      20.764  45.459 -39.950  1.00  0.00     0.101 A 
HETATM   11  C2  UNL     1      20.047  44.153 -42.219  1.00  0.00     0.182 A 
ATOM     12  H3  UNL     1      18.794  43.087 -41.021  1.00  0.00     0.166 HD
HETATM   13  N2  UNL     1      20.965  45.135 -42.236  1.00  0.00    -0.339 N 
HETATM   14  C1  UNL     1      21.357  45.814 -41.147  1.00  0.00     0.146 A 
ATOM     15  H2  UNL     1      21.388  45.381 -43.131  1.00  0.00     0.167 HD
HETATM   16  N1  UNL     1      22.329  46.844 -41.203  1.00  0.00    -0.080 NA
HETATM   17  N7  UNL     1      20.922  45.918 -38.721  1.00  0.00    -0.361 N 
HETATM   18  C15 UNL     1      20.110  45.243 -37.878  1.00  0.00     0.099 A 
ATOM     19  H7  UNL     1      21.559  46.667 -38.450  1.00  0.00     0.165 HD
ENDBRANCH   6   7
ENDBRANCH   1   6
BRANCH   3  20
HETATM   20  C8  UNL     1      14.234  44.673 -37.102  1.00  0.00     0.089 C 
BRANCH  20  21
HETATM   21  S1  UNL     1      12.478  44.761 -37.502  1.00  0.00    -0.110 SA
BRANCH  21  22
HETATM   22  C9  UNL     1      11.489  45.195 -36.085  1.00  0.00     0.085 A 
HETATM   23  C10 UNL     1      11.057  44.298 -35.134  1.00  0.00     0.124 A 
HETATM   24  N5  UNL     1      10.289  44.692 -34.075  1.00  0.00    -0.371 N 
HETATM   25  C11 UNL     1       9.926  45.976 -33.924  1.00  0.00     0.104 A 
ATOM     26  H5  UNL     1       9.987  44.001 -33.389  1.00  0.00     0.164 HD
HETATM   27  C12 UNL     1      10.350  46.887 -34.867  1.00  0.00     0.105 A 
HETATM   28  N6  UNL     1      11.103  46.492 -35.903  1.00  0.00    -0.358 N 
ATOM     29  H6  UNL     1      11.401  47.189 -36.584  1.00  0.00     0.166 HD
ENDBRANCH  21  22
ENDBRANCH  20  21
ENDBRANCH   3  20
BRANCH   4  30
HETATM   30  O1  UNL     1      15.158  43.348 -40.359  1.00  0.00    -0.393 OA
ATOM     31  H1  UNL     1      14.730  44.082 -40.783  1.00  0.00     0.210 HD
ENDBRANCH   4  30
TORSDOF 6
ENDMDL
