MODEL 2
REMARK VINA RESULT: -7.558296786      1.723      7.462
REMARK  6 active torsions:
REMARK  status: ('A' for Active; 'I' for Inactive)
REMARK    1  A    between atoms: C4_9  and  C5_10 
REMARK    2  A    between atoms: C5_10  and  N4_11 
REMARK    3  A    between atoms: C7_13  and  C8_14 
REMARK    4  A    between atoms: C8_14  and  S1_15 
REMARK    5  A    between atoms: S1_15  and  C9_16 
REMARK    6  A    between atoms: C13_24  and  O1_25 
ROOT
HETATM    1  N4  UNL     1      12.031  45.726 -35.098  1.00  0.00     0.095 N 
HETATM    2  C6  UNL     1      10.982  46.693 -35.297  1.00  0.00     0.280 C 
HETATM    3  C7  UNL     1      10.022  46.379 -34.142  1.00  0.00     0.054 C 
HETATM    4  C13 UNL     1      10.799  45.418 -33.227  1.00  0.00     0.153 C 
HETATM    5  C14 UNL     1      12.217  45.768 -33.640  1.00  0.00     0.304 C 
ENDROOT
BRANCH   1   6
HETATM    6  C5  UNL     1      13.226  45.988 -35.812  1.00  0.00     0.315 C 
BRANCH   6   7
HETATM    7  C4  UNL     1      13.291  45.119 -37.012  1.00  0.00     0.014 A 
HETATM    8  C3  UNL     1      14.443  44.769 -37.704  1.00  0.00     0.072 A 
HETATM    9  N3  UNL     1      15.743  45.055 -37.551  1.00  0.00    -0.350 N 
HETATM   10  C16 UNL     1      14.089  43.942 -38.773  1.00  0.00     0.101 A 
HETATM   11  C2  UNL     1      16.696  44.584 -38.369  1.00  0.00     0.182 A 
ATOM     12  H3  UNL     1      16.020  45.657 -36.776  1.00  0.00     0.166 HD
HETATM   13  N2  UNL     1      16.319  43.792 -39.387  1.00  0.00    -0.339 N 
HETATM   14  C1  UNL     1      15.048  43.442 -39.634  1.00  0.00     0.146 A 
ATOM     15  H2  UNL     1      17.044  43.434 -40.009  1.00  0.00     0.167 HD
HETATM   16  N1  UNL     1      14.687  42.603 -40.719  1.00  0.00    -0.080 NA
HETATM   17  N7  UNL     1      12.777  43.793 -38.736  1.00  0.00    -0.361 N 
HETATM   18  C15 UNL     1      12.272  44.488 -37.693  1.00  0.00     0.099 A 
ATOM     19  H7  UNL     1      12.229  43.240 -39.394  1.00  0.00     0.165 HD
ENDBRANCH   6   7
ENDBRANCH   1   6
BRANCH   3  20
HETATM   20  C8  UNL     1       9.890  47.658 -33.359  1.00  0.00     0.089 C 
BRANCH  20  21
HETATM   21  S1  UNL     1      10.844  48.952 -34.175  1.00  0.00    -0.110 SA
BRANCH  21  22
HETATM   22  C9  UNL     1       9.896  49.794 -35.426  1.00  0.00     0.085 A 
HETATM   23  C10 UNL     1       8.788  49.267 -36.048  1.00  0.00     0.124 A 
HETATM   24  N5  UNL     1       8.111  49.959 -37.012  1.00  0.00    -0.371 N 
HETATM   25  C11 UNL     1       8.506  51.187 -37.389  1.00  0.00     0.104 A 
ATOM     26  H5  UNL     1       7.293  49.538 -37.452  1.00  0.00     0.164 HD
HETATM   27  C12 UNL     1       9.614  51.729 -36.776  1.00  0.00     0.105 A 
HETATM   28  N6  UNL     1      10.272  51.043 -35.832  1.00  0.00    -0.358 N 
ATOM     29  H6  UNL     1      11.089  51.472 -35.397  1.00  0.00     0.166 HD
ENDBRANCH  21  22
ENDBRANCH  20  21
ENDBRANCH   3  20
BRANCH   4  30
HETATM   30  O1  UNL     1      10.587  44.096 -33.578  1.00  0.00    -0.393 OA
ATOM     31  H1  UNL     1      10.174  44.023 -34.430  1.00  0.00     0.210 HD
ENDBRANCH   4  30
TORSDOF 6
ENDMDL
