MODEL 3
REMARK VINA RESULT: -7.418934803      1.220      2.087
REMARK  6 active torsions:
REMARK  status: ('A' for Active; 'I' for Inactive)
REMARK    1  A    between atoms: C4_9  and  C5_10 
REMARK    2  A    between atoms: C5_10  and  N4_11 
REMARK    3  A    between atoms: C7_13  and  C8_14 
REMARK    4  A    between atoms: C8_14  and  S1_15 
REMARK    5  A    between atoms: S1_15  and  C9_16 
REMARK    6  A    between atoms: C13_24  and  O1_25 
ROOT
HETATM    1  N4  UNL     1      11.702  46.609 -33.592  1.00  0.00     0.095 N 
HETATM    2  C6  UNL     1      12.361  46.182 -34.800  1.00  0.00     0.280 C 
HETATM    3  C7  UNL     1      12.332  44.653 -34.667  1.00  0.00     0.054 C 
HETATM    4  C13 UNL     1      11.381  44.373 -33.491  1.00  0.00     0.153 C 
HETATM    5  C14 UNL     1      10.581  45.662 -33.501  1.00  0.00     0.304 C 
ENDROOT
BRANCH   1   6
HETATM    6  C5  UNL     1      11.280  47.961 -33.591  1.00  0.00     0.315 C 
BRANCH   6   7
HETATM    7  C4  UNL     1      10.195  48.147 -34.584  1.00  0.00     0.014 A 
HETATM    8  C3  UNL     1       9.942  49.304 -35.310  1.00  0.00     0.072 A 
HETATM    9  N3  UNL     1      10.518  50.512 -35.363  1.00  0.00    -0.350 N 
HETATM   10  C16 UNL     1       8.838  49.081 -36.136  1.00  0.00     0.101 A 
HETATM   11  C2  UNL     1      10.082  51.494 -36.166  1.00  0.00     0.182 A 
ATOM     12  H3  UNL     1      11.325  50.693 -34.767  1.00  0.00     0.166 HD
HETATM   13  N2  UNL     1       9.017  51.245 -36.947  1.00  0.00    -0.339 N 
HETATM   14  C1  UNL     1       8.364  50.073 -36.974  1.00  0.00     0.146 A 
ATOM     15  H2  UNL     1       8.686  51.992 -37.558  1.00  0.00     0.167 HD
HETATM   16  N1  UNL     1       7.243  49.847 -37.811  1.00  0.00    -0.080 NA
HETATM   17  N7  UNL     1       8.433  47.842 -35.925  1.00  0.00    -0.361 N 
HETATM   18  C15 UNL     1       9.226  47.258 -34.999  1.00  0.00     0.099 A 
ATOM     19  H7  UNL     1       7.643  47.394 -36.388  1.00  0.00     0.165 HD
ENDBRANCH   6   7
ENDBRANCH   1   6
BRANCH   3  20
HETATM   20  C8  UNL     1      11.613  44.148 -35.890  1.00  0.00     0.089 C 
BRANCH  20  21
HETATM   21  S1  UNL     1      12.095  45.146 -37.313  1.00  0.00    -0.110 SA
BRANCH  21  22
HETATM   22  C9  UNL     1      13.626  44.589 -38.033  1.00  0.00     0.085 A 
HETATM   23  C10 UNL     1      14.874  44.931 -37.565  1.00  0.00     0.124 A 
HETATM   24  N5  UNL     1      16.013  44.480 -38.171  1.00  0.00    -0.371 N 
HETATM   25  C11 UNL     1      15.955  43.684 -39.251  1.00  0.00     0.104 A 
ATOM     26  H5  UNL     1      16.923  44.752 -37.797  1.00  0.00     0.164 HD
HETATM   27  C12 UNL     1      14.712  43.334 -39.733  1.00  0.00     0.105 A 
HETATM   28  N6  UNL     1      13.600  43.780 -39.132  1.00  0.00    -0.358 N 
ATOM     29  H6  UNL     1      12.696  43.502 -39.513  1.00  0.00     0.166 HD
ENDBRANCH  21  22
ENDBRANCH  20  21
ENDBRANCH   3  20
BRANCH   4  30
HETATM   30  O1  UNL     1      12.062  44.325 -32.286  1.00  0.00    -0.393 OA
ATOM     31  H1  UNL     1      12.996  44.214 -32.417  1.00  0.00     0.210 HD
ENDBRANCH   4  30
TORSDOF 6
ENDMDL
