MODEL 1
REMARK VINA RESULT: -8.879560609      0.000      0.000
REMARK  6 active torsions:
REMARK  status: ('A' for Active; 'I' for Inactive)
REMARK    1  A    between atoms: C4_9  and  C5_10 
REMARK    2  A    between atoms: C5_10  and  N4_11 
REMARK    3  A    between atoms: C7_13  and  C8_14 
REMARK    4  A    between atoms: C8_14  and  S1_15 
REMARK    5  A    between atoms: S1_15  and  C9_16 
REMARK    6  A    between atoms: C13_24  and  O1_25 
ROOT
HETATM    1  N4  UNL     1      10.843  46.287 -33.907  1.00  0.00     0.095 N 
HETATM    2  C6  UNL     1      11.943  46.736 -34.721  1.00  0.00     0.280 C 
HETATM    3  C7  UNL     1      12.325  45.463 -35.489  1.00  0.00     0.054 C 
HETATM    4  C13 UNL     1      11.181  44.473 -35.214  1.00  0.00     0.153 C 
HETATM    5  C14 UNL     1      10.082  45.454 -34.849  1.00  0.00     0.304 C 
ENDROOT
BRANCH   1   6
HETATM    6  C5  UNL     1      10.064  47.323 -33.335  1.00  0.00     0.315 C 
BRANCH   6   7
HETATM    7  C4  UNL     1      10.238  48.570 -34.120  1.00  0.00     0.014 A 
HETATM    8  C3  UNL     1       9.459  48.973 -35.196  1.00  0.00     0.072 A 
HETATM    9  N3  UNL     1       8.403  48.444 -35.828  1.00  0.00    -0.350 N 
HETATM   10  C16 UNL     1       9.940  50.198 -35.663  1.00  0.00     0.101 A 
HETATM   11  C2  UNL     1       7.803  49.037 -36.871  1.00  0.00     0.182 A 
ATOM     12  H3  UNL     1       8.037  47.550 -35.500  1.00  0.00     0.166 HD
HETATM   13  N2  UNL     1       8.293  50.215 -37.294  1.00  0.00    -0.339 N 
HETATM   14  C1  UNL     1       9.345  50.834 -36.736  1.00  0.00     0.146 A 
ATOM     15  H2  UNL     1       7.837  50.666 -38.087  1.00  0.00     0.167 HD
HETATM   16  N1  UNL     1       9.835  52.077 -37.210  1.00  0.00    -0.080 NA
HETATM   17  N7  UNL     1      10.970  50.529 -34.906  1.00  0.00    -0.361 N 
HETATM   18  C15 UNL     1      11.173  49.573 -33.973  1.00  0.00     0.099 A 
ATOM     19  H7  UNL     1      11.527  51.377 -35.009  1.00  0.00     0.165 HD
ENDBRANCH   6   7
ENDBRANCH   1   6
BRANCH   3  20
HETATM   20  C8  UNL     1      12.210  45.812 -36.948  1.00  0.00     0.089 C 
BRANCH  20  21
HETATM   21  S1  UNL     1      12.489  44.330 -37.936  1.00  0.00    -0.110 SA
BRANCH  21  22
HETATM   22  C9  UNL     1      14.186  44.184 -38.460  1.00  0.00     0.085 A 
HETATM   23  C10 UNL     1      14.604  43.443 -39.541  1.00  0.00     0.124 A 
HETATM   24  N5  UNL     1      15.924  43.361 -39.885  1.00  0.00    -0.371 N 
HETATM   25  C11 UNL     1      16.865  44.004 -39.174  1.00  0.00     0.104 A 
ATOM     26  H5  UNL     1      16.200  42.803 -40.693  1.00  0.00     0.164 HD
HETATM   27  C12 UNL     1      16.463  44.750 -38.088  1.00  0.00     0.105 A 
HETATM   28  N6  UNL     1      15.166  44.825 -37.758  1.00  0.00    -0.358 N 
ATOM     29  H6  UNL     1      14.900  45.385 -36.949  1.00  0.00     0.166 HD
ENDBRANCH  21  22
ENDBRANCH  20  21
ENDBRANCH   3  20
BRANCH   4  30
HETATM   30  O1  UNL     1      11.430  43.704 -34.091  1.00  0.00    -0.393 OA
ATOM     31  H1  UNL     1      10.809  42.989 -34.012  1.00  0.00     0.210 HD
ENDBRANCH   4  30
TORSDOF 6
ENDMDL
