MODEL 6
REMARK VINA RESULT: -6.172722655      3.173      6.704
REMARK  9 active torsions:
REMARK  status: ('A' for Active; 'I' for Inactive)
REMARK    1  A    between atoms: C2_2  and  C3_3 
REMARK    2  A    between atoms: C3_3  and  C4_4 
REMARK    3  A    between atoms: C4_4  and  C5_5 
REMARK    4  A    between atoms: C5_5  and  C6_6 
REMARK    5  A    between atoms: C6_6  and  N1_7 
REMARK    6  A    between atoms: N1_7  and  C7_8 
REMARK    7  A    between atoms: N1_7  and  C8_11 
REMARK    8  A    between atoms: C7_8  and  O1_9 
REMARK    9  A    between atoms: C8_11  and  C9_12 
ROOT
HETATM    1  C9  UNL     1      -7.739  20.560 -22.193  1.00  0.00     0.015 A 
HETATM    2  C10 UNL     1      -6.699  20.549 -21.293  1.00  0.00     0.099 A 
HETATM    3  N2  UNL     1      -7.117  21.000 -20.085  1.00  0.00    -0.361 N 
ATOM      4  H2  UNL     1      -6.544  21.092 -19.246  1.00  0.00     0.165 HD
HETATM    5  C11 UNL     1      -8.421  21.306 -20.192  1.00  0.00     0.101 A 
HETATM    6  C12 UNL     1      -9.295  21.801 -19.245  1.00  0.00     0.146 A 
HETATM    7  N3  UNL     1      -8.903  22.079 -17.918  1.00  0.00    -0.080 NA
HETATM    8  N4  UNL     1     -10.576  22.016 -19.651  1.00  0.00    -0.339 N 
ATOM      9  H4  UNL     1     -11.250  22.382 -18.979  1.00  0.00     0.167 HD
HETATM   10  C13 UNL     1     -10.983  21.762 -20.905  1.00  0.00     0.182 A 
HETATM   11  N5  UNL     1     -10.121  21.280 -21.818  1.00  0.00    -0.350 N 
ATOM     12  H5  UNL     1     -10.438  21.091 -22.769  1.00  0.00     0.166 HD
HETATM   13  C14 UNL     1      -8.835  21.046 -21.478  1.00  0.00     0.072 A 
ENDROOT
BRANCH   1  14
HETATM   14  C8  UNL     1      -7.755  20.159 -23.612  1.00  0.00     0.317 C 
BRANCH  14  15
HETATM   15  N1  UNL     1      -6.727  19.150 -23.799  1.00  0.00     0.115 N 
BRANCH  15  16
HETATM   16  C6  UNL     1      -5.930  19.595 -24.949  1.00  0.00     0.275 C 
BRANCH  16  17
HETATM   17  C5  UNL     1      -6.905  19.994 -26.006  1.00  0.00     0.030 C 
BRANCH  17  18
HETATM   18  C4  UNL     1      -6.195  20.707 -27.118  1.00  0.00     0.002 C 
BRANCH  18  19
HETATM   19  C3  UNL     1      -4.807  21.081 -26.665  1.00  0.00    -0.000 C 
BRANCH  19  20
HETATM   20  C2  UNL     1      -4.508  22.432 -27.323  1.00  0.00    -0.005 C 
HETATM   21  C1  UNL     1      -5.595  22.647 -28.354  1.00  0.00     0.005 C 
ENDBRANCH  19  20
ENDBRANCH  18  19
ENDBRANCH  17  18
ENDBRANCH  16  17
ENDBRANCH  15  16
BRANCH  15  22
HETATM   22  C7  UNL     1      -7.299  17.848 -24.020  1.00  0.00     0.437 C 
BRANCH  22  23
HETATM   23  O1  UNL     1      -6.370  16.897 -23.560  1.00  0.00    -0.373 OA
ATOM     24  H1  UNL     1      -5.733  16.763 -24.252  1.00  0.00     0.211 HD
ENDBRANCH  22  23
ENDBRANCH  15  22
ENDBRANCH  14  15
ENDBRANCH   1  14
TORSDOF 9
ENDMDL
