MODEL 4
REMARK VINA RESULT: -6.399931024      3.227      5.398
REMARK  9 active torsions:
REMARK  status: ('A' for Active; 'I' for Inactive)
REMARK    1  A    between atoms: C2_2  and  C3_3 
REMARK    2  A    between atoms: C3_3  and  C4_4 
REMARK    3  A    between atoms: C4_4  and  C5_5 
REMARK    4  A    between atoms: C5_5  and  C6_6 
REMARK    5  A    between atoms: C6_6  and  N1_7 
REMARK    6  A    between atoms: N1_7  and  C7_8 
REMARK    7  A    between atoms: N1_7  and  C8_11 
REMARK    8  A    between atoms: C7_8  and  O1_9 
REMARK    9  A    between atoms: C8_11  and  C9_12 
ROOT
HETATM    1  C9  UNL     1      -7.765  19.876 -23.006  1.00  0.00     0.015 A 
HETATM    2  C10 UNL     1      -7.372  18.776 -22.281  1.00  0.00     0.099 A 
HETATM    3  N2  UNL     1      -6.840  17.837 -23.102  1.00  0.00    -0.361 N 
ATOM      4  H2  UNL     1      -6.472  16.929 -22.818  1.00  0.00     0.165 HD
HETATM    5  C11 UNL     1      -6.886  18.317 -24.356  1.00  0.00     0.101 A 
HETATM    6  C12 UNL     1      -6.469  17.743 -25.540  1.00  0.00     0.146 A 
HETATM    7  N3  UNL     1      -5.886  16.458 -25.600  1.00  0.00    -0.080 NA
HETATM    8  N4  UNL     1      -6.647  18.480 -26.670  1.00  0.00    -0.339 N 
ATOM      9  H4  UNL     1      -6.351  18.088 -27.564  1.00  0.00     0.167 HD
HETATM   10  C13 UNL     1      -7.197  19.704 -26.649  1.00  0.00     0.182 A 
HETATM   11  N5  UNL     1      -7.599  20.252 -25.488  1.00  0.00    -0.350 N 
ATOM     12  H5  UNL     1      -8.016  21.183 -25.482  1.00  0.00     0.166 HD
HETATM   13  C14 UNL     1      -7.450  19.572 -24.331  1.00  0.00     0.072 A 
ENDROOT
BRANCH   1  14
HETATM   14  C8  UNL     1      -8.389  21.129 -22.543  1.00  0.00     0.317 C 
BRANCH  14  15
HETATM   15  N1  UNL     1      -8.648  20.996 -21.120  1.00  0.00     0.115 N 
BRANCH  15  16
HETATM   16  C6  UNL     1     -10.093  21.197 -20.953  1.00  0.00     0.275 C 
BRANCH  16  17
HETATM   17  C5  UNL     1     -10.268  21.941 -19.671  1.00  0.00     0.030 C 
BRANCH  17  18
HETATM   18  C4  UNL     1     -11.727  22.135 -19.384  1.00  0.00     0.002 C 
BRANCH  18  19
HETATM   19  C3  UNL     1     -12.527  21.808 -20.618  1.00  0.00    -0.000 C 
BRANCH  19  20
HETATM   20  C2  UNL     1     -13.876  22.510 -20.436  1.00  0.00    -0.005 C 
HETATM   21  C1  UNL     1     -14.578  22.426 -21.774  1.00  0.00     0.005 C 
ENDBRANCH  19  20
ENDBRANCH  18  19
ENDBRANCH  17  18
ENDBRANCH  16  17
ENDBRANCH  15  16
BRANCH  15  22
HETATM   22  C7  UNL     1      -7.887  21.945 -20.352  1.00  0.00     0.437 C 
BRANCH  22  23
HETATM   23  O1  UNL     1      -7.077  22.661 -21.251  1.00  0.00    -0.373 OA
ATOM     24  H1  UNL     1      -6.217  22.258 -21.244  1.00  0.00     0.211 HD
ENDBRANCH  22  23
ENDBRANCH  15  22
ENDBRANCH  14  15
ENDBRANCH   1  14
TORSDOF 9
ENDMDL
