MODEL 2
REMARK VINA RESULT: -7.819219991      0.848      1.010
REMARK  9 active torsions:
REMARK  status: ('A' for Active; 'I' for Inactive)
REMARK    1  A    between atoms: C2_2  and  C3_3 
REMARK    2  A    between atoms: C3_3  and  C4_4 
REMARK    3  A    between atoms: C4_4  and  C5_5 
REMARK    4  A    between atoms: C5_5  and  C6_6 
REMARK    5  A    between atoms: C6_6  and  N1_7 
REMARK    6  A    between atoms: N1_7  and  C7_8 
REMARK    7  A    between atoms: N1_7  and  C8_11 
REMARK    8  A    between atoms: C7_8  and  O1_9 
REMARK    9  A    between atoms: C8_11  and  C9_12 
ROOT
HETATM    1  C9  UNL     1      -6.431  19.546 -26.524  1.00  0.00     0.015 A 
HETATM    2  C10 UNL     1      -7.408  19.866 -27.437  1.00  0.00     0.099 A 
HETATM    3  N2  UNL     1      -7.086  21.011 -28.089  1.00  0.00    -0.361 N 
ATOM      4  H2  UNL     1      -7.639  21.466 -28.815  1.00  0.00     0.165 HD
HETATM    5  C11 UNL     1      -5.907  21.439 -27.606  1.00  0.00     0.101 A 
HETATM    6  C12 UNL     1      -5.163  22.552 -27.943  1.00  0.00     0.146 A 
HETATM    7  N3  UNL     1      -5.577  23.474 -28.928  1.00  0.00    -0.080 NA
HETATM    8  N4  UNL     1      -3.992  22.728 -27.273  1.00  0.00    -0.339 N 
ATOM      9  H4  UNL     1      -3.416  23.540 -27.494  1.00  0.00     0.167 HD
HETATM   10  C13 UNL     1      -3.569  21.870 -26.330  1.00  0.00     0.182 A 
HETATM   11  N5  UNL     1      -4.304  20.790 -26.012  1.00  0.00    -0.350 N 
ATOM     12  H5  UNL     1      -3.975  20.144 -25.294  1.00  0.00     0.166 HD
HETATM   13  C14 UNL     1      -5.476  20.559 -26.640  1.00  0.00     0.072 A 
ENDROOT
BRANCH   1  14
HETATM   14  C8  UNL     1      -6.352  18.401 -25.598  1.00  0.00     0.317 C 
BRANCH  14  15
HETATM   15  N1  UNL     1      -7.405  18.558 -24.610  1.00  0.00     0.115 N 
BRANCH  15  16
HETATM   16  C6  UNL     1      -7.054  19.753 -23.834  1.00  0.00     0.275 C 
BRANCH  16  17
HETATM   17  C5  UNL     1      -8.013  19.809 -22.691  1.00  0.00     0.030 C 
BRANCH  17  18
HETATM   18  C4  UNL     1      -8.548  21.201 -22.535  1.00  0.00     0.002 C 
BRANCH  18  19
HETATM   19  C3  UNL     1      -8.150  21.740 -21.185  1.00  0.00    -0.000 C 
BRANCH  19  20
HETATM   20  C2  UNL     1      -9.419  21.688 -20.329  1.00  0.00    -0.005 C 
HETATM   21  C1  UNL     1      -8.977  21.957 -18.906  1.00  0.00     0.005 C 
ENDBRANCH  19  20
ENDBRANCH  18  19
ENDBRANCH  17  18
ENDBRANCH  16  17
ENDBRANCH  15  16
BRANCH  15  22
HETATM   22  C7  UNL     1      -7.519  17.394 -23.771  1.00  0.00     0.437 C 
BRANCH  22  23
HETATM   23  O1  UNL     1      -6.223  16.885 -23.578  1.00  0.00    -0.373 OA
ATOM     24  H1  UNL     1      -6.308  15.961 -23.371  1.00  0.00     0.211 HD
ENDBRANCH  22  23
ENDBRANCH  15  22
ENDBRANCH  14  15
ENDBRANCH   1  14
TORSDOF 9
ENDMDL
