MODEL 7
REMARK VINA RESULT: -5.794093172      7.256     10.846
REMARK  9 active torsions:
REMARK  status: ('A' for Active; 'I' for Inactive)
REMARK    1  A    between atoms: C2_2  and  C3_3 
REMARK    2  A    between atoms: C3_3  and  C4_4 
REMARK    3  A    between atoms: C4_4  and  C5_5 
REMARK    4  A    between atoms: C5_5  and  C6_6 
REMARK    5  A    between atoms: C6_6  and  N1_7 
REMARK    6  A    between atoms: N1_7  and  C7_8 
REMARK    7  A    between atoms: N1_7  and  C8_11 
REMARK    8  A    between atoms: C7_8  and  O1_9 
REMARK    9  A    between atoms: C8_11  and  C9_12 
ROOT
HETATM    1  C9  UNL     1     -12.989  19.212 -17.331  1.00  0.00     0.015 A 
HETATM    2  C10 UNL     1     -14.333  18.924 -17.339  1.00  0.00     0.099 A 
HETATM    3  N2  UNL     1     -14.529  17.587 -17.238  1.00  0.00    -0.361 N 
ATOM      4  H2  UNL     1     -15.430  17.110 -17.221  1.00  0.00     0.165 HD
HETATM    5  C11 UNL     1     -13.322  17.001 -17.165  1.00  0.00     0.101 A 
HETATM    6  C12 UNL     1     -12.989  15.666 -17.053  1.00  0.00     0.146 A 
HETATM    7  N3  UNL     1     -13.960  14.642 -16.995  1.00  0.00    -0.080 NA
HETATM    8  N4  UNL     1     -11.662  15.371 -17.000  1.00  0.00    -0.339 N 
ATOM      9  H4  UNL     1     -11.379  14.394 -16.918  1.00  0.00     0.167 HD
HETATM   10  C13 UNL     1     -10.713  16.318 -17.053  1.00  0.00     0.182 A 
HETATM   11  N5  UNL     1     -11.051  17.616 -17.162  1.00  0.00    -0.350 N 
ATOM     12  H5  UNL     1     -10.323  18.330 -17.202  1.00  0.00     0.166 HD
HETATM   13  C14 UNL     1     -12.351  17.975 -17.219  1.00  0.00     0.072 A 
ENDROOT
BRANCH   1  14
HETATM   14  C8  UNL     1     -12.309  20.518 -17.418  1.00  0.00     0.317 C 
BRANCH  14  15
HETATM   15  N1  UNL     1     -12.939  21.275 -18.485  1.00  0.00     0.115 N 
BRANCH  15  16
HETATM   16  C6  UNL     1     -12.226  20.908 -19.715  1.00  0.00     0.275 C 
BRANCH  16  17
HETATM   17  C5  UNL     1     -11.239  21.999 -19.969  1.00  0.00     0.030 C 
BRANCH  17  18
HETATM   18  C4  UNL     1     -10.134  21.499 -20.851  1.00  0.00     0.002 C 
BRANCH  18  19
HETATM   19  C3  UNL     1      -8.810  21.723 -20.168  1.00  0.00    -0.000 C 
BRANCH  19  20
HETATM   20  C2  UNL     1      -7.763  21.728 -21.287  1.00  0.00    -0.005 C 
HETATM   21  C1  UNL     1      -8.457  21.175 -22.513  1.00  0.00     0.005 C 
ENDBRANCH  19  20
ENDBRANCH  18  19
ENDBRANCH  17  18
ENDBRANCH  16  17
ENDBRANCH  15  16
BRANCH  15  22
HETATM   22  C7  UNL     1     -12.878  22.691 -18.237  1.00  0.00     0.437 C 
BRANCH  22  23
HETATM   23  O1  UNL     1     -12.782  22.871 -16.846  1.00  0.00    -0.373 OA
ATOM     24  H1  UNL     1     -12.444  23.746 -16.694  1.00  0.00     0.211 HD
ENDBRANCH  22  23
ENDBRANCH  15  22
ENDBRANCH  14  15
ENDBRANCH   1  14
TORSDOF 9
ENDMDL
