MODEL 1
REMARK VINA RESULT: -8.392052832      0.000      0.000
REMARK  9 active torsions:
REMARK  status: ('A' for Active; 'I' for Inactive)
REMARK    1  A    between atoms: C2_2  and  C3_3 
REMARK    2  A    between atoms: C3_3  and  C4_4 
REMARK    3  A    between atoms: C4_4  and  C5_5 
REMARK    4  A    between atoms: C5_5  and  C6_6 
REMARK    5  A    between atoms: C6_6  and  N1_7 
REMARK    6  A    between atoms: N1_7  and  C7_8 
REMARK    7  A    between atoms: N1_7  and  C8_11 
REMARK    8  A    between atoms: C7_8  and  O1_9 
REMARK    9  A    between atoms: C8_11  and  C9_12 
ROOT
HETATM    1  C9  UNL     1      -6.445  19.379 -26.662  1.00  0.00     0.015 A 
HETATM    2  C10 UNL     1      -7.420  19.735 -27.564  1.00  0.00     0.099 A 
HETATM    3  N2  UNL     1      -7.126  20.932 -28.127  1.00  0.00    -0.361 N 
ATOM      4  H2  UNL     1      -7.684  21.421 -28.827  1.00  0.00     0.165 HD
HETATM    5  C11 UNL     1      -5.967  21.359 -27.599  1.00  0.00     0.101 A 
HETATM    6  C12 UNL     1      -5.253  22.515 -27.845  1.00  0.00     0.146 A 
HETATM    7  N3  UNL     1      -5.683  23.493 -28.768  1.00  0.00    -0.080 NA
HETATM    8  N4  UNL     1      -4.096  22.677 -27.147  1.00  0.00    -0.339 N 
ATOM      9  H4  UNL     1      -3.542  23.520 -27.302  1.00  0.00     0.167 HD
HETATM   10  C13 UNL     1      -3.658  21.768 -26.263  1.00  0.00     0.182 A 
HETATM   11  N5  UNL     1      -4.363  20.645 -26.032  1.00  0.00    -0.350 N 
ATOM     12  H5  UNL     1      -4.023  19.960 -25.358  1.00  0.00     0.166 HD
HETATM   13  C14 UNL     1      -5.520  20.425 -26.692  1.00  0.00     0.072 A 
ENDROOT
BRANCH   1  14
HETATM   14  C8  UNL     1      -6.342  18.173 -25.819  1.00  0.00     0.317 C 
BRANCH  14  15
HETATM   15  N1  UNL     1      -7.379  18.252 -24.805  1.00  0.00     0.115 N 
BRANCH  15  16
HETATM   16  C6  UNL     1      -6.679  18.417 -23.525  1.00  0.00     0.275 C 
BRANCH  16  17
HETATM   17  C5  UNL     1      -7.595  19.199 -22.644  1.00  0.00     0.030 C 
BRANCH  17  18
HETATM   18  C4  UNL     1      -7.955  20.499 -23.299  1.00  0.00     0.002 C 
BRANCH  18  19
HETATM   19  C3  UNL     1      -8.715  21.357 -22.322  1.00  0.00    -0.000 C 
BRANCH  19  20
HETATM   20  C2  UNL     1      -7.708  21.727 -21.227  1.00  0.00    -0.005 C 
HETATM   21  C1  UNL     1      -8.512  21.884 -19.953  1.00  0.00     0.005 C 
ENDBRANCH  19  20
ENDBRANCH  18  19
ENDBRANCH  17  18
ENDBRANCH  16  17
ENDBRANCH  15  16
BRANCH  15  22
HETATM   22  C7  UNL     1      -8.211  17.079 -24.808  1.00  0.00     0.437 C 
BRANCH  22  23
HETATM   23  O1  UNL     1      -7.690  16.195 -25.770  1.00  0.00    -0.373 OA
ATOM     24  H1  UNL     1      -8.272  15.445 -25.813  1.00  0.00     0.211 HD
ENDBRANCH  22  23
ENDBRANCH  15  22
ENDBRANCH  14  15
ENDBRANCH   1  14
TORSDOF 9
ENDMDL
