MODEL 1
REMARK VINA RESULT: -8.317343466      0.000      0.000
REMARK  7 active torsions:
REMARK  status: ('A' for Active; 'I' for Inactive)
REMARK       I    between atoms: C1_2  and  N1_3 
REMARK    1  A    between atoms: C1_2  and  C21_31 
REMARK    2  A    between atoms: N1_3  and  C2_5 
REMARK    3  A    between atoms: C5_8  and  N2_9 
REMARK    4  A    between atoms: N2_9  and  C6_10 
REMARK       I    between atoms: N2_9  and  C11_16 
REMARK    5  A    between atoms: C6_10  and  C7_11 
REMARK    6  A    between atoms: C11_16  and  C12_18 
REMARK    7  A    between atoms: C12_18  and  N3_19 
ROOT
HETATM    1  N2  UNL     1      -5.460 -22.860  27.856  1.00  0.00    -0.312 N 
HETATM    2  C11 UNL     1      -4.335 -22.680  28.693  1.00  0.00     0.244 C 
HETATM    3  O2  UNL     1      -3.372 -23.487  28.683  1.00  0.00    -0.271 OA
ENDROOT
BRANCH   1   4
HETATM    4  C5  UNL     1      -5.599 -24.013  27.029  1.00  0.00     0.037 A 
HETATM    5  C4  UNL     1      -5.996 -25.227  27.518  1.00  0.00     0.032 A 
HETATM    6  C3  UNL     1      -6.110 -26.317  26.693  1.00  0.00     0.032 A 
HETATM    7  C2  UNL     1      -5.829 -26.258  25.316  1.00  0.00     0.035 A 
HETATM    8  C20 UNL     1      -5.430 -25.044  24.823  1.00  0.00     0.032 A 
HETATM    9  C19 UNL     1      -5.319 -23.944  25.668  1.00  0.00     0.032 A 
BRANCH   7  10
HETATM   10  N1  UNL     1      -5.989 -27.452  24.576  1.00  0.00    -0.323 N 
HETATM   11  C1  UNL     1      -5.359 -27.791  23.369  1.00  0.00     0.263 C 
HETATM   12  O1  UNL     1      -4.558 -27.012  22.835  1.00  0.00    -0.267 OA
ATOM     13  H1  UNL     1      -6.633 -28.143  24.961  1.00  0.00     0.169 HD
BRANCH  11  14
HETATM   14  C21 UNL     1      -5.626 -29.088  22.691  1.00  0.00     0.072 A 
HETATM   15  C22 UNL     1      -4.884 -29.681  21.706  1.00  0.00     0.025 A 
HETATM   16  C23 UNL     1      -5.314 -30.864  21.241  1.00  0.00     0.009 A 
HETATM   17  C24 UNL     1      -6.458 -31.377  21.789  1.00  0.00     0.050 A 
HETATM   18  S2  UNL     1      -6.895 -30.194  22.935  1.00  0.00    -0.097 SA
ENDBRANCH  11  14
ENDBRANCH   7  10
ENDBRANCH   1   4
BRANCH   1  19
HETATM   19  C6  UNL     1      -6.494 -21.870  27.830  1.00  0.00     0.171 C 
BRANCH  19  20
HETATM   20  C7  UNL     1      -7.770 -22.402  28.455  1.00  0.00    -0.033 A 
HETATM   21  C8  UNL     1      -7.822 -22.770  29.753  1.00  0.00     0.016 A 
HETATM   22  C9  UNL     1      -9.022 -23.224  30.223  1.00  0.00     0.050 A 
HETATM   23  S1  UNL     1     -10.034 -23.129  28.857  1.00  0.00    -0.113 SA
HETATM   24  C10 UNL     1      -8.919 -22.517  27.727  1.00  0.00     0.058 A 
ENDBRANCH  19  20
ENDBRANCH   1  19
BRANCH   2  25
HETATM   25  C12 UNL     1      -4.272 -21.521  29.608  1.00  0.00     0.250 C 
BRANCH  25  26
HETATM   26  N3  UNL     1      -4.501 -21.921  30.985  1.00  0.00    -0.265 N 
HETATM   27  N4  UNL     1      -4.969 -23.095  31.416  1.00  0.00    -0.019 NA
HETATM   28  N5  UNL     1      -5.044 -23.084  32.734  1.00  0.00    -0.282 N 
HETATM   29  C13 UNL     1      -4.618 -21.881  33.168  1.00  0.00     0.074 A 
ATOM     30  H5  UNL     1      -5.369 -23.852  33.322  1.00  0.00     0.184 HD
HETATM   31  C14 UNL     1      -4.474 -21.294  34.398  1.00  0.00     0.033 A 
HETATM   32  C18 UNL     1      -4.269 -21.136  32.047  1.00  0.00     0.077 A 
HETATM   33  C15 UNL     1      -4.004 -20.013  34.540  1.00  0.00     0.002 A 
HETATM   34  C16 UNL     1      -3.662 -19.283  33.414  1.00  0.00     0.002 A 
HETATM   35  C17 UNL     1      -3.791 -19.837  32.162  1.00  0.00     0.033 A 
ENDBRANCH  25  26
ENDBRANCH   2  25
TORSDOF 7
ENDMDL
