MODEL 3
REMARK VINA RESULT: -7.985035130      1.454      2.108
REMARK  7 active torsions:
REMARK  status: ('A' for Active; 'I' for Inactive)
REMARK       I    between atoms: C1_2  and  N1_3 
REMARK    1  A    between atoms: C1_2  and  C21_31 
REMARK    2  A    between atoms: N1_3  and  C2_5 
REMARK    3  A    between atoms: C5_8  and  N2_9 
REMARK    4  A    between atoms: N2_9  and  C6_10 
REMARK       I    between atoms: N2_9  and  C11_16 
REMARK    5  A    between atoms: C6_10  and  C7_11 
REMARK    6  A    between atoms: C11_16  and  C12_18 
REMARK    7  A    between atoms: C12_18  and  N3_19 
ROOT
HETATM    1  N2  UNL     1      -6.237 -22.704  28.394  1.00  0.00    -0.312 N 
HETATM    2  C11 UNL     1      -5.207 -22.367  29.303  1.00  0.00     0.244 C 
HETATM    3  O2  UNL     1      -4.085 -22.929  29.262  1.00  0.00    -0.271 OA
ENDROOT
BRANCH   1   4
HETATM    4  C5  UNL     1      -6.083 -23.760  27.448  1.00  0.00     0.037 A 
HETATM    5  C4  UNL     1      -5.843 -23.531  26.122  1.00  0.00     0.032 A 
HETATM    6  C3  UNL     1      -5.710 -24.573  25.239  1.00  0.00     0.032 A 
HETATM    7  C2  UNL     1      -5.809 -25.919  25.634  1.00  0.00     0.035 A 
HETATM    8  C20 UNL     1      -6.049 -26.152  26.964  1.00  0.00     0.032 A 
HETATM    9  C19 UNL     1      -6.183 -25.088  27.850  1.00  0.00     0.032 A 
BRANCH   7  10
HETATM   10  N1  UNL     1      -5.648 -26.899  24.628  1.00  0.00    -0.323 N 
HETATM   11  C1  UNL     1      -6.389 -28.078  24.468  1.00  0.00     0.263 C 
HETATM   12  O1  UNL     1      -7.306 -28.360  25.253  1.00  0.00    -0.267 OA
ATOM     13  H1  UNL     1      -4.911 -26.729  23.943  1.00  0.00     0.169 HD
BRANCH  11  14
HETATM   14  C21 UNL     1      -6.107 -29.030  23.360  1.00  0.00     0.072 A 
HETATM   15  C22 UNL     1      -4.990 -29.083  22.571  1.00  0.00     0.025 A 
HETATM   16  C23 UNL     1      -4.950 -30.037  21.628  1.00  0.00     0.009 A 
HETATM   17  C24 UNL     1      -6.027 -30.875  21.533  1.00  0.00     0.050 A 
HETATM   18  S2  UNL     1      -7.061 -30.305  22.763  1.00  0.00    -0.097 SA
ENDBRANCH  11  14
ENDBRANCH   7  10
ENDBRANCH   1   4
BRANCH   1  19
HETATM   19  C6  UNL     1      -7.471 -21.977  28.414  1.00  0.00     0.171 C 
BRANCH  19  20
HETATM   20  C7  UNL     1      -8.571 -22.795  29.064  1.00  0.00    -0.033 A 
HETATM   21  C8  UNL     1      -8.490 -23.194  30.351  1.00  0.00     0.016 A 
HETATM   22  C9  UNL     1      -9.539 -23.915  30.845  1.00  0.00     0.050 A 
HETATM   23  S1  UNL     1     -10.599 -24.018  29.517  1.00  0.00    -0.113 SA
HETATM   24  C10 UNL     1      -9.693 -23.147  28.370  1.00  0.00     0.058 A 
ENDBRANCH  19  20
ENDBRANCH   1  19
BRANCH   2  25
HETATM   25  C12 UNL     1      -5.440 -21.332  30.333  1.00  0.00     0.250 C 
BRANCH  25  26
HETATM   26  N3  UNL     1      -4.573 -21.525  31.482  1.00  0.00    -0.265 N 
HETATM   27  N4  UNL     1      -3.510 -20.792  31.822  1.00  0.00    -0.019 NA
HETATM   28  N5  UNL     1      -2.974 -21.277  32.927  1.00  0.00    -0.282 N 
HETATM   29  C13 UNL     1      -3.701 -22.345  33.311  1.00  0.00     0.074 A 
ATOM     30  H5  UNL     1      -2.152 -20.908  33.405  1.00  0.00     0.184 HD
HETATM   31  C14 UNL     1      -3.631 -23.236  34.350  1.00  0.00     0.033 A 
HETATM   32  C18 UNL     1      -4.726 -22.504  32.385  1.00  0.00     0.077 A 
HETATM   33  C15 UNL     1      -4.535 -24.259  34.489  1.00  0.00     0.002 A 
HETATM   34  C16 UNL     1      -5.550 -24.406  33.559  1.00  0.00     0.002 A 
HETATM   35  C17 UNL     1      -5.653 -23.531  32.503  1.00  0.00     0.033 A 
ENDBRANCH  25  26
ENDBRANCH   2  25
TORSDOF 7
ENDMDL
