MODEL 9
REMARK VINA RESULT: -7.350697109      3.621      5.201
REMARK  7 active torsions:
REMARK  status: ('A' for Active; 'I' for Inactive)
REMARK       I    between atoms: C1_2  and  N1_3 
REMARK    1  A    between atoms: C1_2  and  C21_31 
REMARK    2  A    between atoms: N1_3  and  C2_5 
REMARK    3  A    between atoms: C5_8  and  N2_9 
REMARK    4  A    between atoms: N2_9  and  C6_10 
REMARK       I    between atoms: N2_9  and  C11_16 
REMARK    5  A    between atoms: C6_10  and  C7_11 
REMARK    6  A    between atoms: C11_16  and  C12_18 
REMARK    7  A    between atoms: C12_18  and  N3_19 
ROOT
HETATM    1  N2  UNL     1      -6.703 -23.599  27.329  1.00  0.00    -0.312 N 
HETATM    2  C11 UNL     1      -7.937 -22.917  27.215  1.00  0.00     0.244 C 
HETATM    3  O2  UNL     1      -8.803 -23.262  26.373  1.00  0.00    -0.271 OA
ENDROOT
BRANCH   1   4
HETATM    4  C5  UNL     1      -6.345 -24.650  26.433  1.00  0.00     0.037 A 
HETATM    5  C4  UNL     1      -5.953 -24.417  25.145  1.00  0.00     0.032 A 
HETATM    6  C3  UNL     1      -5.625 -25.454  24.309  1.00  0.00     0.032 A 
HETATM    7  C2  UNL     1      -5.670 -26.800  24.716  1.00  0.00     0.035 A 
HETATM    8  C20 UNL     1      -6.064 -27.037  26.007  1.00  0.00     0.032 A 
HETATM    9  C19 UNL     1      -6.394 -25.977  26.846  1.00  0.00     0.032 A 
BRANCH   7  10
HETATM   10  N1  UNL     1      -5.303 -27.774  23.759  1.00  0.00    -0.323 N 
HETATM   11  C1  UNL     1      -6.028 -28.919  23.396  1.00  0.00     0.263 C 
HETATM   12  O1  UNL     1      -7.120 -29.169  23.924  1.00  0.00    -0.267 OA
ATOM     13  H1  UNL     1      -4.414 -27.629  23.281  1.00  0.00     0.169 HD
BRANCH  11  14
HETATM   14  C21 UNL     1      -5.517 -29.869  22.371  1.00  0.00     0.072 A 
HETATM   15  C22 UNL     1      -4.607 -29.617  21.381  1.00  0.00     0.025 A 
HETATM   16  C23 UNL     1      -4.288 -30.636  20.567  1.00  0.00     0.009 A 
HETATM   17  C24 UNL     1      -4.899 -31.838  20.794  1.00  0.00     0.050 A 
HETATM   18  S2  UNL     1      -5.898 -31.510  22.135  1.00  0.00    -0.097 SA
ENDBRANCH  11  14
ENDBRANCH   7  10
ENDBRANCH   1   4
BRANCH   1  19
HETATM   19  C6  UNL     1      -5.780 -23.236  28.361  1.00  0.00     0.171 C 
BRANCH  19  20
HETATM   20  C7  UNL     1      -4.415 -22.921  27.782  1.00  0.00    -0.033 A 
HETATM   21  C8  UNL     1      -3.389 -23.794  27.872  1.00  0.00     0.016 A 
HETATM   22  C9  UNL     1      -2.202 -23.420  27.306  1.00  0.00     0.050 A 
HETATM   23  S1  UNL     1      -2.544 -21.878  26.671  1.00  0.00    -0.113 SA
HETATM   24  C10 UNL     1      -4.176 -21.743  27.134  1.00  0.00     0.058 A 
ENDBRANCH  19  20
ENDBRANCH   1  19
BRANCH   2  25
HETATM   25  C12 UNL     1      -8.231 -21.770  28.099  1.00  0.00     0.250 C 
BRANCH  25  26
HETATM   26  N3  UNL     1      -9.657 -21.645  28.347  1.00  0.00    -0.265 N 
HETATM   27  N4  UNL     1     -10.489 -20.742  27.825  1.00  0.00    -0.019 NA
HETATM   28  N5  UNL     1     -11.708 -20.944  28.289  1.00  0.00    -0.282 N 
HETATM   29  C13 UNL     1     -11.667 -21.997  29.129  1.00  0.00     0.074 A 
ATOM     30  H5  UNL     1     -12.537 -20.397  28.054  1.00  0.00     0.184 HD
HETATM   31  C14 UNL     1     -12.593 -22.657  29.895  1.00  0.00     0.033 A 
HETATM   32  C18 UNL     1     -10.353 -22.448  29.165  1.00  0.00     0.077 A 
HETATM   33  C15 UNL     1     -12.252 -23.730  30.679  1.00  0.00     0.002 A 
HETATM   34  C16 UNL     1     -10.938 -24.167  30.706  1.00  0.00     0.002 A 
HETATM   35  C17 UNL     1      -9.981 -23.531  29.951  1.00  0.00     0.033 A 
ENDBRANCH  25  26
ENDBRANCH   2  25
TORSDOF 7
ENDMDL
