MODEL 2
REMARK VINA RESULT: -8.177856805      0.787      1.138
REMARK  7 active torsions:
REMARK  status: ('A' for Active; 'I' for Inactive)
REMARK       I    between atoms: C1_2  and  N1_3 
REMARK    1  A    between atoms: C1_2  and  C21_31 
REMARK    2  A    between atoms: N1_3  and  C2_5 
REMARK    3  A    between atoms: C5_8  and  N2_9 
REMARK    4  A    between atoms: N2_9  and  C6_10 
REMARK       I    between atoms: N2_9  and  C11_16 
REMARK    5  A    between atoms: C6_10  and  C7_11 
REMARK    6  A    between atoms: C11_16  and  C12_18 
REMARK    7  A    between atoms: C12_18  and  N3_19 
ROOT
HETATM    1  N2  UNL     1      -5.393 -22.575  27.966  1.00  0.00    -0.312 N 
HETATM    2  C11 UNL     1      -4.281 -22.401  28.823  1.00  0.00     0.244 C 
HETATM    3  O2  UNL     1      -3.274 -23.149  28.753  1.00  0.00    -0.271 OA
ENDROOT
BRANCH   1   4
HETATM    4  C5  UNL     1      -5.464 -23.664  27.047  1.00  0.00     0.037 A 
HETATM    5  C4  UNL     1      -5.086 -23.548  25.739  1.00  0.00     0.032 A 
HETATM    6  C3  UNL     1      -5.178 -24.615  24.881  1.00  0.00     0.032 A 
HETATM    7  C2  UNL     1      -5.659 -25.873  25.285  1.00  0.00     0.035 A 
HETATM    8  C20 UNL     1      -6.040 -25.992  26.596  1.00  0.00     0.032 A 
HETATM    9  C19 UNL     1      -5.942 -24.904  27.457  1.00  0.00     0.032 A 
BRANCH   7  10
HETATM   10  N1  UNL     1      -5.699 -26.892  24.305  1.00  0.00    -0.323 N 
HETATM   11  C1  UNL     1      -6.093 -28.226  24.486  1.00  0.00     0.263 C 
HETATM   12  O1  UNL     1      -6.463 -28.630  25.597  1.00  0.00    -0.267 OA
ATOM     13  H1  UNL     1      -5.411 -26.627  23.363  1.00  0.00     0.169 HD
BRANCH  11  14
HETATM   14  C21 UNL     1      -6.082 -29.199  23.360  1.00  0.00     0.072 A 
HETATM   15  C22 UNL     1      -5.102 -29.376  22.422  1.00  0.00     0.025 A 
HETATM   16  C23 UNL     1      -5.305 -30.326  21.495  1.00  0.00     0.009 A 
HETATM   17  C24 UNL     1      -6.473 -31.034  21.564  1.00  0.00     0.050 A 
HETATM   18  S2  UNL     1      -7.250 -30.354  22.921  1.00  0.00    -0.097 SA
ENDBRANCH  11  14
ENDBRANCH   7  10
ENDBRANCH   1   4
BRANCH   1  19
HETATM   19  C6  UNL     1      -6.482 -21.647  28.014  1.00  0.00     0.171 C 
BRANCH  19  20
HETATM   20  C7  UNL     1      -7.730 -22.303  28.572  1.00  0.00    -0.033 A 
HETATM   21  C8  UNL     1      -7.792 -22.735  29.850  1.00  0.00     0.016 A 
HETATM   22  C9  UNL     1      -8.966 -23.301  30.258  1.00  0.00     0.050 A 
HETATM   23  S1  UNL     1      -9.942 -23.218  28.866  1.00  0.00    -0.113 SA
HETATM   24  C10 UNL     1      -8.845 -22.470  27.802  1.00  0.00     0.058 A 
ENDBRANCH  19  20
ENDBRANCH   1  19
BRANCH   2  25
HETATM   25  C12 UNL     1      -4.286 -21.318  29.829  1.00  0.00     0.250 C 
BRANCH  25  26
HETATM   26  N3  UNL     1      -4.516 -21.840  31.165  1.00  0.00    -0.265 N 
HETATM   27  N4  UNL     1      -4.992 -23.044  31.489  1.00  0.00    -0.019 NA
HETATM   28  N5  UNL     1      -5.065 -23.152  32.803  1.00  0.00    -0.282 N 
HETATM   29  C13 UNL     1      -4.629 -21.996  33.342  1.00  0.00     0.074 A 
ATOM     30  H5  UNL     1      -5.394 -23.967  33.320  1.00  0.00     0.184 HD
HETATM   31  C14 UNL     1      -4.480 -21.523  34.620  1.00  0.00     0.033 A 
HETATM   32  C18 UNL     1      -4.277 -21.155  32.293  1.00  0.00     0.077 A 
HETATM   33  C15 UNL     1      -4.001 -20.263  34.876  1.00  0.00     0.002 A 
HETATM   34  C16 UNL     1      -3.655 -19.436  33.820  1.00  0.00     0.002 A 
HETATM   35  C17 UNL     1      -3.790 -19.875  32.524  1.00  0.00     0.033 A 
ENDBRANCH  25  26
ENDBRANCH   2  25
TORSDOF 7
ENDMDL
