MODEL 1
REMARK VINA RESULT: -6.718614475      0.000      0.000
REMARK  0 active torsions:
REMARK  status: ('A' for Active; 'I' for Inactive)
ROOT
HETATM    1  C1  UNL     1      20.982   5.975 -31.516  1.00  0.00     0.044 C 
HETATM    2  C2  UNL     1      22.169   6.870 -31.520  1.00  0.00    -0.073 C 
HETATM    3  C3  UNL     1      23.345   6.495 -30.714  1.00  0.00     0.044 C 
HETATM    4  C4  UNL     1      22.122   7.948 -32.225  1.00  0.00     0.020 C 
HETATM    5  C5  UNL     1      20.898   8.243 -32.990  1.00  0.00     0.016 C 
HETATM    6  C6  UNL     1      20.488   9.406 -33.462  1.00  0.00     0.001 C 
HETATM    7  C7  UNL     1      21.085  10.732 -33.384  1.00  0.00     0.004 C 
HETATM    8  C8  UNL     1      22.282  11.106 -32.908  1.00  0.00     0.059 C 
HETATM    9  C9  UNL     1      23.327  10.271 -32.328  1.00  0.00     0.222 C 
HETATM   10  O1  UNL     1      24.348  10.850 -31.885  1.00  0.00    -0.284 OA
HETATM   11  C10 UNL     1      23.297   8.800 -32.214  1.00  0.00     0.232 C 
HETATM   12  O2  UNL     1      24.418   8.244 -32.097  1.00  0.00    -0.283 OA
ENDROOT
TORSDOF 0
ENDMDL
