MODEL 9
REMARK VINA RESULT: -6.331082588      5.438      6.389
REMARK  0 active torsions:
REMARK  status: ('A' for Active; 'I' for Inactive)
ROOT
HETATM    1  C1  UNL     1      24.405   6.933 -35.924  1.00  0.00     0.044 C 
HETATM    2  C2  UNL     1      23.022   6.424 -35.733  1.00  0.00    -0.073 C 
HETATM    3  C3  UNL     1      22.695   5.699 -34.491  1.00  0.00     0.044 C 
HETATM    4  C4  UNL     1      22.158   6.629 -36.667  1.00  0.00     0.020 C 
HETATM    5  C5  UNL     1      22.581   7.356 -37.878  1.00  0.00     0.016 C 
HETATM    6  C6  UNL     1      22.012   7.361 -39.069  1.00  0.00     0.001 C 
HETATM    7  C7  UNL     1      20.826   6.677 -39.564  1.00  0.00     0.004 C 
HETATM    8  C8  UNL     1      19.920   5.945 -38.900  1.00  0.00     0.059 C 
HETATM    9  C9  UNL     1      19.878   5.628 -37.478  1.00  0.00     0.222 C 
HETATM   10  O1  UNL     1      18.965   4.864 -37.084  1.00  0.00    -0.284 OA
HETATM   11  C10 UNL     1      20.814   6.126 -36.451  1.00  0.00     0.232 C 
HETATM   12  O2  UNL     1      20.383   6.105 -35.271  1.00  0.00    -0.283 OA
ENDROOT
TORSDOF 0
ENDMDL
