MODEL 3
REMARK VINA RESULT: -6.528147284      2.191      4.080
REMARK  0 active torsions:
REMARK  status: ('A' for Active; 'I' for Inactive)
ROOT
HETATM    1  C1  UNL     1      23.916  10.070 -31.908  1.00  0.00     0.044 C 
HETATM    2  C2  UNL     1      24.074   8.771 -31.201  1.00  0.00    -0.073 C 
HETATM    3  C3  UNL     1      25.295   8.537 -30.407  1.00  0.00     0.044 C 
HETATM    4  C4  UNL     1      23.138   7.893 -31.316  1.00  0.00     0.020 C 
HETATM    5  C5  UNL     1      21.959   8.214 -32.140  1.00  0.00     0.016 C 
HETATM    6  C6  UNL     1      21.092   7.382 -32.686  1.00  0.00     0.001 C 
HETATM    7  C7  UNL     1      21.014   5.928 -32.658  1.00  0.00     0.004 C 
HETATM    8  C8  UNL     1      21.747   5.045 -31.963  1.00  0.00     0.059 C 
HETATM    9  C9  UNL     1      22.839   5.306 -31.034  1.00  0.00     0.222 C 
HETATM   10  O1  UNL     1      23.429   4.313 -30.544  1.00  0.00    -0.284 OA
HETATM   11  C10 UNL     1      23.317   6.636 -30.611  1.00  0.00     0.232 C 
HETATM   12  O2  UNL     1      23.942   6.665 -29.521  1.00  0.00    -0.283 OA
ENDROOT
TORSDOF 0
ENDMDL
