MODEL 4
REMARK VINA RESULT: -6.523254309      1.430      3.214
REMARK  0 active torsions:
REMARK  status: ('A' for Active; 'I' for Inactive)
ROOT
HETATM    1  C1  UNL     1      20.919   6.778 -33.174  1.00  0.00     0.044 C 
HETATM    2  C2  UNL     1      21.653   8.071 -33.201  1.00  0.00    -0.073 C 
HETATM    3  C3  UNL     1      21.463   8.975 -34.351  1.00  0.00     0.044 C 
HETATM    4  C4  UNL     1      22.438   8.351 -32.217  1.00  0.00     0.020 C 
HETATM    5  C5  UNL     1      22.571   7.380 -31.117  1.00  0.00     0.016 C 
HETATM    6  C6  UNL     1      23.545   7.275 -30.231  1.00  0.00     0.001 C 
HETATM    7  C7  UNL     1      24.763   8.054 -30.055  1.00  0.00     0.004 C 
HETATM    8  C8  UNL     1      25.165   9.169 -30.682  1.00  0.00     0.059 C 
HETATM    9  C9  UNL     1      24.480   9.917 -31.728  1.00  0.00     0.222 C 
HETATM   10  O1  UNL     1      25.079  10.904 -32.218  1.00  0.00    -0.284 OA
HETATM   11  C10 UNL     1      23.138   9.622 -32.267  1.00  0.00     0.232 C 
HETATM   12  O2  UNL     1      22.554  10.586 -32.822  1.00  0.00    -0.283 OA
ENDROOT
TORSDOF 0
ENDMDL
