MODEL 1
REMARK VINA RESULT: -7.048113437      0.000      0.000
REMARK  10 active torsions:
REMARK  status: ('A' for Active; 'I' for Inactive)
REMARK    1  A    between atoms: N1_1  and  C1_5 
REMARK    2  A    between atoms: C1_5  and  C2_6 
REMARK    3  A    between atoms: C1_5  and  C10_23 
REMARK    4  A    between atoms: C2_6  and  C3_7 
REMARK    5  A    between atoms: C3_7  and  C4_8 
REMARK       I    between atoms: C4_8  and  N2_10 
REMARK    6  A    between atoms: N2_10  and  C5_12 
REMARK    7  A    between atoms: C5_12  and  C6_13 
REMARK    8  A    between atoms: C5_12  and  C7_15 
REMARK       I    between atoms: C7_15  and  N3_17 
REMARK    9  A    between atoms: N3_17  and  C8_19 
REMARK   10  A    between atoms: C8_19  and  C9_20 
ROOT
HETATM    1  C4  UNL     1     -27.595  27.316 -15.637  1.00  0.00     0.218 C 
HETATM    2  O1  UNL     1     -26.841  28.184 -15.090  1.00  0.00    -0.274 OA
HETATM    3  N2  UNL     1     -27.404  27.108 -17.016  1.00  0.00    -0.347 N 
ATOM      4  H2  UNL     1     -27.977  26.426 -17.512  1.00  0.00     0.163 HD
ENDROOT
BRANCH   3   5
HETATM    5  C5  UNL     1     -26.372  27.881 -17.749  1.00  0.00     0.186 C 
BRANCH   5   6
HETATM    6  C6  UNL     1     -26.193  27.143 -19.089  1.00  0.00     0.120 C 
HETATM    7  S1  UNL     1     -26.637  25.417 -18.977  1.00  0.00    -0.095 SA
ENDBRANCH   5   6
BRANCH   5   8
HETATM    8  C7  UNL     1     -26.973  29.193 -18.056  1.00  0.00     0.241 C 
HETATM    9  O2  UNL     1     -27.777  29.268 -19.039  1.00  0.00    -0.271 OA
HETATM   10  N3  UNL     1     -26.675  30.343 -17.283  1.00  0.00    -0.349 N 
ATOM     11  H3  UNL     1     -26.036  30.290 -16.490  1.00  0.00     0.163 HD
BRANCH  10  12
HETATM   12  C8  UNL     1     -27.304  31.595 -17.653  1.00  0.00     0.235 C 
BRANCH  12  13
HETATM   13  C9  UNL     1     -28.214  32.013 -16.565  1.00  0.00     0.191 C 
HETATM   14  O3  UNL     1     -28.226  33.204 -16.165  1.00  0.00    -0.647 OA
HETATM   15  O4  UNL     1     -29.066  31.088 -15.975  1.00  0.00    -0.647 OA
ENDBRANCH  12  13
ENDBRANCH  10  12
ENDBRANCH   5   8
ENDBRANCH   3   5
BRANCH   1  16
HETATM   16  C3  UNL     1     -28.613  26.575 -14.837  1.00  0.00     0.105 C 
BRANCH  16  17
HETATM   17  C2  UNL     1     -28.876  25.279 -15.526  1.00  0.00     0.053 C 
BRANCH  17  18
HETATM   18  C1  UNL     1     -28.371  24.080 -14.771  1.00  0.00     0.283 C 
BRANCH  18  19
HETATM   19  N1  UNL     1     -26.960  23.899 -14.857  1.00  0.00    -0.065 N 
ATOM     20  H13 UNL     1     -26.739  22.994 -15.272  1.00  0.00     0.275 HD
ATOM     21  H12 UNL     1     -26.561  24.515 -15.565  1.00  0.00     0.275 HD
ATOM     22  H11 UNL     1     -26.475  24.013 -13.967  1.00  0.00     0.275 HD
ENDBRANCH  18  19
BRANCH  18  23
HETATM   23  C10 UNL     1     -29.091  22.878 -15.261  1.00  0.00     0.204 C 
HETATM   24  O5  UNL     1     -28.912  22.423 -16.413  1.00  0.00    -0.646 OA
HETATM   25  O6  UNL     1     -29.983  22.261 -14.395  1.00  0.00    -0.646 OA
ENDBRANCH  18  23
ENDBRANCH  17  18
ENDBRANCH  16  17
ENDBRANCH   1  16
TORSDOF 10
ENDMDL
