MODEL 16
REMARK VINA RESULT: -7.111327670      2.390      3.436
REMARK  5 active torsions:
REMARK  status: ('A' for Active; 'I' for Inactive)
REMARK    1  A    between atoms: C2_2  and  C5_5 
REMARK    2  A    between atoms: C8_8  and  C9_9 
REMARK    3  A    between atoms: C9_9  and  N1_10 
REMARK       I    between atoms: N1_10  and  C10_12 
REMARK    4  A    between atoms: C10_12  and  C11_14 
REMARK    5  A    between atoms: C16_19  and  C17_20 
ROOT
HETATM    1  N1  UNL     1      91.809  20.848  63.482  1.00  0.00    -0.332 N 
ATOM      2  H1  UNL     1      91.834  19.992  64.036  1.00  0.00     0.168 HD
HETATM    3  C10 UNL     1      92.113  20.726  62.103  1.00  0.00     0.256 C 
HETATM    4  O1  UNL     1      92.100  21.822  61.432  1.00  0.00    -0.267 OA
ENDROOT
BRANCH   1   5
HETATM    5  C9  UNL     1      91.472  22.044  64.166  1.00  0.00     0.102 C 
BRANCH   5   6
HETATM    6  C8  UNL     1      92.489  22.952  64.642  1.00  0.00    -0.021 A 
HETATM    7  C7  UNL     1      92.770  24.101  63.885  1.00  0.00     0.013 A 
HETATM    8  C6  UNL     1      93.769  24.974  64.219  1.00  0.00     0.009 A 
HETATM    9  C5  UNL     1      94.554  24.755  65.336  1.00  0.00    -0.051 A 
HETATM   10  C19 UNL     1      94.308  23.636  66.111  1.00  0.00     0.009 A 
HETATM   11  C18 UNL     1      93.277  22.758  65.746  1.00  0.00     0.013 A 
BRANCH   9  12
HETATM   12  C2  UNL     1      95.641  25.713  65.616  1.00  0.00    -0.024 C 
HETATM   13  C1  UNL     1      96.967  25.041  65.893  1.00  0.00     0.019 C 
HETATM   14  C3  UNL     1      95.303  26.586  66.801  1.00  0.00     0.019 C 
HETATM   15  C4  UNL     1      95.833  26.671  64.431  1.00  0.00     0.019 C 
ENDBRANCH   9  12
ENDBRANCH   5   6
ENDBRANCH   1   5
BRANCH   3  16
HETATM   16  C11 UNL     1      92.431  19.506  61.380  1.00  0.00     0.047 A 
HETATM   17  C12 UNL     1      93.588  18.788  61.691  1.00  0.00     0.018 A 
HETATM   18  C13 UNL     1      93.914  17.604  61.029  1.00  0.00     0.001 A 
HETATM   19  C14 UNL     1      93.099  17.099  60.036  1.00  0.00     0.001 A 
HETATM   20  C15 UNL     1      91.962  17.789  59.719  1.00  0.00     0.017 A 
HETATM   21  C16 UNL     1      91.636  18.976  60.384  1.00  0.00     0.063 A 
BRANCH  21  22
HETATM   22  C17 UNL     1      90.422  19.669  59.934  1.00  0.00     0.418 C 
HETATM   23  F1  UNL     1      90.739  20.745  59.103  1.00  0.00    -0.166 F 
HETATM   24  F2  UNL     1      89.699  20.212  60.985  1.00  0.00    -0.166 F 
HETATM   25  F3  UNL     1      89.651  18.823  59.179  1.00  0.00    -0.166 F 
ENDBRANCH  21  22
ENDBRANCH   3  16
TORSDOF 5
ENDMDL
