MODEL 8
REMARK VINA RESULT: -7.358890651      1.882      2.479
REMARK  5 active torsions:
REMARK  status: ('A' for Active; 'I' for Inactive)
REMARK    1  A    between atoms: C2_2  and  C5_5 
REMARK    2  A    between atoms: C8_8  and  C9_9 
REMARK    3  A    between atoms: C9_9  and  N1_10 
REMARK       I    between atoms: N1_10  and  C10_12 
REMARK    4  A    between atoms: C10_12  and  C11_14 
REMARK    5  A    between atoms: C16_19  and  C17_20 
ROOT
HETATM    1  N1  UNL     1      91.884  20.710  63.452  1.00  0.00    -0.332 N 
ATOM      2  H1  UNL     1      91.330  19.908  63.754  1.00  0.00     0.168 HD
HETATM    3  C10 UNL     1      92.685  20.536  62.296  1.00  0.00     0.256 C 
HETATM    4  O1  UNL     1      93.393  21.552  61.952  1.00  0.00    -0.267 OA
ENDROOT
BRANCH   1   5
HETATM    5  C9  UNL     1      91.777  21.890  64.231  1.00  0.00     0.102 C 
BRANCH   5   6
HETATM    6  C8  UNL     1      92.879  22.368  65.032  1.00  0.00    -0.021 A 
HETATM    7  C7  UNL     1      93.509  21.469  65.909  1.00  0.00     0.013 A 
HETATM    8  C6  UNL     1      94.509  21.854  66.761  1.00  0.00     0.009 A 
HETATM    9  C5  UNL     1      94.945  23.165  66.791  1.00  0.00    -0.051 A 
HETATM   10  C19 UNL     1      94.353  24.081  65.941  1.00  0.00     0.009 A 
HETATM   11  C18 UNL     1      93.331  23.660  65.078  1.00  0.00     0.013 A 
BRANCH   9  12
HETATM   12  C2  UNL     1      95.997  23.522  67.762  1.00  0.00    -0.024 C 
HETATM   13  C1  UNL     1      95.457  24.205  68.999  1.00  0.00     0.019 C 
HETATM   14  C3  UNL     1      97.026  24.433  67.137  1.00  0.00     0.019 C 
HETATM   15  C4  UNL     1      96.764  22.269  68.210  1.00  0.00     0.019 C 
ENDBRANCH   9  12
ENDBRANCH   5   6
ENDBRANCH   1   5
BRANCH   3  16
HETATM   16  C11 UNL     1      92.784  19.346  61.470  1.00  0.00     0.047 A 
HETATM   17  C12 UNL     1      93.824  18.436  61.672  1.00  0.00     0.018 A 
HETATM   18  C13 UNL     1      93.940  17.274  60.908  1.00  0.00     0.001 A 
HETATM   19  C14 UNL     1      93.023  16.982  59.918  1.00  0.00     0.001 A 
HETATM   20  C15 UNL     1      91.998  17.862  59.706  1.00  0.00     0.017 A 
HETATM   21  C16 UNL     1      91.884  19.026  60.473  1.00  0.00     0.063 A 
BRANCH  21  22
HETATM   22  C17 UNL     1      90.778  19.931  60.133  1.00  0.00     0.418 C 
HETATM   23  F1  UNL     1      89.994  19.399  59.108  1.00  0.00    -0.166 F 
HETATM   24  F2  UNL     1      91.219  21.159  59.666  1.00  0.00    -0.166 F 
HETATM   25  F3  UNL     1      89.943  20.077  61.211  1.00  0.00    -0.166 F 
ENDBRANCH  21  22
ENDBRANCH   3  16
TORSDOF 5
ENDMDL
