MODEL 6
REMARK VINA RESULT: -7.567712101      4.885      6.886
REMARK  5 active torsions:
REMARK  status: ('A' for Active; 'I' for Inactive)
REMARK    1  A    between atoms: C2_2  and  C5_5 
REMARK    2  A    between atoms: C8_8  and  C9_9 
REMARK    3  A    between atoms: C9_9  and  N1_10 
REMARK       I    between atoms: N1_10  and  C10_12 
REMARK    4  A    between atoms: C10_12  and  C11_14 
REMARK    5  A    between atoms: C16_19  and  C17_20 
ROOT
HETATM    1  N1  UNL     1      93.770  23.435  62.536  1.00  0.00    -0.332 N 
ATOM      2  H1  UNL     1      92.913  23.331  61.993  1.00  0.00     0.168 HD
HETATM    3  C10 UNL     1      93.991  22.490  63.569  1.00  0.00     0.256 C 
HETATM    4  O1  UNL     1      95.065  22.658  64.255  1.00  0.00    -0.267 OA
ENDROOT
BRANCH   1   5
HETATM    5  C9  UNL     1      94.625  24.510  62.183  1.00  0.00     0.102 C 
BRANCH   5   6
HETATM    6  C8  UNL     1      94.159  25.608  61.369  1.00  0.00    -0.021 A 
HETATM    7  C7  UNL     1      92.829  26.035  61.517  1.00  0.00     0.013 A 
HETATM    8  C6  UNL     1      92.281  27.015  60.734  1.00  0.00     0.009 A 
HETATM    9  C5  UNL     1      93.029  27.633  59.750  1.00  0.00    -0.051 A 
HETATM   10  C19 UNL     1      94.344  27.244  59.573  1.00  0.00     0.009 A 
HETATM   11  C18 UNL     1      94.881  26.238  60.390  1.00  0.00     0.013 A 
BRANCH   9  12
HETATM   12  C2  UNL     1      92.365  28.651  58.913  1.00  0.00    -0.024 C 
HETATM   13  C1  UNL     1      93.126  28.965  57.644  1.00  0.00     0.019 C 
HETATM   14  C3  UNL     1      92.176  29.941  59.675  1.00  0.00     0.019 C 
HETATM   15  C4  UNL     1      90.955  28.187  58.518  1.00  0.00     0.019 C 
ENDBRANCH   9  12
ENDBRANCH   5   6
ENDBRANCH   1   5
BRANCH   3  16
HETATM   16  C11 UNL     1      93.143  21.366  63.924  1.00  0.00     0.047 A 
HETATM   17  C12 UNL     1      92.224  21.483  64.969  1.00  0.00     0.018 A 
HETATM   18  C13 UNL     1      91.383  20.429  65.326  1.00  0.00     0.001 A 
HETATM   19  C14 UNL     1      91.430  19.224  64.653  1.00  0.00     0.001 A 
HETATM   20  C15 UNL     1      92.325  19.092  63.628  1.00  0.00     0.017 A 
HETATM   21  C16 UNL     1      93.168  20.149  63.271  1.00  0.00     0.063 A 
BRANCH  21  22
HETATM   22  C17 UNL     1      94.129  19.890  62.191  1.00  0.00     0.418 C 
HETATM   23  F1  UNL     1      94.294  18.519  61.989  1.00  0.00    -0.166 F 
HETATM   24  F2  UNL     1      95.394  20.380  62.474  1.00  0.00    -0.166 F 
HETATM   25  F3  UNL     1      93.650  20.391  61.007  1.00  0.00    -0.166 F 
ENDBRANCH  21  22
ENDBRANCH   3  16
TORSDOF 5
ENDMDL
