MODEL 3
REMARK VINA RESULT: -7.627070620      5.394      7.373
REMARK  5 active torsions:
REMARK  status: ('A' for Active; 'I' for Inactive)
REMARK    1  A    between atoms: C2_2  and  C5_5 
REMARK    2  A    between atoms: C8_8  and  C9_9 
REMARK    3  A    between atoms: C9_9  and  N1_10 
REMARK       I    between atoms: N1_10  and  C10_12 
REMARK    4  A    between atoms: C10_12  and  C11_14 
REMARK    5  A    between atoms: C16_19  and  C17_20 
ROOT
HETATM    1  N1  UNL     1      93.945  23.983  62.211  1.00  0.00    -0.332 N 
ATOM      2  H1  UNL     1      94.501  23.319  61.673  1.00  0.00     0.168 HD
HETATM    3  C10 UNL     1      92.882  23.449  62.983  1.00  0.00     0.256 C 
HETATM    4  O1  UNL     1      92.180  24.308  63.631  1.00  0.00    -0.267 OA
ENDROOT
BRANCH   1   5
HETATM    5  C9  UNL     1      94.309  25.350  62.114  1.00  0.00     0.102 C 
BRANCH   5   6
HETATM    6  C8  UNL     1      93.744  26.211  61.100  1.00  0.00    -0.021 A 
HETATM    7  C7  UNL     1      94.592  26.715  60.100  1.00  0.00     0.013 A 
HETATM    8  C6  UNL     1      94.160  27.597  59.148  1.00  0.00     0.009 A 
HETATM    9  C5  UNL     1      92.849  28.034  59.133  1.00  0.00    -0.051 A 
HETATM   10  C19 UNL     1      91.980  27.560  60.099  1.00  0.00     0.009 A 
HETATM   11  C18 UNL     1      92.449  26.656  61.063  1.00  0.00     0.013 A 
BRANCH   9  12
HETATM   12  C2  UNL     1      92.459  29.018  58.105  1.00  0.00    -0.024 C 
HETATM   13  C1  UNL     1      91.243  28.597  57.311  1.00  0.00     0.019 C 
HETATM   14  C3  UNL     1      93.589  29.265  57.134  1.00  0.00     0.019 C 
HETATM   15  C4  UNL     1      92.157  30.379  58.750  1.00  0.00     0.019 C 
ENDBRANCH   9  12
ENDBRANCH   5   6
ENDBRANCH   1   5
BRANCH   3  16
HETATM   16  C11 UNL     1      92.514  22.051  63.118  1.00  0.00     0.047 A 
HETATM   17  C12 UNL     1      91.725  21.436  62.143  1.00  0.00     0.018 A 
HETATM   18  C13 UNL     1      91.367  20.090  62.233  1.00  0.00     0.001 A 
HETATM   19  C14 UNL     1      91.783  19.315  63.296  1.00  0.00     0.001 A 
HETATM   20  C15 UNL     1      92.556  19.900  64.260  1.00  0.00     0.017 A 
HETATM   21  C16 UNL     1      92.915  21.250  64.169  1.00  0.00     0.063 A 
BRANCH  21  22
HETATM   22  C17 UNL     1      93.703  21.797  65.280  1.00  0.00     0.418 C 
HETATM   23  F1  UNL     1      94.010  20.804  66.212  1.00  0.00    -0.166 F 
HETATM   24  F2  UNL     1      93.020  22.773  65.988  1.00  0.00    -0.166 F 
HETATM   25  F3  UNL     1      94.906  22.265  64.816  1.00  0.00    -0.166 F 
ENDBRANCH  21  22
ENDBRANCH   3  16
TORSDOF 5
ENDMDL
