MODEL 5
REMARK VINA RESULT: -7.587237294      5.479      7.532
REMARK  5 active torsions:
REMARK  status: ('A' for Active; 'I' for Inactive)
REMARK    1  A    between atoms: C2_2  and  C5_5 
REMARK    2  A    between atoms: C8_8  and  C9_9 
REMARK    3  A    between atoms: C9_9  and  N1_10 
REMARK       I    between atoms: N1_10  and  C10_12 
REMARK    4  A    between atoms: C10_12  and  C11_14 
REMARK    5  A    between atoms: C16_19  and  C17_20 
ROOT
HETATM    1  N1  UNL     1      93.607  24.005  62.116  1.00  0.00    -0.332 N 
ATOM      2  H1  UNL     1      92.785  23.875  61.527  1.00  0.00     0.168 HD
HETATM    3  C10 UNL     1      93.986  22.911  62.935  1.00  0.00     0.256 C 
HETATM    4  O1  UNL     1      95.009  23.109  63.688  1.00  0.00    -0.267 OA
ENDROOT
BRANCH   1   5
HETATM    5  C9  UNL     1      94.261  25.261  62.037  1.00  0.00     0.102 C 
BRANCH   5   6
HETATM    6  C8  UNL     1      93.875  26.251  61.059  1.00  0.00    -0.021 A 
HETATM    7  C7  UNL     1      92.553  26.725  61.069  1.00  0.00     0.013 A 
HETATM    8  C6  UNL     1      92.080  27.604  60.134  1.00  0.00     0.009 A 
HETATM    9  C5  UNL     1      92.901  28.068  59.123  1.00  0.00    -0.051 A 
HETATM   10  C19 UNL     1      94.212  27.628  59.078  1.00  0.00     0.009 A 
HETATM   11  C18 UNL     1      94.670  26.728  60.050  1.00  0.00     0.013 A 
BRANCH   9  12
HETATM   12  C2  UNL     1      92.317  28.980  58.121  1.00  0.00    -0.024 C 
HETATM   13  C1  UNL     1      93.281  29.341  57.013  1.00  0.00     0.019 C 
HETATM   14  C3  UNL     1      91.843  30.261  58.765  1.00  0.00     0.019 C 
HETATM   15  C4  UNL     1      91.072  28.349  57.479  1.00  0.00     0.019 C 
ENDBRANCH   9  12
ENDBRANCH   5   6
ENDBRANCH   1   5
BRANCH   3  16
HETATM   16  C11 UNL     1      93.347  21.609  63.008  1.00  0.00     0.047 A 
HETATM   17  C12 UNL     1      93.812  20.554  62.219  1.00  0.00     0.018 A 
HETATM   18  C13 UNL     1      93.233  19.287  62.275  1.00  0.00     0.001 A 
HETATM   19  C14 UNL     1      92.172  19.029  63.120  1.00  0.00     0.001 A 
HETATM   20  C15 UNL     1      91.703  20.050  63.900  1.00  0.00     0.017 A 
HETATM   21  C16 UNL     1      92.285  21.320  63.842  1.00  0.00     0.063 A 
BRANCH  21  22
HETATM   22  C17 UNL     1      91.677  22.362  64.680  1.00  0.00     0.418 C 
HETATM   23  F1  UNL     1      90.585  21.857  65.389  1.00  0.00    -0.166 F 
HETATM   24  F2  UNL     1      91.181  23.421  63.937  1.00  0.00    -0.166 F 
HETATM   25  F3  UNL     1      92.576  22.789  65.624  1.00  0.00    -0.166 F 
ENDBRANCH  21  22
ENDBRANCH   3  16
TORSDOF 5
ENDMDL
