MODEL 4
REMARK VINA RESULT: -7.607604344      2.211      2.941
REMARK  5 active torsions:
REMARK  status: ('A' for Active; 'I' for Inactive)
REMARK    1  A    between atoms: C2_2  and  C5_5 
REMARK    2  A    between atoms: C8_8  and  C9_9 
REMARK    3  A    between atoms: C9_9  and  N1_10 
REMARK       I    between atoms: N1_10  and  C10_12 
REMARK    4  A    between atoms: C10_12  and  C11_14 
REMARK    5  A    between atoms: C16_19  and  C17_20 
ROOT
HETATM    1  N1  UNL     1      92.498  22.008  62.024  1.00  0.00    -0.332 N 
ATOM      2  H1  UNL     1      93.060  22.169  61.189  1.00  0.00     0.168 HD
HETATM    3  C10 UNL     1      92.101  20.671  62.280  1.00  0.00     0.256 C 
HETATM    4  O1  UNL     1      91.372  20.498  63.323  1.00  0.00    -0.267 OA
ENDROOT
BRANCH   1   5
HETATM    5  C9  UNL     1      92.189  23.143  62.817  1.00  0.00     0.102 C 
BRANCH   5   6
HETATM    6  C8  UNL     1      93.008  23.520  63.946  1.00  0.00    -0.021 A 
HETATM    7  C7  UNL     1      93.045  22.668  65.062  1.00  0.00     0.013 A 
HETATM    8  C6  UNL     1      93.731  22.982  66.203  1.00  0.00     0.009 A 
HETATM    9  C5  UNL     1      94.426  24.173  66.303  1.00  0.00    -0.051 A 
HETATM   10  C19 UNL     1      94.417  25.039  65.225  1.00  0.00     0.009 A 
HETATM   11  C18 UNL     1      93.707  24.692  64.068  1.00  0.00     0.013 A 
BRANCH   9  12
HETATM   12  C2  UNL     1      95.109  24.470  67.577  1.00  0.00    -0.024 C 
HETATM   13  C1  UNL     1      94.156  24.854  68.686  1.00  0.00     0.019 C 
HETATM   14  C3  UNL     1      96.107  25.591  67.409  1.00  0.00     0.019 C 
HETATM   15  C4  UNL     1      95.921  23.254  68.049  1.00  0.00     0.019 C 
ENDBRANCH   9  12
ENDBRANCH   5   6
ENDBRANCH   1   5
BRANCH   3  16
HETATM   16  C11 UNL     1      92.433  19.494  61.496  1.00  0.00     0.047 A 
HETATM   17  C12 UNL     1      93.525  18.699  61.852  1.00  0.00     0.018 A 
HETATM   18  C13 UNL     1      93.861  17.552  61.132  1.00  0.00     0.001 A 
HETATM   19  C14 UNL     1      93.121  17.162  60.034  1.00  0.00     0.001 A 
HETATM   20  C15 UNL     1      92.050  17.929  59.671  1.00  0.00     0.017 A 
HETATM   21  C16 UNL     1      91.713  19.078  60.394  1.00  0.00     0.063 A 
BRANCH  21  22
HETATM   22  C17 UNL     1      90.576  19.862  59.893  1.00  0.00     0.418 C 
HETATM   23  F1  UNL     1      89.903  19.174  58.882  1.00  0.00    -0.166 F 
HETATM   24  F2  UNL     1      90.967  21.066  59.328  1.00  0.00    -0.166 F 
HETATM   25  F3  UNL     1      89.660  20.053  60.896  1.00  0.00    -0.166 F 
ENDBRANCH  21  22
ENDBRANCH   3  16
TORSDOF 5
ENDMDL
