MODEL 11
REMARK VINA RESULT: -7.196248393      2.094      2.767
REMARK  5 active torsions:
REMARK  status: ('A' for Active; 'I' for Inactive)
REMARK    1  A    between atoms: C2_2  and  C5_5 
REMARK    2  A    between atoms: C8_8  and  C9_9 
REMARK    3  A    between atoms: C9_9  and  N1_10 
REMARK       I    between atoms: N1_10  and  C10_12 
REMARK    4  A    between atoms: C10_12  and  C11_14 
REMARK    5  A    between atoms: C16_19  and  C17_20 
ROOT
HETATM    1  N1  UNL     1      93.432  21.647  62.238  1.00  0.00    -0.332 N 
ATOM      2  H1  UNL     1      93.837  21.820  61.318  1.00  0.00     0.168 HD
HETATM    3  C10 UNL     1      92.903  20.353  62.471  1.00  0.00     0.256 C 
HETATM    4  O1  UNL     1      92.374  20.169  63.628  1.00  0.00    -0.267 OA
ENDROOT
BRANCH   1   5
HETATM    5  C9  UNL     1      93.453  22.725  63.159  1.00  0.00     0.102 C 
BRANCH   5   6
HETATM    6  C8  UNL     1      94.282  22.691  64.341  1.00  0.00    -0.021 A 
HETATM    7  C7  UNL     1      95.648  22.401  64.194  1.00  0.00     0.013 A 
HETATM    8  C6  UNL     1      96.491  22.272  65.264  1.00  0.00     0.009 A 
HETATM    9  C5  UNL     1      96.021  22.424  66.555  1.00  0.00    -0.051 A 
HETATM   10  C19 UNL     1      94.682  22.712  66.744  1.00  0.00     0.009 A 
HETATM   11  C18 UNL     1      93.841  22.840  65.630  1.00  0.00     0.013 A 
BRANCH   9  12
HETATM   12  C2  UNL     1      96.974  22.229  67.665  1.00  0.00    -0.024 C 
HETATM   13  C1  UNL     1      96.997  20.810  68.186  1.00  0.00     0.019 C 
HETATM   14  C3  UNL     1      96.654  23.146  68.822  1.00  0.00     0.019 C 
HETATM   15  C4  UNL     1      98.398  22.595  67.222  1.00  0.00     0.019 C 
ENDBRANCH   9  12
ENDBRANCH   5   6
ENDBRANCH   1   5
BRANCH   3  16
HETATM   16  C11 UNL     1      92.899  19.229  61.551  1.00  0.00     0.047 A 
HETATM   17  C12 UNL     1      93.922  18.280  61.599  1.00  0.00     0.018 A 
HETATM   18  C13 UNL     1      93.941  17.179  60.741  1.00  0.00     0.001 A 
HETATM   19  C14 UNL     1      92.941  16.990  59.809  1.00  0.00     0.001 A 
HETATM   20  C15 UNL     1      91.932  17.910  59.747  1.00  0.00     0.017 A 
HETATM   21  C16 UNL     1      91.915  19.013  60.608  1.00  0.00     0.063 A 
BRANCH  21  22
HETATM   22  C17 UNL     1      90.816  19.971  60.427  1.00  0.00     0.418 C 
HETATM   23  F1  UNL     1      89.834  19.451  59.582  1.00  0.00    -0.166 F 
HETATM   24  F2  UNL     1      91.231  21.152  59.834  1.00  0.00    -0.166 F 
HETATM   25  F3  UNL     1      90.196  20.205  61.628  1.00  0.00    -0.166 F 
ENDBRANCH  21  22
ENDBRANCH   3  16
TORSDOF 5
ENDMDL
