MODEL 5
REMARK VINA RESULT: -9.137260612      2.870      5.522
REMARK  5 active torsions:
REMARK  status: ('A' for Active; 'I' for Inactive)
REMARK    1  A    between atoms: C2_5  and  N3_6 
REMARK    2  A    between atoms: N3_6  and  C3_8 
REMARK    3  A    between atoms: N5_16  and  C9_17 
REMARK    4  A    between atoms: C11_19  and  N6_20 
REMARK    5  A    between atoms: N6_20  and  C12_22 
ROOT
HETATM    1  N1  UNL     1      10.785  11.209   1.152  1.00  0.00    -0.061 NA
HETATM    2  C1  UNL     1      11.922  10.668   1.835  1.00  0.00     0.230 A 
HETATM    3  N2  UNL     1      12.272   9.379   1.902  1.00  0.00    -0.160 N 
ATOM      4  H2  UNL     1      11.774   8.599   1.473  1.00  0.00     0.187 HD
HETATM    5  C2  UNL     1      13.383   9.291   2.626  1.00  0.00     0.700 A 
HETATM    6  N4  UNL     1      13.684  10.571   2.988  1.00  0.00    -0.121 N 
ATOM      7  H4  UNL     1      14.491  10.833   3.555  1.00  0.00     0.206 HD
HETATM    8  N5  UNL     1      12.805  11.419   2.516  1.00  0.00    -0.196 N 
ENDROOT
BRANCH   8   9
HETATM    9  C9  UNL     1      12.738  12.837   2.653  1.00  0.00     0.135 A 
HETATM   10  C10 UNL     1      13.808  13.586   3.061  1.00  0.00     0.099 A 
HETATM   11  C11 UNL     1      13.757  14.985   3.201  1.00  0.00     0.110 A 
HETATM   12  N7  UNL     1      12.584  15.544   2.908  1.00  0.00    -0.338 N 
HETATM   13  C18 UNL     1      11.531  14.849   2.512  1.00  0.00     0.183 A 
ATOM     14  H7  UNL     1      12.494  16.557   2.994  1.00  0.00     0.168 HD
HETATM   15  N8  UNL     1      11.603  13.521   2.385  1.00  0.00    -0.337 N 
ATOM     16  H8  UNL     1      10.777  13.008   2.078  1.00  0.00     0.168 HD
BRANCH  11  17
HETATM   17  N6  UNL     1      14.914  15.684   3.630  1.00  0.00    -0.342 N 
ATOM     18  H6  UNL     1      14.940  16.686   3.443  1.00  0.00     0.167 HD
BRANCH  17  19
HETATM   19  C12 UNL     1      16.028  15.134   4.286  1.00  0.00     0.033 A 
HETATM   20  C13 UNL     1      16.213  15.483   5.632  1.00  0.00     0.029 A 
HETATM   21  C14 UNL     1      17.248  15.025   6.399  1.00  0.00     0.002 A 
HETATM   22  C15 UNL     1      18.151  14.178   5.807  1.00  0.00     0.000 A 
HETATM   23  C16 UNL     1      18.004  13.812   4.494  1.00  0.00     0.002 A 
HETATM   24  C17 UNL     1      16.954  14.290   3.752  1.00  0.00     0.029 A 
ENDBRANCH  17  19
ENDBRANCH  11  17
ENDBRANCH   8   9
BRANCH   5  25
HETATM   25  N3  UNL     1      14.187   8.207   3.019  1.00  0.00    -0.190 N 
ATOM     26  H3  UNL     1      13.994   7.291   2.615  1.00  0.00     0.184 HD
BRANCH  25  27
HETATM   27  C3  UNL     1      15.246   8.320   3.939  1.00  0.00     0.049 A 
HETATM   28  C4  UNL     1      15.874   7.148   4.383  1.00  0.00     0.030 A 
HETATM   29  C5  UNL     1      16.894   7.195   5.266  1.00  0.00     0.002 A 
HETATM   30  C6  UNL     1      17.362   8.386   5.768  1.00  0.00     0.000 A 
HETATM   31  C7  UNL     1      16.776   9.557   5.361  1.00  0.00     0.002 A 
HETATM   32  C8  UNL     1      15.734   9.487   4.458  1.00  0.00     0.030 A 
ENDBRANCH  25  27
ENDBRANCH   5  25
TORSDOF 5
ENDMDL
