MODEL 3
REMARK VINA RESULT: -9.203265988      2.130      5.920
REMARK  5 active torsions:
REMARK  status: ('A' for Active; 'I' for Inactive)
REMARK    1  A    between atoms: C2_5  and  N3_6 
REMARK    2  A    between atoms: N3_6  and  C3_8 
REMARK    3  A    between atoms: N5_16  and  C9_17 
REMARK    4  A    between atoms: C11_19  and  N6_20 
REMARK    5  A    between atoms: N6_20  and  C12_22 
ROOT
HETATM    1  N1  UNL     1      19.730   9.396   4.943  1.00  0.00    -0.061 NA
HETATM    2  C1  UNL     1      18.938  10.513   5.364  1.00  0.00     0.230 A 
HETATM    3  N2  UNL     1      19.390  11.656   5.894  1.00  0.00    -0.160 N 
ATOM      4  H2  UNL     1      20.367  11.889   6.072  1.00  0.00     0.187 HD
HETATM    5  C2  UNL     1      18.343  12.433   6.149  1.00  0.00     0.700 A 
HETATM    6  N4  UNL     1      17.252  11.717   5.753  1.00  0.00    -0.121 N 
ATOM      7  H4  UNL     1      16.290  12.050   5.821  1.00  0.00     0.206 HD
HETATM    8  N5  UNL     1      17.597  10.548   5.274  1.00  0.00    -0.196 N 
ENDROOT
BRANCH   8   9
HETATM    9  C9  UNL     1      16.786   9.497   4.756  1.00  0.00     0.135 A 
HETATM   10  C10 UNL     1      15.904   9.691   3.727  1.00  0.00     0.099 A 
HETATM   11  C11 UNL     1      15.097   8.663   3.204  1.00  0.00     0.110 A 
HETATM   12  N7  UNL     1      15.245   7.472   3.782  1.00  0.00    -0.338 N 
HETATM   13  C18 UNL     1      16.087   7.253   4.778  1.00  0.00     0.183 A 
ATOM     14  H7  UNL     1      14.682   6.693   3.441  1.00  0.00     0.168 HD
HETATM   15  N8  UNL     1      16.845   8.243   5.258  1.00  0.00    -0.337 N 
ATOM     16  H8  UNL     1      17.486   8.047   6.026  1.00  0.00     0.168 HD
BRANCH  11  17
HETATM   17  N6  UNL     1      14.209   8.951   2.136  1.00  0.00    -0.342 N 
ATOM     18  H6  UNL     1      14.264   8.346   1.318  1.00  0.00     0.167 HD
BRANCH  17  19
HETATM   19  C12 UNL     1      13.262   9.988   2.094  1.00  0.00     0.033 A 
HETATM   20  C13 UNL     1      12.238   9.879   1.140  1.00  0.00     0.029 A 
HETATM   21  C14 UNL     1      11.246  10.806   0.981  1.00  0.00     0.002 A 
HETATM   22  C15 UNL     1      11.264  11.902   1.808  1.00  0.00     0.000 A 
HETATM   23  C16 UNL     1      12.247  12.045   2.753  1.00  0.00     0.002 A 
HETATM   24  C17 UNL     1      13.228  11.095   2.885  1.00  0.00     0.029 A 
ENDBRANCH  17  19
ENDBRANCH  11  17
ENDBRANCH   8   9
BRANCH   5  25
HETATM   25  N3  UNL     1      18.218  13.722   6.697  1.00  0.00    -0.190 N 
ATOM     26  H3  UNL     1      18.217  13.817   7.712  1.00  0.00     0.184 HD
BRANCH  25  27
HETATM   27  C3  UNL     1      18.094  14.887   5.917  1.00  0.00     0.049 A 
HETATM   28  C4  UNL     1      19.170  15.784   5.880  1.00  0.00     0.030 A 
HETATM   29  C5  UNL     1      19.108  16.918   5.150  1.00  0.00     0.002 A 
HETATM   30  C6  UNL     1      17.995  17.244   4.414  1.00  0.00     0.000 A 
HETATM   31  C7  UNL     1      16.918  16.394   4.421  1.00  0.00     0.002 A 
HETATM   32  C8  UNL     1      17.002  15.240   5.174  1.00  0.00     0.030 A 
ENDBRANCH  25  27
ENDBRANCH   5  25
TORSDOF 5
ENDMDL
