MODEL 1
REMARK VINA RESULT: -9.244693353      0.000      0.000
REMARK  5 active torsions:
REMARK  status: ('A' for Active; 'I' for Inactive)
REMARK    1  A    between atoms: C2_5  and  N3_6 
REMARK    2  A    between atoms: N3_6  and  C3_8 
REMARK    3  A    between atoms: N5_16  and  C9_17 
REMARK    4  A    between atoms: C11_19  and  N6_20 
REMARK    5  A    between atoms: N6_20  and  C12_22 
ROOT
HETATM    1  N1  UNL     1      20.597  13.990   5.291  1.00  0.00    -0.061 NA
HETATM    2  C1  UNL     1      19.573  13.020   5.542  1.00  0.00     0.230 A 
HETATM    3  N2  UNL     1      19.745  11.791   6.042  1.00  0.00    -0.160 N 
ATOM      4  H2  UNL     1      20.635  11.373   6.315  1.00  0.00     0.187 HD
HETATM    5  C2  UNL     1      18.553  11.208   6.121  1.00  0.00     0.700 A 
HETATM    6  N4  UNL     1      17.665  12.130   5.652  1.00  0.00    -0.121 N 
ATOM      7  H4  UNL     1      16.658  11.977   5.587  1.00  0.00     0.206 HD
HETATM    8  N5  UNL     1      18.269  13.236   5.296  1.00  0.00    -0.196 N 
ENDROOT
BRANCH   8   9
HETATM    9  C9  UNL     1      17.728  14.441   4.759  1.00  0.00     0.135 A 
HETATM   10  C10 UNL     1      16.674  14.446   3.885  1.00  0.00     0.099 A 
HETATM   11  C11 UNL     1      16.130  15.627   3.348  1.00  0.00     0.110 A 
HETATM   12  N7  UNL     1      16.713  16.756   3.745  1.00  0.00    -0.338 N 
HETATM   13  C18 UNL     1      17.733  16.785   4.587  1.00  0.00     0.183 A 
ATOM     14  H7  UNL     1      16.356  17.641   3.384  1.00  0.00     0.168 HD
HETATM   15  N8  UNL     1      18.233  15.651   5.086  1.00  0.00    -0.337 N 
ATOM     16  H8  UNL     1      19.019  15.701   5.734  1.00  0.00     0.168 HD
BRANCH  11  17
HETATM   17  N6  UNL     1      15.036  15.541   2.448  1.00  0.00    -0.342 N 
ATOM     18  H6  UNL     1      14.977  16.261   1.728  1.00  0.00     0.167 HD
BRANCH  17  19
HETATM   19  C12 UNL     1      14.026  14.565   2.450  1.00  0.00     0.033 A 
HETATM   20  C13 UNL     1      12.860  14.850   1.724  1.00  0.00     0.029 A 
HETATM   21  C14 UNL     1      11.795  13.997   1.633  1.00  0.00     0.002 A 
HETATM   22  C15 UNL     1      11.884  12.798   2.295  1.00  0.00     0.000 A 
HETATM   23  C16 UNL     1      13.007  12.482   3.014  1.00  0.00     0.002 A 
HETATM   24  C17 UNL     1      14.058  13.361   3.085  1.00  0.00     0.029 A 
ENDBRANCH  17  19
ENDBRANCH  11  17
ENDBRANCH   8   9
BRANCH   5  25
HETATM   25  N3  UNL     1      18.134   9.941   6.563  1.00  0.00    -0.190 N 
ATOM     26  H3  UNL     1      18.429   9.631   7.489  1.00  0.00     0.184 HD
BRANCH  25  27
HETATM   27  C3  UNL     1      17.330   9.078   5.795  1.00  0.00     0.049 A 
HETATM   28  C4  UNL     1      17.538   7.697   5.905  1.00  0.00     0.030 A 
HETATM   29  C5  UNL     1      16.796   6.822   5.192  1.00  0.00     0.002 A 
HETATM   30  C6  UNL     1      15.811   7.242   4.332  1.00  0.00     0.000 A 
HETATM   31  C7  UNL     1      15.573   8.585   4.194  1.00  0.00     0.002 A 
HETATM   32  C8  UNL     1      16.343   9.463   4.931  1.00  0.00     0.030 A 
ENDBRANCH  25  27
ENDBRANCH   5  25
TORSDOF 5
ENDMDL
