MODEL 7
REMARK VINA RESULT: -8.989218135      2.669      5.419
REMARK  5 active torsions:
REMARK  status: ('A' for Active; 'I' for Inactive)
REMARK    1  A    between atoms: C2_5  and  N3_6 
REMARK    2  A    between atoms: N3_6  and  C3_8 
REMARK    3  A    between atoms: N5_16  and  C9_17 
REMARK    4  A    between atoms: C11_19  and  N6_20 
REMARK    5  A    between atoms: N6_20  and  C12_22 
ROOT
HETATM    1  N1  UNL     1      11.115  11.562   1.762  1.00  0.00    -0.061 NA
HETATM    2  C1  UNL     1      12.263  10.896   2.300  1.00  0.00     0.230 A 
HETATM    3  N2  UNL     1      12.489   9.577   2.306  1.00  0.00    -0.160 N 
ATOM      4  H2  UNL     1      11.869   8.861   1.927  1.00  0.00     0.187 HD
HETATM    5  C2  UNL     1      13.661   9.363   2.894  1.00  0.00     0.700 A 
HETATM    6  N4  UNL     1      14.128  10.597   3.237  1.00  0.00    -0.121 N 
ATOM      7  H4  UNL     1      15.017  10.764   3.709  1.00  0.00     0.206 HD
HETATM    8  N5  UNL     1      13.290  11.539   2.883  1.00  0.00    -0.196 N 
ENDROOT
BRANCH   8   9
HETATM    9  C9  UNL     1      13.380  12.952   3.048  1.00  0.00     0.135 A 
HETATM   10  C10 UNL     1      14.147  13.529   4.024  1.00  0.00     0.099 A 
HETATM   11  C11 UNL     1      14.246  14.921   4.199  1.00  0.00     0.110 A 
HETATM   12  N7  UNL     1      13.537  15.656   3.344  1.00  0.00    -0.338 N 
HETATM   13  C18 UNL     1      12.786  15.129   2.390  1.00  0.00     0.183 A 
ATOM     14  H7  UNL     1      13.574  16.672   3.428  1.00  0.00     0.168 HD
HETATM   15  N8  UNL     1      12.707  13.804   2.242  1.00  0.00    -0.337 N 
ATOM     16  H8  UNL     1      12.122  13.423   1.499  1.00  0.00     0.168 HD
BRANCH  11  17
HETATM   17  N6  UNL     1      15.064  15.435   5.238  1.00  0.00    -0.342 N 
ATOM     18  H6  UNL     1      14.595  15.699   6.104  1.00  0.00     0.167 HD
BRANCH  17  19
HETATM   19  C12 UNL     1      16.457  15.618   5.193  1.00  0.00     0.033 A 
HETATM   20  C13 UNL     1      16.924  16.880   4.793  1.00  0.00     0.029 A 
HETATM   21  C14 UNL     1      18.248  17.205   4.703  1.00  0.00     0.002 A 
HETATM   22  C15 UNL     1      19.164  16.234   5.023  1.00  0.00     0.000 A 
HETATM   23  C16 UNL     1      18.748  14.989   5.419  1.00  0.00     0.002 A 
HETATM   24  C17 UNL     1      17.410  14.695   5.498  1.00  0.00     0.029 A 
ENDBRANCH  17  19
ENDBRANCH  11  17
ENDBRANCH   8   9
BRANCH   5  25
HETATM   25  N3  UNL     1      14.393   8.195   3.174  1.00  0.00    -0.190 N 
ATOM     26  H3  UNL     1      14.146   7.340   2.676  1.00  0.00     0.184 HD
BRANCH  25  27
HETATM   27  C3  UNL     1      15.448   8.146   4.104  1.00  0.00     0.049 A 
HETATM   28  C4  UNL     1      15.995   6.897   4.427  1.00  0.00     0.030 A 
HETATM   29  C5  UNL     1      17.008   6.788   5.313  1.00  0.00     0.002 A 
HETATM   30  C6  UNL     1      17.546   7.889   5.936  1.00  0.00     0.000 A 
HETATM   31  C7  UNL     1      17.040   9.131   5.649  1.00  0.00     0.002 A 
HETATM   32  C8  UNL     1      16.004   9.220   4.740  1.00  0.00     0.030 A 
ENDBRANCH  25  27
ENDBRANCH   5  25
TORSDOF 5
ENDMDL
