MODEL 2
REMARK VINA RESULT: -9.241112060      4.252      9.550
REMARK  5 active torsions:
REMARK  status: ('A' for Active; 'I' for Inactive)
REMARK    1  A    between atoms: C2_5  and  N3_6 
REMARK    2  A    between atoms: N3_6  and  C3_8 
REMARK    3  A    between atoms: N5_16  and  C9_17 
REMARK    4  A    between atoms: C11_19  and  N6_20 
REMARK    5  A    between atoms: N6_20  and  C12_22 
ROOT
HETATM    1  N1  UNL     1      17.435   9.367   6.082  1.00  0.00    -0.061 NA
HETATM    2  C1  UNL     1      16.548   8.750   5.141  1.00  0.00     0.230 A 
HETATM    3  N2  UNL     1      15.612   9.363   4.408  1.00  0.00    -0.160 N 
ATOM      4  H2  UNL     1      15.401  10.361   4.418  1.00  0.00     0.187 HD
HETATM    5  C2  UNL     1      15.006   8.445   3.663  1.00  0.00     0.700 A 
HETATM    6  N4  UNL     1      15.611   7.265   3.975  1.00  0.00    -0.121 N 
ATOM      7  H4  UNL     1      15.363   6.365   3.563  1.00  0.00     0.206 HD
HETATM    8  N5  UNL     1      16.550   7.432   4.872  1.00  0.00    -0.196 N 
ENDROOT
BRANCH   8   9
HETATM    9  C9  UNL     1      17.420   6.477   5.476  1.00  0.00     0.135 A 
HETATM   10  C10 UNL     1      18.065   5.512   4.750  1.00  0.00     0.099 A 
HETATM   11  C11 UNL     1      18.927   4.563   5.331  1.00  0.00     0.110 A 
HETATM   12  N7  UNL     1      19.077   4.662   6.650  1.00  0.00    -0.338 N 
HETATM   13  C18 UNL     1      18.468   5.582   7.380  1.00  0.00     0.183 A 
ATOM     14  H7  UNL     1      19.691   3.997   7.121  1.00  0.00     0.168 HD
HETATM   15  N8  UNL     1      17.655   6.474   6.807  1.00  0.00    -0.337 N 
ATOM     16  H8  UNL     1      17.198   7.173   7.391  1.00  0.00     0.168 HD
BRANCH  11  17
HETATM   17  N6  UNL     1      19.555   3.597   4.504  1.00  0.00    -0.342 N 
ATOM     18  H6  UNL     1      19.073   2.705   4.393  1.00  0.00     0.167 HD
BRANCH  17  19
HETATM   19  C12 UNL     1      20.775   3.745   3.823  1.00  0.00     0.033 A 
HETATM   20  C13 UNL     1      21.025   2.863   2.761  1.00  0.00     0.029 A 
HETATM   21  C14 UNL     1      22.165   2.887   2.007  1.00  0.00     0.002 A 
HETATM   22  C15 UNL     1      23.111   3.832   2.316  1.00  0.00     0.000 A 
HETATM   23  C16 UNL     1      22.903   4.713   3.347  1.00  0.00     0.002 A 
HETATM   24  C17 UNL     1      21.748   4.661   4.084  1.00  0.00     0.029 A 
ENDBRANCH  17  19
ENDBRANCH  11  17
ENDBRANCH   8   9
BRANCH   5  25
HETATM   25  N3  UNL     1      13.965   8.512   2.720  1.00  0.00    -0.190 N 
ATOM     26  H3  UNL     1      13.741   7.671   2.187  1.00  0.00     0.184 HD
BRANCH  25  27
HETATM   27  C3  UNL     1      13.216   9.678   2.473  1.00  0.00     0.049 A 
HETATM   28  C4  UNL     1      12.235   9.642   1.473  1.00  0.00     0.030 A 
HETATM   29  C5  UNL     1      11.486  10.730   1.192  1.00  0.00     0.002 A 
HETATM   30  C6  UNL     1      11.649  11.914   1.868  1.00  0.00     0.000 A 
HETATM   31  C7  UNL     1      12.598  11.994   2.855  1.00  0.00     0.002 A 
HETATM   32  C8  UNL     1      13.354  10.870   3.127  1.00  0.00     0.030 A 
ENDBRANCH  25  27
ENDBRANCH   5  25
TORSDOF 5
ENDMDL
