MODEL 10
REMARK VINA RESULT: -8.173550209      2.875      5.812
REMARK  6 active torsions:
REMARK  status: ('A' for Active; 'I' for Inactive)
REMARK    1  A    between atoms: C2_2  and  N1_4 
REMARK    2  A    between atoms: C2_2  and  C15_27 
REMARK    3  A    between atoms: N1_4  and  C4_6 
REMARK    4  A    between atoms: C5_9  and  C6_10 
REMARK       I    between atoms: C15_27  and  N6_29 
REMARK    5  A    between atoms: N6_29  and  C16_31 
REMARK    6  A    between atoms: C16_31  and  C17_32 
ROOT
HETATM    1  C4  UNL     1      16.751  13.405   4.260  1.00  0.00     0.144 A 
HETATM    2  N2  UNL     1      15.574  14.098   4.301  1.00  0.00    -0.326 N 
ATOM      3  H2  UNL     1      14.707  13.617   4.062  1.00  0.00     0.169 HD
HETATM    4  C5  UNL     1      15.529  15.391   4.646  1.00  0.00     0.119 A 
HETATM    5  N5  UNL     1      16.695  15.998   4.955  1.00  0.00    -0.348 N 
ATOM      6  H5  UNL     1      16.679  16.983   5.220  1.00  0.00     0.167 HD
HETATM    7  C13 UNL     1      17.874  15.359   4.928  1.00  0.00     0.136 A 
HETATM    8  C14 UNL     1      17.940  14.029   4.576  1.00  0.00     0.175 A 
HETATM    9  F1  UNL     1      19.121  13.350   4.539  1.00  0.00    -0.201 F 
ENDROOT
BRANCH   1  10
HETATM   10  N1  UNL     1      16.778  12.041   3.892  1.00  0.00    -0.356 N 
ATOM     11  H1  UNL     1      17.247  11.802   3.018  1.00  0.00     0.162 HD
BRANCH  10  12
HETATM   12  C2  UNL     1      16.203  10.969   4.642  1.00  0.00     0.105 C 
HETATM   13  C1  UNL     1      16.455  11.208   6.134  1.00  0.00     0.048 C 
HETATM   14  C3  UNL     1      16.752   9.607   4.239  1.00  0.00     0.048 C 
BRANCH  12  15
HETATM   15  C15 UNL     1      14.733  10.910   4.471  1.00  0.00     0.245 C 
HETATM   16  O1  UNL     1      14.025  11.534   5.290  1.00  0.00    -0.271 OA
HETATM   17  N6  UNL     1      14.129  10.177   3.422  1.00  0.00    -0.350 N 
ATOM     18  H6  UNL     1      14.711   9.669   2.755  1.00  0.00     0.162 HD
BRANCH  17  19
HETATM   19  C16 UNL     1      12.687  10.146   3.295  1.00  0.00     0.240 C 
BRANCH  19  20
HETATM   20  C17 UNL     1      12.189  11.359   2.541  1.00  0.00     0.403 C 
HETATM   21  F2  UNL     1      11.433  10.971   1.451  1.00  0.00    -0.169 F 
HETATM   22  F3  UNL     1      13.222  12.129   2.043  1.00  0.00    -0.169 F 
HETATM   23  F4  UNL     1      11.450  12.175   3.376  1.00  0.00    -0.169 F 
ENDBRANCH  19  20
ENDBRANCH  17  19
ENDBRANCH  12  15
ENDBRANCH  10  12
ENDBRANCH   1  10
BRANCH   4  24
HETATM   24  C6  UNL     1      14.278  16.159   4.690  1.00  0.00     0.037 A 
HETATM   25  C7  UNL     1      13.963  17.183   5.575  1.00  0.00     0.106 A 
HETATM   26  N3  UNL     1      12.745  17.655   5.322  1.00  0.00    -0.351 N 
HETATM   27  C8  UNL     1      12.226  16.977   4.288  1.00  0.00     0.116 A 
ATOM     28  H3  UNL     1      12.283  18.408   5.831  1.00  0.00     0.166 HD
HETATM   29  N4  UNL     1      11.046  17.069   3.654  1.00  0.00    -0.350 N 
HETATM   30  C12 UNL     1      13.163  16.048   3.888  1.00  0.00     0.025 A 
HETATM   31  C9  UNL     1      10.722  16.289   2.631  1.00  0.00     0.113 A 
ATOM     32  H4  UNL     1      10.372  17.766   3.971  1.00  0.00     0.166 HD
HETATM   33  C10 UNL     1      11.624  15.350   2.199  1.00  0.00     0.050 A 
HETATM   34 CL1  UNL     1      11.166  14.340   0.845  1.00  0.00    -0.083 Cl
HETATM   35  C11 UNL     1      12.853  15.229   2.832  1.00  0.00     0.041 A 
ENDBRANCH   4  24
TORSDOF 6
ENDMDL
