MODEL 7
REMARK VINA RESULT: -8.274205226      1.783      2.013
REMARK  6 active torsions:
REMARK  status: ('A' for Active; 'I' for Inactive)
REMARK    1  A    between atoms: C2_2  and  N1_4 
REMARK    2  A    between atoms: C2_2  and  C15_27 
REMARK    3  A    between atoms: N1_4  and  C4_6 
REMARK    4  A    between atoms: C5_9  and  C6_10 
REMARK       I    between atoms: C15_27  and  N6_29 
REMARK    5  A    between atoms: N6_29  and  C16_31 
REMARK    6  A    between atoms: C16_31  and  C17_32 
ROOT
HETATM    1  C4  UNL     1      13.221  15.953   3.907  1.00  0.00     0.144 A 
HETATM    2  N2  UNL     1      13.166  14.671   3.436  1.00  0.00    -0.326 N 
ATOM      3  H2  UNL     1      14.034  14.147   3.324  1.00  0.00     0.169 HD
HETATM    4  C5  UNL     1      12.004  14.086   3.116  1.00  0.00     0.119 A 
HETATM    5  N5  UNL     1      10.875  14.810   3.274  1.00  0.00    -0.348 N 
ATOM      6  H5  UNL     1       9.982  14.380   3.035  1.00  0.00     0.167 HD
HETATM    7  C13 UNL     1      10.880  16.070   3.731  1.00  0.00     0.136 A 
HETATM    8  C14 UNL     1      12.065  16.688   4.066  1.00  0.00     0.175 A 
HETATM    9  F1  UNL     1      12.105  17.967   4.535  1.00  0.00    -0.201 F 
ENDROOT
BRANCH   1  10
HETATM   10  N1  UNL     1      14.457  16.552   4.237  1.00  0.00    -0.356 N 
ATOM     11  H1  UNL     1      14.897  17.139   3.527  1.00  0.00     0.162 HD
BRANCH  10  12
HETATM   12  C2  UNL     1      15.142  16.406   5.482  1.00  0.00     0.105 C 
HETATM   13  C1  UNL     1      14.159  15.895   6.540  1.00  0.00     0.048 C 
HETATM   14  C3  UNL     1      15.782  17.703   5.959  1.00  0.00     0.048 C 
BRANCH  12  15
HETATM   15  C15 UNL     1      16.223  15.398   5.396  1.00  0.00     0.245 C 
HETATM   16  O1  UNL     1      17.402  15.809   5.343  1.00  0.00    -0.271 OA
HETATM   17  N6  UNL     1      15.953  14.009   5.373  1.00  0.00    -0.350 N 
ATOM     18  H6  UNL     1      14.990  13.677   5.417  1.00  0.00     0.162 HD
BRANCH  17  19
HETATM   19  C16 UNL     1      17.042  13.059   5.287  1.00  0.00     0.240 C 
BRANCH  19  20
HETATM   20  C17 UNL     1      17.369  12.746   3.843  1.00  0.00     0.403 C 
HETATM   21  F2  UNL     1      16.291  13.041   3.031  1.00  0.00    -0.169 F 
HETATM   22  F3  UNL     1      17.650  11.408   3.646  1.00  0.00    -0.169 F 
HETATM   23  F4  UNL     1      18.486  13.452   3.439  1.00  0.00    -0.169 F 
ENDBRANCH  19  20
ENDBRANCH  17  19
ENDBRANCH  12  15
ENDBRANCH  10  12
ENDBRANCH   1  10
BRANCH   4  24
HETATM   24  C6  UNL     1      11.921  12.714   2.601  1.00  0.00     0.037 A 
HETATM   25  C7  UNL     1      11.070  12.251   1.604  1.00  0.00     0.106 A 
HETATM   26  N3  UNL     1      11.270  10.953   1.391  1.00  0.00    -0.351 N 
HETATM   27  C8  UNL     1      12.235  10.524   2.217  1.00  0.00     0.116 A 
ATOM     28  H3  UNL     1      10.772  10.380   0.711  1.00  0.00     0.166 HD
HETATM   29  N4  UNL     1      12.798   9.318   2.391  1.00  0.00    -0.350 N 
HETATM   30  C12 UNL     1      12.646  11.602   2.972  1.00  0.00     0.025 A 
HETATM   31  C9  UNL     1      13.759   9.100   3.279  1.00  0.00     0.113 A 
ATOM     32  H4  UNL     1      12.475   8.538   1.818  1.00  0.00     0.166 HD
HETATM   33  C10 UNL     1      14.200  10.143   4.052  1.00  0.00     0.050 A 
HETATM   34 CL1  UNL     1      15.471   9.822   5.211  1.00  0.00    -0.083 Cl
HETATM   35  C11 UNL     1      13.640  11.403   3.897  1.00  0.00     0.041 A 
ENDBRANCH   4  24
TORSDOF 6
ENDMDL
