MODEL 13
REMARK VINA RESULT: -8.107495311      2.961      4.493
REMARK  6 active torsions:
REMARK  status: ('A' for Active; 'I' for Inactive)
REMARK    1  A    between atoms: C2_2  and  N1_4 
REMARK    2  A    between atoms: C2_2  and  C15_27 
REMARK    3  A    between atoms: N1_4  and  C4_6 
REMARK    4  A    between atoms: C5_9  and  C6_10 
REMARK       I    between atoms: C15_27  and  N6_29 
REMARK    5  A    between atoms: N6_29  and  C16_31 
REMARK    6  A    between atoms: C16_31  and  C17_32 
ROOT
HETATM    1  C4  UNL     1      14.061  16.340   4.252  1.00  0.00     0.144 A 
HETATM    2  N2  UNL     1      13.223  15.344   3.838  1.00  0.00    -0.326 N 
ATOM      3  H2  UNL     1      12.257  15.339   4.166  1.00  0.00     0.169 HD
HETATM    4  C5  UNL     1      13.635  14.372   3.012  1.00  0.00     0.119 A 
HETATM    5  N5  UNL     1      14.920  14.407   2.597  1.00  0.00    -0.348 N 
ATOM      6  H5  UNL     1      15.250  13.675   1.969  1.00  0.00     0.167 HD
HETATM    7  C13 UNL     1      15.779  15.363   2.978  1.00  0.00     0.136 A 
HETATM    8  C14 UNL     1      15.372  16.370   3.826  1.00  0.00     0.175 A 
HETATM    9  F1  UNL     1      16.220  17.358   4.231  1.00  0.00    -0.201 F 
ENDROOT
BRANCH   1  10
HETATM   10  N1  UNL     1      13.607  17.354   5.124  1.00  0.00    -0.356 N 
ATOM     11  H1  UNL     1      13.021  18.087   4.725  1.00  0.00     0.162 HD
BRANCH  10  12
HETATM   12  C2  UNL     1      13.902  17.439   6.520  1.00  0.00     0.105 C 
HETATM   13  C1  UNL     1      14.276  16.047   7.040  1.00  0.00     0.048 C 
HETATM   14  C3  UNL     1      12.743  17.997   7.335  1.00  0.00     0.048 C 
BRANCH  12  15
HETATM   15  C15 UNL     1      15.071  18.310   6.780  1.00  0.00     0.245 C 
HETATM   16  O1  UNL     1      16.059  17.804   7.355  1.00  0.00    -0.271 OA
HETATM   17  N6  UNL     1      15.090  19.672   6.399  1.00  0.00    -0.350 N 
ATOM     18  H6  UNL     1      14.282  20.082   5.930  1.00  0.00     0.162 HD
BRANCH  17  19
HETATM   19  C16 UNL     1      16.255  20.487   6.674  1.00  0.00     0.240 C 
BRANCH  19  20
HETATM   20  C17 UNL     1      16.156  21.822   5.969  1.00  0.00     0.403 C 
HETATM   21  F2  UNL     1      16.028  22.844   6.891  1.00  0.00    -0.169 F 
HETATM   22  F3  UNL     1      15.049  21.900   5.146  1.00  0.00    -0.169 F 
HETATM   23  F4  UNL     1      17.263  22.027   5.170  1.00  0.00    -0.169 F 
ENDBRANCH  19  20
ENDBRANCH  17  19
ENDBRANCH  12  15
ENDBRANCH  10  12
ENDBRANCH   1  10
BRANCH   4  24
HETATM   24  C6  UNL     1      12.755  13.287   2.559  1.00  0.00     0.037 A 
HETATM   25  C7  UNL     1      11.551  13.424   1.880  1.00  0.00     0.106 A 
HETATM   26  N3  UNL     1      11.025  12.228   1.625  1.00  0.00    -0.351 N 
HETATM   27  C8  UNL     1      11.843  11.284   2.113  1.00  0.00     0.116 A 
ATOM     28  H3  UNL     1      10.146  12.058   1.139  1.00  0.00     0.166 HD
HETATM   29  N4  UNL     1      11.771   9.944   2.112  1.00  0.00    -0.350 N 
HETATM   30  C12 UNL     1      12.917  11.926   2.694  1.00  0.00     0.025 A 
HETATM   31  C9  UNL     1      12.706   9.178   2.658  1.00  0.00     0.113 A 
ATOM     32  H4  UNL     1      10.965   9.497   1.674  1.00  0.00     0.166 HD
HETATM   33  C10 UNL     1      13.793   9.772   3.247  1.00  0.00     0.050 A 
HETATM   34 CL1  UNL     1      15.009   8.732   3.955  1.00  0.00    -0.083 Cl
HETATM   35  C11 UNL     1      13.899  11.155   3.265  1.00  0.00     0.041 A 
ENDBRANCH   4  24
TORSDOF 6
ENDMDL
