MODEL 1
REMARK VINA RESULT: -8.728777641      0.000      0.000
REMARK  6 active torsions:
REMARK  status: ('A' for Active; 'I' for Inactive)
REMARK    1  A    between atoms: C2_2  and  N1_4 
REMARK    2  A    between atoms: C2_2  and  C15_27 
REMARK    3  A    between atoms: N1_4  and  C4_6 
REMARK    4  A    between atoms: C5_9  and  C6_10 
REMARK       I    between atoms: C15_27  and  N6_29 
REMARK    5  A    between atoms: N6_29  and  C16_31 
REMARK    6  A    between atoms: C16_31  and  C17_32 
ROOT
HETATM    1  C4  UNL     1      13.118  15.420   4.651  1.00  0.00     0.144 A 
HETATM    2  N2  UNL     1      12.905  14.195   4.086  1.00  0.00    -0.326 N 
ATOM      3  H2  UNL     1      13.459  13.399   4.403  1.00  0.00     0.169 HD
HETATM    4  C5  UNL     1      11.988  14.010   3.127  1.00  0.00     0.119 A 
HETATM    5  N5  UNL     1      11.273  15.084   2.729  1.00  0.00    -0.348 N 
ATOM      6  H5  UNL     1      10.571  14.961   2.000  1.00  0.00     0.167 HD
HETATM    7  C13 UNL     1      11.448  16.305   3.253  1.00  0.00     0.136 A 
HETATM    8  C14 UNL     1      12.385  16.515   4.241  1.00  0.00     0.175 A 
HETATM    9  F1  UNL     1      12.587  17.743   4.796  1.00  0.00    -0.201 F 
ENDROOT
BRANCH   1  10
HETATM   10  N1  UNL     1      14.090  15.595   5.660  1.00  0.00    -0.356 N 
ATOM     11  H1  UNL     1      13.757  15.695   6.620  1.00  0.00     0.162 HD
BRANCH  10  12
HETATM   12  C2  UNL     1      15.503  15.644   5.450  1.00  0.00     0.105 C 
HETATM   13  C1  UNL     1      16.216  15.099   6.692  1.00  0.00     0.048 C 
HETATM   14  C3  UNL     1      16.006  17.048   5.143  1.00  0.00     0.048 C 
BRANCH  12  15
HETATM   15  C15 UNL     1      15.917  14.781   4.319  1.00  0.00     0.245 C 
HETATM   16  O1  UNL     1      15.929  13.544   4.503  1.00  0.00    -0.271 OA
HETATM   17  N6  UNL     1      16.289  15.317   3.064  1.00  0.00    -0.350 N 
ATOM     18  H6  UNL     1      16.277  16.326   2.917  1.00  0.00     0.162 HD
BRANCH  17  19
HETATM   19  C16 UNL     1      16.688  14.435   1.988  1.00  0.00     0.240 C 
BRANCH  19  20
HETATM   20  C17 UNL     1      15.811  14.641   0.772  1.00  0.00     0.403 C 
HETATM   21  F2  UNL     1      14.574  14.055   0.966  1.00  0.00    -0.169 F 
HETATM   22  F3  UNL     1      16.342  14.059  -0.363  1.00  0.00    -0.169 F 
HETATM   23  F4  UNL     1      15.671  15.988   0.503  1.00  0.00    -0.169 F 
ENDBRANCH  19  20
ENDBRANCH  17  19
ENDBRANCH  12  15
ENDBRANCH  10  12
ENDBRANCH   1  10
BRANCH   4  24
HETATM   24  C6  UNL     1      11.746  12.704   2.500  1.00  0.00     0.037 A 
HETATM   25  C7  UNL     1      10.790  12.411   1.536  1.00  0.00     0.106 A 
HETATM   26  N3  UNL     1      10.858  11.127   1.192  1.00  0.00    -0.351 N 
HETATM   27  C8  UNL     1      11.836  10.543   1.898  1.00  0.00     0.116 A 
ATOM     28  H3  UNL     1      10.263  10.664   0.505  1.00  0.00     0.166 HD
HETATM   29  N4  UNL     1      12.301   9.283   1.919  1.00  0.00    -0.350 N 
HETATM   30  C12 UNL     1      12.394  11.507   2.711  1.00  0.00     0.025 A 
HETATM   31  C9  UNL     1      13.299   8.903   2.706  1.00  0.00     0.113 A 
ATOM     32  H4  UNL     1      11.870   8.592   1.306  1.00  0.00     0.166 HD
HETATM   33  C10 UNL     1      13.885   9.829   3.531  1.00  0.00     0.050 A 
HETATM   34 CL1  UNL     1      15.201   9.295   4.553  1.00  0.00    -0.083 Cl
HETATM   35  C11 UNL     1      13.429  11.139   3.534  1.00  0.00     0.041 A 
ENDBRANCH   4  24
TORSDOF 6
ENDMDL
