MODEL 12
REMARK VINA RESULT: -8.116948038      3.440      5.767
REMARK  6 active torsions:
REMARK  status: ('A' for Active; 'I' for Inactive)
REMARK    1  A    between atoms: C2_2  and  N1_4 
REMARK    2  A    between atoms: C2_2  and  C15_27 
REMARK    3  A    between atoms: N1_4  and  C4_6 
REMARK    4  A    between atoms: C5_9  and  C6_10 
REMARK       I    between atoms: C15_27  and  N6_29 
REMARK    5  A    between atoms: N6_29  and  C16_31 
REMARK    6  A    between atoms: C16_31  and  C17_32 
ROOT
HETATM    1  C4  UNL     1      15.964  13.899   6.312  1.00  0.00     0.144 A 
HETATM    2  N2  UNL     1      14.845  14.549   5.876  1.00  0.00    -0.326 N 
ATOM      3  H2  UNL     1      14.007  14.008   5.666  1.00  0.00     0.169 HD
HETATM    4  C5  UNL     1      14.819  15.880   5.717  1.00  0.00     0.119 A 
HETATM    5  N5  UNL     1      15.946  16.566   6.003  1.00  0.00    -0.348 N 
ATOM      6  H5  UNL     1      15.944  17.580   5.887  1.00  0.00     0.167 HD
HETATM    7  C13 UNL     1      17.068  15.971   6.432  1.00  0.00     0.136 A 
HETATM    8  C14 UNL     1      17.113  14.604   6.602  1.00  0.00     0.175 A 
HETATM    9  F1  UNL     1      18.238  13.968   7.038  1.00  0.00    -0.201 F 
ENDROOT
BRANCH   1  10
HETATM   10  N1  UNL     1      15.972  12.495   6.472  1.00  0.00    -0.356 N 
ATOM     11  H1  UNL     1      15.958  12.132   7.426  1.00  0.00     0.162 HD
BRANCH  10  12
HETATM   12  C2  UNL     1      15.998  11.541   5.409  1.00  0.00     0.105 C 
HETATM   13  C1  UNL     1      16.292  10.153   5.986  1.00  0.00     0.048 C 
HETATM   14  C3  UNL     1      17.026  11.879   4.338  1.00  0.00     0.048 C 
BRANCH  12  15
HETATM   15  C15 UNL     1      14.685  11.442   4.731  1.00  0.00     0.245 C 
HETATM   16  O1  UNL     1      13.670  11.792   5.371  1.00  0.00    -0.271 OA
HETATM   17  N6  UNL     1      14.561  10.970   3.403  1.00  0.00    -0.350 N 
ATOM     18  H6  UNL     1      15.391  10.685   2.883  1.00  0.00     0.162 HD
BRANCH  17  19
HETATM   19  C16 UNL     1      13.256  10.889   2.781  1.00  0.00     0.240 C 
BRANCH  19  20
HETATM   20  C17 UNL     1      12.903   9.453   2.458  1.00  0.00     0.403 C 
HETATM   21  F2  UNL     1      12.142   8.905   3.474  1.00  0.00    -0.169 F 
HETATM   22  F3  UNL     1      14.022   8.653   2.335  1.00  0.00    -0.169 F 
HETATM   23  F4  UNL     1      12.227   9.383   1.255  1.00  0.00    -0.169 F 
ENDBRANCH  19  20
ENDBRANCH  17  19
ENDBRANCH  12  15
ENDBRANCH  10  12
ENDBRANCH   1  10
BRANCH   4  24
HETATM   24  C6  UNL     1      13.631  16.600   5.243  1.00  0.00     0.037 A 
HETATM   25  C7  UNL     1      13.141  17.805   5.732  1.00  0.00     0.106 A 
HETATM   26  N3  UNL     1      12.049  18.166   5.063  1.00  0.00    -0.351 N 
HETATM   27  C8  UNL     1      11.786  17.237   4.133  1.00  0.00     0.116 A 
ATOM     28  H3  UNL     1      11.502  19.010   5.230  1.00  0.00     0.166 HD
HETATM   29  N4  UNL     1      10.813  17.136   3.213  1.00  0.00    -0.350 N 
HETATM   30  C12 UNL     1      12.757  16.262   4.234  1.00  0.00     0.025 A 
HETATM   31  C9  UNL     1      10.732  16.115   2.369  1.00  0.00     0.113 A 
ATOM     32  H4  UNL     1      10.110  17.872   3.160  1.00  0.00     0.166 HD
HETATM   33  C10 UNL     1      11.676  15.122   2.432  1.00  0.00     0.050 A 
HETATM   34 CL1  UNL     1      11.541  13.793   1.303  1.00  0.00    -0.083 Cl
HETATM   35  C11 UNL     1      12.695  15.196   3.372  1.00  0.00     0.041 A 
ENDBRANCH   4  24
TORSDOF 6
ENDMDL
