MODEL 5
REMARK VINA RESULT: -6.974389559      2.407      8.613
REMARK  9 active torsions:
REMARK  status: ('A' for Active; 'I' for Inactive)
REMARK    1  A    between atoms: S1_2  and  C2_3 
REMARK    2  A    between atoms: S1_2  and  C5_10 
REMARK    3  A    between atoms: C2_3  and  C3_4 
REMARK    4  A    between atoms: C3_4  and  C4_5 
REMARK    5  A    between atoms: C4_5  and  N1_6 
REMARK    6  A    between atoms: C5_10  and  C6_11 
REMARK    7  A    between atoms: C7_13  and  N2_14 
REMARK    8  A    between atoms: C13_27  and  O2_28 
REMARK    9  A    between atoms: C14_30  and  O3_31 
ROOT
HETATM    1  C6  UNL     1      15.565  23.488  13.269  1.00  0.00     0.164 C 
HETATM    2  O1  UNL     1      16.495  24.027  12.382  1.00  0.00    -0.355 OA
HETATM    3  C7  UNL     1      15.715  24.505  11.357  1.00  0.00     0.262 C 
HETATM    4  C13 UNL     1      14.846  23.302  11.041  1.00  0.00     0.198 C 
HETATM    5  C14 UNL     1      14.480  22.855  12.463  1.00  0.00     0.180 C 
ENDROOT
BRANCH   3   6
HETATM    6  N2  UNL     1      16.440  24.983  10.227  1.00  0.00    -0.297 N 
HETATM    7  C8  UNL     1      16.834  24.218   9.191  1.00  0.00     0.188 A 
HETATM    8  N3  UNL     1      17.496  24.962   8.288  1.00  0.00    -0.346 N 
HETATM    9  C9  UNL     1      17.532  26.221   8.738  1.00  0.00     0.119 A 
ATOM     10  H3  UNL     1      17.899  24.626   7.413  1.00  0.00     0.167 HD
HETATM   11  C10 UNL     1      18.077  27.372   8.215  1.00  0.00     0.148 A 
HETATM   12  C12 UNL     1      16.861  26.211   9.962  1.00  0.00     0.142 A 
HETATM   13  N4  UNL     1      18.745  27.314   6.969  1.00  0.00    -0.080 NA
HETATM   14  N5  UNL     1      17.935  28.497   8.939  1.00  0.00    -0.339 N 
HETATM   15  C11 UNL     1      17.280  28.504  10.137  1.00  0.00     0.183 A 
ATOM     16  H5  UNL     1      18.326  29.369   8.582  1.00  0.00     0.167 HD
HETATM   17  N6  UNL     1      16.761  27.358  10.616  1.00  0.00    -0.336 N 
ATOM     18  H6  UNL     1      16.275  27.374  11.513  1.00  0.00     0.168 HD
ENDBRANCH   3   6
BRANCH   4  19
HETATM   19  O2  UNL     1      13.724  23.630  10.304  1.00  0.00    -0.388 OA
ATOM     20  H2  UNL     1      13.559  23.022   9.594  1.00  0.00     0.210 HD
ENDBRANCH   4  19
BRANCH   1  21
HETATM   21  C5  UNL     1      16.218  22.540  14.245  1.00  0.00     0.101 C 
BRANCH  21  22
HETATM   22  S1  UNL     1      15.220  21.361  14.900  1.00  0.00    -0.202 SA
HETATM   23  C1  UNL     1      16.356  20.046  15.298  1.00  0.00     0.082 C 
BRANCH  22  24
HETATM   24  C2  UNL     1      14.425  21.761  16.267  1.00  0.00     0.009 C 
BRANCH  24  25
HETATM   25  C3  UNL     1      15.052  21.729  17.614  1.00  0.00     0.060 C 
BRANCH  25  26
HETATM   26  C4  UNL     1      15.003  20.423  18.356  1.00  0.00     0.233 C 
BRANCH  26  27
HETATM   27  N1  UNL     1      15.394  20.691  19.745  1.00  0.00    -0.079 N 
ATOM     28  H13 UNL     1      14.896  21.483  20.152  1.00  0.00     0.274 HD
ATOM     29  H12 UNL     1      15.064  19.979  20.396  1.00  0.00     0.274 HD
ATOM     30  H11 UNL     1      16.407  20.806  19.762  1.00  0.00     0.274 HD
ENDBRANCH  26  27
ENDBRANCH  25  26
ENDBRANCH  24  25
ENDBRANCH  22  24
ENDBRANCH  21  22
ENDBRANCH   1  21
BRANCH   5  31
HETATM   31  O3  UNL     1      13.222  23.458  12.704  1.00  0.00    -0.390 OA
ATOM     32  H3  UNL     1      13.212  24.373  12.450  1.00  0.00     0.210 HD
ENDBRANCH   5  31
TORSDOF 9
ENDMDL
