MODEL 3
REMARK VINA RESULT: -7.722860829      3.800      8.895
REMARK  9 active torsions:
REMARK  status: ('A' for Active; 'I' for Inactive)
REMARK    1  A    between atoms: S1_2  and  C2_3 
REMARK    2  A    between atoms: S1_2  and  C5_10 
REMARK    3  A    between atoms: C2_3  and  C3_4 
REMARK    4  A    between atoms: C3_4  and  C4_5 
REMARK    5  A    between atoms: C4_5  and  N1_6 
REMARK    6  A    between atoms: C5_10  and  C6_11 
REMARK    7  A    between atoms: C7_13  and  N2_14 
REMARK    8  A    between atoms: C13_27  and  O2_28 
REMARK    9  A    between atoms: C14_30  and  O3_31 
ROOT
HETATM    1  C6  UNL     1      15.948  24.790  10.770  1.00  0.00     0.164 C 
HETATM    2  O1  UNL     1      16.628  25.963  11.092  1.00  0.00    -0.355 OA
HETATM    3  C7  UNL     1      16.553  26.700   9.935  1.00  0.00     0.262 C 
HETATM    4  C13 UNL     1      17.036  25.702   8.899  1.00  0.00     0.198 C 
HETATM    5  C14 UNL     1      16.266  24.453   9.352  1.00  0.00     0.180 C 
ENDROOT
BRANCH   3   6
HETATM    6  N2  UNL     1      17.312  27.907   9.945  1.00  0.00    -0.297 N 
HETATM    7  C8  UNL     1      18.450  28.100   9.252  1.00  0.00     0.188 A 
HETATM    8  N3  UNL     1      18.923  29.340   9.472  1.00  0.00    -0.346 N 
HETATM    9  C9  UNL     1      18.086  29.958  10.313  1.00  0.00     0.119 A 
ATOM     10  H3  UNL     1      19.771  29.739   9.068  1.00  0.00     0.167 HD
HETATM   11  C10 UNL     1      18.095  31.221  10.859  1.00  0.00     0.148 A 
HETATM   12  C12 UNL     1      17.078  29.035  10.598  1.00  0.00     0.142 A 
HETATM   13  N4  UNL     1      19.147  32.108  10.530  1.00  0.00    -0.080 NA
HETATM   14  N5  UNL     1      17.082  31.533  11.688  1.00  0.00    -0.339 N 
HETATM   15  C11 UNL     1      16.088  30.643  11.976  1.00  0.00     0.183 A 
ATOM     16  H5  UNL     1      17.056  32.460  12.112  1.00  0.00     0.167 HD
HETATM   17  N6  UNL     1      16.114  29.416  11.423  1.00  0.00    -0.336 N 
ATOM     18  H6  UNL     1      15.367  28.758  11.645  1.00  0.00     0.168 HD
ENDBRANCH   3   6
BRANCH   4  19
HETATM   19  O2  UNL     1      16.705  26.066   7.609  1.00  0.00    -0.388 OA
ATOM     20  H2  UNL     1      16.500  25.321   7.057  1.00  0.00     0.210 HD
ENDBRANCH   4  19
BRANCH   1  21
HETATM   21  C5  UNL     1      16.275  23.679  11.738  1.00  0.00     0.101 C 
BRANCH  21  22
HETATM   22  S1  UNL     1      15.228  23.510  13.039  1.00  0.00    -0.202 SA
HETATM   23  C1  UNL     1      13.765  22.816  12.292  1.00  0.00     0.082 C 
BRANCH  22  24
HETATM   24  C2  UNL     1      15.706  22.499  14.227  1.00  0.00     0.009 C 
BRANCH  24  25
HETATM   25  C3  UNL     1      15.711  22.875  15.664  1.00  0.00     0.060 C 
BRANCH  25  26
HETATM   26  C4  UNL     1      14.432  22.671  16.426  1.00  0.00     0.233 C 
BRANCH  26  27
HETATM   27  N1  UNL     1      14.712  21.724  17.511  1.00  0.00    -0.079 N 
ATOM     28  H13 UNL     1      15.393  21.010  17.250  1.00  0.00     0.274 HD
ATOM     29  H12 UNL     1      15.243  22.141  18.275  1.00  0.00     0.274 HD
ATOM     30  H11 UNL     1      13.821  21.332  17.814  1.00  0.00     0.274 HD
ENDBRANCH  26  27
ENDBRANCH  25  26
ENDBRANCH  24  25
ENDBRANCH  22  24
ENDBRANCH  21  22
ENDBRANCH   1  21
BRANCH   5  31
HETATM   31  O3  UNL     1      15.109  24.445   8.537  1.00  0.00    -0.390 OA
ATOM     32  H3  UNL     1      14.483  23.786   8.816  1.00  0.00     0.210 HD
ENDBRANCH   5  31
TORSDOF 9
ENDMDL
