MODEL 2
REMARK VINA RESULT: -8.201846452      1.051      1.169
REMARK  9 active torsions:
REMARK  status: ('A' for Active; 'I' for Inactive)
REMARK    1  A    between atoms: S1_2  and  C2_3 
REMARK    2  A    between atoms: S1_2  and  C5_10 
REMARK    3  A    between atoms: C2_3  and  C3_4 
REMARK    4  A    between atoms: C3_4  and  C4_5 
REMARK    5  A    between atoms: C4_5  and  N1_6 
REMARK    6  A    between atoms: C5_10  and  C6_11 
REMARK    7  A    between atoms: C7_13  and  N2_14 
REMARK    8  A    between atoms: C13_27  and  O2_28 
REMARK    9  A    between atoms: C14_30  and  O3_31 
ROOT
HETATM    1  C6  UNL     1      15.538  23.594  11.663  1.00  0.00     0.164 C 
HETATM    2  O1  UNL     1      15.785  23.440  13.026  1.00  0.00    -0.355 OA
HETATM    3  C7  UNL     1      14.963  22.397  13.380  1.00  0.00     0.262 C 
HETATM    4  C13 UNL     1      13.630  22.846  12.809  1.00  0.00     0.198 C 
HETATM    5  C14 UNL     1      14.085  23.349  11.432  1.00  0.00     0.180 C 
ENDROOT
BRANCH   3   6
HETATM    6  N2  UNL     1      14.908  22.127  14.778  1.00  0.00    -0.297 N 
HETATM    7  C8  UNL     1      14.211  22.854  15.671  1.00  0.00     0.188 A 
HETATM    8  N3  UNL     1      14.364  22.344  16.907  1.00  0.00    -0.346 N 
HETATM    9  C9  UNL     1      15.166  21.278  16.817  1.00  0.00     0.119 A 
ATOM     10  H3  UNL     1      13.941  22.707  17.762  1.00  0.00     0.167 HD
HETATM   11  C10 UNL     1      15.642  20.400  17.764  1.00  0.00     0.148 A 
HETATM   12  C12 UNL     1      15.498  21.160  15.466  1.00  0.00     0.142 A 
HETATM   13  N4  UNL     1      15.268  20.576  19.117  1.00  0.00    -0.080 NA
HETATM   14  N5  UNL     1      16.448  19.414  17.330  1.00  0.00    -0.339 N 
HETATM   15  C11 UNL     1      16.782  19.285  16.012  1.00  0.00     0.183 A 
ATOM     16  H5  UNL     1      16.821  18.745  18.004  1.00  0.00     0.167 HD
HETATM   17  N6  UNL     1      16.296  20.163  15.115  1.00  0.00    -0.336 N 
ATOM     18  H6  UNL     1      16.552  20.058  14.134  1.00  0.00     0.168 HD
ENDBRANCH   3   6
BRANCH   4  19
HETATM   19  O2  UNL     1      12.719  21.814  12.700  1.00  0.00    -0.388 OA
ATOM     20  H2  UNL     1      11.957  22.047  12.183  1.00  0.00     0.210 HD
ENDBRANCH   4  19
BRANCH   1  21
HETATM   21  C5  UNL     1      16.006  24.941  11.167  1.00  0.00     0.101 C 
BRANCH  21  22
HETATM   22  S1  UNL     1      16.593  24.979   9.595  1.00  0.00    -0.202 SA
HETATM   23  C1  UNL     1      15.121  24.782   8.609  1.00  0.00     0.082 C 
BRANCH  22  24
HETATM   24  C2  UNL     1      17.323  26.361   9.128  1.00  0.00     0.009 C 
BRANCH  24  25
HETATM   25  C3  UNL     1      17.728  27.430  10.077  1.00  0.00     0.060 C 
BRANCH  25  26
HETATM   26  C4  UNL     1      17.952  28.801   9.504  1.00  0.00     0.233 C 
BRANCH  26  27
HETATM   27  N1  UNL     1      16.805  29.112   8.644  1.00  0.00    -0.079 N 
ATOM     28  H13 UNL     1      16.212  28.301   8.463  1.00  0.00     0.274 HD
ATOM     29  H12 UNL     1      16.103  29.687   9.109  1.00  0.00     0.274 HD
ATOM     30  H11 UNL     1      17.167  29.538   7.792  1.00  0.00     0.274 HD
ENDBRANCH  26  27
ENDBRANCH  25  26
ENDBRANCH  24  25
ENDBRANCH  22  24
ENDBRANCH  21  22
ENDBRANCH   1  21
BRANCH   5  31
HETATM   31  O3  UNL     1      13.864  22.248  10.570  1.00  0.00    -0.390 OA
ATOM     32  H3  UNL     1      13.861  22.508   9.656  1.00  0.00     0.210 HD
ENDBRANCH   5  31
TORSDOF 9
ENDMDL
