MODEL 15
REMARK VINA RESULT: -5.374059238      0.884      1.720
REMARK  9 active torsions:
REMARK  status: ('A' for Active; 'I' for Inactive)
REMARK    1  A    between atoms: S1_2  and  C2_3 
REMARK    2  A    between atoms: S1_2  and  C5_10 
REMARK    3  A    between atoms: C2_3  and  C3_4 
REMARK    4  A    between atoms: C3_4  and  C4_5 
REMARK    5  A    between atoms: C4_5  and  N1_6 
REMARK    6  A    between atoms: C5_10  and  C6_11 
REMARK    7  A    between atoms: C7_13  and  N2_14 
REMARK    8  A    between atoms: C13_27  and  O2_28 
REMARK    9  A    between atoms: C14_30  and  O3_31 
ROOT
HETATM    1  C6  UNL     1      15.537  23.313  11.714  1.00  0.00     0.164 C 
HETATM    2  O1  UNL     1      16.184  22.824  12.847  1.00  0.00    -0.355 OA
HETATM    3  C7  UNL     1      15.372  21.794  13.255  1.00  0.00     0.262 C 
HETATM    4  C13 UNL     1      14.010  22.463  13.283  1.00  0.00     0.198 C 
HETATM    5  C14 UNL     1      14.068  23.239  11.960  1.00  0.00     0.180 C 
ENDROOT
BRANCH   3   6
HETATM    6  N2  UNL     1      15.732  21.208  14.504  1.00  0.00    -0.297 N 
HETATM    7  C8  UNL     1      16.785  20.390  14.690  1.00  0.00     0.188 A 
HETATM    8  N3  UNL     1      16.854  20.006  15.978  1.00  0.00    -0.346 N 
HETATM    9  C9  UNL     1      15.838  20.578  16.633  1.00  0.00     0.119 A 
ATOM     10  H3  UNL     1      17.557  19.388  16.382  1.00  0.00     0.167 HD
HETATM   11  C10 UNL     1      15.446  20.524  17.951  1.00  0.00     0.148 A 
HETATM   12  C12 UNL     1      15.144  21.331  15.684  1.00  0.00     0.142 A 
HETATM   13  N4  UNL     1      16.194  19.742  18.863  1.00  0.00    -0.080 NA
HETATM   14  N5  UNL     1      14.354  21.233  18.291  1.00  0.00    -0.339 N 
HETATM   15  C11 UNL     1      13.664  21.975  17.375  1.00  0.00     0.183 A 
ATOM     16  H5  UNL     1      14.032  21.216  19.259  1.00  0.00     0.167 HD
HETATM   17  N6  UNL     1      14.079  22.003  16.095  1.00  0.00    -0.336 N 
ATOM     18  H6  UNL     1      13.556  22.559  15.419  1.00  0.00     0.168 HD
ENDBRANCH   3   6
BRANCH   4  19
HETATM   19  O2  UNL     1      12.969  21.557  13.299  1.00  0.00    -0.388 OA
ATOM     20  H2  UNL     1      12.118  21.971  13.214  1.00  0.00     0.210 HD
ENDBRANCH   4  19
BRANCH   1  21
HETATM   21  C5  UNL     1      16.017  24.699  11.359  1.00  0.00     0.101 C 
BRANCH  21  22
HETATM   22  S1  UNL     1      16.579  24.900   9.790  1.00  0.00    -0.202 SA
HETATM   23  C1  UNL     1      15.135  24.567   8.798  1.00  0.00     0.082 C 
BRANCH  22  24
HETATM   24  C2  UNL     1      17.117  26.390   9.399  1.00  0.00     0.009 C 
BRANCH  24  25
HETATM   25  C3  UNL     1      17.005  26.964   8.033  1.00  0.00     0.060 C 
BRANCH  25  26
HETATM   26  C4  UNL     1      18.283  27.157   7.268  1.00  0.00     0.233 C 
BRANCH  26  27
HETATM   27  N1  UNL     1      18.866  25.829   7.041  1.00  0.00    -0.079 N 
ATOM     28  H13 UNL     1      19.812  25.742   7.412  1.00  0.00     0.274 HD
ATOM     29  H12 UNL     1      18.433  25.102   7.611  1.00  0.00     0.274 HD
ATOM     30  H11 UNL     1      18.811  25.637   6.042  1.00  0.00     0.274 HD
ENDBRANCH  26  27
ENDBRANCH  25  26
ENDBRANCH  24  25
ENDBRANCH  22  24
ENDBRANCH  21  22
ENDBRANCH   1  21
BRANCH   5  31
HETATM   31  O3  UNL     1      13.417  22.392  11.031  1.00  0.00    -0.390 OA
ATOM     32  H3  UNL     1      12.496  22.604  10.941  1.00  0.00     0.210 HD
ENDBRANCH   5  31
TORSDOF 9
ENDMDL
