MODEL 1
REMARK VINA RESULT: -8.397481562      0.000      0.000
REMARK  9 active torsions:
REMARK  status: ('A' for Active; 'I' for Inactive)
REMARK    1  A    between atoms: S1_2  and  C2_3 
REMARK    2  A    between atoms: S1_2  and  C5_10 
REMARK    3  A    between atoms: C2_3  and  C3_4 
REMARK    4  A    between atoms: C3_4  and  C4_5 
REMARK    5  A    between atoms: C4_5  and  N1_6 
REMARK    6  A    between atoms: C5_10  and  C6_11 
REMARK    7  A    between atoms: C7_13  and  N2_14 
REMARK    8  A    between atoms: C13_27  and  O2_28 
REMARK    9  A    between atoms: C14_30  and  O3_31 
ROOT
HETATM    1  C6  UNL     1      15.475  23.635  11.684  1.00  0.00     0.164 C 
HETATM    2  O1  UNL     1      15.718  23.483  13.048  1.00  0.00    -0.355 OA
HETATM    3  C7  UNL     1      14.927  22.413  13.393  1.00  0.00     0.262 C 
HETATM    4  C13 UNL     1      13.584  22.821  12.815  1.00  0.00     0.198 C 
HETATM    5  C14 UNL     1      14.032  23.344  11.443  1.00  0.00     0.180 C 
ENDROOT
BRANCH   3   6
HETATM    6  N2  UNL     1      14.873  22.136  14.790  1.00  0.00    -0.297 N 
HETATM    7  C8  UNL     1      14.179  22.860  15.687  1.00  0.00     0.188 A 
HETATM    8  N3  UNL     1      14.331  22.343  16.920  1.00  0.00    -0.346 N 
HETATM    9  C9  UNL     1      15.130  21.275  16.823  1.00  0.00     0.119 A 
ATOM     10  H3  UNL     1      13.910  22.703  17.777  1.00  0.00     0.167 HD
HETATM   11  C10 UNL     1      15.604  20.390  17.766  1.00  0.00     0.148 A 
HETATM   12  C12 UNL     1      15.460  21.163  15.472  1.00  0.00     0.142 A 
HETATM   13  N4  UNL     1      15.231  20.560  19.120  1.00  0.00    -0.080 NA
HETATM   14  N5  UNL     1      16.407  19.404  17.326  1.00  0.00    -0.339 N 
HETATM   15  C11 UNL     1      16.739  19.281  16.007  1.00  0.00     0.183 A 
ATOM     16  H5  UNL     1      16.778  18.731  17.996  1.00  0.00     0.167 HD
HETATM   17  N6  UNL     1      16.256  20.166  15.115  1.00  0.00    -0.336 N 
ATOM     18  H6  UNL     1      16.510  20.065  14.133  1.00  0.00     0.168 HD
ENDBRANCH   3   6
BRANCH   4  19
HETATM   19  O2  UNL     1      12.708  21.760  12.697  1.00  0.00    -0.388 OA
ATOM     20  H2  UNL     1      11.849  22.024  12.390  1.00  0.00     0.210 HD
ENDBRANCH   4  19
BRANCH   1  21
HETATM   21  C5  UNL     1      15.902  24.998  11.196  1.00  0.00     0.101 C 
BRANCH  21  22
HETATM   22  S1  UNL     1      16.610  25.042   9.675  1.00  0.00    -0.202 SA
HETATM   23  C1  UNL     1      15.221  24.831   8.577  1.00  0.00     0.082 C 
BRANCH  22  24
HETATM   24  C2  UNL     1      17.360  26.432   9.266  1.00  0.00     0.009 C 
BRANCH  24  25
HETATM   25  C3  UNL     1      17.153  27.117   7.963  1.00  0.00     0.060 C 
BRANCH  25  26
HETATM   26  C4  UNL     1      18.297  27.085   6.989  1.00  0.00     0.233 C 
BRANCH  26  27
HETATM   27  N1  UNL     1      18.832  25.719   6.981  1.00  0.00    -0.079 N 
ATOM     28  H13 UNL     1      18.144  25.024   6.691  1.00  0.00     0.274 HD
ATOM     29  H12 UNL     1      19.506  25.560   6.233  1.00  0.00     0.274 HD
ATOM     30  H11 UNL     1      19.216  25.535   7.908  1.00  0.00     0.274 HD
ENDBRANCH  26  27
ENDBRANCH  25  26
ENDBRANCH  24  25
ENDBRANCH  22  24
ENDBRANCH  21  22
ENDBRANCH   1  21
BRANCH   5  31
HETATM   31  O3  UNL     1      13.852  22.240  10.575  1.00  0.00    -0.390 OA
ATOM     32  H3  UNL     1      12.959  22.181  10.255  1.00  0.00     0.210 HD
ENDBRANCH   5  31
TORSDOF 9
ENDMDL
