MODEL 7
REMARK VINA RESULT: -6.785483212      2.393      8.291
REMARK  9 active torsions:
REMARK  status: ('A' for Active; 'I' for Inactive)
REMARK    1  A    between atoms: S1_2  and  C2_3 
REMARK    2  A    between atoms: S1_2  and  C5_10 
REMARK    3  A    between atoms: C2_3  and  C3_4 
REMARK    4  A    between atoms: C3_4  and  C4_5 
REMARK    5  A    between atoms: C4_5  and  N1_6 
REMARK    6  A    between atoms: C5_10  and  C6_11 
REMARK    7  A    between atoms: C7_13  and  N2_14 
REMARK    8  A    between atoms: C13_27  and  O2_28 
REMARK    9  A    between atoms: C14_30  and  O3_31 
ROOT
HETATM    1  C6  UNL     1      15.298  23.502  13.258  1.00  0.00     0.164 C 
HETATM    2  O1  UNL     1      16.270  24.054  12.425  1.00  0.00    -0.355 OA
HETATM    3  C7  UNL     1      15.554  24.446  11.320  1.00  0.00     0.262 C 
HETATM    4  C13 UNL     1      14.776  23.184  10.990  1.00  0.00     0.198 C 
HETATM    5  C14 UNL     1      14.317  22.779  12.398  1.00  0.00     0.180 C 
ENDROOT
BRANCH   3   6
HETATM    6  N2  UNL     1      16.345  24.914  10.231  1.00  0.00    -0.297 N 
HETATM    7  C8  UNL     1      16.801  24.141   9.227  1.00  0.00     0.188 A 
HETATM    8  N3  UNL     1      17.515  24.879   8.358  1.00  0.00    -0.346 N 
HETATM    9  C9  UNL     1      17.523  26.142   8.799  1.00  0.00     0.119 A 
ATOM     10  H3  UNL     1      17.970  24.536   7.512  1.00  0.00     0.167 HD
HETATM   11  C10 UNL     1      18.096  27.289   8.299  1.00  0.00     0.148 A 
HETATM   12  C12 UNL     1      16.779  26.141   9.981  1.00  0.00     0.142 A 
HETATM   13  N4  UNL     1      18.838  27.221   7.096  1.00  0.00    -0.080 NA
HETATM   14  N5  UNL     1      17.909  28.420   9.003  1.00  0.00    -0.339 N 
HETATM   15  C11 UNL     1      17.184  28.436  10.160  1.00  0.00     0.183 A 
ATOM     16  H5  UNL     1      18.321  29.290   8.663  1.00  0.00     0.167 HD
HETATM   17  N6  UNL     1      16.639  27.294  10.618  1.00  0.00    -0.336 N 
ATOM     18  H6  UNL     1      16.100  27.316  11.483  1.00  0.00     0.168 HD
ENDBRANCH   3   6
BRANCH   4  19
HETATM   19  O2  UNL     1      13.705  23.420  10.152  1.00  0.00    -0.388 OA
ATOM     20  H2  UNL     1      13.958  23.844   9.341  1.00  0.00     0.210 HD
ENDBRANCH   4  19
BRANCH   1  21
HETATM   21  C5  UNL     1      15.916  22.634  14.326  1.00  0.00     0.101 C 
BRANCH  21  22
HETATM   22  S1  UNL     1      15.374  22.901  15.892  1.00  0.00    -0.202 SA
HETATM   23  C1  UNL     1      13.600  22.864  15.717  1.00  0.00     0.082 C 
BRANCH  22  24
HETATM   24  C2  UNL     1      15.787  21.781  17.003  1.00  0.00     0.009 C 
BRANCH  24  25
HETATM   25  C3  UNL     1      15.828  20.324  16.715  1.00  0.00     0.060 C 
BRANCH  25  26
HETATM   26  C4  UNL     1      17.132  19.762  16.224  1.00  0.00     0.233 C 
BRANCH  26  27
HETATM   27  N1  UNL     1      16.946  18.320  16.030  1.00  0.00    -0.079 N 
ATOM     28  H13 UNL     1      16.225  17.927  16.636  1.00  0.00     0.274 HD
ATOM     29  H12 UNL     1      16.508  18.092  15.138  1.00  0.00     0.274 HD
ATOM     30  H11 UNL     1      17.855  17.874  16.152  1.00  0.00     0.274 HD
ENDBRANCH  26  27
ENDBRANCH  25  26
ENDBRANCH  24  25
ENDBRANCH  22  24
ENDBRANCH  21  22
ENDBRANCH   1  21
BRANCH   5  31
HETATM   31  O3  UNL     1      13.015  23.321  12.508  1.00  0.00    -0.390 OA
ATOM     32  H3  UNL     1      12.462  22.803  13.082  1.00  0.00     0.210 HD
ENDBRANCH   5  31
TORSDOF 9
ENDMDL
