MODEL 2
REMARK VINA RESULT: -5.810931815      0.074      1.494
REMARK  2 active torsions:
REMARK  status: ('A' for Active; 'I' for Inactive)
REMARK    1  A    between atoms: N1_1  and  S1_4 
REMARK    2  A    between atoms: S1_4  and  C1_7 
ROOT
HETATM    1  C1  UNL     1      -1.669   4.740  85.294  1.00  0.00     0.079 A 
HETATM    2  C2  UNL     1      -2.899   5.366  85.282  1.00  0.00     0.025 A 
HETATM    3  C3  UNL     1      -3.041   6.689  84.907  1.00  0.00     0.002 A 
HETATM    4  C4  UNL     1      -1.950   7.443  84.527  1.00  0.00     0.000 A 
HETATM    5  C5  UNL     1      -0.719   6.817  84.540  1.00  0.00     0.002 A 
HETATM    6  C6  UNL     1      -0.567   5.487  84.915  1.00  0.00     0.025 A 
ENDROOT
BRANCH   1   7
HETATM    7  S1  UNL     1      -1.539   3.058  85.777  1.00  0.00     0.256 S 
HETATM    8  O1  UNL     1      -1.730   2.191  84.565  1.00  0.00    -0.201 OA
HETATM    9  O2  UNL     1      -0.208   2.791  86.421  1.00  0.00    -0.201 OA
BRANCH   7  10
HETATM   10  N1  UNL     1      -2.769   2.645  86.917  1.00  0.00    -0.324 N 
ATOM     11  H12 UNL     1      -3.475   3.285  87.280  1.00  0.00     0.169 HD
ATOM     12  H11 UNL     1      -2.655   1.659  87.153  1.00  0.00     0.169 HD
ENDBRANCH   7  10
ENDBRANCH   1   7
TORSDOF 2
ENDMDL
