MODEL 8
REMARK VINA RESULT: -5.415540873      1.770      2.340
REMARK  2 active torsions:
REMARK  status: ('A' for Active; 'I' for Inactive)
REMARK    1  A    between atoms: N1_1  and  S1_4 
REMARK    2  A    between atoms: S1_4  and  C1_7 
ROOT
HETATM    1  C1  UNL     1      -2.368   4.418  86.155  1.00  0.00     0.079 A 
HETATM    2  C2  UNL     1      -3.177   5.424  85.668  1.00  0.00     0.025 A 
HETATM    3  C3  UNL     1      -2.719   6.346  84.744  1.00  0.00     0.002 A 
HETATM    4  C4  UNL     1      -1.425   6.295  84.269  1.00  0.00     0.000 A 
HETATM    5  C5  UNL     1      -0.616   5.288  84.757  1.00  0.00     0.002 A 
HETATM    6  C6  UNL     1      -1.067   4.357  85.685  1.00  0.00     0.025 A 
ENDROOT
BRANCH   1   7
HETATM    7  S1  UNL     1      -2.994   3.271  87.326  1.00  0.00     0.256 S 
HETATM    8  O1  UNL     1      -4.377   2.858  86.908  1.00  0.00    -0.201 OA
HETATM    9  O2  UNL     1      -2.090   2.075  87.436  1.00  0.00    -0.201 OA
BRANCH   7  10
HETATM   10  N1  UNL     1      -3.112   3.989  88.893  1.00  0.00    -0.324 N 
ATOM     11  H12 UNL     1      -3.188   3.477  89.772  1.00  0.00     0.169 HD
ATOM     12  H11 UNL     1      -3.090   5.002  88.772  1.00  0.00     0.169 HD
ENDBRANCH   7  10
ENDBRANCH   1   7
TORSDOF 2
ENDMDL
