MODEL 3
REMARK VINA RESULT: -5.796741017      1.230      1.547
REMARK  2 active torsions:
REMARK  status: ('A' for Active; 'I' for Inactive)
REMARK    1  A    between atoms: N1_1  and  S1_4 
REMARK    2  A    between atoms: S1_4  and  C1_7 
ROOT
HETATM    1  C1  UNL     1      -1.604   4.742  85.180  1.00  0.00     0.079 A 
HETATM    2  C2  UNL     1      -0.508   5.517  84.863  1.00  0.00     0.025 A 
HETATM    3  C3  UNL     1      -0.618   6.874  84.622  1.00  0.00     0.002 A 
HETATM    4  C4  UNL     1      -1.839   7.512  84.689  1.00  0.00     0.000 A 
HETATM    5  C5  UNL     1      -2.936   6.737  85.007  1.00  0.00     0.002 A 
HETATM    6  C6  UNL     1      -2.835   5.372  85.251  1.00  0.00     0.025 A 
ENDROOT
BRANCH   1   7
HETATM    7  S1  UNL     1      -1.415   3.023  85.479  1.00  0.00     0.256 S 
HETATM    8  O1  UNL     1      -0.212   2.814  86.355  1.00  0.00    -0.201 OA
HETATM    9  O2  UNL     1      -2.649   2.455  86.121  1.00  0.00    -0.201 OA
BRANCH   7  10
HETATM   10  N1  UNL     1      -1.146   2.166  84.004  1.00  0.00    -0.324 N 
ATOM     11  H12 UNL     1      -0.249   1.790  83.695  1.00  0.00     0.169 HD
ATOM     12  H11 UNL     1      -2.037   2.108  83.511  1.00  0.00     0.169 HD
ENDBRANCH   7  10
ENDBRANCH   1   7
TORSDOF 2
ENDMDL
