MODEL 4
REMARK VINA RESULT: -5.788868009      1.231      2.149
REMARK  2 active torsions:
REMARK  status: ('A' for Active; 'I' for Inactive)
REMARK    1  A    between atoms: N1_1  and  S1_4 
REMARK    2  A    between atoms: S1_4  and  C1_7 
ROOT
HETATM    1  C1  UNL     1      -1.582   4.729  85.172  1.00  0.00     0.079 A 
HETATM    2  C2  UNL     1      -2.824   5.326  85.241  1.00  0.00     0.025 A 
HETATM    3  C3  UNL     1      -2.998   6.678  85.014  1.00  0.00     0.002 A 
HETATM    4  C4  UNL     1      -1.927   7.493  84.708  1.00  0.00     0.000 A 
HETATM    5  C5  UNL     1      -0.684   6.896  84.640  1.00  0.00     0.002 A 
HETATM    6  C6  UNL     1      -0.500   5.537  84.866  1.00  0.00     0.025 A 
ENDROOT
BRANCH   1   7
HETATM    7  S1  UNL     1      -1.411   3.008  85.467  1.00  0.00     0.256 S 
HETATM    8  O1  UNL     1      -0.212   2.785  86.345  1.00  0.00    -0.201 OA
HETATM    9  O2  UNL     1      -2.653   2.452  86.106  1.00  0.00    -0.201 OA
BRANCH   7  10
HETATM   10  N1  UNL     1      -1.148   2.151  83.991  1.00  0.00    -0.324 N 
ATOM     11  H12 UNL     1      -0.239   1.983  83.560  1.00  0.00     0.169 HD
ATOM     12  H11 UNL     1      -2.057   1.851  83.640  1.00  0.00     0.169 HD
ENDBRANCH   7  10
ENDBRANCH   1   7
TORSDOF 2
ENDMDL
