MODEL 1
REMARK VINA RESULT: -5.819016911      0.000      0.000
REMARK  2 active torsions:
REMARK  status: ('A' for Active; 'I' for Inactive)
REMARK    1  A    between atoms: N1_1  and  S1_4 
REMARK    2  A    between atoms: S1_4  and  C1_7 
ROOT
HETATM    1  C1  UNL     1      -1.753   4.707  85.320  1.00  0.00     0.079 A 
HETATM    2  C2  UNL     1      -0.660   5.451  84.926  1.00  0.00     0.025 A 
HETATM    3  C3  UNL     1      -0.777   6.773  84.540  1.00  0.00     0.002 A 
HETATM    4  C4  UNL     1      -2.002   7.407  84.532  1.00  0.00     0.000 A 
HETATM    5  C5  UNL     1      -3.096   6.663  84.926  1.00  0.00     0.002 A 
HETATM    6  C6  UNL     1      -2.988   5.333  85.317  1.00  0.00     0.025 A 
ENDROOT
BRANCH   1   7
HETATM    7  S1  UNL     1      -1.554   3.032  85.803  1.00  0.00     0.256 S 
HETATM    8  O1  UNL     1      -1.737   2.156  84.596  1.00  0.00    -0.201 OA
HETATM    9  O2  UNL     1      -0.202   2.814  86.423  1.00  0.00    -0.201 OA
BRANCH   7  10
HETATM   10  N1  UNL     1      -2.747   2.579  86.967  1.00  0.00    -0.324 N 
ATOM     11  H12 UNL     1      -2.628   1.865  87.686  1.00  0.00     0.169 HD
ATOM     12  H11 UNL     1      -3.576   3.150  86.802  1.00  0.00     0.169 HD
ENDBRANCH   7  10
ENDBRANCH   1   7
TORSDOF 2
ENDMDL
