MODEL 4
REMARK VINA RESULT: -5.832540043      1.058      1.792
REMARK  2 active torsions:
REMARK  status: ('A' for Active; 'I' for Inactive)
REMARK    1  A    between atoms: C5_5  and  S1_6 
REMARK    2  A    between atoms: S1_6  and  N1_7 
ROOT
HETATM    1  C1  UNL     1      -0.697   5.716  83.707  1.00  0.00     0.048 C 
HETATM    2  C2  UNL     1      -1.311   4.696  84.611  1.00  0.00    -0.062 A 
HETATM    3  C3  UNL     1      -0.493   3.697  85.101  1.00  0.00     0.008 A 
HETATM    4  C4  UNL     1      -1.067   2.752  85.942  1.00  0.00     0.026 A 
HETATM    5  C5  UNL     1      -2.403   2.794  86.285  1.00  0.00     0.079 A 
HETATM    6  C6  UNL     1      -3.222   3.797  85.792  1.00  0.00     0.026 A 
HETATM    7  C7  UNL     1      -2.652   4.733  84.961  1.00  0.00     0.008 A 
ENDROOT
BRANCH   5   8
HETATM    8  S1  UNL     1      -2.994   1.540  87.352  1.00  0.00     0.256 S 
HETATM    9  O1  UNL     1      -2.007   0.415  87.472  1.00  0.00    -0.201 OA
HETATM   10  O2  UNL     1      -4.238   0.970  86.746  1.00  0.00    -0.201 OA
BRANCH   8  11
HETATM   11  N1  UNL     1      -3.287   2.274  88.889  1.00  0.00    -0.324 N 
ATOM     12  H12 UNL     1      -4.065   2.893  89.113  1.00  0.00     0.169 HD
ATOM     13  H11 UNL     1      -2.541   1.970  89.514  1.00  0.00     0.169 HD
ENDBRANCH   8  11
ENDBRANCH   5   8
TORSDOF 2
ENDMDL
