MODEL 1
REMARK VINA RESULT: -6.028594392      0.000      0.000
REMARK  2 active torsions:
REMARK  status: ('A' for Active; 'I' for Inactive)
REMARK    1  A    between atoms: C5_5  and  S1_6 
REMARK    2  A    between atoms: S1_6  and  N1_7 
ROOT
HETATM    1  C1  UNL     1      -0.986   6.020  83.980  1.00  0.00     0.048 C 
HETATM    2  C2  UNL     1      -1.404   4.810  84.751  1.00  0.00    -0.062 A 
HETATM    3  C3  UNL     1      -2.734   4.704  85.108  1.00  0.00     0.008 A 
HETATM    4  C4  UNL     1      -3.119   3.577  85.823  1.00  0.00     0.026 A 
HETATM    5  C5  UNL     1      -2.219   2.590  86.174  1.00  0.00     0.079 A 
HETATM    6  C6  UNL     1      -0.886   2.699  85.815  1.00  0.00     0.026 A 
HETATM    7  C7  UNL     1      -0.506   3.815  85.105  1.00  0.00     0.008 A 
ENDROOT
BRANCH   5   8
HETATM    8  S1  UNL     1      -2.840   1.226  87.076  1.00  0.00     0.256 S 
HETATM    9  O1  UNL     1      -2.267   1.182  88.463  1.00  0.00    -0.201 OA
HETATM   10  O2  UNL     1      -2.400  -0.024  86.378  1.00  0.00    -0.201 OA
BRANCH   8  11
HETATM   11  N1  UNL     1      -4.560   1.384  87.120  1.00  0.00    -0.324 N 
ATOM     12  H12 UNL     1      -5.226   0.613  87.154  1.00  0.00     0.169 HD
ATOM     13  H11 UNL     1      -4.770   2.382  87.107  1.00  0.00     0.169 HD
ENDBRANCH   8  11
ENDBRANCH   5   8
TORSDOF 2
ENDMDL
