MODEL 3
REMARK VINA RESULT: -5.889715647      1.228      2.082
REMARK  2 active torsions:
REMARK  status: ('A' for Active; 'I' for Inactive)
REMARK    1  A    between atoms: C5_5  and  S1_6 
REMARK    2  A    between atoms: S1_6  and  N1_7 
ROOT
HETATM    1  C1  UNL     1      -1.223   6.388  84.050  1.00  0.00     0.048 C 
HETATM    2  C2  UNL     1      -1.591   5.113  84.737  1.00  0.00    -0.062 A 
HETATM    3  C3  UNL     1      -0.588   4.187  84.951  1.00  0.00     0.008 A 
HETATM    4  C4  UNL     1      -0.934   3.003  85.591  1.00  0.00     0.026 A 
HETATM    5  C5  UNL     1      -2.226   2.745  86.004  1.00  0.00     0.079 A 
HETATM    6  C6  UNL     1      -3.229   3.675  85.787  1.00  0.00     0.026 A 
HETATM    7  C7  UNL     1      -2.886   4.848  85.155  1.00  0.00     0.008 A 
ENDROOT
BRANCH   5   8
HETATM    8  S1  UNL     1      -2.522   1.214  86.796  1.00  0.00     0.256 S 
HETATM    9  O1  UNL     1      -3.968   0.821  86.704  1.00  0.00    -0.201 OA
HETATM   10  O2  UNL     1      -2.203   1.380  88.249  1.00  0.00    -0.201 OA
BRANCH   8  11
HETATM   11  N1  UNL     1      -1.511   0.040  86.031  1.00  0.00    -0.324 N 
ATOM     12  H12 UNL     1      -0.504   0.123  85.893  1.00  0.00     0.169 HD
ATOM     13  H11 UNL     1      -2.110  -0.736  85.750  1.00  0.00     0.169 HD
ENDBRANCH   8  11
ENDBRANCH   5   8
TORSDOF 2
ENDMDL
