MODEL 2
REMARK VINA RESULT: -5.964022717      0.177      1.457
REMARK  2 active torsions:
REMARK  status: ('A' for Active; 'I' for Inactive)
REMARK    1  A    between atoms: C5_5  and  S1_6 
REMARK    2  A    between atoms: S1_6  and  N1_7 
ROOT
HETATM    1  C1  UNL     1      -0.697   6.076  84.041  1.00  0.00     0.048 C 
HETATM    2  C2  UNL     1      -1.265   4.913  84.789  1.00  0.00    -0.062 A 
HETATM    3  C3  UNL     1      -0.405   3.886  85.127  1.00  0.00     0.008 A 
HETATM    4  C4  UNL     1      -0.937   2.807  85.823  1.00  0.00     0.026 A 
HETATM    5  C5  UNL     1      -2.271   2.747  86.171  1.00  0.00     0.079 A 
HETATM    6  C6  UNL     1      -3.131   3.778  85.830  1.00  0.00     0.026 A 
HETATM    7  C7  UNL     1      -2.604   4.846  85.143  1.00  0.00     0.008 A 
ENDROOT
BRANCH   5   8
HETATM    8  S1  UNL     1      -2.806   1.329  87.046  1.00  0.00     0.256 S 
HETATM    9  O1  UNL     1      -2.274   1.321  88.449  1.00  0.00    -0.201 OA
HETATM   10  O2  UNL     1      -2.246   0.125  86.355  1.00  0.00    -0.201 OA
BRANCH   8  11
HETATM   11  N1  UNL     1      -4.534   1.348  87.038  1.00  0.00    -0.324 N 
ATOM     12  H12 UNL     1      -5.124   1.379  86.208  1.00  0.00     0.169 HD
ATOM     13  H11 UNL     1      -4.839   1.321  88.011  1.00  0.00     0.169 HD
ENDBRANCH   8  11
ENDBRANCH   5   8
TORSDOF 2
ENDMDL
