MODEL 5
REMARK VINA RESULT: -5.703870890      1.403      1.992
REMARK  2 active torsions:
REMARK  status: ('A' for Active; 'I' for Inactive)
REMARK    1  A    between atoms: C5_5  and  S1_6 
REMARK    2  A    between atoms: S1_6  and  N1_7 
ROOT
HETATM    1  C1  UNL     1      -2.198   6.477  83.285  1.00  0.00     0.048 C 
HETATM    2  C2  UNL     1      -2.106   5.165  83.995  1.00  0.00    -0.062 A 
HETATM    3  C3  UNL     1      -1.040   4.342  83.687  1.00  0.00     0.008 A 
HETATM    4  C4  UNL     1      -0.958   3.124  84.350  1.00  0.00     0.026 A 
HETATM    5  C5  UNL     1      -1.898   2.734  85.283  1.00  0.00     0.079 A 
HETATM    6  C6  UNL     1      -2.966   3.561  85.589  1.00  0.00     0.026 A 
HETATM    7  C7  UNL     1      -3.045   4.768  84.933  1.00  0.00     0.008 A 
ENDROOT
BRANCH   5   8
HETATM    8  S1  UNL     1      -1.672   1.173  86.040  1.00  0.00     0.256 S 
HETATM    9  O1  UNL     1      -0.311   1.060  86.664  1.00  0.00    -0.201 OA
HETATM   10  O2  UNL     1      -1.754   0.128  84.972  1.00  0.00    -0.201 OA
BRANCH   8  11
HETATM   11  N1  UNL     1      -2.915   0.999  87.229  1.00  0.00    -0.324 N 
ATOM     12  H12 UNL     1      -2.769   0.763  88.210  1.00  0.00     0.169 HD
ATOM     13  H11 UNL     1      -3.804   1.175  86.762  1.00  0.00     0.169 HD
ENDBRANCH   8  11
ENDBRANCH   5   8
TORSDOF 2
ENDMDL
