MODEL 3
REMARK VINA RESULT: -5.921480063      0.053      1.307
REMARK  5 active torsions:
REMARK  status: ('A' for Active; 'I' for Inactive)
REMARK    1  A    between atoms: N1_1  and  S1_4 
REMARK    2  A    between atoms: S1_4  and  C1_7 
REMARK    3  A    between atoms: C4_10  and  C5_11 
REMARK    4  A    between atoms: C5_11  and  C6_12 
REMARK    5  A    between atoms: C6_12  and  O3_13 
ROOT
HETATM    1  C1  UNL     1      -1.325   3.441  82.985  1.00  0.00     0.079 A 
HETATM    2  C2  UNL     1      -1.876   4.510  83.671  1.00  0.00     0.026 A 
HETATM    3  C3  UNL     1      -2.067   4.452  85.038  1.00  0.00     0.009 A 
HETATM    4  C4  UNL     1      -1.720   3.328  85.774  1.00  0.00    -0.056 A 
HETATM    5  C7  UNL     1      -1.174   2.272  85.086  1.00  0.00     0.009 A 
HETATM    6  C8  UNL     1      -0.983   2.332  83.721  1.00  0.00     0.026 A 
ENDROOT
BRANCH   1   7
HETATM    7  S1  UNL     1      -1.075   3.500  81.247  1.00  0.00     0.256 S 
HETATM    8  O1  UNL     1      -1.680   4.779  80.739  1.00  0.00    -0.201 OA
HETATM    9  O2  UNL     1       0.382   3.388  80.896  1.00  0.00    -0.201 OA
BRANCH   7  10
HETATM   10  N1  UNL     1      -1.875   2.150  80.478  1.00  0.00    -0.324 N 
ATOM     11  H12 UNL     1      -2.698   2.226  79.880  1.00  0.00     0.169 HD
ATOM     12  H11 UNL     1      -1.385   1.290  80.726  1.00  0.00     0.169 HD
ENDBRANCH   7  10
ENDBRANCH   1   7
BRANCH   4  13
HETATM   13  C5  UNL     1      -1.916   3.244  87.236  1.00  0.00     0.064 C 
BRANCH  13  14
HETATM   14  C6  UNL     1      -2.724   2.011  87.538  1.00  0.00     0.168 C 
BRANCH  14  15
HETATM   15  O3  UNL     1      -3.969   2.076  86.904  1.00  0.00    -0.401 OA
ATOM     16  H3  UNL     1      -3.973   2.768  86.253  1.00  0.00     0.209 HD
ENDBRANCH  14  15
ENDBRANCH  13  14
ENDBRANCH   4  13
TORSDOF 5
ENDMDL
