MODEL 12
REMARK VINA RESULT: -5.696285436      3.374      5.525
REMARK  5 active torsions:
REMARK  status: ('A' for Active; 'I' for Inactive)
REMARK    1  A    between atoms: N1_1  and  S1_4 
REMARK    2  A    between atoms: S1_4  and  C1_7 
REMARK    3  A    between atoms: C4_10  and  C5_11 
REMARK    4  A    between atoms: C5_11  and  C6_12 
REMARK    5  A    between atoms: C6_12  and  O3_13 
ROOT
HETATM    1  C1  UNL     1      -2.085   4.103  86.047  1.00  0.00     0.079 A 
HETATM    2  C2  UNL     1      -2.991   5.106  85.754  1.00  0.00     0.026 A 
HETATM    3  C3  UNL     1      -2.601   6.232  85.054  1.00  0.00     0.009 A 
HETATM    4  C4  UNL     1      -1.295   6.402  84.621  1.00  0.00    -0.056 A 
HETATM    5  C7  UNL     1      -0.400   5.402  84.915  1.00  0.00     0.009 A 
HETATM    6  C8  UNL     1      -0.792   4.278  85.614  1.00  0.00     0.026 A 
ENDROOT
BRANCH   1   7
HETATM    7  S1  UNL     1      -2.565   2.665  86.935  1.00  0.00     0.256 S 
HETATM    8  O1  UNL     1      -2.036   1.469  86.193  1.00  0.00    -0.201 OA
HETATM    9  O2  UNL     1      -2.078   2.707  88.357  1.00  0.00    -0.201 OA
BRANCH   7  10
HETATM   10  N1  UNL     1      -4.308   2.558  87.011  1.00  0.00    -0.324 N 
ATOM     11  H12 UNL     1      -4.881   1.973  86.404  1.00  0.00     0.169 HD
ATOM     12  H11 UNL     1      -4.644   3.172  87.754  1.00  0.00     0.169 HD
ENDBRANCH   7  10
ENDBRANCH   1   7
BRANCH   4  13
HETATM   13  C5  UNL     1      -0.855   7.598  83.872  1.00  0.00     0.064 C 
BRANCH  13  14
HETATM   14  C6  UNL     1      -0.482   7.176  82.476  1.00  0.00     0.168 C 
BRANCH  14  15
HETATM   15  O3  UNL     1      -1.630   6.873  81.736  1.00  0.00    -0.401 OA
ATOM     16  H3  UNL     1      -1.444   6.915  80.805  1.00  0.00     0.209 HD
ENDBRANCH  14  15
ENDBRANCH  13  14
ENDBRANCH   4  13
TORSDOF 5
ENDMDL
