MODEL 13
REMARK VINA RESULT: -5.683827240      3.967      5.534
REMARK  5 active torsions:
REMARK  status: ('A' for Active; 'I' for Inactive)
REMARK    1  A    between atoms: N1_1  and  S1_4 
REMARK    2  A    between atoms: S1_4  and  C1_7 
REMARK    3  A    between atoms: C4_10  and  C5_11 
REMARK    4  A    between atoms: C5_11  and  C6_12 
REMARK    5  A    between atoms: C6_12  and  O3_13 
ROOT
HETATM    1  C1  UNL     1      -1.957   3.862  86.117  1.00  0.00     0.079 A 
HETATM    2  C2  UNL     1      -0.604   3.971  85.850  1.00  0.00     0.026 A 
HETATM    3  C3  UNL     1      -0.104   5.057  85.156  1.00  0.00     0.009 A 
HETATM    4  C4  UNL     1      -0.932   6.073  84.701  1.00  0.00    -0.056 A 
HETATM    5  C7  UNL     1      -2.274   5.957  84.971  1.00  0.00     0.009 A 
HETATM    6  C8  UNL     1      -2.771   4.872  85.665  1.00  0.00     0.026 A 
ENDROOT
BRANCH   1   7
HETATM    7  S1  UNL     1      -2.609   2.488  86.999  1.00  0.00     0.256 S 
HETATM    8  O1  UNL     1      -2.230   1.240  86.250  1.00  0.00    -0.201 OA
HETATM    9  O2  UNL     1      -2.120   2.463  88.420  1.00  0.00    -0.201 OA
BRANCH   7  10
HETATM   10  N1  UNL     1      -4.351   2.594  87.077  1.00  0.00    -0.324 N 
ATOM     11  H12 UNL     1      -4.965   1.850  87.407  1.00  0.00     0.169 HD
ATOM     12  H11 UNL     1      -4.642   3.513  86.740  1.00  0.00     0.169 HD
ENDBRANCH   7  10
ENDBRANCH   1   7
BRANCH   4  13
HETATM   13  C5  UNL     1      -0.419   7.242  83.957  1.00  0.00     0.064 C 
BRANCH  13  14
HETATM   14  C6  UNL     1       1.076   7.291  84.117  1.00  0.00     0.168 C 
BRANCH  14  15
HETATM   15  O3  UNL     1       1.475   8.545  84.590  1.00  0.00    -0.401 OA
ATOM     16  H3  UNL     1       0.731   9.018  84.942  1.00  0.00     0.209 HD
ENDBRANCH  14  15
ENDBRANCH  13  14
ENDBRANCH   4  13
TORSDOF 5
ENDMDL
