MODEL 7
REMARK VINA RESULT: -5.802507782      3.787      5.684
REMARK  5 active torsions:
REMARK  status: ('A' for Active; 'I' for Inactive)
REMARK    1  A    between atoms: N1_1  and  S1_4 
REMARK    2  A    between atoms: S1_4  and  C1_7 
REMARK    3  A    between atoms: C4_10  and  C5_11 
REMARK    4  A    between atoms: C5_11  and  C6_12 
REMARK    5  A    between atoms: C6_12  and  O3_13 
ROOT
HETATM    1  C1  UNL     1      -2.195   3.687  86.297  1.00  0.00     0.079 A 
HETATM    2  C2  UNL     1      -2.822   4.688  85.577  1.00  0.00     0.026 A 
HETATM    3  C3  UNL     1      -2.106   5.493  84.711  1.00  0.00     0.009 A 
HETATM    4  C4  UNL     1      -0.741   5.333  84.530  1.00  0.00    -0.056 A 
HETATM    5  C7  UNL     1      -0.126   4.336  85.249  1.00  0.00     0.009 A 
HETATM    6  C8  UNL     1      -0.842   3.533  86.113  1.00  0.00     0.026 A 
ENDROOT
BRANCH   1   7
HETATM    7  S1  UNL     1      -3.091   2.654  87.402  1.00  0.00     0.256 S 
HETATM    8  O1  UNL     1      -4.526   2.638  86.953  1.00  0.00    -0.201 OA
HETATM    9  O2  UNL     1      -2.504   1.272  87.462  1.00  0.00    -0.201 OA
BRANCH   7  10
HETATM   10  N1  UNL     1      -3.012   3.297  89.024  1.00  0.00    -0.324 N 
ATOM     11  H12 UNL     1      -3.712   3.136  89.748  1.00  0.00     0.169 HD
ATOM     12  H11 UNL     1      -2.160   3.851  89.119  1.00  0.00     0.169 HD
ENDBRANCH   7  10
ENDBRANCH   1   7
BRANCH   4  13
HETATM   13  C5  UNL     1       0.045   6.182  83.611  1.00  0.00     0.064 C 
BRANCH  13  14
HETATM   14  C6  UNL     1       1.423   6.362  84.188  1.00  0.00     0.168 C 
BRANCH  14  15
HETATM   15  O3  UNL     1       2.377   5.745  83.372  1.00  0.00    -0.401 OA
ATOM     16  H3  UNL     1       3.222   5.727  83.806  1.00  0.00     0.209 HD
ENDBRANCH  14  15
ENDBRANCH  13  14
ENDBRANCH   4  13
TORSDOF 5
ENDMDL
