MODEL 5
REMARK VINA RESULT: -5.871639618      3.040      3.486
REMARK  5 active torsions:
REMARK  status: ('A' for Active; 'I' for Inactive)
REMARK    1  A    between atoms: N1_1  and  S1_4 
REMARK    2  A    between atoms: S1_4  and  C1_7 
REMARK    3  A    between atoms: C4_10  and  C5_11 
REMARK    4  A    between atoms: C5_11  and  C6_12 
REMARK    5  A    between atoms: C6_12  and  O3_13 
ROOT
HETATM    1  C1  UNL     1      -0.682   5.722  84.691  1.00  0.00     0.079 A 
HETATM    2  C2  UNL     1      -2.015   6.088  84.751  1.00  0.00     0.026 A 
HETATM    3  C3  UNL     1      -2.932   5.316  85.440  1.00  0.00     0.009 A 
HETATM    4  C4  UNL     1      -2.557   4.151  86.092  1.00  0.00    -0.056 A 
HETATM    5  C7  UNL     1      -1.231   3.795  86.028  1.00  0.00     0.009 A 
HETATM    6  C8  UNL     1      -0.318   4.567  85.340  1.00  0.00     0.026 A 
ENDROOT
BRANCH   1   7
HETATM    7  S1  UNL     1       0.496   6.693  83.821  1.00  0.00     0.256 S 
HETATM    8  O1  UNL     1      -0.009   6.879  82.417  1.00  0.00    -0.201 OA
HETATM    9  O2  UNL     1       0.745   8.006  84.508  1.00  0.00    -0.201 OA
BRANCH   7  10
HETATM   10  N1  UNL     1       2.034   5.865  83.764  1.00  0.00    -0.324 N 
ATOM     11  H12 UNL     1       2.458   5.483  82.918  1.00  0.00     0.169 HD
ATOM     12  H11 UNL     1       2.426   5.831  84.705  1.00  0.00     0.169 HD
ENDBRANCH   7  10
ENDBRANCH   1   7
BRANCH   4  13
HETATM   13  C5  UNL     1      -3.520   3.310  86.833  1.00  0.00     0.064 C 
BRANCH  13  14
HETATM   14  C6  UNL     1      -2.763   2.510  87.859  1.00  0.00     0.168 C 
BRANCH  14  15
HETATM   15  O3  UNL     1      -2.746   1.157  87.506  1.00  0.00    -0.401 OA
ATOM     16  H3  UNL     1      -3.313   0.658  88.081  1.00  0.00     0.209 HD
ENDBRANCH  14  15
ENDBRANCH  13  14
ENDBRANCH   4  13
TORSDOF 5
ENDMDL
