MODEL 8
REMARK VINA RESULT: -5.791746718      3.778      5.568
REMARK  5 active torsions:
REMARK  status: ('A' for Active; 'I' for Inactive)
REMARK    1  A    between atoms: N1_1  and  S1_4 
REMARK    2  A    between atoms: S1_4  and  C1_7 
REMARK    3  A    between atoms: C4_10  and  C5_11 
REMARK    4  A    between atoms: C5_11  and  C6_12 
REMARK    5  A    between atoms: C6_12  and  O3_13 
ROOT
HETATM    1  C1  UNL     1      -2.173   3.669  86.307  1.00  0.00     0.079 A 
HETATM    2  C2  UNL     1      -0.808   3.509  86.149  1.00  0.00     0.026 A 
HETATM    3  C3  UNL     1      -0.095   4.318  85.285  1.00  0.00     0.009 A 
HETATM    4  C4  UNL     1      -0.713   5.315  84.545  1.00  0.00    -0.056 A 
HETATM    5  C7  UNL     1      -2.069   5.467  84.708  1.00  0.00     0.009 A 
HETATM    6  C8  UNL     1      -2.779   4.659  85.571  1.00  0.00     0.026 A 
ENDROOT
BRANCH   1   7
HETATM    7  S1  UNL     1      -3.094   2.649  87.402  1.00  0.00     0.256 S 
HETATM    8  O1  UNL     1      -4.523   2.646  86.934  1.00  0.00    -0.201 OA
HETATM    9  O2  UNL     1      -2.522   1.261  87.475  1.00  0.00    -0.201 OA
BRANCH   7  10
HETATM   10  N1  UNL     1      -3.031   3.296  89.024  1.00  0.00    -0.324 N 
ATOM     11  H12 UNL     1      -2.651   2.804  89.832  1.00  0.00     0.169 HD
ATOM     12  H11 UNL     1      -3.433   4.234  89.021  1.00  0.00     0.169 HD
ENDBRANCH   7  10
ENDBRANCH   1   7
BRANCH   4  13
HETATM   13  C5  UNL     1       0.029   6.191  83.615  1.00  0.00     0.064 C 
BRANCH  13  14
HETATM   14  C6  UNL     1       1.422   6.383  84.151  1.00  0.00     0.168 C 
BRANCH  14  15
HETATM   15  O3  UNL     1       2.351   5.719  83.343  1.00  0.00    -0.401 OA
ATOM     16  H3  UNL     1       2.818   6.340  82.796  1.00  0.00     0.209 HD
ENDBRANCH  14  15
ENDBRANCH  13  14
ENDBRANCH   4  13
TORSDOF 5
ENDMDL
