MODEL 11
REMARK VINA RESULT: -5.701707544      3.362      5.422
REMARK  5 active torsions:
REMARK  status: ('A' for Active; 'I' for Inactive)
REMARK    1  A    between atoms: N1_1  and  S1_4 
REMARK    2  A    between atoms: S1_4  and  C1_7 
REMARK    3  A    between atoms: C4_10  and  C5_11 
REMARK    4  A    between atoms: C5_11  and  C6_12 
REMARK    5  A    between atoms: C6_12  and  O3_13 
ROOT
HETATM    1  C1  UNL     1      -2.088   4.091  86.043  1.00  0.00     0.079 A 
HETATM    2  C2  UNL     1      -0.785   4.261  85.611  1.00  0.00     0.026 A 
HETATM    3  C3  UNL     1      -0.415   5.386  84.899  1.00  0.00     0.009 A 
HETATM    4  C4  UNL     1      -1.328   6.383  84.589  1.00  0.00    -0.056 A 
HETATM    5  C7  UNL     1      -2.620   6.207  85.021  1.00  0.00     0.009 A 
HETATM    6  C8  UNL     1      -2.987   5.083  85.733  1.00  0.00     0.026 A 
ENDROOT
BRANCH   1   7
HETATM    7  S1  UNL     1      -2.574   2.667  86.950  1.00  0.00     0.256 S 
HETATM    8  O1  UNL     1      -2.046   1.459  86.227  1.00  0.00    -0.201 OA
HETATM    9  O2  UNL     1      -2.091   2.728  88.372  1.00  0.00    -0.201 OA
BRANCH   7  10
HETATM   10  N1  UNL     1      -4.317   2.565  87.023  1.00  0.00    -0.324 N 
ATOM     11  H12 UNL     1      -4.842   1.719  87.242  1.00  0.00     0.169 HD
ATOM     12  H11 UNL     1      -4.711   3.483  86.812  1.00  0.00     0.169 HD
ENDBRANCH   7  10
ENDBRANCH   1   7
BRANCH   4  13
HETATM   13  C5  UNL     1      -0.955   7.594  83.828  1.00  0.00     0.064 C 
BRANCH  13  14
HETATM   14  C6  UNL     1      -0.531   7.176  82.445  1.00  0.00     0.168 C 
BRANCH  14  15
HETATM   15  O3  UNL     1      -1.643   6.791  81.690  1.00  0.00    -0.401 OA
ATOM     16  H3  UNL     1      -2.390   6.635  82.256  1.00  0.00     0.209 HD
ENDBRANCH  14  15
ENDBRANCH  13  14
ENDBRANCH   4  13
TORSDOF 5
ENDMDL
