MODEL 1
REMARK VINA RESULT: -5.943380571      0.000      0.000
REMARK  5 active torsions:
REMARK  status: ('A' for Active; 'I' for Inactive)
REMARK    1  A    between atoms: N1_1  and  S1_4 
REMARK    2  A    between atoms: S1_4  and  C1_7 
REMARK    3  A    between atoms: C4_10  and  C5_11 
REMARK    4  A    between atoms: C5_11  and  C6_12 
REMARK    5  A    between atoms: C6_12  and  O3_13 
ROOT
HETATM    1  C1  UNL     1      -1.314   3.381  82.977  1.00  0.00     0.079 A 
HETATM    2  C2  UNL     1      -0.967   2.256  83.705  1.00  0.00     0.026 A 
HETATM    3  C3  UNL     1      -1.161   2.209  85.072  1.00  0.00     0.009 A 
HETATM    4  C4  UNL     1      -1.706   3.278  85.767  1.00  0.00    -0.056 A 
HETATM    5  C7  UNL     1      -2.048   4.392  85.037  1.00  0.00     0.009 A 
HETATM    6  C8  UNL     1      -1.853   4.437  83.672  1.00  0.00     0.026 A 
ENDROOT
BRANCH   1   7
HETATM    7  S1  UNL     1      -1.073   3.457  81.238  1.00  0.00     0.256 S 
HETATM    8  O1  UNL     1      -1.693   4.736  80.745  1.00  0.00    -0.201 OA
HETATM    9  O2  UNL     1       0.383   3.361  80.878  1.00  0.00    -0.201 OA
BRANCH   7  10
HETATM   10  N1  UNL     1      -1.866   2.108  80.461  1.00  0.00    -0.324 N 
ATOM     11  H12 UNL     1      -2.729   1.674  80.788  1.00  0.00     0.169 HD
ATOM     12  H11 UNL     1      -1.325   1.835  79.640  1.00  0.00     0.169 HD
ENDBRANCH   7  10
ENDBRANCH   1   7
BRANCH   4  13
HETATM   13  C5  UNL     1      -1.922   3.250  87.228  1.00  0.00     0.064 C 
BRANCH  13  14
HETATM   14  C6  UNL     1      -2.724   2.022  87.567  1.00  0.00     0.168 C 
BRANCH  14  15
HETATM   15  O3  UNL     1      -3.967   2.059  86.928  1.00  0.00    -0.401 OA
ATOM     16  H3  UNL     1      -4.484   1.298  87.163  1.00  0.00     0.209 HD
ENDBRANCH  14  15
ENDBRANCH  13  14
ENDBRANCH   4  13
TORSDOF 5
ENDMDL
