MODEL 6
REMARK VINA RESULT: -6.444434840      1.962      4.830
REMARK  9 active torsions:
REMARK  status: ('A' for Active; 'I' for Inactive)
REMARK       I    between atoms: C2_2  and  N1_4 
REMARK    1  A    between atoms: N1_4  and  C3_6 
REMARK    2  A    between atoms: C4_7  and  O2_8 
REMARK    3  A    between atoms: C6_11  and  C7_12 
REMARK    4  A    between atoms: C8_16  and  C9_17 
REMARK    5  A    between atoms: C9_17  and  O6_18 
REMARK    6  A    between atoms: C9_17  and  C10_20 
REMARK    7  A    between atoms: C10_20  and  O7_21 
REMARK    8  A    between atoms: C10_20  and  C11_23 
REMARK    9  A    between atoms: C11_23  and  O8_24 
ROOT
HETATM    1  C3  UNL     1     -45.717 -31.605   1.315  1.00  0.00     0.149 C 
HETATM    2  C4  UNL     1     -44.213 -31.557   1.245  1.00  0.00     0.169 C 
HETATM    3  C5  UNL     1     -43.740 -30.688   2.343  1.00  0.00     0.050 C 
HETATM    4  C6  UNL     1     -44.440 -30.566   3.450  1.00  0.00     0.144 C 
HETATM    5  O5  UNL     1     -45.629 -31.231   3.640  1.00  0.00    -0.335 OA
HETATM    6  C8  UNL     1     -46.207 -32.078   2.678  1.00  0.00     0.186 C 
ENDROOT
BRANCH   6   7
HETATM    7  C9  UNL     1     -47.695 -31.991   2.624  1.00  0.00     0.180 C 
BRANCH   7   8
HETATM    8  O6  UNL     1     -48.239 -33.170   2.147  1.00  0.00    -0.390 OA
ATOM      9  H6  UNL     1     -48.123 -33.237   1.206  1.00  0.00     0.210 HD
ENDBRANCH   7   8
BRANCH   7  10
HETATM   10  C10 UNL     1     -48.235 -30.810   1.899  1.00  0.00     0.173 C 
BRANCH  10  11
HETATM   11  O7  UNL     1     -48.436 -29.793   2.864  1.00  0.00    -0.391 OA
ATOM     12  H7  UNL     1     -49.365 -29.775   3.055  1.00  0.00     0.210 HD
ENDBRANCH  10  11
BRANCH  10  13
HETATM   13  C11 UNL     1     -49.612 -31.069   1.304  1.00  0.00     0.198 C 
BRANCH  13  14
HETATM   14  O8  UNL     1     -49.670 -30.601  -0.005  1.00  0.00    -0.398 OA
ATOM     15  H8  UNL     1     -50.573 -30.527  -0.290  1.00  0.00     0.209 HD
ENDBRANCH  13  14
ENDBRANCH  10  13
ENDBRANCH   7  10
ENDBRANCH   6   7
BRANCH   1  16
HETATM   16  N1  UNL     1     -46.180 -32.576   0.345  1.00  0.00    -0.351 N 
HETATM   17  C2  UNL     1     -46.676 -32.231  -0.937  1.00  0.00     0.214 C 
HETATM   18  C1  UNL     1     -47.144 -33.280  -1.906  1.00  0.00     0.117 C 
HETATM   19  O1  UNL     1     -46.718 -31.021  -1.251  1.00  0.00    -0.274 OA
ATOM     20  H1  UNL     1     -46.147 -33.563   0.598  1.00  0.00     0.163 HD
ENDBRANCH   1  16
BRANCH   2  21
HETATM   21  O2  UNL     1     -43.873 -30.952   0.036  1.00  0.00    -0.389 OA
ATOM     22  H2  UNL     1     -44.286 -30.096   0.023  1.00  0.00     0.210 HD
ENDBRANCH   2  21
BRANCH   4  23
HETATM   23  C7  UNL     1     -43.914 -29.682   4.510  1.00  0.00     0.233 C 
HETATM   24  O3  UNL     1     -43.743 -28.468   4.322  1.00  0.00    -0.642 OA
HETATM   25  O4  UNL     1     -43.595 -30.194   5.762  1.00  0.00    -0.642 OA
ENDBRANCH   4  23
TORSDOF 9
ENDMDL
