MODEL 1
REMARK VINA RESULT: -7.191847275      0.000      0.000
REMARK  9 active torsions:
REMARK  status: ('A' for Active; 'I' for Inactive)
REMARK       I    between atoms: C2_2  and  N1_4 
REMARK    1  A    between atoms: N1_4  and  C3_6 
REMARK    2  A    between atoms: C4_7  and  O2_8 
REMARK    3  A    between atoms: C6_11  and  C7_12 
REMARK    4  A    between atoms: C8_16  and  C9_17 
REMARK    5  A    between atoms: C9_17  and  O6_18 
REMARK    6  A    between atoms: C9_17  and  C10_20 
REMARK    7  A    between atoms: C10_20  and  O7_21 
REMARK    8  A    between atoms: C10_20  and  C11_23 
REMARK    9  A    between atoms: C11_23  and  O8_24 
ROOT
HETATM    1  C3  UNL     1     -44.128 -31.273   1.611  1.00  0.00     0.149 C 
HETATM    2  C4  UNL     1     -43.088 -31.369   0.525  1.00  0.00     0.169 C 
HETATM    3  C5  UNL     1     -43.735 -31.964  -0.664  1.00  0.00     0.050 C 
HETATM    4  C6  UNL     1     -45.023 -31.804  -0.876  1.00  0.00     0.144 C 
HETATM    5  O5  UNL     1     -45.823 -31.086  -0.016  1.00  0.00    -0.335 OA
HETATM    6  C8  UNL     1     -45.348 -30.479   1.161  1.00  0.00     0.186 C 
ENDROOT
BRANCH   6   7
HETATM    7  C9  UNL     1     -46.314 -30.544   2.296  1.00  0.00     0.180 C 
BRANCH   7   8
HETATM    8  O6  UNL     1     -46.233 -31.767   2.938  1.00  0.00    -0.390 OA
ATOM      9  H6  UNL     1     -45.979 -31.653   3.846  1.00  0.00     0.210 HD
ENDBRANCH   7   8
BRANCH   7  10
HETATM   10  C10 UNL     1     -47.719 -30.201   1.952  1.00  0.00     0.173 C 
BRANCH  10  11
HETATM   11  O7  UNL     1     -47.954 -28.893   2.441  1.00  0.00    -0.391 OA
ATOM     12  H7  UNL     1     -48.892 -28.755   2.416  1.00  0.00     0.210 HD
ENDBRANCH  10  11
BRANCH  10  13
HETATM   13  C11 UNL     1     -48.728 -31.081   2.676  1.00  0.00     0.198 C 
BRANCH  13  14
HETATM   14  O8  UNL     1     -48.959 -32.249   1.954  1.00  0.00    -0.398 OA
ATOM     15  H8  UNL     1     -49.774 -32.183   1.470  1.00  0.00     0.209 HD
ENDBRANCH  13  14
ENDBRANCH  10  13
ENDBRANCH   7  10
ENDBRANCH   6   7
BRANCH   1  16
HETATM   16  N1  UNL     1     -43.547 -30.550   2.724  1.00  0.00    -0.351 N 
HETATM   17  C2  UNL     1     -43.229 -31.147   3.969  1.00  0.00     0.214 C 
HETATM   18  C1  UNL     1     -42.627 -30.349   5.091  1.00  0.00     0.117 C 
HETATM   19  O1  UNL     1     -43.459 -32.368   4.117  1.00  0.00    -0.274 OA
ATOM     20  H1  UNL     1     -43.358 -29.555   2.605  1.00  0.00     0.163 HD
ENDBRANCH   1  16
BRANCH   2  21
HETATM   21  O2  UNL     1     -42.105 -32.252   0.970  1.00  0.00    -0.389 OA
ATOM     22  H2  UNL     1     -42.224 -33.068   0.498  1.00  0.00     0.210 HD
ENDBRANCH   2  21
BRANCH   4  23
HETATM   23  C7  UNL     1     -45.610 -32.422  -2.082  1.00  0.00     0.233 C 
HETATM   24  O3  UNL     1     -44.959 -33.191  -2.805  1.00  0.00    -0.642 OA
HETATM   25  O4  UNL     1     -46.927 -32.156  -2.442  1.00  0.00    -0.642 OA
ENDBRANCH   4  23
TORSDOF 9
ENDMDL
