MODEL 2
REMARK VINA RESULT: -7.019132781      0.692      1.115
REMARK  9 active torsions:
REMARK  status: ('A' for Active; 'I' for Inactive)
REMARK       I    between atoms: C2_2  and  N1_4 
REMARK    1  A    between atoms: N1_4  and  C3_6 
REMARK    2  A    between atoms: C4_7  and  O2_8 
REMARK    3  A    between atoms: C6_11  and  C7_12 
REMARK    4  A    between atoms: C8_16  and  C9_17 
REMARK    5  A    between atoms: C9_17  and  O6_18 
REMARK    6  A    between atoms: C9_17  and  C10_20 
REMARK    7  A    between atoms: C10_20  and  O7_21 
REMARK    8  A    between atoms: C10_20  and  C11_23 
REMARK    9  A    between atoms: C11_23  and  O8_24 
ROOT
HETATM    1  C3  UNL     1     -43.972 -31.460   1.777  1.00  0.00     0.149 C 
HETATM    2  C4  UNL     1     -43.051 -31.202   0.613  1.00  0.00     0.169 C 
HETATM    3  C5  UNL     1     -43.686 -31.768  -0.596  1.00  0.00     0.050 C 
HETATM    4  C6  UNL     1     -44.995 -31.855  -0.686  1.00  0.00     0.144 C 
HETATM    5  O5  UNL     1     -45.828 -31.432   0.325  1.00  0.00    -0.335 OA
HETATM    6  C8  UNL     1     -45.364 -30.889   1.537  1.00  0.00     0.186 C 
ENDROOT
BRANCH   6   7
HETATM    7  C9  UNL     1     -46.176 -31.293   2.720  1.00  0.00     0.180 C 
BRANCH   7   8
HETATM    8  O6  UNL     1     -46.000 -32.637   2.999  1.00  0.00    -0.390 OA
ATOM      9  H6  UNL     1     -46.257 -32.831   3.893  1.00  0.00     0.210 HD
ENDBRANCH   7   8
BRANCH   7  10
HETATM   10  C10 UNL     1     -47.618 -30.937   2.651  1.00  0.00     0.173 C 
BRANCH  10  11
HETATM   11  O7  UNL     1     -48.245 -31.916   1.844  1.00  0.00    -0.391 OA
ATOM     12  H7  UNL     1     -48.721 -31.452   1.166  1.00  0.00     0.210 HD
ENDBRANCH  10  11
BRANCH  10  13
HETATM   13  C11 UNL     1     -47.859 -29.617   1.931  1.00  0.00     0.198 C 
BRANCH  13  14
HETATM   14  O8  UNL     1     -48.421 -29.844   0.678  1.00  0.00    -0.398 OA
ATOM     15  H8  UNL     1     -48.872 -29.067   0.372  1.00  0.00     0.209 HD
ENDBRANCH  13  14
ENDBRANCH  10  13
ENDBRANCH   7  10
ENDBRANCH   6   7
BRANCH   1  16
HETATM   16  N1  UNL     1     -43.434 -30.774   2.934  1.00  0.00    -0.351 N 
HETATM   17  C2  UNL     1     -43.111 -31.423   4.152  1.00  0.00     0.214 C 
HETATM   18  C1  UNL     1     -42.555 -30.662   5.323  1.00  0.00     0.117 C 
HETATM   19  O1  UNL     1     -43.299 -32.657   4.234  1.00  0.00    -0.274 OA
ATOM     20  H1  UNL     1     -43.280 -29.768   2.869  1.00  0.00     0.163 HD
ENDBRANCH   1  16
BRANCH   2  21
HETATM   21  O2  UNL     1     -41.873 -31.908   0.854  1.00  0.00    -0.389 OA
ATOM     22  H2  UNL     1     -41.868 -32.145   1.774  1.00  0.00     0.210 HD
ENDBRANCH   2  21
BRANCH   4  23
HETATM   23  C7  UNL     1     -45.570 -32.429  -1.919  1.00  0.00     0.233 C 
HETATM   24  O3  UNL     1     -44.922 -33.201  -2.643  1.00  0.00    -0.642 OA
HETATM   25  O4  UNL     1     -46.868 -32.117  -2.306  1.00  0.00    -0.642 OA
ENDBRANCH   4  23
TORSDOF 9
ENDMDL
