MODEL 4
REMARK VINA RESULT: -6.655942521      2.061      5.009
REMARK  9 active torsions:
REMARK  status: ('A' for Active; 'I' for Inactive)
REMARK       I    between atoms: C2_2  and  N1_4 
REMARK    1  A    between atoms: N1_4  and  C3_6 
REMARK    2  A    between atoms: C4_7  and  O2_8 
REMARK    3  A    between atoms: C6_11  and  C7_12 
REMARK    4  A    between atoms: C8_16  and  C9_17 
REMARK    5  A    between atoms: C9_17  and  O6_18 
REMARK    6  A    between atoms: C9_17  and  C10_20 
REMARK    7  A    between atoms: C10_20  and  O7_21 
REMARK    8  A    between atoms: C10_20  and  C11_23 
REMARK    9  A    between atoms: C11_23  and  O8_24 
ROOT
HETATM    1  C3  UNL     1     -46.443 -31.311   1.177  1.00  0.00     0.149 C 
HETATM    2  C4  UNL     1     -47.058 -31.050   2.527  1.00  0.00     0.169 C 
HETATM    3  C5  UNL     1     -48.476 -30.689   2.313  1.00  0.00     0.050 C 
HETATM    4  C6  UNL     1     -49.133 -31.148   1.270  1.00  0.00     0.144 C 
HETATM    5  O5  UNL     1     -48.544 -31.973   0.339  1.00  0.00    -0.335 OA
HETATM    6  C8  UNL     1     -47.201 -32.386   0.407  1.00  0.00     0.186 C 
ENDROOT
BRANCH   6   7
HETATM    7  C9  UNL     1     -46.537 -32.471  -0.926  1.00  0.00     0.180 C 
BRANCH   7   8
HETATM    8  O6  UNL     1     -46.450 -31.220  -1.512  1.00  0.00    -0.390 OA
ATOM      9  H6  UNL     1     -45.552 -31.020  -1.744  1.00  0.00     0.210 HD
ENDBRANCH   7   8
BRANCH   7  10
HETATM   10  C10 UNL     1     -47.118 -33.471  -1.861  1.00  0.00     0.173 C 
BRANCH  10  11
HETATM   11  O7  UNL     1     -47.669 -34.504  -1.066  1.00  0.00    -0.391 OA
ATOM     12  H7  UNL     1     -47.518 -35.319  -1.529  1.00  0.00     0.210 HD
ENDBRANCH  10  11
BRANCH  10  13
HETATM   13  C11 UNL     1     -46.061 -34.152  -2.718  1.00  0.00     0.198 C 
BRANCH  13  14
HETATM   14  O8  UNL     1     -44.980 -33.299  -2.924  1.00  0.00    -0.398 OA
ATOM     15  H8  UNL     1     -45.096 -32.494  -2.434  1.00  0.00     0.209 HD
ENDBRANCH  13  14
ENDBRANCH  10  13
ENDBRANCH   7  10
ENDBRANCH   6   7
BRANCH   1  16
HETATM   16  N1  UNL     1     -45.102 -31.817   1.387  1.00  0.00    -0.351 N 
HETATM   17  C2  UNL     1     -43.936 -31.180   0.893  1.00  0.00     0.214 C 
HETATM   18  C1  UNL     1     -42.567 -31.748   1.139  1.00  0.00     0.117 C 
HETATM   19  O1  UNL     1     -44.071 -30.121   0.241  1.00  0.00    -0.274 OA
ATOM     20  H1  UNL     1     -44.990 -32.680   1.919  1.00  0.00     0.163 HD
ENDBRANCH   1  16
BRANCH   2  21
HETATM   21  O2  UNL     1     -46.408 -29.943   3.071  1.00  0.00    -0.389 OA
ATOM     22  H2  UNL     1     -47.077 -29.319   3.326  1.00  0.00     0.210 HD
ENDBRANCH   2  21
BRANCH   4  23
HETATM   23  C7  UNL     1     -50.547 -30.751   1.111  1.00  0.00     0.233 C 
HETATM   24  O3  UNL     1     -51.287 -30.567   2.088  1.00  0.00    -0.642 OA
HETATM   25  O4  UNL     1     -51.092 -30.571  -0.156  1.00  0.00    -0.642 OA
ENDBRANCH   4  23
TORSDOF 9
ENDMDL
