MODEL 3
REMARK VINA RESULT: -6.823377139      1.916      4.914
REMARK  9 active torsions:
REMARK  status: ('A' for Active; 'I' for Inactive)
REMARK       I    between atoms: C2_2  and  N1_4 
REMARK    1  A    between atoms: N1_4  and  C3_6 
REMARK    2  A    between atoms: C4_7  and  O2_8 
REMARK    3  A    between atoms: C6_11  and  C7_12 
REMARK    4  A    between atoms: C8_16  and  C9_17 
REMARK    5  A    between atoms: C9_17  and  O6_18 
REMARK    6  A    between atoms: C9_17  and  C10_20 
REMARK    7  A    between atoms: C10_20  and  O7_21 
REMARK    8  A    between atoms: C10_20  and  C11_23 
REMARK    9  A    between atoms: C11_23  and  O8_24 
ROOT
HETATM    1  C3  UNL     1     -45.521 -31.352   1.530  1.00  0.00     0.149 C 
HETATM    2  C4  UNL     1     -44.203 -31.955   1.941  1.00  0.00     0.169 C 
HETATM    3  C5  UNL     1     -43.567 -31.029   2.902  1.00  0.00     0.050 C 
HETATM    4  C6  UNL     1     -44.299 -30.247   3.665  1.00  0.00     0.144 C 
HETATM    5  O5  UNL     1     -45.674 -30.250   3.608  1.00  0.00    -0.335 OA
HETATM    6  C8  UNL     1     -46.414 -31.065   2.732  1.00  0.00     0.186 C 
ENDROOT
BRANCH   6   7
HETATM    7  C9  UNL     1     -47.630 -30.399   2.182  1.00  0.00     0.180 C 
BRANCH   7   8
HETATM    8  O6  UNL     1     -47.674 -29.069   2.564  1.00  0.00    -0.390 OA
ATOM      9  H6  UNL     1     -47.254 -28.519   1.914  1.00  0.00     0.210 HD
ENDBRANCH   7   8
BRANCH   7  10
HETATM   10  C10 UNL     1     -48.915 -31.090   2.467  1.00  0.00     0.173 C 
BRANCH  10  11
HETATM   11  O7  UNL     1     -48.596 -32.429   2.798  1.00  0.00    -0.391 OA
ATOM     12  H7  UNL     1     -47.966 -32.729   2.154  1.00  0.00     0.210 HD
ENDBRANCH  10  11
BRANCH  10  13
HETATM   13  C11 UNL     1     -49.809 -31.188   1.239  1.00  0.00     0.198 C 
BRANCH  13  14
HETATM   14  O8  UNL     1     -49.330 -30.366   0.223  1.00  0.00    -0.398 OA
ATOM     15  H8  UNL     1     -49.900 -30.410  -0.535  1.00  0.00     0.209 HD
ENDBRANCH  13  14
ENDBRANCH  10  13
ENDBRANCH   7  10
ENDBRANCH   6   7
BRANCH   1  16
HETATM   16  N1  UNL     1     -46.222 -32.321   0.713  1.00  0.00    -0.351 N 
HETATM   17  C2  UNL     1     -46.643 -32.070  -0.616  1.00  0.00     0.214 C 
HETATM   18  C1  UNL     1     -47.368 -33.112  -1.421  1.00  0.00     0.117 C 
HETATM   19  O1  UNL     1     -46.396 -30.949  -1.115  1.00  0.00    -0.274 OA
ATOM     20  H1  UNL     1     -46.424 -33.235   1.117  1.00  0.00     0.163 HD
ENDBRANCH   1  16
BRANCH   2  21
HETATM   21  O2  UNL     1     -43.402 -32.014   0.801  1.00  0.00    -0.389 OA
ATOM     22  H2  UNL     1     -43.982 -32.102   0.054  1.00  0.00     0.210 HD
ENDBRANCH   2  21
BRANCH   4  23
HETATM   23  C7  UNL     1     -43.604 -29.345   4.605  1.00  0.00     0.233 C 
HETATM   24  O3  UNL     1     -43.475 -28.134   4.372  1.00  0.00    -0.642 OA
HETATM   25  O4  UNL     1     -43.070 -29.836   5.791  1.00  0.00    -0.642 OA
ENDBRANCH   4  23
TORSDOF 9
ENDMDL
