MODEL 8
REMARK VINA RESULT: -9.177671226      2.553      4.217
REMARK  5 active torsions:
REMARK  status: ('A' for Active; 'I' for Inactive)
REMARK    1  A    between atoms: C5_7  and  C6_8 
REMARK    2  A    between atoms: C6_8  and  C7_9 
REMARK    3  A    between atoms: C7_9  and  N2_10 
REMARK       I    between atoms: N2_10  and  C8_12 
REMARK    4  A    between atoms: C8_12  and  C9_14 
REMARK    5  A    between atoms: C12_17  and  N3_18 
ROOT
HETATM    1  N2  UNL     1     -15.513 -37.779 -12.538  1.00  0.00    -0.356 N 
ATOM      2  H2  UNL     1     -15.349 -37.653 -11.539  1.00  0.00     0.162 HD
HETATM    3  C8  UNL     1     -15.626 -39.094 -13.054  1.00  0.00     0.251 C 
HETATM    4  O1  UNL     1     -15.836 -39.277 -14.312  1.00  0.00    -0.268 OA
ENDROOT
BRANCH   1   5
HETATM    5  C7  UNL     1     -15.622 -36.614 -13.378  1.00  0.00     0.130 C 
BRANCH   5   6
HETATM    6  C6  UNL     1     -14.286 -35.934 -13.609  1.00  0.00     0.096 C 
BRANCH   6   7
HETATM    7  C5  UNL     1     -13.726 -35.498 -12.291  1.00  0.00     0.083 A 
HETATM    8  N1  UNL     1     -12.468 -35.721 -11.876  1.00  0.00    -0.344 N 
HETATM    9  C4  UNL     1     -12.287 -35.203 -10.654  1.00  0.00     0.061 A 
ATOM     10  H1  UNL     1     -11.755 -36.214 -12.414  1.00  0.00     0.167 HD
HETATM   11  C3  UNL     1     -11.205 -35.149  -9.778  1.00  0.00     0.039 A 
HETATM   12  C17 UNL     1     -13.486 -34.628 -10.283  1.00  0.00     0.061 A 
HETATM   13  C2  UNL     1     -11.361 -34.511  -8.539  1.00  0.00    -0.054 A 
HETATM   14  C1  UNL     1     -10.235 -34.446  -7.607  1.00  0.00     0.049 C 
HETATM   15  C19 UNL     1     -12.549 -33.943  -8.174  1.00  0.00    -0.054 A 
HETATM   16  C18 UNL     1     -13.616 -33.996  -9.040  1.00  0.00     0.039 A 
HETATM   17  C20 UNL     1     -12.696 -33.281  -6.880  1.00  0.00     0.049 C 
HETATM   18  N6  UNL     1     -14.328 -34.829 -11.302  1.00  0.00    -0.344 N 
ATOM     19  H6  UNL     1     -15.298 -34.514 -11.322  1.00  0.00     0.167 HD
ENDBRANCH   6   7
ENDBRANCH   5   6
ENDBRANCH   1   5
BRANCH   3  20
HETATM   20  C9  UNL     1     -15.512 -40.253 -12.194  1.00  0.00     0.032 A 
HETATM   21  C10 UNL     1     -14.730 -40.262 -11.083  1.00  0.00     0.019 A 
HETATM   22  C11 UNL     1     -14.648 -41.398 -10.291  1.00  0.00     0.031 A 
HETATM   23  C12 UNL     1     -15.364 -42.537 -10.625  1.00  0.00     0.041 A 
HETATM   24  C15 UNL     1     -16.164 -42.551 -11.747  1.00  0.00     0.031 A 
HETATM   25  C16 UNL     1     -16.230 -41.409 -12.521  1.00  0.00     0.019 A 
BRANCH  23  26
HETATM   26  N3  UNL     1     -15.232 -43.658  -9.770  1.00  0.00    -0.302 N 
HETATM   27  C13 UNL     1     -15.086 -43.615  -8.440  1.00  0.00     0.206 A 
HETATM   28  N4  UNL     1     -14.998 -44.870  -8.011  1.00  0.00    -0.295 N 
HETATM   29  N5  UNL     1     -15.087 -45.680  -9.045  1.00  0.00    -0.295 N 
ATOM     30  H4  UNL     1     -14.880 -45.158  -7.040  1.00  0.00     0.187 HD
HETATM   31  C14 UNL     1     -15.234 -44.961 -10.158  1.00  0.00     0.206 A 
ATOM     32  H5  UNL     1     -15.049 -46.699  -9.001  1.00  0.00     0.187 HD
ENDBRANCH  23  26
ENDBRANCH   3  20
TORSDOF 5
ENDMDL
