MODEL 10
REMARK VINA RESULT: -9.148838771      2.565      4.400
REMARK  5 active torsions:
REMARK  status: ('A' for Active; 'I' for Inactive)
REMARK    1  A    between atoms: C5_7  and  C6_8 
REMARK    2  A    between atoms: C6_8  and  C7_9 
REMARK    3  A    between atoms: C7_9  and  N2_10 
REMARK       I    between atoms: N2_10  and  C8_12 
REMARK    4  A    between atoms: C8_12  and  C9_14 
REMARK    5  A    between atoms: C12_17  and  N3_18 
ROOT
HETATM    1  N2  UNL     1     -15.476 -37.762 -12.556  1.00  0.00    -0.356 N 
ATOM      2  H2  UNL     1     -15.164 -37.643 -11.592  1.00  0.00     0.162 HD
HETATM    3  C8  UNL     1     -15.758 -39.068 -13.030  1.00  0.00     0.251 C 
HETATM    4  O1  UNL     1     -16.156 -39.242 -14.242  1.00  0.00    -0.268 OA
ENDROOT
BRANCH   1   5
HETATM    5  C7  UNL     1     -15.617 -36.598 -13.391  1.00  0.00     0.130 C 
BRANCH   5   6
HETATM    6  C6  UNL     1     -14.294 -35.901 -13.649  1.00  0.00     0.096 C 
BRANCH   6   7
HETATM    7  C5  UNL     1     -13.693 -35.495 -12.340  1.00  0.00     0.083 A 
HETATM    8  N1  UNL     1     -14.341 -34.835 -11.365  1.00  0.00    -0.344 N 
HETATM    9  C4  UNL     1     -13.521 -34.626 -10.327  1.00  0.00     0.061 A 
ATOM     10  H1  UNL     1     -15.315 -34.536 -11.410  1.00  0.00     0.167 HD
HETATM   11  C3  UNL     1     -13.670 -34.008  -9.086  1.00  0.00     0.039 A 
HETATM   12  C17 UNL     1     -12.302 -35.179 -10.663  1.00  0.00     0.061 A 
HETATM   13  C2  UNL     1     -12.577 -33.963  -8.210  1.00  0.00    -0.054 A 
HETATM   14  C1  UNL     1     -12.716 -33.317  -6.905  1.00  0.00     0.049 C 
HETATM   15  C19 UNL     1     -11.371 -34.511  -8.546  1.00  0.00    -0.054 A 
HETATM   16  C18 UNL     1     -11.224 -35.121  -9.770  1.00  0.00     0.039 A 
HETATM   17  C20 UNL     1     -10.240 -34.456  -7.622  1.00  0.00     0.049 C 
HETATM   18  N6  UNL     1     -12.450 -35.694 -11.888  1.00  0.00    -0.344 N 
ATOM     19  H6  UNL     1     -11.715 -36.174 -12.408  1.00  0.00     0.167 HD
ENDBRANCH   6   7
ENDBRANCH   5   6
ENDBRANCH   1   5
BRANCH   3  20
HETATM   20  C9  UNL     1     -15.608 -40.228 -12.175  1.00  0.00     0.032 A 
HETATM   21  C10 UNL     1     -14.759 -40.247 -11.115  1.00  0.00     0.019 A 
HETATM   22  C11 UNL     1     -14.646 -41.383 -10.327  1.00  0.00     0.031 A 
HETATM   23  C12 UNL     1     -15.400 -42.510 -10.612  1.00  0.00     0.041 A 
HETATM   24  C15 UNL     1     -16.268 -42.513 -11.682  1.00  0.00     0.031 A 
HETATM   25  C16 UNL     1     -16.364 -41.372 -12.453  1.00  0.00     0.019 A 
BRANCH  23  26
HETATM   26  N3  UNL     1     -15.233 -43.633  -9.764  1.00  0.00    -0.302 N 
HETATM   27  C13 UNL     1     -15.070 -43.591  -8.436  1.00  0.00     0.206 A 
HETATM   28  N4  UNL     1     -14.949 -44.847  -8.013  1.00  0.00    -0.295 N 
HETATM   29  N5  UNL     1     -15.036 -45.654  -9.050  1.00  0.00    -0.295 N 
ATOM     30  H4  UNL     1     -14.813 -45.136  -7.045  1.00  0.00     0.187 HD
HETATM   31  C14 UNL     1     -15.213 -44.933 -10.158  1.00  0.00     0.206 A 
ATOM     32  H5  UNL     1     -14.976 -46.672  -9.011  1.00  0.00     0.187 HD
ENDBRANCH  23  26
ENDBRANCH   3  20
TORSDOF 5
ENDMDL
