MODEL 6
REMARK VINA RESULT: -9.221096961      3.726      8.801
REMARK  5 active torsions:
REMARK  status: ('A' for Active; 'I' for Inactive)
REMARK    1  A    between atoms: C5_7  and  C6_8 
REMARK    2  A    between atoms: C6_8  and  C7_9 
REMARK    3  A    between atoms: C7_9  and  N2_10 
REMARK       I    between atoms: N2_10  and  C8_12 
REMARK    4  A    between atoms: C8_12  and  C9_14 
REMARK    5  A    between atoms: C12_17  and  N3_18 
ROOT
HETATM    1  N2  UNL     1     -15.073 -38.034 -13.257  1.00  0.00    -0.356 N 
ATOM      2  H2  UNL     1     -15.398 -38.278 -12.322  1.00  0.00     0.162 HD
HETATM    3  C8  UNL     1     -14.051 -37.061 -13.395  1.00  0.00     0.251 C 
HETATM    4  O1  UNL     1     -13.622 -36.738 -14.566  1.00  0.00    -0.268 OA
ENDROOT
BRANCH   1   5
HETATM    5  C7  UNL     1     -15.666 -38.688 -14.395  1.00  0.00     0.130 C 
BRANCH   5   6
HETATM    6  C6  UNL     1     -16.912 -39.473 -14.033  1.00  0.00     0.096 C 
BRANCH   6   7
HETATM    7  C5  UNL     1     -16.547 -40.542 -13.050  1.00  0.00     0.083 A 
HETATM    8  N1  UNL     1     -16.370 -41.839 -13.352  1.00  0.00    -0.344 N 
HETATM    9  C4  UNL     1     -16.050 -42.529 -12.250  1.00  0.00     0.061 A 
ATOM     10  H1  UNL     1     -16.467 -42.240 -14.285  1.00  0.00     0.167 HD
HETATM   11  C3  UNL     1     -15.765 -43.870 -11.997  1.00  0.00     0.039 A 
HETATM   12  C17 UNL     1     -16.024 -41.625 -11.207  1.00  0.00     0.061 A 
HETATM   13  C2  UNL     1     -15.461 -44.268 -10.688  1.00  0.00    -0.054 A 
HETATM   14  C1  UNL     1     -15.161 -45.672 -10.405  1.00  0.00     0.049 C 
HETATM   15  C19 UNL     1     -15.437 -43.371  -9.657  1.00  0.00    -0.054 A 
HETATM   16  C18 UNL     1     -15.716 -42.048  -9.907  1.00  0.00     0.039 A 
HETATM   17  C20 UNL     1     -15.117 -43.801  -8.298  1.00  0.00     0.049 C 
HETATM   18  N6  UNL     1     -16.331 -40.436 -11.735  1.00  0.00    -0.344 N 
ATOM     19  H6  UNL     1     -16.390 -39.565 -11.207  1.00  0.00     0.167 HD
ENDBRANCH   6   7
ENDBRANCH   5   6
ENDBRANCH   1   5
BRANCH   3  20
HETATM   20  C9  UNL     1     -13.468 -36.412 -12.239  1.00  0.00     0.032 A 
HETATM   21  C10 UNL     1     -12.406 -36.932 -11.570  1.00  0.00     0.019 A 
HETATM   22  C11 UNL     1     -11.884 -36.277 -10.464  1.00  0.00     0.031 A 
HETATM   23  C12 UNL     1     -12.442 -35.084 -10.030  1.00  0.00     0.041 A 
HETATM   24  C15 UNL     1     -13.519 -34.538 -10.693  1.00  0.00     0.031 A 
HETATM   25  C16 UNL     1     -14.022 -35.207 -11.791  1.00  0.00     0.019 A 
BRANCH  23  26
HETATM   26  N3  UNL     1     -11.856 -34.472  -8.895  1.00  0.00    -0.302 N 
HETATM   27  C13 UNL     1     -10.547 -34.430  -8.617  1.00  0.00     0.206 A 
HETATM   28  N4  UNL     1     -10.408 -33.769  -7.471  1.00  0.00    -0.295 N 
HETATM   29  N5  UNL     1     -11.598 -33.405  -7.042  1.00  0.00    -0.295 N 
ATOM     30  H4  UNL     1      -9.524 -33.575  -7.002  1.00  0.00     0.187 HD
HETATM   31  C14 UNL     1     -12.525 -33.826  -7.904  1.00  0.00     0.206 A 
ATOM     32  H5  UNL     1     -11.782 -32.884  -6.185  1.00  0.00     0.187 HD
ENDBRANCH  23  26
ENDBRANCH   3  20
TORSDOF 5
ENDMDL
