MODEL 3
REMARK VINA RESULT: -9.232789328      1.252      1.364
REMARK  5 active torsions:
REMARK  status: ('A' for Active; 'I' for Inactive)
REMARK    1  A    between atoms: C5_7  and  C6_8 
REMARK    2  A    between atoms: C6_8  and  C7_9 
REMARK    3  A    between atoms: C7_9  and  N2_10 
REMARK       I    between atoms: N2_10  and  C8_12 
REMARK    4  A    between atoms: C8_12  and  C9_14 
REMARK    5  A    between atoms: C12_17  and  N3_18 
ROOT
HETATM    1  N2  UNL     1     -16.595 -42.331 -11.951  1.00  0.00    -0.356 N 
ATOM      2  H2  UNL     1     -17.219 -42.112 -11.175  1.00  0.00     0.162 HD
HETATM    3  C8  UNL     1     -15.539 -43.255 -11.742  1.00  0.00     0.251 C 
HETATM    4  O1  UNL     1     -14.740 -43.549 -12.708  1.00  0.00    -0.268 OA
ENDROOT
BRANCH   1   5
HETATM    5  C7  UNL     1     -16.813 -41.693 -13.223  1.00  0.00     0.130 C 
BRANCH   5   6
HETATM    6  C6  UNL     1     -16.844 -40.180 -13.119  1.00  0.00     0.096 C 
BRANCH   6   7
HETATM    7  C5  UNL     1     -15.451 -39.677 -12.903  1.00  0.00     0.083 A 
HETATM    8  N1  UNL     1     -14.587 -39.356 -13.880  1.00  0.00    -0.344 N 
HETATM    9  C4  UNL     1     -13.428 -38.940 -13.352  1.00  0.00     0.061 A 
ATOM     10  H1  UNL     1     -14.784 -39.421 -14.879  1.00  0.00     0.167 HD
HETATM   11  C3  UNL     1     -12.222 -38.497 -13.893  1.00  0.00     0.039 A 
HETATM   12  C17 UNL     1     -13.570 -39.001 -11.980  1.00  0.00     0.061 A 
HETATM   13  C2  UNL     1     -11.182 -38.126 -13.030  1.00  0.00    -0.054 A 
HETATM   14  C1  UNL     1      -9.910 -37.661 -13.581  1.00  0.00     0.049 C 
HETATM   15  C19 UNL     1     -11.325 -38.188 -11.672  1.00  0.00    -0.054 A 
HETATM   16  C18 UNL     1     -12.516 -38.624 -11.138  1.00  0.00     0.039 A 
HETATM   17  C20 UNL     1     -10.232 -37.798 -10.785  1.00  0.00     0.049 C 
HETATM   18  N6  UNL     1     -14.809 -39.452 -11.752  1.00  0.00    -0.344 N 
ATOM     19  H6  UNL     1     -15.208 -39.603 -10.826  1.00  0.00     0.167 HD
ENDBRANCH   6   7
ENDBRANCH   5   6
ENDBRANCH   1   5
BRANCH   3  20
HETATM   20  C9  UNL     1     -15.335 -43.885 -10.454  1.00  0.00     0.032 A 
HETATM   21  C10 UNL     1     -15.270 -43.176  -9.297  1.00  0.00     0.019 A 
HETATM   22  C11 UNL     1     -15.068 -43.823  -8.087  1.00  0.00     0.031 A 
HETATM   23  C12 UNL     1     -14.931 -45.202  -8.046  1.00  0.00     0.041 A 
HETATM   24  C15 UNL     1     -14.993 -45.942  -9.207  1.00  0.00     0.031 A 
HETATM   25  C16 UNL     1     -15.195 -45.277 -10.399  1.00  0.00     0.019 A 
BRANCH  23  26
HETATM   26  N3  UNL     1     -14.727 -45.794  -6.775  1.00  0.00    -0.302 N 
HETATM   27  C13 UNL     1     -15.408 -46.835  -6.280  1.00  0.00     0.206 A 
HETATM   28  N4  UNL     1     -14.919 -47.087  -5.069  1.00  0.00    -0.295 N 
HETATM   29  N5  UNL     1     -13.956 -46.226  -4.812  1.00  0.00    -0.295 N 
ATOM     30  H4  UNL     1     -15.238 -47.825  -4.442  1.00  0.00     0.187 HD
HETATM   31  C14 UNL     1     -13.808 -45.405  -5.853  1.00  0.00     0.206 A 
ATOM     32  H5  UNL     1     -13.409 -46.193  -3.951  1.00  0.00     0.187 HD
ENDBRANCH  23  26
ENDBRANCH   3  20
TORSDOF 5
ENDMDL
