MODEL 5
REMARK VINA RESULT: -9.229708660      1.246      1.776
REMARK  5 active torsions:
REMARK  status: ('A' for Active; 'I' for Inactive)
REMARK    1  A    between atoms: C5_7  and  C6_8 
REMARK    2  A    between atoms: C6_8  and  C7_9 
REMARK    3  A    between atoms: C7_9  and  N2_10 
REMARK       I    between atoms: N2_10  and  C8_12 
REMARK    4  A    between atoms: C8_12  and  C9_14 
REMARK    5  A    between atoms: C12_17  and  N3_18 
ROOT
HETATM    1  N2  UNL     1     -16.576 -42.323 -11.933  1.00  0.00    -0.356 N 
ATOM      2  H2  UNL     1     -17.196 -42.098 -11.155  1.00  0.00     0.162 HD
HETATM    3  C8  UNL     1     -15.530 -43.258 -11.729  1.00  0.00     0.251 C 
HETATM    4  O1  UNL     1     -14.736 -43.559 -12.698  1.00  0.00    -0.268 OA
ENDROOT
BRANCH   1   5
HETATM    5  C7  UNL     1     -16.791 -41.680 -13.203  1.00  0.00     0.130 C 
BRANCH   5   6
HETATM    6  C6  UNL     1     -16.822 -40.168 -13.095  1.00  0.00     0.096 C 
BRANCH   6   7
HETATM    7  C5  UNL     1     -15.423 -39.661 -12.936  1.00  0.00     0.083 A 
HETATM    8  N1  UNL     1     -14.810 -39.443 -11.761  1.00  0.00    -0.344 N 
HETATM    9  C4  UNL     1     -13.566 -38.991 -11.967  1.00  0.00     0.061 A 
ATOM     10  H1  UNL     1     -15.231 -39.598 -10.845  1.00  0.00     0.167 HD
HETATM   11  C3  UNL     1     -12.521 -38.617 -11.124  1.00  0.00     0.039 A 
HETATM   12  C17 UNL     1     -13.387 -38.922 -13.334  1.00  0.00     0.061 A 
HETATM   13  C2  UNL     1     -11.314 -38.178 -11.686  1.00  0.00    -0.054 A 
HETATM   14  C1  UNL     1     -10.208 -37.780 -10.815  1.00  0.00     0.049 C 
HETATM   15  C19 UNL     1     -11.140 -38.109 -13.039  1.00  0.00    -0.054 A 
HETATM   16  C18 UNL     1     -12.171 -38.480 -13.871  1.00  0.00     0.039 A 
HETATM   17  C20 UNL     1      -9.877 -37.650 -13.610  1.00  0.00     0.049 C 
HETATM   18  N6  UNL     1     -14.535 -39.336 -13.882  1.00  0.00    -0.344 N 
ATOM     19  H6  UNL     1     -14.709 -39.396 -14.885  1.00  0.00     0.167 HD
ENDBRANCH   6   7
ENDBRANCH   5   6
ENDBRANCH   1   5
BRANCH   3  20
HETATM   20  C9  UNL     1     -15.328 -43.893 -10.443  1.00  0.00     0.032 A 
HETATM   21  C10 UNL     1     -15.269 -43.188  -9.283  1.00  0.00     0.019 A 
HETATM   22  C11 UNL     1     -15.069 -43.839  -8.075  1.00  0.00     0.031 A 
HETATM   23  C12 UNL     1     -14.929 -45.217  -8.039  1.00  0.00     0.041 A 
HETATM   24  C15 UNL     1     -14.986 -45.953  -9.202  1.00  0.00     0.031 A 
HETATM   25  C16 UNL     1     -15.185 -45.284 -10.393  1.00  0.00     0.019 A 
BRANCH  23  26
HETATM   26  N3  UNL     1     -14.728 -45.814  -6.769  1.00  0.00    -0.302 N 
HETATM   27  C13 UNL     1     -15.404 -46.862  -6.282  1.00  0.00     0.206 A 
HETATM   28  N4  UNL     1     -14.920 -47.115  -5.070  1.00  0.00    -0.295 N 
HETATM   29  N5  UNL     1     -13.965 -46.249  -4.804  1.00  0.00    -0.295 N 
ATOM     30  H4  UNL     1     -15.237 -47.859  -4.448  1.00  0.00     0.187 HD
HETATM   31  C14 UNL     1     -13.817 -45.423  -5.840  1.00  0.00     0.206 A 
ATOM     32  H5  UNL     1     -13.423 -46.215  -3.940  1.00  0.00     0.187 HD
ENDBRANCH  23  26
ENDBRANCH   3  20
TORSDOF 5
ENDMDL
