MODEL 8
REMARK VINA RESULT: -7.789950058      3.321      6.666
REMARK  2 active torsions:
REMARK  status: ('A' for Active; 'I' for Inactive)
REMARK    1  A    between atoms: N4_10  and  C5_11 
REMARK    2  A    between atoms: C9_21  and  O6_22 
ROOT
HETATM    1  N1  UNL     1      25.068 -22.444 -26.391  1.00  0.00    -0.063 NA
HETATM    2  C1  UNL     1      25.830 -21.538 -25.601  1.00  0.00     0.196 A 
HETATM    3  N2  UNL     1      26.240 -21.879 -24.370  1.00  0.00    -0.314 N 
ATOM      4  H2  UNL     1      25.996 -22.800 -24.007  1.00  0.00     0.170 HD
HETATM    5  C2  UNL     1      26.967 -21.041 -23.593  1.00  0.00     0.146 A 
HETATM    6  C3  UNL     1      27.300 -19.787 -24.082  1.00  0.00     0.146 A 
HETATM    7  N3  UNL     1      28.001 -19.174 -23.142  1.00  0.00    -0.345 N 
ATOM      8  H3  UNL     1      28.392 -18.233 -23.199  1.00  0.00     0.167 HD
HETATM    9  C4  UNL     1      28.107 -20.025 -22.082  1.00  0.00     0.188 A 
HETATM   10  N4  UNL     1      27.472 -21.171 -22.361  1.00  0.00    -0.297 N 
HETATM   11  C10 UNL     1      26.878 -19.441 -25.340  1.00  0.00     0.278 A 
HETATM   12  O7  UNL     1      27.191 -18.295 -25.767  1.00  0.00    -0.265 OA
HETATM   13  N5  UNL     1      26.161 -20.311 -26.067  1.00  0.00    -0.295 N 
ATOM     14  H5  UNL     1      25.855 -20.040 -27.002  1.00  0.00     0.171 HD
ENDROOT
BRANCH  10  15
HETATM   15  C5  UNL     1      27.374 -22.323 -21.456  1.00  0.00     0.262 C 
HETATM   16  O1  UNL     1      27.127 -21.929 -20.167  1.00  0.00    -0.353 OA
HETATM   17  C6  UNL     1      27.896 -22.673 -19.313  1.00  0.00     0.180 C 
HETATM   18  C7  UNL     1      28.125 -22.080 -17.972  1.00  0.00     0.216 C 
HETATM   19  C8  UNL     1      29.223 -22.732 -20.075  1.00  0.00     0.198 C 
HETATM   20  O2  UNL     1      28.716 -22.959 -17.121  1.00  0.00    -0.287 OA
HETATM   21  P1  UNL     1      29.940 -23.733 -17.944  1.00  0.00     0.408 P 
HETATM   22  O3  UNL     1      30.859 -22.529 -17.790  1.00  0.00    -0.624 OA
HETATM   23  O4  UNL     1      30.968 -24.713 -17.115  1.00  0.00    -0.624 OA
HETATM   24  O5  UNL     1      30.026 -23.709 -19.584  1.00  0.00    -0.279 OA
HETATM   25  C9  UNL     1      28.713 -23.065 -21.459  1.00  0.00     0.199 C 
BRANCH  25  26
HETATM   26  O6  UNL     1      28.497 -24.426 -21.557  1.00  0.00    -0.388 OA
ATOM     27  H6  UNL     1      28.177 -24.642 -22.425  1.00  0.00     0.210 HD
ENDBRANCH  25  26
ENDBRANCH  10  15
TORSDOF 2
ENDMDL
