MODEL 1
REMARK VINA RESULT: -9.728754714      0.000      0.000
REMARK  2 active torsions:
REMARK  status: ('A' for Active; 'I' for Inactive)
REMARK    1  A    between atoms: N4_10  and  C5_11 
REMARK    2  A    between atoms: C9_21  and  O6_22 
ROOT
HETATM    1  N1  UNL     1      25.162 -24.528 -21.966  1.00  0.00    -0.063 NA
HETATM    2  C1  UNL     1      26.131 -23.674 -21.367  1.00  0.00     0.196 A 
HETATM    3  N2  UNL     1      26.650 -22.642 -22.048  1.00  0.00    -0.314 N 
ATOM      4  H2  UNL     1      26.340 -22.477 -23.005  1.00  0.00     0.170 HD
HETATM    5  C2  UNL     1      27.573 -21.812 -21.507  1.00  0.00     0.146 A 
HETATM    6  C3  UNL     1      27.999 -22.033 -20.206  1.00  0.00     0.146 A 
HETATM    7  N3  UNL     1      28.890 -21.096 -19.921  1.00  0.00    -0.345 N 
ATOM      8  H3  UNL     1      29.388 -20.988 -19.037  1.00  0.00     0.167 HD
HETATM    9  C4  UNL     1      29.022 -20.301 -21.021  1.00  0.00     0.188 A 
HETATM   10  N4  UNL     1      28.213 -20.742 -21.993  1.00  0.00    -0.297 N 
HETATM   11  C10 UNL     1      27.467 -23.089 -19.513  1.00  0.00     0.278 A 
HETATM   12  O7  UNL     1      27.867 -23.274 -18.330  1.00  0.00    -0.265 OA
HETATM   13  N5  UNL     1      26.554 -23.880 -20.098  1.00  0.00    -0.295 N 
ATOM     14  H5  UNL     1      26.167 -24.662 -19.569  1.00  0.00     0.171 HD
ENDROOT
BRANCH  10  15
HETATM   15  C5  UNL     1      28.086 -20.135 -23.324  1.00  0.00     0.262 C 
HETATM   16  O1  UNL     1      26.778 -19.858 -23.626  1.00  0.00    -0.353 OA
HETATM   17  C6  UNL     1      26.533 -20.203 -24.929  1.00  0.00     0.180 C 
HETATM   18  C7  UNL     1      25.108 -20.429 -25.277  1.00  0.00     0.216 C 
HETATM   19  C8  UNL     1      27.298 -21.524 -25.040  1.00  0.00     0.198 C 
HETATM   20  O2  UNL     1      24.927 -20.563 -26.616  1.00  0.00    -0.287 OA
HETATM   21  P1  UNL     1      26.128 -21.556 -27.205  1.00  0.00     0.408 P 
HETATM   22  O3  UNL     1      25.407 -22.797 -26.697  1.00  0.00    -0.624 OA
HETATM   23  O4  UNL     1      26.053 -22.065 -28.767  1.00  0.00    -0.624 OA
HETATM   24  O5  UNL     1      27.487 -21.873 -26.338  1.00  0.00    -0.279 OA
HETATM   25  C9  UNL     1      28.595 -21.130 -24.370  1.00  0.00     0.199 C 
BRANCH  25  26
HETATM   26  O6  UNL     1      29.408 -20.483 -25.280  1.00  0.00    -0.388 OA
ATOM     27  H6  UNL     1      30.185 -21.004 -25.448  1.00  0.00     0.210 HD
ENDBRANCH  25  26
ENDBRANCH  10  15
TORSDOF 2
ENDMDL
