MODEL 4
REMARK VINA RESULT: -8.406926912      3.964      6.520
REMARK  2 active torsions:
REMARK  status: ('A' for Active; 'I' for Inactive)
REMARK    1  A    between atoms: N4_10  and  C5_11 
REMARK    2  A    between atoms: C9_21  and  O6_22 
ROOT
HETATM    1  N1  UNL     1      26.456 -22.262 -28.261  1.00  0.00    -0.063 NA
HETATM    2  C1  UNL     1      26.502 -21.537 -27.037  1.00  0.00     0.196 A 
HETATM    3  N2  UNL     1      27.554 -21.647 -26.213  1.00  0.00    -0.314 N 
ATOM      4  H2  UNL     1      28.325 -22.260 -26.478  1.00  0.00     0.170 HD
HETATM    5  C2  UNL     1      27.628 -20.971 -25.042  1.00  0.00     0.146 A 
HETATM    6  C3  UNL     1      26.582 -20.137 -24.677  1.00  0.00     0.146 A 
HETATM    7  N3  UNL     1      26.896 -19.603 -23.508  1.00  0.00    -0.345 N 
ATOM      8  H3  UNL     1      26.328 -18.944 -22.975  1.00  0.00     0.167 HD
HETATM    9  C4  UNL     1      28.117 -20.092 -23.143  1.00  0.00     0.188 A 
HETATM   10  N4  UNL     1      28.564 -20.931 -24.086  1.00  0.00    -0.297 N 
HETATM   11  C10 UNL     1      25.507 -20.028 -25.521  1.00  0.00     0.278 A 
HETATM   12  O7  UNL     1      24.565 -19.263 -25.171  1.00  0.00    -0.265 OA
HETATM   13  N5  UNL     1      25.486 -20.720 -26.670  1.00  0.00    -0.295 N 
ATOM     14  H5  UNL     1      24.680 -20.628 -27.288  1.00  0.00     0.171 HD
ENDROOT
BRANCH  10  15
HETATM   15  C5  UNL     1      29.844 -21.648 -24.038  1.00  0.00     0.262 C 
HETATM   16  O1  UNL     1      29.783 -22.727 -23.195  1.00  0.00    -0.353 OA
HETATM   17  C6  UNL     1      30.935 -22.789 -22.458  1.00  0.00     0.180 C 
HETATM   18  C7  UNL     1      30.850 -23.564 -21.195  1.00  0.00     0.216 C 
HETATM   19  C8  UNL     1      31.165 -21.311 -22.131  1.00  0.00     0.198 C 
HETATM   20  O2  UNL     1      32.071 -23.752 -20.630  1.00  0.00    -0.287 OA
HETATM   21  P1  UNL     1      32.903 -22.311 -20.704  1.00  0.00     0.408 P 
HETATM   22  O3  UNL     1      32.126 -21.754 -19.520  1.00  0.00    -0.624 OA
HETATM   23  O4  UNL     1      34.340 -22.173 -19.916  1.00  0.00    -0.624 OA
HETATM   24  O5  UNL     1      32.435 -21.095 -21.705  1.00  0.00    -0.279 OA
HETATM   25  C9  UNL     1      30.918 -20.703 -23.494  1.00  0.00     0.199 C 
BRANCH  25  26
HETATM   26  O6  UNL     1      32.064 -20.800 -24.258  1.00  0.00    -0.388 OA
ATOM     27  H6  UNL     1      32.824 -20.580 -23.733  1.00  0.00     0.210 HD
ENDBRANCH  25  26
ENDBRANCH  10  15
TORSDOF 2
ENDMDL
