MODEL 7
REMARK VINA RESULT: -7.841493335      3.818      4.761
REMARK  2 active torsions:
REMARK  status: ('A' for Active; 'I' for Inactive)
REMARK    1  A    between atoms: N4_10  and  C5_11 
REMARK    2  A    between atoms: C9_21  and  O6_22 
ROOT
HETATM    1  N1  UNL     1      35.648 -22.832 -22.015  1.00  0.00    -0.063 NA
HETATM    2  C1  UNL     1      34.423 -23.290 -21.453  1.00  0.00     0.196 A 
HETATM    3  N2  UNL     1      33.275 -22.639 -21.687  1.00  0.00    -0.314 N 
ATOM      4  H2  UNL     1      33.292 -21.806 -22.276  1.00  0.00     0.170 HD
HETATM    5  C2  UNL     1      32.093 -23.049 -21.167  1.00  0.00     0.146 A 
HETATM    6  C3  UNL     1      32.065 -24.179 -20.364  1.00  0.00     0.146 A 
HETATM    7  N3  UNL     1      30.809 -24.362 -19.990  1.00  0.00    -0.345 N 
ATOM      8  H3  UNL     1      30.463 -25.113 -19.393  1.00  0.00     0.167 HD
HETATM    9  C4  UNL     1      30.061 -23.367 -20.546  1.00  0.00     0.188 A 
HETATM   10  N4  UNL     1      30.851 -22.562 -21.268  1.00  0.00    -0.297 N 
HETATM   11  C10 UNL     1      33.242 -24.842 -20.126  1.00  0.00     0.278 A 
HETATM   12  O7  UNL     1      33.196 -25.869 -19.393  1.00  0.00    -0.265 OA
HETATM   13  N5  UNL     1      34.384 -24.392 -20.667  1.00  0.00    -0.295 N 
ATOM     14  H5  UNL     1      35.251 -24.896 -20.481  1.00  0.00     0.171 HD
ENDROOT
BRANCH  10  15
HETATM   15  C5  UNL     1      30.396 -21.381 -22.013  1.00  0.00     0.262 C 
HETATM   16  O1  UNL     1      29.124 -21.021 -21.653  1.00  0.00    -0.353 OA
HETATM   17  C6  UNL     1      28.417 -20.684 -22.776  1.00  0.00     0.180 C 
HETATM   18  C7  UNL     1      26.939 -20.742 -22.647  1.00  0.00     0.216 C 
HETATM   19  C8  UNL     1      28.881 -21.761 -23.760  1.00  0.00     0.198 C 
HETATM   20  O2  UNL     1      26.312 -20.202 -23.725  1.00  0.00    -0.287 OA
HETATM   21  P1  UNL     1      27.081 -20.747 -25.098  1.00  0.00     0.408 P 
HETATM   22  O3  UNL     1      26.376 -22.094 -25.007  1.00  0.00    -0.624 OA
HETATM   23  O4  UNL     1      26.421 -20.422 -26.569  1.00  0.00    -0.624 OA
HETATM   24  O5  UNL     1      28.579 -21.420 -25.039  1.00  0.00    -0.279 OA
HETATM   25  C9  UNL     1      30.371 -21.719 -23.505  1.00  0.00     0.199 C 
BRANCH  25  26
HETATM   26  O6  UNL     1      30.936 -20.689 -24.232  1.00  0.00    -0.388 OA
ATOM     27  H6  UNL     1      30.969 -20.922 -25.153  1.00  0.00     0.210 HD
ENDBRANCH  25  26
ENDBRANCH  10  15
TORSDOF 2
ENDMDL
