MODEL 3
REMARK VINA RESULT: -8.829537548      7.710     10.041
REMARK  4 active torsions:
REMARK  status: ('A' for Active; 'I' for Inactive)
REMARK    1  A    between atoms: C5_5  and  O1_6 
REMARK    2  A    between atoms: C11_16  and  N3_18 
REMARK       I    between atoms: N3_18  and  C13_20 
REMARK    3  A    between atoms: C13_20  and  C14_22 
REMARK    4  A    between atoms: C17_25  and  N4_26 
ROOT
HETATM    1  C1  UNL     1     -15.742 -34.527 -12.582  1.00  0.00     0.070 C 
HETATM    2  C2  UNL     1     -14.788 -35.624 -12.825  1.00  0.00     0.031 A 
HETATM    3  C3  UNL     1     -13.487 -35.378 -13.210  1.00  0.00     0.029 A 
HETATM    4  C4  UNL     1     -12.646 -36.451 -13.423  1.00  0.00     0.041 A 
HETATM    5  C5  UNL     1     -13.074 -37.773 -13.259  1.00  0.00     0.095 A 
HETATM    6  C6  UNL     1     -14.369 -37.948 -12.877  1.00  0.00     0.098 A 
HETATM    7  C7  UNL     1     -15.095 -39.102 -12.633  1.00  0.00    -0.000 A 
HETATM    8  C8  UNL     1     -16.364 -38.704 -12.276  1.00  0.00     0.035 A 
HETATM    9  N1  UNL     1     -16.384 -37.371 -12.310  1.00  0.00    -0.297 N 
ATOM     10  H1  UNL     1     -17.196 -36.795 -12.092  1.00  0.00     0.187 HD
HETATM   11  N2  UNL     1     -15.185 -36.899 -12.672  1.00  0.00    -0.258 N 
HETATM   12  C9  UNL     1     -17.364 -39.737 -11.956  1.00  0.00     0.061 C 
HETATM   13  C10 UNL     1     -16.733 -40.713 -10.991  1.00  0.00     0.037 C 
HETATM   14  C11 UNL     1     -15.337 -41.112 -11.332  1.00  0.00     0.034 C 
HETATM   15  C12 UNL     1     -14.331 -40.601 -10.294  1.00  0.00     0.039 C 
HETATM   16  C22 UNL     1     -14.844 -40.565 -12.661  1.00  0.00     0.073 C 
ENDROOT
BRANCH  14  17
HETATM   17  N3  UNL     1     -15.269 -42.550 -11.290  1.00  0.00    -0.348 N 
HETATM   18  C13 UNL     1     -15.202 -43.198 -10.042  1.00  0.00     0.252 C 
HETATM   19  O2  UNL     1     -15.202 -42.519  -8.959  1.00  0.00    -0.268 OA
ATOM     20  H3  UNL     1     -15.269 -43.093 -12.154  1.00  0.00     0.163 HD
BRANCH  18  21
HETATM   21  C14 UNL     1     -15.129 -44.653  -9.876  1.00  0.00     0.032 A 
HETATM   22  C15 UNL     1     -15.252 -45.506 -10.952  1.00  0.00     0.019 A 
HETATM   23  C16 UNL     1     -15.186 -46.873 -10.825  1.00  0.00     0.031 A 
HETATM   24  C17 UNL     1     -14.992 -47.473  -9.591  1.00  0.00     0.041 A 
HETATM   25  C20 UNL     1     -14.870 -46.615  -8.517  1.00  0.00     0.031 A 
HETATM   26  C21 UNL     1     -14.935 -45.236  -8.639  1.00  0.00     0.019 A 
BRANCH  24  27
HETATM   27  N4  UNL     1     -14.924 -48.883  -9.451  1.00  0.00    -0.302 N 
HETATM   28  C18 UNL     1     -14.855 -49.567  -8.322  1.00  0.00     0.206 A 
HETATM   29  N5  UNL     1     -14.810 -50.878  -8.693  1.00  0.00    -0.295 N 
HETATM   30  N6  UNL     1     -14.849 -50.996  -9.993  1.00  0.00    -0.295 N 
ATOM     31  H5  UNL     1     -14.753 -51.662  -8.042  1.00  0.00     0.187 HD
HETATM   32  C19 UNL     1     -14.922 -49.740 -10.483  1.00  0.00     0.206 A 
ATOM     33  H6  UNL     1     -14.829 -51.862 -10.530  1.00  0.00     0.187 HD
ENDBRANCH  24  27
ENDBRANCH  18  21
ENDBRANCH  14  17
BRANCH   5  34
HETATM   34  O1  UNL     1     -12.257 -38.854 -13.463  1.00  0.00    -0.358 OA
ATOM     35  H1  UNL     1     -12.539 -39.751 -13.325  1.00  0.00     0.217 HD
ENDBRANCH   5  34
TORSDOF 4
ENDMDL
