MODEL 2
REMARK VINA RESULT: -8.865681761      1.988     10.244
REMARK  4 active torsions:
REMARK  status: ('A' for Active; 'I' for Inactive)
REMARK    1  A    between atoms: C5_5  and  O1_6 
REMARK    2  A    between atoms: C11_16  and  N3_18 
REMARK       I    between atoms: N3_18  and  C13_20 
REMARK    3  A    between atoms: C13_20  and  C14_22 
REMARK    4  A    between atoms: C17_25  and  N4_26 
ROOT
HETATM    1  C1  UNL     1      -5.171 -39.214 -18.910  1.00  0.00     0.070 C 
HETATM    2  C2  UNL     1      -6.535 -38.837 -18.497  1.00  0.00     0.031 A 
HETATM    3  C3  UNL     1      -7.637 -39.162 -19.260  1.00  0.00     0.029 A 
HETATM    4  C4  UNL     1      -8.885 -38.778 -18.816  1.00  0.00     0.041 A 
HETATM    5  C5  UNL     1      -9.064 -38.073 -17.621  1.00  0.00     0.095 A 
HETATM    6  C6  UNL     1      -7.937 -37.784 -16.914  1.00  0.00     0.098 A 
HETATM    7  C7  UNL     1      -7.765 -37.112 -15.715  1.00  0.00    -0.000 A 
HETATM    8  C8  UNL     1      -6.413 -37.102 -15.456  1.00  0.00     0.035 A 
HETATM    9  N1  UNL     1      -5.814 -37.741 -16.462  1.00  0.00    -0.297 N 
ATOM     10  H1  UNL     1      -4.808 -37.890 -16.541  1.00  0.00     0.187 HD
HETATM   11  N2  UNL     1      -6.722 -38.159 -17.352  1.00  0.00    -0.258 N 
HETATM   12  C9  UNL     1      -5.933 -36.445 -14.228  1.00  0.00     0.061 C 
HETATM   13  C10 UNL     1      -6.776 -36.941 -13.076  1.00  0.00     0.037 C 
HETATM   14  C11 UNL     1      -8.238 -37.010 -13.358  1.00  0.00     0.034 C 
HETATM   15  C12 UNL     1      -8.748 -38.456 -13.364  1.00  0.00     0.039 C 
HETATM   16  C22 UNL     1      -8.636 -36.447 -14.713  1.00  0.00     0.073 C 
ENDROOT
BRANCH  14  17
HETATM   17  N3  UNL     1      -8.926 -36.342 -12.283  1.00  0.00    -0.348 N 
HETATM   18  C13 UNL     1     -10.331 -36.273 -12.305  1.00  0.00     0.252 C 
HETATM   19  O2  UNL     1     -10.991 -36.797 -13.267  1.00  0.00    -0.268 OA
ATOM     20  H3  UNL     1      -8.401 -35.924 -11.514  1.00  0.00     0.163 HD
BRANCH  18  21
HETATM   21  C14 UNL     1     -11.137 -35.621 -11.268  1.00  0.00     0.032 A 
HETATM   22  C15 UNL     1     -10.586 -35.238 -10.065  1.00  0.00     0.019 A 
HETATM   23  C16 UNL     1     -11.318 -34.624  -9.076  1.00  0.00     0.031 A 
HETATM   24  C17 UNL     1     -12.667 -34.355  -9.241  1.00  0.00     0.041 A 
HETATM   25  C20 UNL     1     -13.214 -34.740 -10.448  1.00  0.00     0.031 A 
HETATM   26  C21 UNL     1     -12.482 -35.360 -11.448  1.00  0.00     0.019 A 
BRANCH  24  27
HETATM   27  N4  UNL     1     -13.430 -33.722  -8.226  1.00  0.00    -0.302 N 
HETATM   28  C18 UNL     1     -14.665 -33.265  -8.329  1.00  0.00     0.206 A 
HETATM   29  N5  UNL     1     -14.966 -32.749  -7.104  1.00  0.00    -0.295 N 
HETATM   30  N6  UNL     1     -13.960 -32.883  -6.283  1.00  0.00    -0.295 N 
ATOM     31  H5  UNL     1     -15.858 -32.316  -6.861  1.00  0.00     0.187 HD
HETATM   32  C19 UNL     1     -12.983 -33.499  -6.981  1.00  0.00     0.206 A 
ATOM     33  H6  UNL     1     -13.921 -32.583  -5.309  1.00  0.00     0.187 HD
ENDBRANCH  24  27
ENDBRANCH  18  21
ENDBRANCH  14  17
BRANCH   5  34
HETATM   34  O1  UNL     1     -10.294 -37.682 -17.160  1.00  0.00    -0.358 OA
ATOM     35  H1  UNL     1     -10.841 -37.053 -17.616  1.00  0.00     0.217 HD
ENDBRANCH   5  34
TORSDOF 4
ENDMDL
