MODEL 1
REMARK VINA RESULT: -9.258480387      0.000      0.000
REMARK  4 active torsions:
REMARK  status: ('A' for Active; 'I' for Inactive)
REMARK    1  A    between atoms: C5_5  and  O1_6 
REMARK    2  A    between atoms: C11_16  and  N3_18 
REMARK       I    between atoms: N3_18  and  C13_20 
REMARK    3  A    between atoms: C13_20  and  C14_22 
REMARK    4  A    between atoms: C17_25  and  N4_26 
ROOT
HETATM    1  C1  UNL     1     -15.212 -33.118  -7.787  1.00  0.00     0.070 C 
HETATM    2  C2  UNL     1     -13.809 -33.557  -7.907  1.00  0.00     0.031 A 
HETATM    3  C3  UNL     1     -12.922 -33.437  -6.858  1.00  0.00     0.029 A 
HETATM    4  C4  UNL     1     -11.624 -33.868  -7.038  1.00  0.00     0.041 A 
HETATM    5  C5  UNL     1     -11.185 -34.419  -8.247  1.00  0.00     0.095 A 
HETATM    6  C6  UNL     1     -12.109 -34.510  -9.242  1.00  0.00     0.098 A 
HETATM    7  C7  UNL     1     -12.005 -34.995 -10.535  1.00  0.00    -0.000 A 
HETATM    8  C8  UNL     1     -13.245 -34.849 -11.115  1.00  0.00     0.035 A 
HETATM    9  N1  UNL     1     -14.046 -34.300 -10.200  1.00  0.00    -0.297 N 
ATOM     10  H1  UNL     1     -15.030 -34.073 -10.347  1.00  0.00     0.187 HD
HETATM   11  N2  UNL     1     -13.374 -34.088  -9.062  1.00  0.00    -0.258 N 
HETATM   12  C9  UNL     1     -13.431 -35.289 -12.508  1.00  0.00     0.061 C 
HETATM   13  C10 UNL     1     -12.851 -36.678 -12.639  1.00  0.00     0.037 C 
HETATM   14  C11 UNL     1     -11.533 -36.868 -11.969  1.00  0.00     0.034 C 
HETATM   15  C12 UNL     1     -11.631 -37.841 -10.788  1.00  0.00     0.039 C 
HETATM   16  C22 UNL     1     -10.945 -35.595 -11.384  1.00  0.00     0.073 C 
ENDROOT
BRANCH  14  17
HETATM   17  N3  UNL     1     -10.640 -37.477 -12.923  1.00  0.00    -0.348 N 
HETATM   18  C13 UNL     1      -9.291 -37.074 -12.953  1.00  0.00     0.252 C 
HETATM   19  O2  UNL     1      -8.864 -36.179 -12.146  1.00  0.00    -0.268 OA
ATOM     20  H3  UNL     1     -10.980 -38.191 -13.567  1.00  0.00     0.163 HD
BRANCH  18  21
HETATM   21  C14 UNL     1      -8.293 -37.621 -13.877  1.00  0.00     0.032 A 
HETATM   22  C15 UNL     1      -8.644 -38.509 -14.870  1.00  0.00     0.019 A 
HETATM   23  C16 UNL     1      -7.728 -39.037 -15.750  1.00  0.00     0.031 A 
HETATM   24  C17 UNL     1      -6.387 -38.698 -15.681  1.00  0.00     0.041 A 
HETATM   25  C20 UNL     1      -6.040 -37.808 -14.685  1.00  0.00     0.031 A 
HETATM   26  C21 UNL     1      -6.958 -37.274 -13.796  1.00  0.00     0.019 A 
BRANCH  24  27
HETATM   27  N4  UNL     1      -5.435 -39.238 -16.585  1.00  0.00    -0.302 N 
HETATM   28  C18 UNL     1      -4.910 -40.450 -16.555  1.00  0.00     0.206 A 
HETATM   29  N5  UNL     1      -4.057 -40.505 -17.616  1.00  0.00    -0.295 N 
HETATM   30  N6  UNL     1      -4.057 -39.375 -18.271  1.00  0.00    -0.295 N 
ATOM     31  H5  UNL     1      -3.493 -41.318 -17.866  1.00  0.00     0.187 HD
HETATM   32  C19 UNL     1      -4.926 -38.566 -17.629  1.00  0.00     0.206 A 
ATOM     33  H6  UNL     1      -3.510 -39.149 -19.102  1.00  0.00     0.187 HD
ENDBRANCH  24  27
ENDBRANCH  18  21
ENDBRANCH  14  17
BRANCH   5  34
HETATM   34  O1  UNL     1      -9.900 -34.853  -8.447  1.00  0.00    -0.358 OA
ATOM     35  H1  UNL     1      -9.693 -35.684  -8.858  1.00  0.00     0.217 HD
ENDBRANCH   5  34
TORSDOF 4
ENDMDL
