MODEL 14
REMARK VINA RESULT: -6.999373440      3.594      7.089
REMARK  5 active torsions:
REMARK  status: ('A' for Active; 'I' for Inactive)
REMARK    1  A    between atoms: N1_1  and  S1_4 
REMARK    2  A    between atoms: S1_4  and  C1_7 
REMARK    3  A    between atoms: C4_10  and  C5_11 
REMARK    4  A    between atoms: C5_11  and  O3_12 
REMARK    5  A    between atoms: C5_11  and  N2_14 
ROOT
HETATM    1  C5  UNL     1      15.581   6.487  14.260  1.00  0.00     0.153 C 
ENDROOT
BRANCH   1   2
HETATM    2  C4  UNL     1      16.868   6.912  13.752  1.00  0.00     0.015 A 
HETATM    3  C3  UNL     1      16.999   7.436  12.457  1.00  0.00     0.017 A 
HETATM    4  C2  UNL     1      18.184   7.882  11.937  1.00  0.00     0.026 A 
HETATM    5  C1  UNL     1      19.328   7.841  12.669  1.00  0.00     0.079 A 
HETATM    6  C16 UNL     1      19.244   7.335  13.941  1.00  0.00     0.026 A 
HETATM    7  C15 UNL     1      18.027   6.875  14.479  1.00  0.00     0.017 A 
BRANCH   5   8
HETATM    8  S1  UNL     1      20.875   8.406  12.039  1.00  0.00     0.256 S 
HETATM    9  O1  UNL     1      20.648   8.750  10.592  1.00  0.00    -0.201 OA
HETATM   10  O2  UNL     1      21.397   9.557  12.824  1.00  0.00    -0.201 OA
BRANCH   8  11
HETATM   11  N1  UNL     1      21.961   7.040  12.115  1.00  0.00    -0.324 N 
ATOM     12  H12 UNL     1      22.962   7.077  11.923  1.00  0.00     0.169 HD
ATOM     13  H11 UNL     1      21.422   6.216  12.382  1.00  0.00     0.169 HD
ENDBRANCH   8  11
ENDBRANCH   5   8
ENDBRANCH   1   2
BRANCH   1  14
HETATM   14  O3  UNL     1      14.644   7.369  14.026  1.00  0.00    -0.345 OA
ATOM     15  H3  UNL     1      13.789   7.065  14.307  1.00  0.00     0.219 HD
ENDBRANCH   1  14
BRANCH   1  16
HETATM   16  N2  UNL     1      15.218   5.320  14.935  1.00  0.00    -0.327 N 
HETATM   17  C6  UNL     1      14.362   5.211  16.091  1.00  0.00     0.131 C 
HETATM   18  C7  UNL     1      14.546   3.875  16.805  1.00  0.00     0.025 C 
HETATM   19  C8  UNL     1      16.000   3.414  16.760  1.00  0.00     0.042 C 
HETATM   20  C9  UNL     1      16.215   3.076  15.305  1.00  0.00    -0.031 A 
HETATM   21  C10 UNL     1      16.761   1.903  14.881  1.00  0.00     0.009 A 
HETATM   22  C14 UNL     1      15.797   4.079  14.445  1.00  0.00     0.042 A 
HETATM   23  C11 UNL     1      16.898   1.716  13.501  1.00  0.00     0.001 A 
HETATM   24  C12 UNL     1      16.495   2.688  12.616  1.00  0.00     0.002 A 
HETATM   25  C13 UNL     1      15.949   3.862  13.075  1.00  0.00     0.030 A 
ENDBRANCH   1  16
TORSDOF 5
ENDMDL
