MODEL 11
REMARK VINA RESULT: -7.173912347      2.088      3.019
REMARK  5 active torsions:
REMARK  status: ('A' for Active; 'I' for Inactive)
REMARK    1  A    between atoms: N1_1  and  S1_4 
REMARK    2  A    between atoms: S1_4  and  C1_7 
REMARK    3  A    between atoms: C4_10  and  C5_11 
REMARK    4  A    between atoms: C5_11  and  O3_12 
REMARK    5  A    between atoms: C5_11  and  N2_14 
ROOT
HETATM    1  C5  UNL     1      16.197   6.883  12.876  1.00  0.00     0.153 C 
ENDROOT
BRANCH   1   2
HETATM    2  C4  UNL     1      15.917   5.948  13.944  1.00  0.00     0.015 A 
HETATM    3  C3  UNL     1      14.889   6.189  14.867  1.00  0.00     0.017 A 
HETATM    4  C2  UNL     1      14.560   5.325  15.878  1.00  0.00     0.026 A 
HETATM    5  C1  UNL     1      15.231   4.155  16.042  1.00  0.00     0.079 A 
HETATM    6  C16 UNL     1      16.245   3.881  15.161  1.00  0.00     0.026 A 
HETATM    7  C15 UNL     1      16.587   4.767  14.121  1.00  0.00     0.017 A 
BRANCH   5   8
HETATM    8  S1  UNL     1      14.841   3.014  17.329  1.00  0.00     0.256 S 
HETATM    9  O1  UNL     1      13.485   2.451  17.005  1.00  0.00    -0.201 OA
HETATM   10  O2  UNL     1      15.882   1.959  17.457  1.00  0.00    -0.201 OA
BRANCH   8  11
HETATM   11  N1  UNL     1      14.709   3.956  18.793  1.00  0.00    -0.324 N 
ATOM     12  H12 UNL     1      15.447   4.545  19.179  1.00  0.00     0.169 HD
ATOM     13  H11 UNL     1      13.777   3.814  19.184  1.00  0.00     0.169 HD
ENDBRANCH   8  11
ENDBRANCH   5   8
ENDBRANCH   1   2
BRANCH   1  14
HETATM   14  O3  UNL     1      15.234   7.754  12.719  1.00  0.00    -0.345 OA
ATOM     15  H3  UNL     1      14.394   7.413  13.003  1.00  0.00     0.219 HD
ENDBRANCH   1  14
BRANCH   1  16
HETATM   16  N2  UNL     1      17.301   6.980  12.027  1.00  0.00    -0.327 N 
HETATM   17  C6  UNL     1      17.528   6.248  10.804  1.00  0.00     0.131 C 
HETATM   18  C7  UNL     1      18.998   6.279  10.394  1.00  0.00     0.025 C 
HETATM   19  C8  UNL     1      19.918   6.237  11.611  1.00  0.00     0.042 C 
HETATM   20  C9  UNL     1      19.699   7.580  12.261  1.00  0.00    -0.031 A 
HETATM   21  C10 UNL     1      20.714   8.408  12.634  1.00  0.00     0.009 A 
HETATM   22  C14 UNL     1      18.359   7.889  12.438  1.00  0.00     0.042 A 
HETATM   23  C11 UNL     1      20.369   9.629  13.223  1.00  0.00     0.001 A 
HETATM   24  C12 UNL     1      19.052   9.970  13.415  1.00  0.00     0.002 A 
HETATM   25  C13 UNL     1      18.049   9.114  13.029  1.00  0.00     0.030 A 
ENDBRANCH   1  16
TORSDOF 5
ENDMDL
