MODEL 2
REMARK VINA RESULT: -7.515434697      3.629      4.721
REMARK  4 active torsions:
REMARK  status: ('A' for Active; 'I' for Inactive)
REMARK    1  A    between atoms: O1_2  and  C2_3 
REMARK       I    between atoms: N1_12  and  C11_13 
REMARK    2  A    between atoms: C11_13  and  C12_15 
REMARK    3  A    between atoms: C15_18  and  S1_19 
REMARK    4  A    between atoms: S1_19  and  N2_20 
ROOT
HETATM    1  C2  UNL     1      17.977  11.325  10.685  1.00  0.00     0.068 A 
HETATM    2  C3  UNL     1      17.295  10.195  10.312  1.00  0.00     0.039 A 
HETATM    3  C4  UNL     1      17.257   9.058  11.131  1.00  0.00     0.033 A 
HETATM    4  C5  UNL     1      17.906   9.035  12.343  1.00  0.00     0.044 A 
HETATM    5  C6  UNL     1      18.593  10.164  12.726  1.00  0.00    -0.028 A 
HETATM    6  C7  UNL     1      18.621  11.302  11.888  1.00  0.00     0.046 A 
HETATM    7  C8  UNL     1      19.319  10.229  14.006  1.00  0.00     0.042 C 
HETATM    8  C9  UNL     1      18.890   9.113  14.919  1.00  0.00     0.025 C 
HETATM    9  C10 UNL     1      18.897   7.794  14.180  1.00  0.00     0.133 C 
HETATM   10  N1  UNL     1      17.834   7.865  13.177  1.00  0.00    -0.313 N 
HETATM   11  C11 UNL     1      16.924   6.810  13.044  1.00  0.00     0.258 C 
HETATM   12  O2  UNL     1      16.421   6.555  11.892  1.00  0.00    -0.267 OA
ENDROOT
BRANCH  11  13
HETATM   13  C12 UNL     1      16.458   5.933  14.104  1.00  0.00     0.032 A 
HETATM   14  C13 UNL     1      17.201   4.813  14.419  1.00  0.00     0.018 A 
HETATM   15  C14 UNL     1      16.808   3.880  15.371  1.00  0.00     0.026 A 
HETATM   16  C15 UNL     1      15.627   4.069  16.039  1.00  0.00     0.079 A 
HETATM   17  C16 UNL     1      14.869   5.158  15.755  1.00  0.00     0.026 A 
HETATM   18  C17 UNL     1      15.283   6.084  14.792  1.00  0.00     0.018 A 
BRANCH  16  19
HETATM   19  S1  UNL     1      15.106   2.910  17.246  1.00  0.00     0.256 S 
HETATM   20  O3  UNL     1      13.827   2.264  16.770  1.00  0.00    -0.201 OA
HETATM   21  O4  UNL     1      16.135   1.820  17.421  1.00  0.00    -0.201 OA
BRANCH  19  22
HETATM   22  N2  UNL     1      14.758   3.686  18.754  1.00  0.00    -0.324 N 
ATOM     23  H22 UNL     1      13.866   4.135  18.965  1.00  0.00     0.169 HD
ATOM     24  H21 UNL     1      15.554   3.634  19.390  1.00  0.00     0.169 HD
ENDBRANCH  19  22
ENDBRANCH  16  19
ENDBRANCH  11  13
BRANCH   1  25
HETATM   25  O1  UNL     1      18.001  12.453   9.848  1.00  0.00    -0.356 OA
HETATM   26  C1  UNL     1      17.474  13.687  10.221  1.00  0.00     0.210 C 
ENDBRANCH   1  25
TORSDOF 4
ENDMDL
