MODEL 6
REMARK VINA RESULT: -7.299518636      3.357      4.265
REMARK  4 active torsions:
REMARK  status: ('A' for Active; 'I' for Inactive)
REMARK    1  A    between atoms: O1_2  and  C2_3 
REMARK       I    between atoms: N1_12  and  C11_13 
REMARK    2  A    between atoms: C11_13  and  C12_15 
REMARK    3  A    between atoms: C15_18  and  S1_19 
REMARK    4  A    between atoms: S1_19  and  N2_20 
ROOT
HETATM    1  C2  UNL     1      17.910  10.280   9.990  1.00  0.00     0.068 A 
HETATM    2  C3  UNL     1      17.383   9.054   9.672  1.00  0.00     0.039 A 
HETATM    3  C4  UNL     1      17.355   8.005  10.601  1.00  0.00     0.033 A 
HETATM    4  C5  UNL     1      17.857   8.168  11.871  1.00  0.00     0.044 A 
HETATM    5  C6  UNL     1      18.389   9.395  12.199  1.00  0.00    -0.028 A 
HETATM    6  C7  UNL     1      18.409  10.442  11.250  1.00  0.00     0.046 A 
HETATM    7  C8  UNL     1      18.951   9.659  13.535  1.00  0.00     0.042 C 
HETATM    8  C9  UNL     1      18.523   8.600  14.513  1.00  0.00     0.025 C 
HETATM    9  C10 UNL     1      18.738   7.222  13.927  1.00  0.00     0.133 C 
HETATM   10  N1  UNL     1      17.797   7.084  12.814  1.00  0.00    -0.313 N 
HETATM   11  C11 UNL     1      17.009   5.932  12.701  1.00  0.00     0.258 C 
HETATM   12  O2  UNL     1      16.670   5.516  11.536  1.00  0.00    -0.267 OA
ENDROOT
BRANCH  11  13
HETATM   13  C12 UNL     1      16.506   5.120  13.795  1.00  0.00     0.032 A 
HETATM   14  C13 UNL     1      15.474   5.608  14.570  1.00  0.00     0.018 A 
HETATM   15  C14 UNL     1      14.967   4.937  15.676  1.00  0.00     0.026 A 
HETATM   16  C15 UNL     1      15.509   3.729  16.027  1.00  0.00     0.079 A 
HETATM   17  C16 UNL     1      16.527   3.218  15.289  1.00  0.00     0.026 A 
HETATM   18  C17 UNL     1      17.023   3.911  14.180  1.00  0.00     0.018 A 
BRANCH  16  19
HETATM   19  S1  UNL     1      14.891   2.858  17.416  1.00  0.00     0.256 S 
HETATM   20  O3  UNL     1      13.479   2.417  17.116  1.00  0.00    -0.201 OA
HETATM   21  O4  UNL     1      15.713   1.620  17.681  1.00  0.00    -0.201 OA
BRANCH  19  22
HETATM   22  N2  UNL     1      14.825   3.874  18.817  1.00  0.00    -0.324 N 
ATOM     23  H22 UNL     1      15.639   4.346  19.209  1.00  0.00     0.169 HD
ATOM     24  H21 UNL     1      13.876   3.932  19.188  1.00  0.00     0.169 HD
ENDBRANCH  19  22
ENDBRANCH  16  19
ENDBRANCH  11  13
BRANCH   1  25
HETATM   25  O1  UNL     1      17.928  11.317   9.043  1.00  0.00    -0.356 OA
HETATM   26  C1  UNL     1      18.548  12.543   9.270  1.00  0.00     0.210 C 
ENDBRANCH   1  25
TORSDOF 4
ENDMDL
