MODEL 10
REMARK VINA RESULT: -6.990505612      5.086      8.512
REMARK  4 active torsions:
REMARK  status: ('A' for Active; 'I' for Inactive)
REMARK    1  A    between atoms: O1_2  and  C2_3 
REMARK       I    between atoms: N1_12  and  C11_13 
REMARK    2  A    between atoms: C11_13  and  C12_15 
REMARK    3  A    between atoms: C15_18  and  S1_19 
REMARK    4  A    between atoms: S1_19  and  N2_20 
ROOT
HETATM    1  C2  UNL     1      16.381   3.871  16.138  1.00  0.00     0.068 A 
HETATM    2  C3  UNL     1      15.211   4.488  15.780  1.00  0.00     0.039 A 
HETATM    3  C4  UNL     1      15.202   5.615  14.946  1.00  0.00     0.033 A 
HETATM    4  C5  UNL     1      16.373   6.145  14.457  1.00  0.00     0.044 A 
HETATM    5  C6  UNL     1      17.553   5.532  14.812  1.00  0.00    -0.028 A 
HETATM    6  C7  UNL     1      17.543   4.396  15.653  1.00  0.00     0.046 A 
HETATM    7  C8  UNL     1      18.855   6.032  14.337  1.00  0.00     0.042 C 
HETATM    8  C9  UNL     1      18.674   6.982  13.185  1.00  0.00     0.025 C 
HETATM    9  C10 UNL     1      17.610   8.007  13.510  1.00  0.00     0.133 C 
HETATM   10  N1  UNL     1      16.338   7.288  13.585  1.00  0.00    -0.313 N 
HETATM   11  C11 UNL     1      15.212   7.782  12.913  1.00  0.00     0.258 C 
HETATM   12  O2  UNL     1      14.047   7.571  13.404  1.00  0.00    -0.267 OA
ENDROOT
BRANCH  11  13
HETATM   13  C12 UNL     1      15.210   8.533  11.670  1.00  0.00     0.032 A 
HETATM   14  C13 UNL     1      14.202   9.449  11.445  1.00  0.00     0.018 A 
HETATM   15  C14 UNL     1      14.076  10.169  10.264  1.00  0.00     0.026 A 
HETATM   16  C15 UNL     1      14.991   9.971   9.264  1.00  0.00     0.079 A 
HETATM   17  C16 UNL     1      15.996   9.078   9.448  1.00  0.00     0.026 A 
HETATM   18  C17 UNL     1      16.103   8.362  10.646  1.00  0.00     0.018 A 
BRANCH  16  19
HETATM   19  S1  UNL     1      14.860  10.865   7.762  1.00  0.00     0.256 S 
HETATM   20  O3  UNL     1      13.726  11.854   7.891  1.00  0.00    -0.201 OA
HETATM   21  O4  UNL     1      16.123  11.648   7.493  1.00  0.00    -0.201 OA
BRANCH  19  22
HETATM   22  N2  UNL     1      14.481   9.818   6.437  1.00  0.00    -0.324 N 
ATOM     23  H22 UNL     1      13.575   9.364   6.318  1.00  0.00     0.169 HD
ATOM     24  H21 UNL     1      15.275   9.720   5.804  1.00  0.00     0.169 HD
ENDBRANCH  19  22
ENDBRANCH  16  19
ENDBRANCH  11  13
BRANCH   1  25
HETATM   25  O1  UNL     1      16.366   2.742  16.974  1.00  0.00    -0.356 OA
HETATM   26  C1  UNL     1      15.199   2.225  17.531  1.00  0.00     0.210 C 
ENDBRANCH   1  25
TORSDOF 4
ENDMDL
