MODEL 5
REMARK VINA RESULT: -7.331083813      3.428      8.505
REMARK  4 active torsions:
REMARK  status: ('A' for Active; 'I' for Inactive)
REMARK    1  A    between atoms: O1_2  and  C2_3 
REMARK       I    between atoms: N1_12  and  C11_13 
REMARK    2  A    between atoms: C11_13  and  C12_15 
REMARK    3  A    between atoms: C15_18  and  S1_19 
REMARK    4  A    between atoms: S1_19  and  N2_20 
ROOT
HETATM    1  C2  UNL     1      15.180   4.594  15.653  1.00  0.00     0.068 A 
HETATM    2  C3  UNL     1      15.882   3.561  15.088  1.00  0.00     0.039 A 
HETATM    3  C4  UNL     1      16.700   3.757  13.967  1.00  0.00     0.033 A 
HETATM    4  C5  UNL     1      16.828   4.999  13.391  1.00  0.00     0.044 A 
HETATM    5  C6  UNL     1      16.126   6.042  13.950  1.00  0.00    -0.028 A 
HETATM    6  C7  UNL     1      15.306   5.827  15.081  1.00  0.00     0.046 A 
HETATM    7  C8  UNL     1      16.200   7.406  13.398  1.00  0.00     0.042 C 
HETATM    8  C9  UNL     1      17.371   7.539  12.462  1.00  0.00     0.025 C 
HETATM    9  C10 UNL     1      17.396   6.388  11.482  1.00  0.00     0.133 C 
HETATM   10  N1  UNL     1      17.691   5.180  12.255  1.00  0.00    -0.313 N 
HETATM   11  C11 UNL     1      18.676   4.289  11.814  1.00  0.00     0.258 C 
HETATM   12  O2  UNL     1      18.552   3.039  12.071  1.00  0.00    -0.267 OA
ENDROOT
BRANCH  11  13
HETATM   13  C12 UNL     1      19.876   4.628  11.069  1.00  0.00     0.032 A 
HETATM   14  C13 UNL     1      20.922   5.238  11.731  1.00  0.00     0.018 A 
HETATM   15  C14 UNL     1      22.084   5.660  11.096  1.00  0.00     0.026 A 
HETATM   16  C15 UNL     1      22.212   5.466   9.746  1.00  0.00     0.079 A 
HETATM   17  C16 UNL     1      21.203   4.870   9.061  1.00  0.00     0.026 A 
HETATM   18  C17 UNL     1      20.041   4.455   9.720  1.00  0.00     0.018 A 
BRANCH  16  19
HETATM   19  S1  UNL     1      23.666   5.985   8.917  1.00  0.00     0.256 S 
HETATM   20  O3  UNL     1      24.643   4.835   8.895  1.00  0.00    -0.201 OA
HETATM   21  O4  UNL     1      23.362   6.357   7.486  1.00  0.00    -0.201 OA
BRANCH  19  22
HETATM   22  N2  UNL     1      24.432   7.295   9.751  1.00  0.00    -0.324 N 
ATOM     23  H22 UNL     1      24.027   7.759  10.564  1.00  0.00     0.169 HD
ATOM     24  H21 UNL     1      25.328   7.532   9.324  1.00  0.00     0.169 HD
ENDBRANCH  19  22
ENDBRANCH  16  19
ENDBRANCH  11  13
BRANCH   1  25
HETATM   25  O1  UNL     1      14.366   4.375  16.777  1.00  0.00    -0.356 OA
HETATM   26  C1  UNL     1      14.057   3.103  17.254  1.00  0.00     0.210 C 
ENDBRANCH   1  25
TORSDOF 4
ENDMDL
