MODEL 3
REMARK VINA RESULT: -7.430242286      3.403      8.565
REMARK  4 active torsions:
REMARK  status: ('A' for Active; 'I' for Inactive)
REMARK    1  A    between atoms: O1_2  and  C2_3 
REMARK       I    between atoms: N1_12  and  C11_13 
REMARK    2  A    between atoms: C11_13  and  C12_15 
REMARK    3  A    between atoms: C15_18  and  S1_19 
REMARK    4  A    between atoms: S1_19  and  N2_20 
ROOT
HETATM    1  C2  UNL     1      15.179   4.472  15.808  1.00  0.00     0.068 A 
HETATM    2  C3  UNL     1      15.893   3.466  15.210  1.00  0.00     0.039 A 
HETATM    3  C4  UNL     1      16.677   3.699  14.072  1.00  0.00     0.033 A 
HETATM    4  C5  UNL     1      16.757   4.953  13.512  1.00  0.00     0.044 A 
HETATM    5  C6  UNL     1      16.044   5.969  14.104  1.00  0.00    -0.028 A 
HETATM    6  C7  UNL     1      15.258   5.715  15.252  1.00  0.00     0.046 A 
HETATM    7  C8  UNL     1      16.069   7.342  13.571  1.00  0.00     0.042 C 
HETATM    8  C9  UNL     1      17.211   7.520  12.609  1.00  0.00     0.025 C 
HETATM    9  C10 UNL     1      17.242   6.385  11.610  1.00  0.00     0.133 C 
HETATM   10  N1  UNL     1      17.586   5.174  12.357  1.00  0.00    -0.313 N 
HETATM   11  C11 UNL     1      18.583   4.315  11.878  1.00  0.00     0.258 C 
HETATM   12  O2  UNL     1      18.498   3.058  12.119  1.00  0.00    -0.267 OA
ENDROOT
BRANCH  11  13
HETATM   13  C12 UNL     1      19.755   4.697  11.109  1.00  0.00     0.032 A 
HETATM   14  C13 UNL     1      19.823   4.346   9.776  1.00  0.00     0.018 A 
HETATM   15  C14 UNL     1      20.926   4.608   8.974  1.00  0.00     0.026 A 
HETATM   16  C15 UNL     1      22.009   5.246   9.520  1.00  0.00     0.079 A 
HETATM   17  C16 UNL     1      21.980   5.605  10.828  1.00  0.00     0.026 A 
HETATM   18  C17 UNL     1      20.858   5.330  11.619  1.00  0.00     0.018 A 
BRANCH  16  19
HETATM   19  S1  UNL     1      23.415   5.591   8.533  1.00  0.00     0.256 S 
HETATM   20  O3  UNL     1      24.615   4.922   9.157  1.00  0.00    -0.201 OA
HETATM   21  O4  UNL     1      23.245   5.026   7.143  1.00  0.00    -0.201 OA
BRANCH  19  22
HETATM   22  N2  UNL     1      23.744   7.290   8.478  1.00  0.00    -0.324 N 
ATOM     23  H22 UNL     1      23.433   7.947   9.194  1.00  0.00     0.169 HD
ATOM     24  H21 UNL     1      24.281   7.537   7.647  1.00  0.00     0.169 HD
ENDBRANCH  19  22
ENDBRANCH  16  19
ENDBRANCH  11  13
BRANCH   1  25
HETATM   25  O1  UNL     1      14.400   4.215  16.948  1.00  0.00    -0.356 OA
HETATM   26  C1  UNL     1      13.978   2.937  17.307  1.00  0.00     0.210 C 
ENDBRANCH   1  25
TORSDOF 4
ENDMDL
