MODEL 8
REMARK VINA RESULT: -7.214107325      3.479      4.706
REMARK  4 active torsions:
REMARK  status: ('A' for Active; 'I' for Inactive)
REMARK    1  A    between atoms: O1_2  and  C2_3 
REMARK       I    between atoms: N1_12  and  C11_13 
REMARK    2  A    between atoms: C11_13  and  C12_15 
REMARK    3  A    between atoms: C15_18  and  S1_19 
REMARK    4  A    between atoms: S1_19  and  N2_20 
ROOT
HETATM    1  C2  UNL     1      18.118  11.489  11.138  1.00  0.00     0.068 A 
HETATM    2  C3  UNL     1      17.343  10.472  10.643  1.00  0.00     0.039 A 
HETATM    3  C4  UNL     1      17.301   9.214  11.262  1.00  0.00     0.033 A 
HETATM    4  C5  UNL     1      18.040   8.955  12.392  1.00  0.00     0.044 A 
HETATM    5  C6  UNL     1      18.822   9.970  12.896  1.00  0.00    -0.028 A 
HETATM    6  C7  UNL     1      18.851  11.232  12.259  1.00  0.00     0.046 A 
HETATM    7  C8  UNL     1      19.648   9.782  14.101  1.00  0.00     0.042 C 
HETATM    8  C9  UNL     1      19.226   8.548  14.850  1.00  0.00     0.025 C 
HETATM    9  C10 UNL     1      19.096   7.375  13.904  1.00  0.00     0.133 C 
HETATM   10  N1  UNL     1      17.964   7.665  13.023  1.00  0.00    -0.313 N 
HETATM   11  C11 UNL     1      16.984   6.690  12.796  1.00  0.00     0.258 C 
HETATM   12  O2  UNL     1      16.379   6.660  11.666  1.00  0.00    -0.267 OA
ENDROOT
BRANCH  11  13
HETATM   13  C12 UNL     1      16.551   5.667  13.732  1.00  0.00     0.032 A 
HETATM   14  C13 UNL     1      15.559   5.971  14.642  1.00  0.00     0.018 A 
HETATM   15  C14 UNL     1      15.122   5.085  15.618  1.00  0.00     0.026 A 
HETATM   16  C15 UNL     1      15.696   3.843  15.694  1.00  0.00     0.079 A 
HETATM   17  C16 UNL     1      16.677   3.509  14.817  1.00  0.00     0.026 A 
HETATM   18  C17 UNL     1      17.103   4.418  13.842  1.00  0.00     0.018 A 
BRANCH  16  19
HETATM   19  S1  UNL     1      15.165   2.702  16.913  1.00  0.00     0.256 S 
HETATM   20  O3  UNL     1      15.584   1.316  16.488  1.00  0.00    -0.201 OA
HETATM   21  O4  UNL     1      15.822   2.994  18.241  1.00  0.00    -0.201 OA
BRANCH  19  22
HETATM   22  N2  UNL     1      13.440   2.696  17.061  1.00  0.00    -0.324 N 
ATOM     23  H22 UNL     1      12.807   2.583  16.268  1.00  0.00     0.169 HD
ATOM     24  H21 UNL     1      13.151   2.818  18.031  1.00  0.00     0.169 HD
ENDBRANCH  19  22
ENDBRANCH  16  19
ENDBRANCH  11  13
BRANCH   1  25
HETATM   25  O1  UNL     1      18.144  12.741  10.502  1.00  0.00    -0.356 OA
HETATM   26  C1  UNL     1      19.226  13.614  10.586  1.00  0.00     0.210 C 
ENDBRANCH   1  25
TORSDOF 4
ENDMDL
