MODEL 1
REMARK VINA RESULT: -7.947070822      0.000      0.000
REMARK  5 active torsions:
REMARK  status: ('A' for Active; 'I' for Inactive)
REMARK    1  A    between atoms: N1_1  and  S1_4 
REMARK    2  A    between atoms: S1_4  and  C1_7 
REMARK    3  A    between atoms: C4_10  and  C5_11 
REMARK    4  A    between atoms: C5_11  and  O3_12 
REMARK    5  A    between atoms: C5_11  and  N2_14 
ROOT
HETATM    1  C5  UNL     1      16.621   3.735  11.978  1.00  0.00     0.148 C 
ENDROOT
BRANCH   1   2
HETATM    2  C4  UNL     1      17.722   4.215  11.214  1.00  0.00     0.015 A 
HETATM    3  C3  UNL     1      18.902   3.419  11.142  1.00  0.00     0.017 A 
HETATM    4  C2  UNL     1      20.002   3.863  10.483  1.00  0.00     0.026 A 
HETATM    5  C1  UNL     1      20.046   5.072   9.863  1.00  0.00     0.079 A 
HETATM    6  C16 UNL     1      18.913   5.840   9.931  1.00  0.00     0.026 A 
HETATM    7  C15 UNL     1      17.750   5.432  10.599  1.00  0.00     0.017 A 
BRANCH   5   8
HETATM    8  S1  UNL     1      21.438   5.679   9.005  1.00  0.00     0.256 S 
HETATM    9  O1  UNL     1      22.718   5.108   9.480  1.00  0.00    -0.201 OA
HETATM   10  O2  UNL     1      21.428   7.190   9.149  1.00  0.00    -0.201 OA
BRANCH   8  11
HETATM   11  N1  UNL     1      21.206   5.342   7.327  1.00  0.00    -0.324 N 
ATOM     12  H12 UNL     1      21.540   4.496   6.866  1.00  0.00     0.169 HD
ATOM     13  H11 UNL     1      20.696   6.100   6.875  1.00  0.00     0.169 HD
ENDBRANCH   8  11
ENDBRANCH   5   8
ENDBRANCH   1   2
BRANCH   1  14
HETATM   14  O3  UNL     1      15.551   3.441  11.296  1.00  0.00    -0.346 OA
ATOM     15  H3  UNL     1      14.801   4.004  11.451  1.00  0.00     0.219 HD
ENDBRANCH   1  14
BRANCH   1  16
HETATM   16  N2  UNL     1      16.498   3.530  13.353  1.00  0.00    -0.357 N 
HETATM   17  C6  UNL     1      16.573   2.143  13.861  1.00  0.00     0.130 C 
HETATM   18  C7  UNL     1      16.845   2.056  15.338  1.00  0.00     0.059 C 
HETATM   19  C8  UNL     1      15.838   2.933  16.035  1.00  0.00    -0.049 A 
HETATM   20  C9  UNL     1      15.248   2.483  17.171  1.00  0.00     0.008 A 
HETATM   21  C13 UNL     1      15.522   4.132  15.488  1.00  0.00    -0.034 A 
HETATM   22  C10 UNL     1      14.278   3.292  17.791  1.00  0.00     0.001 A 
HETATM   23  C11 UNL     1      13.932   4.517  17.256  1.00  0.00     0.001 A 
HETATM   24  C12 UNL     1      14.559   4.936  16.099  1.00  0.00     0.009 A 
HETATM   25  C14 UNL     1      16.237   4.586  14.265  1.00  0.00     0.164 C 
ENDBRANCH   1  16
TORSDOF 5
ENDMDL
