MODEL 5
REMARK VINA RESULT: -7.639655019      4.719      7.750
REMARK  5 active torsions:
REMARK  status: ('A' for Active; 'I' for Inactive)
REMARK    1  A    between atoms: N1_1  and  S1_4 
REMARK    2  A    between atoms: S1_4  and  C1_7 
REMARK    3  A    between atoms: C4_10  and  C5_11 
REMARK    4  A    between atoms: C5_11  and  O3_12 
REMARK    5  A    between atoms: C5_11  and  N2_14 
ROOT
HETATM    1  C5  UNL     1      16.878   5.950  12.678  1.00  0.00     0.148 C 
ENDROOT
BRANCH   1   2
HETATM    2  C4  UNL     1      16.372   5.219  13.792  1.00  0.00     0.015 A 
HETATM    3  C3  UNL     1      16.860   3.900  14.021  1.00  0.00     0.017 A 
HETATM    4  C2  UNL     1      16.360   3.139  15.027  1.00  0.00     0.026 A 
HETATM    5  C1  UNL     1      15.381   3.580  15.862  1.00  0.00     0.079 A 
HETATM    6  C16 UNL     1      14.911   4.847  15.643  1.00  0.00     0.026 A 
HETATM    7  C15 UNL     1      15.389   5.676  14.619  1.00  0.00     0.017 A 
BRANCH   5   8
HETATM    8  S1  UNL     1      14.713   2.634  17.167  1.00  0.00     0.256 S 
HETATM    9  O1  UNL     1      15.290   1.275  17.264  1.00  0.00    -0.201 OA
HETATM   10  O2  UNL     1      13.212   2.576  16.955  1.00  0.00    -0.201 OA
BRANCH   8  11
HETATM   11  N1  UNL     1      14.971   3.510  18.633  1.00  0.00    -0.324 N 
ATOM     12  H12 UNL     1      14.437   3.357  19.488  1.00  0.00     0.169 HD
ATOM     13  H11 UNL     1      15.721   4.191  18.518  1.00  0.00     0.169 HD
ENDBRANCH   8  11
ENDBRANCH   5   8
ENDBRANCH   1   2
BRANCH   1  14
HETATM   14  O3  UNL     1      16.551   5.483  11.508  1.00  0.00    -0.346 OA
ATOM     15  H3  UNL     1      16.686   6.077  10.779  1.00  0.00     0.219 HD
ENDBRANCH   1  14
BRANCH   1  16
HETATM   16  N2  UNL     1      17.678   7.092  12.637  1.00  0.00    -0.357 N 
HETATM   17  C6  UNL     1      18.925   7.043  11.845  1.00  0.00     0.130 C 
HETATM   18  C7  UNL     1      19.489   8.399  11.523  1.00  0.00     0.059 C 
HETATM   19  C8  UNL     1      19.590   9.165  12.816  1.00  0.00    -0.049 A 
HETATM   20  C9  UNL     1      20.701   9.907  13.057  1.00  0.00     0.008 A 
HETATM   21  C13 UNL     1      18.586   9.061  13.720  1.00  0.00    -0.034 A 
HETATM   22  C10 UNL     1      20.803  10.585  14.286  1.00  0.00     0.001 A 
HETATM   23  C11 UNL     1      19.797  10.497  15.228  1.00  0.00     0.001 A 
HETATM   24  C12 UNL     1      18.685   9.730  14.940  1.00  0.00     0.009 A 
HETATM   25  C14 UNL     1      17.376   8.266  13.377  1.00  0.00     0.164 C 
ENDBRANCH   1  16
TORSDOF 5
ENDMDL
