MODEL 6
REMARK VINA RESULT: -7.592748623      4.531      7.734
REMARK  5 active torsions:
REMARK  status: ('A' for Active; 'I' for Inactive)
REMARK    1  A    between atoms: N1_1  and  S1_4 
REMARK    2  A    between atoms: S1_4  and  C1_7 
REMARK    3  A    between atoms: C4_10  and  C5_11 
REMARK    4  A    between atoms: C5_11  and  O3_12 
REMARK    5  A    between atoms: C5_11  and  N2_14 
ROOT
HETATM    1  C5  UNL     1      17.313   7.414  11.925  1.00  0.00     0.148 C 
ENDROOT
BRANCH   1   2
HETATM    2  C4  UNL     1      17.167   6.307  12.810  1.00  0.00     0.015 A 
HETATM    3  C3  UNL     1      16.887   5.024  12.258  1.00  0.00     0.017 A 
HETATM    4  C2  UNL     1      16.672   3.952  13.062  1.00  0.00     0.026 A 
HETATM    5  C1  UNL     1      16.710   4.036  14.419  1.00  0.00     0.079 A 
HETATM    6  C16 UNL     1      16.978   5.269  14.952  1.00  0.00     0.026 A 
HETATM    7  C15 UNL     1      17.206   6.409  14.170  1.00  0.00     0.017 A 
BRANCH   5   8
HETATM    8  S1  UNL     1      16.441   2.683  15.488  1.00  0.00     0.256 S 
HETATM    9  O1  UNL     1      17.541   2.469  16.454  1.00  0.00    -0.201 OA
HETATM   10  O2  UNL     1      16.234   1.458  14.616  1.00  0.00    -0.201 OA
BRANCH   8  11
HETATM   11  N1  UNL     1      14.950   2.958  16.314  1.00  0.00    -0.324 N 
ATOM     12  H12 UNL     1      14.600   2.366  17.067  1.00  0.00     0.169 HD
ATOM     13  H11 UNL     1      14.481   3.785  15.944  1.00  0.00     0.169 HD
ENDBRANCH   8  11
ENDBRANCH   5   8
ENDBRANCH   1   2
BRANCH   1  14
HETATM   14  O3  UNL     1      18.538   7.799  11.708  1.00  0.00    -0.346 OA
ATOM     15  H3  UNL     1      19.050   7.987  12.486  1.00  0.00     0.219 HD
ENDBRANCH   1  14
BRANCH   1  16
HETATM   16  N2  UNL     1      16.348   8.162  11.249  1.00  0.00    -0.357 N 
HETATM   17  C6  UNL     1      15.016   8.310  11.874  1.00  0.00     0.130 C 
HETATM   18  C7  UNL     1      14.204   9.440  11.303  1.00  0.00     0.059 C 
HETATM   19  C8  UNL     1      14.187   9.272   9.806  1.00  0.00    -0.049 A 
HETATM   20  C9  UNL     1      13.025   9.475   9.134  1.00  0.00     0.008 A 
HETATM   21  C13 UNL     1      15.323   8.886   9.176  1.00  0.00    -0.034 A 
HETATM   22  C10 UNL     1      13.010   9.275   7.742  1.00  0.00     0.001 A 
HETATM   23  C11 UNL     1      14.151   8.879   7.071  1.00  0.00     0.001 A 
HETATM   24  C12 UNL     1      15.311   8.685   7.796  1.00  0.00     0.009 A 
HETATM   25  C14 UNL     1      16.575   8.722   9.965  1.00  0.00     0.164 C 
ENDBRANCH   1  16
TORSDOF 5
ENDMDL
