MODEL 4
REMARK VINA RESULT: -7.645613797      5.079      8.221
REMARK  5 active torsions:
REMARK  status: ('A' for Active; 'I' for Inactive)
REMARK    1  A    between atoms: N1_1  and  S1_4 
REMARK    2  A    between atoms: S1_4  and  C1_7 
REMARK    3  A    between atoms: C4_10  and  C5_11 
REMARK    4  A    between atoms: C5_11  and  O3_12 
REMARK    5  A    between atoms: C5_11  and  N2_14 
ROOT
HETATM    1  C5  UNL     1      16.662   6.915  13.198  1.00  0.00     0.148 C 
ENDROOT
BRANCH   1   2
HETATM    2  C4  UNL     1      16.200   5.985  14.172  1.00  0.00     0.015 A 
HETATM    3  C3  UNL     1      16.955   4.797  14.395  1.00  0.00     0.017 A 
HETATM    4  C2  UNL     1      16.521   3.848  15.263  1.00  0.00     0.026 A 
HETATM    5  C1  UNL     1      15.360   3.971  15.960  1.00  0.00     0.079 A 
HETATM    6  C16 UNL     1      14.632   5.111  15.747  1.00  0.00     0.026 A 
HETATM    7  C15 UNL     1      15.031   6.122  14.862  1.00  0.00     0.017 A 
BRANCH   5   8
HETATM    8  S1  UNL     1      14.768   2.776  17.086  1.00  0.00     0.256 S 
HETATM    9  O1  UNL     1      15.431   1.460  16.950  1.00  0.00    -0.201 OA
HETATM   10  O2  UNL     1      13.271   2.658  16.866  1.00  0.00    -0.201 OA
BRANCH   8  11
HETATM   11  N1  UNL     1      14.985   3.406  18.679  1.00  0.00    -0.324 N 
ATOM     12  H12 UNL     1      15.750   4.025  18.946  1.00  0.00     0.169 HD
ATOM     13  H11 UNL     1      14.248   3.073  19.300  1.00  0.00     0.169 HD
ENDBRANCH   8  11
ENDBRANCH   5   8
ENDBRANCH   1   2
BRANCH   1  14
HETATM   14  O3  UNL     1      16.146   6.783  12.010  1.00  0.00    -0.346 OA
ATOM     15  H3  UNL     1      16.726   6.418  11.351  1.00  0.00     0.219 HD
ENDBRANCH   1  14
BRANCH   1  16
HETATM   16  N2  UNL     1      17.589   7.952  13.309  1.00  0.00    -0.357 N 
HETATM   17  C6  UNL     1      17.962   8.413  14.663  1.00  0.00     0.130 C 
HETATM   18  C7  UNL     1      19.234   9.214  14.698  1.00  0.00     0.059 C 
HETATM   19  C8  UNL     1      19.108  10.307  13.668  1.00  0.00    -0.049 A 
HETATM   20  C9  UNL     1      19.535  11.557  13.980  1.00  0.00     0.008 A 
HETATM   21  C13 UNL     1      18.538  10.019  12.474  1.00  0.00    -0.034 A 
HETATM   22  C10 UNL     1      19.375  12.579  13.026  1.00  0.00     0.001 A 
HETATM   23  C11 UNL     1      18.795  12.318  11.800  1.00  0.00     0.001 A 
HETATM   24  C12 UNL     1      18.376  11.031  11.526  1.00  0.00     0.009 A 
HETATM   25  C14 UNL     1      18.130   8.619  12.178  1.00  0.00     0.164 C 
ENDBRANCH   1  16
TORSDOF 5
ENDMDL
