MODEL 2
REMARK VINA RESULT: -7.739187733      0.349      1.062
REMARK  5 active torsions:
REMARK  status: ('A' for Active; 'I' for Inactive)
REMARK    1  A    between atoms: N1_1  and  S1_4 
REMARK    2  A    between atoms: S1_4  and  C1_7 
REMARK    3  A    between atoms: C4_10  and  C5_11 
REMARK    4  A    between atoms: C5_11  and  O3_12 
REMARK    5  A    between atoms: C5_11  and  N2_14 
ROOT
HETATM    1  C5  UNL     1      16.825   3.967  11.804  1.00  0.00     0.148 C 
ENDROOT
BRANCH   1   2
HETATM    2  C4  UNL     1      18.003   4.364  11.110  1.00  0.00     0.015 A 
HETATM    3  C3  UNL     1      17.993   5.598  10.397  1.00  0.00     0.017 A 
HETATM    4  C2  UNL     1      19.067   5.987   9.664  1.00  0.00     0.026 A 
HETATM    5  C1  UNL     1      20.197   5.238   9.567  1.00  0.00     0.079 A 
HETATM    6  C16 UNL     1      20.209   4.051  10.251  1.00  0.00     0.026 A 
HETATM    7  C15 UNL     1      19.129   3.599  11.021  1.00  0.00     0.017 A 
BRANCH   5   8
HETATM    8  S1  UNL     1      21.599   5.703   8.638  1.00  0.00     0.256 S 
HETATM    9  O1  UNL     1      22.867   5.157   9.172  1.00  0.00    -0.201 OA
HETATM   10  O2  UNL     1      21.630   7.220   8.603  1.00  0.00    -0.201 OA
BRANCH   8  11
HETATM   11  N1  UNL     1      21.347   5.177   7.012  1.00  0.00    -0.324 N 
ATOM     12  H12 UNL     1      21.308   5.806   6.211  1.00  0.00     0.169 HD
ATOM     13  H11 UNL     1      21.244   4.163   6.974  1.00  0.00     0.169 HD
ENDBRANCH   8  11
ENDBRANCH   5   8
ENDBRANCH   1   2
BRANCH   1  14
HETATM   14  O3  UNL     1      15.755   3.856  11.071  1.00  0.00    -0.346 OA
ATOM     15  H3  UNL     1      14.935   3.808  11.549  1.00  0.00     0.219 HD
ENDBRANCH   1  14
BRANCH   1  16
HETATM   16  N2  UNL     1      16.627   3.680  13.155  1.00  0.00    -0.357 N 
HETATM   17  C6  UNL     1      16.585   2.261  13.568  1.00  0.00     0.130 C 
HETATM   18  C7  UNL     1      16.785   2.055  15.044  1.00  0.00     0.059 C 
HETATM   19  C8  UNL     1      15.809   2.953  15.760  1.00  0.00    -0.049 A 
HETATM   20  C9  UNL     1      15.139   2.470  16.837  1.00  0.00     0.008 A 
HETATM   21  C13 UNL     1      15.600   4.205  15.286  1.00  0.00    -0.034 A 
HETATM   22  C10 UNL     1      14.200   3.303  17.473  1.00  0.00     0.001 A 
HETATM   23  C11 UNL     1      13.962   4.583  17.012  1.00  0.00     0.001 A 
HETATM   24  C12 UNL     1      14.668   5.032  15.913  1.00  0.00     0.009 A 
HETATM   25  C14 UNL     1      16.398   4.689  14.127  1.00  0.00     0.164 C 
ENDBRANCH   1  16
TORSDOF 5
ENDMDL
