MODEL 1
REMARK VINA RESULT: -7.985989407      0.000      0.000
REMARK  7 active torsions:
REMARK  status: ('A' for Active; 'I' for Inactive)
REMARK    1  A    between atoms: N1_1  and  S1_4 
REMARK    2  A    between atoms: S1_4  and  C1_7 
REMARK    3  A    between atoms: C4_10  and  C5_11 
REMARK    4  A    between atoms: C5_11  and  O3_12 
REMARK    5  A    between atoms: C5_11  and  N2_14 
REMARK    6  A    between atoms: C10_19  and  O4_20 
REMARK    7  A    between atoms: C11_22  and  O5_23 
ROOT
HETATM    1  C5  UNL     1      16.597   7.809  12.553  1.00  0.00     0.148 C 
ENDROOT
BRANCH   1   2
HETATM    2  C4  UNL     1      15.728   8.333  11.524  1.00  0.00     0.015 A 
HETATM    3  C3  UNL     1      14.516   8.950  11.734  1.00  0.00     0.017 A 
HETATM    4  C2  UNL     1      13.726   9.473  10.697  1.00  0.00     0.026 A 
HETATM    5  C1  UNL     1      14.157   9.377   9.401  1.00  0.00     0.079 A 
HETATM    6  C16 UNL     1      15.362   8.765   9.166  1.00  0.00     0.026 A 
HETATM    7  C15 UNL     1      16.134   8.255  10.180  1.00  0.00     0.017 A 
BRANCH   5   8
HETATM    8  S1  UNL     1      13.169  10.030   8.114  1.00  0.00     0.256 S 
HETATM    9  O1  UNL     1      13.117  11.520   8.287  1.00  0.00    -0.201 OA
HETATM   10  O2  UNL     1      11.764   9.510   8.179  1.00  0.00    -0.201 OA
BRANCH   8  11
HETATM   11  N1  UNL     1      13.928   9.624   6.617  1.00  0.00    -0.324 N 
ATOM     12  H12 UNL     1      14.698  10.152   6.206  1.00  0.00     0.169 HD
ATOM     13  H11 UNL     1      13.498   8.791   6.214  1.00  0.00     0.169 HD
ENDBRANCH   8  11
ENDBRANCH   5   8
ENDBRANCH   1   2
BRANCH   1  14
HETATM   14  O3  UNL     1      17.724   8.494  12.650  1.00  0.00    -0.346 OA
ATOM     15  H3  UNL     1      18.436   7.965  12.989  1.00  0.00     0.219 HD
ENDBRANCH   1  14
BRANCH   1  16
HETATM   16  N2  UNL     1      16.440   6.737  13.425  1.00  0.00    -0.357 N 
HETATM   17  C6  UNL     1      16.047   7.095  14.806  1.00  0.00     0.130 C 
HETATM   18  C7  UNL     1      14.780   6.303  15.110  1.00  0.00     0.059 C 
HETATM   19  C8  UNL     1      15.222   4.897  15.203  1.00  0.00    -0.046 A 
HETATM   20  C9  UNL     1      14.779   4.082  16.197  1.00  0.00     0.047 A 
HETATM   21  C13 UNL     1      16.109   4.458  14.256  1.00  0.00    -0.031 A 
HETATM   22  C10 UNL     1      15.212   2.751  16.297  1.00  0.00     0.099 A 
HETATM   23  C11 UNL     1      16.102   2.313  15.345  1.00  0.00     0.099 A 
HETATM   24  C12 UNL     1      16.548   3.164  14.329  1.00  0.00     0.048 A 
HETATM   25  C14 UNL     1      16.585   5.359  13.148  1.00  0.00     0.164 C 
BRANCH  22  26
HETATM   26  O4  UNL     1      14.750   1.920  17.322  1.00  0.00    -0.358 OA
ATOM     27  H4  UNL     1      15.204   1.113  17.540  1.00  0.00     0.217 HD
ENDBRANCH  22  26
BRANCH  23  28
HETATM   28  O5  UNL     1      16.552   0.999  15.414  1.00  0.00    -0.358 OA
ATOM     29  H5  UNL     1      17.449   0.814  15.162  1.00  0.00     0.217 HD
ENDBRANCH  23  28
ENDBRANCH   1  16
TORSDOF 7
ENDMDL
