MODEL 2
REMARK VINA RESULT: -7.643372007      0.885      1.898
REMARK  7 active torsions:
REMARK  status: ('A' for Active; 'I' for Inactive)
REMARK    1  A    between atoms: N1_1  and  S1_4 
REMARK    2  A    between atoms: S1_4  and  C1_7 
REMARK    3  A    between atoms: C4_10  and  C5_11 
REMARK    4  A    between atoms: C5_11  and  O3_12 
REMARK    5  A    between atoms: C5_11  and  N2_14 
REMARK    6  A    between atoms: C10_19  and  O4_20 
REMARK    7  A    between atoms: C11_22  and  O5_23 
ROOT
HETATM    1  C5  UNL     1      16.460   7.986  12.533  1.00  0.00     0.148 C 
ENDROOT
BRANCH   1   2
HETATM    2  C4  UNL     1      15.708   8.532  11.426  1.00  0.00     0.015 A 
HETATM    3  C3  UNL     1      16.140   8.607  10.122  1.00  0.00     0.017 A 
HETATM    4  C2  UNL     1      15.352   9.117   9.076  1.00  0.00     0.026 A 
HETATM    5  C1  UNL     1      14.087   9.571   9.339  1.00  0.00     0.079 A 
HETATM    6  C16 UNL     1      13.634   9.507  10.632  1.00  0.00     0.026 A 
HETATM    7  C15 UNL     1      14.404   9.008  11.653  1.00  0.00     0.017 A 
BRANCH   5   8
HETATM    8  S1  UNL     1      13.111  10.204   8.033  1.00  0.00     0.256 S 
HETATM    9  O1  UNL     1      13.026  11.693   8.204  1.00  0.00    -0.201 OA
HETATM   10  O2  UNL     1      11.716   9.656   8.070  1.00  0.00    -0.201 OA
BRANCH   8  11
HETATM   11  N1  UNL     1      13.907   9.813   6.551  1.00  0.00    -0.324 N 
ATOM     12  H12 UNL     1      13.780  10.332   5.682  1.00  0.00     0.169 HD
ATOM     13  H11 UNL     1      14.511   9.001   6.675  1.00  0.00     0.169 HD
ENDBRANCH   8  11
ENDBRANCH   5   8
ENDBRANCH   1   2
BRANCH   1  14
HETATM   14  O3  UNL     1      17.520   8.720  12.825  1.00  0.00    -0.346 OA
ATOM     15  H3  UNL     1      17.486   9.062  13.711  1.00  0.00     0.219 HD
ENDBRANCH   1  14
BRANCH   1  16
HETATM   16  N2  UNL     1      16.251   6.852  13.310  1.00  0.00    -0.357 N 
HETATM   17  C6  UNL     1      17.233   5.762  13.119  1.00  0.00     0.130 C 
HETATM   18  C7  UNL     1      17.797   5.447  14.500  1.00  0.00     0.059 C 
HETATM   19  C8  UNL     1      16.681   4.815  15.232  1.00  0.00    -0.046 A 
HETATM   20  C9  UNL     1      16.874   3.704  15.992  1.00  0.00     0.047 A 
HETATM   21  C13 UNL     1      15.443   5.386  15.098  1.00  0.00    -0.031 A 
HETATM   22  C10 UNL     1      15.812   3.092  16.674  1.00  0.00     0.099 A 
HETATM   23  C11 UNL     1      14.570   3.669  16.537  1.00  0.00     0.099 A 
HETATM   24  C12 UNL     1      14.389   4.811  15.752  1.00  0.00     0.048 A 
HETATM   25  C14 UNL     1      15.237   6.625  14.268  1.00  0.00     0.164 C 
BRANCH  22  26
HETATM   26  O4  UNL     1      16.019   1.951  17.454  1.00  0.00    -0.358 OA
ATOM     27  H4  UNL     1      15.757   1.091  17.144  1.00  0.00     0.217 HD
ENDBRANCH  22  26
BRANCH  23  28
HETATM   28  O5  UNL     1      13.494   3.089  17.200  1.00  0.00    -0.358 OA
ATOM     29  H5  UNL     1      12.962   3.636  17.765  1.00  0.00     0.217 HD
ENDBRANCH  23  28
ENDBRANCH   1  16
TORSDOF 7
ENDMDL
