MODEL 18
REMARK VINA RESULT: -7.152805561      4.152      8.642
REMARK  7 active torsions:
REMARK  status: ('A' for Active; 'I' for Inactive)
REMARK    1  A    between atoms: N1_1  and  S1_4 
REMARK    2  A    between atoms: S1_4  and  C1_7 
REMARK    3  A    between atoms: C4_10  and  C5_11 
REMARK    4  A    between atoms: C5_11  and  O3_12 
REMARK    5  A    between atoms: C5_11  and  N2_14 
REMARK    6  A    between atoms: C10_19  and  O4_20 
REMARK    7  A    between atoms: C11_22  and  O5_23 
ROOT
HETATM    1  C5  UNL     1      16.619   7.000  13.048  1.00  0.00     0.148 C 
ENDROOT
BRANCH   1   2
HETATM    2  C4  UNL     1      16.249   5.985  14.007  1.00  0.00     0.015 A 
HETATM    3  C3  UNL     1      16.985   4.864  14.313  1.00  0.00     0.017 A 
HETATM    4  C2  UNL     1      16.594   3.924  15.282  1.00  0.00     0.026 A 
HETATM    5  C1  UNL     1      15.425   4.106  15.970  1.00  0.00     0.079 A 
HETATM    6  C16 UNL     1      14.672   5.216  15.682  1.00  0.00     0.026 A 
HETATM    7  C15 UNL     1      15.056   6.134  14.736  1.00  0.00     0.017 A 
BRANCH   5   8
HETATM    8  S1  UNL     1      14.943   2.933  17.175  1.00  0.00     0.256 S 
HETATM    9  O1  UNL     1      16.061   1.943  17.324  1.00  0.00    -0.201 OA
HETATM   10  O2  UNL     1      13.715   2.181  16.754  1.00  0.00    -0.201 OA
BRANCH   8  11
HETATM   11  N1  UNL     1      14.690   3.783  18.657  1.00  0.00    -0.324 N 
ATOM     12  H12 UNL     1      15.372   4.416  19.075  1.00  0.00     0.169 HD
ATOM     13  H11 UNL     1      13.773   3.559  19.043  1.00  0.00     0.169 HD
ENDBRANCH   8  11
ENDBRANCH   5   8
ENDBRANCH   1   2
BRANCH   1  14
HETATM   14  O3  UNL     1      16.134   6.748  11.843  1.00  0.00    -0.346 OA
ATOM     15  H3  UNL     1      16.678   7.112  11.155  1.00  0.00     0.219 HD
ENDBRANCH   1  14
BRANCH   1  16
HETATM   16  N2  UNL     1      17.377   8.158  13.188  1.00  0.00    -0.357 N 
HETATM   17  C6  UNL     1      17.847   8.446  14.561  1.00  0.00     0.130 C 
HETATM   18  C7  UNL     1      19.361   8.599  14.472  1.00  0.00     0.059 C 
HETATM   19  C8  UNL     1      19.573   9.862  13.736  1.00  0.00    -0.046 A 
HETATM   20  C9  UNL     1      20.502  10.768  14.142  1.00  0.00     0.047 A 
HETATM   21  C13 UNL     1      18.784  10.085  12.639  1.00  0.00    -0.031 A 
HETATM   22  C10 UNL     1      20.693  11.976  13.454  1.00  0.00     0.099 A 
HETATM   23  C11 UNL     1      19.898  12.197  12.353  1.00  0.00     0.099 A 
HETATM   24  C12 UNL     1      18.948  11.254  11.948  1.00  0.00     0.048 A 
HETATM   25  C14 UNL     1      17.768   9.072  12.184  1.00  0.00     0.164 C 
BRANCH  22  26
HETATM   26  O4  UNL     1      21.650  12.902  13.877  1.00  0.00    -0.358 OA
ATOM     27  H4  UNL     1      21.719  13.757  13.468  1.00  0.00     0.217 HD
ENDBRANCH  22  26
BRANCH  23  28
HETATM   28  O5  UNL     1      20.061  13.384  11.647  1.00  0.00    -0.358 OA
ATOM     29  H5  UNL     1      20.721  14.000  11.942  1.00  0.00     0.217 HD
ENDBRANCH  23  28
ENDBRANCH   1  16
TORSDOF 7
ENDMDL
