MODEL 3
REMARK VINA RESULT: -7.633155990      0.776      1.324
REMARK  7 active torsions:
REMARK  status: ('A' for Active; 'I' for Inactive)
REMARK    1  A    between atoms: N1_1  and  S1_4 
REMARK    2  A    between atoms: S1_4  and  C1_7 
REMARK    3  A    between atoms: C4_10  and  C5_11 
REMARK    4  A    between atoms: C5_11  and  O3_12 
REMARK    5  A    between atoms: C5_11  and  N2_14 
REMARK    6  A    between atoms: C10_19  and  O4_20 
REMARK    7  A    between atoms: C11_22  and  O5_23 
ROOT
HETATM    1  C5  UNL     1      16.728   7.877  12.586  1.00  0.00     0.148 C 
ENDROOT
BRANCH   1   2
HETATM    2  C4  UNL     1      15.936   8.393  11.494  1.00  0.00     0.015 A 
HETATM    3  C3  UNL     1      16.317   8.430  10.172  1.00  0.00     0.017 A 
HETATM    4  C2  UNL     1      15.490   8.912   9.144  1.00  0.00     0.026 A 
HETATM    5  C1  UNL     1      14.238   9.378   9.442  1.00  0.00     0.079 A 
HETATM    6  C16 UNL     1      13.835   9.352  10.752  1.00  0.00     0.026 A 
HETATM    7  C15 UNL     1      14.642   8.879  11.757  1.00  0.00     0.017 A 
BRANCH   5   8
HETATM    8  S1  UNL     1      13.214   9.977   8.157  1.00  0.00     0.256 S 
HETATM    9  O1  UNL     1      11.847   9.388   8.346  1.00  0.00    -0.201 OA
HETATM   10  O2  UNL     1      13.715   9.553   6.808  1.00  0.00    -0.201 OA
BRANCH   8  11
HETATM   11  N1  UNL     1      13.153  11.697   8.298  1.00  0.00    -0.324 N 
ATOM     12  H12 UNL     1      13.325  12.204   9.167  1.00  0.00     0.169 HD
ATOM     13  H11 UNL     1      12.924  12.121   7.399  1.00  0.00     0.169 HD
ENDBRANCH   8  11
ENDBRANCH   5   8
ENDBRANCH   1   2
BRANCH   1  14
HETATM   14  O3  UNL     1      17.847   8.560  12.757  1.00  0.00    -0.346 OA
ATOM     15  H3  UNL     1      17.723   9.314  13.322  1.00  0.00     0.219 HD
ENDBRANCH   1  14
BRANCH   1  16
HETATM   16  N2  UNL     1      16.507   6.812  13.454  1.00  0.00    -0.357 N 
HETATM   17  C6  UNL     1      16.014   7.183  14.800  1.00  0.00     0.130 C 
HETATM   18  C7  UNL     1      14.728   6.394  15.017  1.00  0.00     0.059 C 
HETATM   19  C8  UNL     1      15.161   4.989  15.155  1.00  0.00    -0.046 A 
HETATM   20  C9  UNL     1      14.645   4.183  16.121  1.00  0.00     0.047 A 
HETATM   21  C13 UNL     1      16.114   4.541  14.279  1.00  0.00    -0.031 A 
HETATM   22  C10 UNL     1      15.068   2.853  16.264  1.00  0.00     0.099 A 
HETATM   23  C11 UNL     1      16.026   2.406  15.384  1.00  0.00     0.099 A 
HETATM   24  C12 UNL     1      16.545   3.248  14.396  1.00  0.00     0.048 A 
HETATM   25  C14 UNL     1      16.671   5.432  13.201  1.00  0.00     0.164 C 
BRANCH  22  26
HETATM   26  O4  UNL     1      14.532   2.031  17.260  1.00  0.00    -0.358 OA
ATOM     27  H4  UNL     1      14.354   1.112  17.093  1.00  0.00     0.217 HD
ENDBRANCH  22  26
BRANCH  23  28
HETATM   28  O5  UNL     1      16.468   1.093  15.497  1.00  0.00    -0.358 OA
ATOM     29  H5  UNL     1      17.396   0.937  15.627  1.00  0.00     0.217 HD
ENDBRANCH  23  28
ENDBRANCH   1  16
TORSDOF 7
ENDMDL
