MODEL 6
REMARK VINA RESULT: -10.480088070      5.400     10.875
REMARK  7 active torsions:
REMARK  status: ('A' for Active; 'I' for Inactive)
REMARK    1  A    between atoms: C2_3  and  C3_4 
REMARK    2  A    between atoms: C15_21  and  C16_22 
REMARK    3  A    between atoms: C16_22  and  O1_23 
REMARK    4  A    between atoms: C16_22  and  N5_25 
REMARK    5  A    between atoms: C19_29  and  C20_30 
REMARK    6  A    between atoms: C26_36  and  C27_37 
REMARK    7  A    between atoms: C27_37  and  O3_38 
ROOT
HETATM    1  C3  UNL     1     -12.928 -19.039  26.627  1.00  0.00     0.036 A 
HETATM    2  C4  UNL     1     -14.124 -18.829  25.982  1.00  0.00     0.104 A 
HETATM    3  N2  UNL     1     -14.487 -19.966  25.339  1.00  0.00    -0.364 N 
ATOM      4  H2  UNL     1     -15.338 -20.071  24.785  1.00  0.00     0.165 HD
HETATM    5  C5  UNL     1     -13.577 -20.935  25.528  1.00  0.00     0.044 A 
HETATM    6  C6  UNL     1     -13.500 -22.250  25.085  1.00  0.00     0.053 A 
HETATM    7  C7  UNL     1     -12.425 -23.036  25.440  1.00  0.00     0.046 A 
HETATM    8  C8  UNL     1     -12.318 -24.414  24.992  1.00  0.00     0.099 C 
HETATM    9  N3  UNL     1     -12.229 -25.509  24.624  1.00  0.00    -0.191 NA
HETATM   10  C9  UNL     1     -11.454 -22.468  26.238  1.00  0.00     0.024 A 
HETATM   11  C10 UNL     1     -11.533 -21.158  26.679  1.00  0.00     0.016 A 
HETATM   12  C11 UNL     1     -12.606 -20.370  26.324  1.00  0.00     0.006 A 
ENDROOT
BRANCH   1  13
HETATM   13  C2  UNL     1     -12.121 -18.147  27.446  1.00  0.00     0.120 A 
HETATM   14  N1  UNL     1     -11.747 -16.894  27.197  1.00  0.00    -0.335 N 
HETATM   15  C1  UNL     1     -12.068 -16.118  26.021  1.00  0.00     0.158 C 
HETATM   16  C29 UNL     1     -10.995 -16.436  28.242  1.00  0.00     0.063 A 
HETATM   17  C12 UNL     1     -10.902 -17.437  29.167  1.00  0.00     0.060 A 
HETATM   18  C28 UNL     1     -10.366 -15.195  28.472  1.00  0.00     0.048 A 
HETATM   19  N4  UNL     1     -11.596 -18.466  28.655  1.00  0.00    -0.340 N 
HETATM   20  C13 UNL     1     -10.187 -17.208  30.315  1.00  0.00     0.033 A 
ATOM     21  H4  UNL     1     -11.714 -19.369  29.116  1.00  0.00     0.167 HD
HETATM   22  C14 UNL     1      -9.586 -15.991  30.514  1.00  0.00     0.018 A 
HETATM   23  C15 UNL     1      -9.645 -14.919  29.601  1.00  0.00     0.017 A 
BRANCH  23  24
HETATM   24  C16 UNL     1      -8.929 -13.713  29.931  1.00  0.00     0.149 C 
BRANCH  24  25
HETATM   25  O1  UNL     1      -7.667 -13.773  29.618  1.00  0.00    -0.346 OA
ATOM     26  H1  UNL     1      -7.318 -12.938  29.328  1.00  0.00     0.219 HD
ENDBRANCH  24  25
BRANCH  24  27
HETATM   27  N5  UNL     1      -9.400 -12.528  30.524  1.00  0.00    -0.350 N 
HETATM   28  C17 UNL     1      -9.910 -12.522  31.870  1.00  0.00     0.151 C 
HETATM   29  C18 UNL     1      -9.937 -11.011  32.286  1.00  0.00     0.188 C 
HETATM   30  O2  UNL     1     -10.930 -10.430  31.469  1.00  0.00    -0.377 OA
HETATM   31  C19 UNL     1     -10.500 -10.388  30.159  1.00  0.00     0.179 C 
HETATM   32  C26 UNL     1      -9.381 -11.290  29.800  1.00  0.00     0.143 C 
BRANCH  31  33
HETATM   33  C20 UNL     1     -10.259  -8.949  29.853  1.00  0.00    -0.027 A 
HETATM   34  C21 UNL     1     -11.257  -8.329  29.096  1.00  0.00     0.010 A 
HETATM   35  C22 UNL     1     -11.182  -7.001  28.753  1.00  0.00     0.001 A 
HETATM   36  C23 UNL     1     -10.096  -6.255  29.166  1.00  0.00     0.000 A 
HETATM   37  C24 UNL     1      -9.111  -6.849  29.909  1.00  0.00     0.001 A 
HETATM   38  C25 UNL     1      -9.206  -8.203  30.248  1.00  0.00     0.010 A 
ENDBRANCH  31  33
BRANCH  32  39
HETATM   39  C27 UNL     1      -9.275 -11.433  28.291  1.00  0.00     0.192 C 
BRANCH  39  40
HETATM   40  O3  UNL     1      -8.020 -11.181  27.794  1.00  0.00    -0.399 OA
ATOM     41  H3  UNL     1      -7.910 -10.302  27.451  1.00  0.00     0.209 HD
ENDBRANCH  39  40
ENDBRANCH  32  39
ENDBRANCH  24  27
ENDBRANCH  23  24
ENDBRANCH   1  13
TORSDOF 7
ENDMDL
