MODEL 3
REMARK VINA RESULT: -10.990695548      1.900      2.829
REMARK  7 active torsions:
REMARK  status: ('A' for Active; 'I' for Inactive)
REMARK    1  A    between atoms: C2_3  and  C3_4 
REMARK    2  A    between atoms: C15_21  and  C16_22 
REMARK    3  A    between atoms: C16_22  and  O1_23 
REMARK    4  A    between atoms: C16_22  and  N5_25 
REMARK    5  A    between atoms: C19_29  and  C20_30 
REMARK    6  A    between atoms: C26_36  and  C27_37 
REMARK    7  A    between atoms: C27_37  and  O3_38 
ROOT
HETATM    1  C3  UNL     1     -14.470  -5.675  30.305  1.00  0.00     0.036 A 
HETATM    2  C4  UNL     1     -14.715  -4.478  30.937  1.00  0.00     0.104 A 
HETATM    3  N2  UNL     1     -15.885  -3.968  30.480  1.00  0.00    -0.364 N 
ATOM      4  H2  UNL     1     -16.292  -3.085  30.791  1.00  0.00     0.165 HD
HETATM    5  C5  UNL     1     -16.437  -4.778  29.562  1.00  0.00     0.044 A 
HETATM    6  C6  UNL     1     -17.608  -4.696  28.819  1.00  0.00     0.053 A 
HETATM    7  C7  UNL     1     -17.932  -5.696  27.929  1.00  0.00     0.046 A 
HETATM    8  C8  UNL     1     -19.150  -5.637  27.139  1.00  0.00     0.099 C 
HETATM    9  N3  UNL     1     -20.116  -5.581  26.501  1.00  0.00    -0.191 NA
HETATM   10  C9  UNL     1     -17.059  -6.758  27.815  1.00  0.00     0.024 A 
HETATM   11  C10 UNL     1     -15.893  -6.839  28.557  1.00  0.00     0.016 A 
HETATM   12  C11 UNL     1     -15.567  -5.839  29.447  1.00  0.00     0.006 A 
ENDROOT
BRANCH   1  13
HETATM   13  C2  UNL     1     -13.361  -6.608  30.437  1.00  0.00     0.120 A 
HETATM   14  N1  UNL     1     -12.420  -6.918  29.549  1.00  0.00    -0.335 N 
HETATM   15  C1  UNL     1     -12.286  -6.381  28.214  1.00  0.00     0.158 C 
HETATM   16  C29 UNL     1     -11.576  -7.843  30.097  1.00  0.00     0.063 A 
HETATM   17  C12 UNL     1     -12.009  -8.113  31.364  1.00  0.00     0.060 A 
HETATM   18  C28 UNL     1     -10.433  -8.491  29.582  1.00  0.00     0.048 A 
HETATM   19  N4  UNL     1     -13.097  -7.347  31.544  1.00  0.00    -0.340 N 
HETATM   20  C13 UNL     1     -11.311  -9.022  32.118  1.00  0.00     0.033 A 
ATOM     21  H4  UNL     1     -13.652  -7.324  32.400  1.00  0.00     0.167 HD
HETATM   22  C14 UNL     1     -10.202  -9.637  31.593  1.00  0.00     0.018 A 
HETATM   23  C15 UNL     1      -9.705  -9.403  30.296  1.00  0.00     0.017 A 
BRANCH  23  24
HETATM   24  C16 UNL     1      -8.552 -10.154  29.870  1.00  0.00     0.149 C 
BRANCH  24  25
HETATM   25  O1  UNL     1      -7.567  -9.395  29.488  1.00  0.00    -0.346 OA
ATOM     26  H1  UNL     1      -7.785  -8.470  29.508  1.00  0.00     0.219 HD
ENDBRANCH  24  25
BRANCH  24  27
HETATM   27  N5  UNL     1      -8.364 -11.547  29.815  1.00  0.00    -0.350 N 
HETATM   28  C17 UNL     1      -7.144 -12.152  30.279  1.00  0.00     0.151 C 
HETATM   29  C18 UNL     1      -7.480 -13.675  30.433  1.00  0.00     0.188 C 
HETATM   30  O2  UNL     1      -7.689 -14.133  29.115  1.00  0.00    -0.377 OA
HETATM   31  C19 UNL     1      -8.857 -13.603  28.609  1.00  0.00     0.179 C 
HETATM   32  C26 UNL     1      -9.391 -12.403  29.295  1.00  0.00     0.143 C 
BRANCH  31  33
HETATM   33  C20 UNL     1      -9.816 -14.741  28.514  1.00  0.00    -0.027 A 
HETATM   34  C21 UNL     1     -10.453 -14.877  27.277  1.00  0.00     0.010 A 
HETATM   35  C22 UNL     1     -11.348 -15.891  27.035  1.00  0.00     0.001 A 
HETATM   36  C23 UNL     1     -11.628 -16.801  28.035  1.00  0.00     0.000 A 
HETATM   37  C24 UNL     1     -11.011 -16.680  29.251  1.00  0.00     0.001 A 
HETATM   38  C25 UNL     1     -10.102 -15.641  29.479  1.00  0.00     0.010 A 
ENDBRANCH  31  33
BRANCH  32  39
HETATM   39  C27 UNL     1     -10.425 -11.708  28.424  1.00  0.00     0.192 C 
BRANCH  39  40
HETATM   40  O3  UNL     1      -9.994 -11.454  27.145  1.00  0.00    -0.399 OA
ATOM     41  H3  UNL     1      -9.970 -10.531  26.923  1.00  0.00     0.209 HD
ENDBRANCH  39  40
ENDBRANCH  32  39
ENDBRANCH  24  27
ENDBRANCH  23  24
ENDBRANCH   1  13
TORSDOF 7
ENDMDL
