MODEL 1
REMARK VINA RESULT: -11.086778202      0.000      0.000
REMARK  7 active torsions:
REMARK  status: ('A' for Active; 'I' for Inactive)
REMARK    1  A    between atoms: C2_3  and  C3_4 
REMARK    2  A    between atoms: C15_21  and  C16_22 
REMARK    3  A    between atoms: C16_22  and  O1_23 
REMARK    4  A    between atoms: C16_22  and  N5_25 
REMARK    5  A    between atoms: C19_29  and  C20_30 
REMARK    6  A    between atoms: C26_36  and  C27_37 
REMARK    7  A    between atoms: C27_37  and  O3_38 
ROOT
HETATM    1  C3  UNL     1     -13.724  -6.552  28.750  1.00  0.00     0.036 A 
HETATM    2  C4  UNL     1     -13.692  -5.513  29.650  1.00  0.00     0.104 A 
HETATM    3  N2  UNL     1     -14.890  -4.878  29.637  1.00  0.00    -0.364 N 
ATOM      4  H2  UNL     1     -15.124  -4.071  30.216  1.00  0.00     0.165 HD
HETATM    5  C5  UNL     1     -15.728  -5.453  28.759  1.00  0.00     0.044 A 
HETATM    6  C6  UNL     1     -17.039  -5.174  28.391  1.00  0.00     0.053 A 
HETATM    7  C7  UNL     1     -17.667  -5.948  27.440  1.00  0.00     0.046 A 
HETATM    8  C8  UNL     1     -19.037  -5.679  27.036  1.00  0.00     0.099 C 
HETATM    9  N3  UNL     1     -20.125  -5.456  26.707  1.00  0.00    -0.191 NA
HETATM   10  C9  UNL     1     -16.951  -6.987  26.885  1.00  0.00     0.024 A 
HETATM   11  C10 UNL     1     -15.645  -7.264  27.253  1.00  0.00     0.016 A 
HETATM   12  C11 UNL     1     -15.014  -6.491  28.204  1.00  0.00     0.006 A 
ENDROOT
BRANCH   1  13
HETATM   13  C2  UNL     1     -12.705  -7.527  28.389  1.00  0.00     0.120 A 
HETATM   14  N1  UNL     1     -11.970  -8.299  29.184  1.00  0.00    -0.335 N 
HETATM   15  C1  UNL     1     -12.019  -8.342  30.628  1.00  0.00     0.158 C 
HETATM   16  C29 UNL     1     -11.138  -9.066  28.418  1.00  0.00     0.063 A 
HETATM   17  C12 UNL     1     -11.367  -8.758  27.106  1.00  0.00     0.060 A 
HETATM   18  C28 UNL     1     -10.172 -10.035  28.762  1.00  0.00     0.048 A 
HETATM   19  N4  UNL     1     -12.326  -7.819  27.120  1.00  0.00    -0.340 N 
HETATM   20  C13 UNL     1     -10.642  -9.409  26.141  1.00  0.00     0.033 A 
ATOM     21  H4  UNL     1     -12.718  -7.382  26.285  1.00  0.00     0.167 HD
HETATM   22  C14 UNL     1      -9.708 -10.347  26.504  1.00  0.00     0.018 A 
HETATM   23  C15 UNL     1      -9.425 -10.709  27.836  1.00  0.00     0.017 A 
BRANCH  23  24
HETATM   24  C16 UNL     1      -8.389 -11.685  28.063  1.00  0.00     0.149 C 
BRANCH  24  25
HETATM   25  O1  UNL     1      -7.582 -11.809  27.050  1.00  0.00    -0.346 OA
ATOM     26  H1  UNL     1      -7.332 -10.974  26.672  1.00  0.00     0.219 HD
ENDBRANCH  24  25
BRANCH  24  27
HETATM   27  N5  UNL     1      -8.149 -12.487  29.194  1.00  0.00    -0.350 N 
HETATM   28  C17 UNL     1      -6.900 -12.415  29.905  1.00  0.00     0.151 C 
HETATM   29  C18 UNL     1      -7.177 -13.117  31.280  1.00  0.00     0.188 C 
HETATM   30  O2  UNL     1      -7.386 -14.474  30.955  1.00  0.00    -0.377 OA
HETATM   31  C19 UNL     1      -8.580 -14.620  30.281  1.00  0.00     0.179 C 
HETATM   32  C26 UNL     1      -9.150 -13.398  29.669  1.00  0.00     0.143 C 
BRANCH  31  33
HETATM   33  C20 UNL     1      -9.497 -15.328  31.221  1.00  0.00    -0.027 A 
HETATM   34  C21 UNL     1      -9.586 -16.710  31.032  1.00  0.00     0.010 A 
HETATM   35  C22 UNL     1     -10.376 -17.497  31.835  1.00  0.00     0.001 A 
HETATM   36  C23 UNL     1     -11.100 -16.914  32.855  1.00  0.00     0.000 A 
HETATM   37  C24 UNL     1     -11.022 -15.561  33.051  1.00  0.00     0.001 A 
HETATM   38  C25 UNL     1     -10.212 -14.776  32.223  1.00  0.00     0.010 A 
ENDBRANCH  31  33
BRANCH  32  39
HETATM   39  C27 UNL     1     -10.220 -13.760  28.652  1.00  0.00     0.192 C 
BRANCH  39  40
HETATM   40  O3  UNL     1     -11.496 -13.442  29.050  1.00  0.00    -0.399 OA
ATOM     41  H3  UNL     1     -11.690 -13.680  29.949  1.00  0.00     0.209 HD
ENDBRANCH  39  40
ENDBRANCH  32  39
ENDBRANCH  24  27
ENDBRANCH  23  24
ENDBRANCH   1  13
TORSDOF 7
ENDMDL
