MODEL 7
REMARK VINA RESULT: -8.876694365      6.281      8.042
REMARK  3 active torsions:
REMARK  status: ('A' for Active; 'I' for Inactive)
REMARK    1  A    between atoms: C1_2  and  C2_3 
REMARK    2  A    between atoms: C1_2  and  C6_9 
REMARK    3  A    between atoms: C9_15  and  C10_16 
ROOT
HETATM    1  C6  UNL     1     -18.121  -8.888   0.426  1.00  0.00     0.097 C 
HETATM    2  C7  UNL     1     -18.761  -9.102  -0.920  1.00  0.00     0.245 C 
HETATM    3  N1  UNL     1     -20.100  -9.589  -0.731  1.00  0.00    -0.074 N 
ATOM      4  H11 UNL     1     -20.223 -10.565  -1.001  1.00  0.00     0.277 HD
ATOM      5  H12 UNL     1     -20.775  -9.196  -1.387  1.00  0.00     0.277 HD
HETATM    6  C8  UNL     1     -20.420  -9.324   0.668  1.00  0.00     0.242 C 
HETATM    7  C9  UNL     1     -19.120  -9.503   1.383  1.00  0.00     0.057 C 
ENDROOT
BRANCH   7   8
HETATM    8  C10 UNL     1     -19.078  -8.905   2.714  1.00  0.00    -0.049 A 
HETATM    9  C11 UNL     1     -18.493  -7.672   2.891  1.00  0.00     0.009 A 
HETATM   10  C12 UNL     1     -18.453  -7.100   4.164  1.00  0.00     0.020 A 
HETATM   11  C13 UNL     1     -18.986  -7.741   5.249  1.00  0.00     0.059 A 
HETATM   12  C14 UNL     1     -18.957  -7.194   6.528  1.00  0.00     0.258 A 
HETATM   13  C16 UNL     1     -19.572  -8.981   5.066  1.00  0.00     0.049 A 
HETATM   14  O2  UNL     1     -18.424  -6.062   6.701  1.00  0.00    -0.267 OA
HETATM   15  N2  UNL     1     -19.495  -7.874   7.540  1.00  0.00    -0.319 N 
HETATM   16  C15 UNL     1     -20.069  -9.084   7.363  1.00  0.00     0.183 A 
ATOM     17  H2  UNL     1     -19.473  -7.469   8.476  1.00  0.00     0.169 HD
HETATM   18  N3  UNL     1     -20.091  -9.611   6.117  1.00  0.00    -0.351 N 
ATOM     19  H3  UNL     1     -20.523 -10.524   5.978  1.00  0.00     0.166 HD
HETATM   20  C17 UNL     1     -19.612  -9.550   3.801  1.00  0.00     0.038 A 
ENDBRANCH   7   8
BRANCH   1  21
HETATM   21  C1  UNL     1     -16.810  -9.534   0.531  1.00  0.00     0.172 C 
HETATM   22  O1  UNL     1     -15.797  -8.986   0.035  1.00  0.00    -0.291 OA
BRANCH  21  23
HETATM   23  C2  UNL     1     -16.640 -10.814   1.208  1.00  0.00     0.052 A 
HETATM   24  C3  UNL     1     -16.916 -12.079   0.783  1.00  0.00     0.024 A 
HETATM   25  C4  UNL     1     -16.659 -13.097   1.635  1.00  0.00     0.028 A 
HETATM   26  C5  UNL     1     -16.141 -12.772   2.855  1.00  0.00     0.052 A 
HETATM   27 BR1  UNL     1     -15.662 -13.960   4.294  1.00  0.00    -0.043 Br
HETATM   28  S1  UNL     1     -16.026 -11.076   2.789  1.00  0.00    -0.079 SA
ENDBRANCH  21  23
ENDBRANCH   1  21
TORSDOF 3
ENDMDL
