MODEL 6
REMARK VINA RESULT: -8.897119103      3.601      5.255
REMARK  3 active torsions:
REMARK  status: ('A' for Active; 'I' for Inactive)
REMARK    1  A    between atoms: C1_2  and  C2_3 
REMARK    2  A    between atoms: C1_2  and  C6_9 
REMARK    3  A    between atoms: C9_15  and  C10_16 
ROOT
HETATM    1  C6  UNL     1     -17.183 -12.482   3.039  1.00  0.00     0.097 C 
HETATM    2  C7  UNL     1     -17.383 -13.939   2.716  1.00  0.00     0.245 C 
HETATM    3  N1  UNL     1     -16.297 -14.698   3.274  1.00  0.00    -0.074 N 
ATOM      4  H11 UNL     1     -15.660 -15.077   2.573  1.00  0.00     0.277 HD
ATOM      5  H12 UNL     1     -16.584 -15.592   3.672  1.00  0.00     0.277 HD
HETATM    6  C8  UNL     1     -15.650 -13.809   4.234  1.00  0.00     0.242 C 
HETATM    7  C9  UNL     1     -15.787 -12.450   3.628  1.00  0.00     0.057 C 
ENDROOT
BRANCH   7   8
HETATM    8  C10 UNL     1     -15.590 -11.350   4.567  1.00  0.00    -0.049 A 
HETATM    9  C11 UNL     1     -16.657 -10.559   4.928  1.00  0.00     0.009 A 
HETATM   10  C12 UNL     1     -16.467  -9.507   5.826  1.00  0.00     0.020 A 
HETATM   11  C13 UNL     1     -15.236  -9.241   6.359  1.00  0.00     0.059 A 
HETATM   12  C14 UNL     1     -15.021  -8.197   7.255  1.00  0.00     0.258 A 
HETATM   13  C16 UNL     1     -14.166 -10.037   5.993  1.00  0.00     0.049 A 
HETATM   14  O2  UNL     1     -15.994  -7.466   7.594  1.00  0.00    -0.267 OA
HETATM   15  N2  UNL     1     -13.795  -7.994   7.737  1.00  0.00    -0.319 N 
HETATM   16  C15 UNL     1     -12.749  -8.772   7.380  1.00  0.00     0.183 A 
ATOM     17  H2  UNL     1     -13.641  -7.229   8.393  1.00  0.00     0.169 HD
HETATM   18  N3  UNL     1     -12.966  -9.784   6.508  1.00  0.00    -0.351 N 
ATOM     19  H3  UNL     1     -12.180 -10.374   6.236  1.00  0.00     0.166 HD
HETATM   20  C17 UNL     1     -14.355 -11.084   5.101  1.00  0.00     0.038 A 
ENDBRANCH   7   8
BRANCH   1  21
HETATM   21  C1  UNL     1     -17.284 -11.627   1.854  1.00  0.00     0.172 C 
HETATM   22  O1  UNL     1     -16.280 -11.442   1.125  1.00  0.00    -0.291 OA
BRANCH  21  23
HETATM   23  C2  UNL     1     -18.534 -10.974   1.486  1.00  0.00     0.052 A 
HETATM   24  C3  UNL     1     -18.843 -10.212   0.399  1.00  0.00     0.024 A 
HETATM   25  C4  UNL     1     -20.100  -9.721   0.314  1.00  0.00     0.028 A 
HETATM   26  C5  UNL     1     -20.959 -10.031   1.328  1.00  0.00     0.052 A 
HETATM   27 BR1  UNL     1     -22.802  -9.504   1.523  1.00  0.00    -0.043 Br
HETATM   28  S1  UNL     1     -20.009 -10.987   2.365  1.00  0.00    -0.079 SA
ENDBRANCH  21  23
ENDBRANCH   1  21
TORSDOF 3
ENDMDL
