MODEL 2
REMARK VINA RESULT: -9.586392163      1.374      1.883
REMARK  3 active torsions:
REMARK  status: ('A' for Active; 'I' for Inactive)
REMARK    1  A    between atoms: C1_2  and  C2_3 
REMARK    2  A    between atoms: C1_2  and  C6_9 
REMARK    3  A    between atoms: C9_15  and  C10_16 
ROOT
HETATM    1  C6  UNL     1     -14.611 -10.221   6.047  1.00  0.00     0.097 C 
HETATM    2  C7  UNL     1     -15.771  -9.268   5.921  1.00  0.00     0.245 C 
HETATM    3  N1  UNL     1     -15.739  -8.342   7.019  1.00  0.00    -0.074 N 
ATOM      4  H11 UNL     1     -16.490  -8.482   7.696  1.00  0.00     0.277 HD
ATOM      5  H12 UNL     1     -15.989  -7.388   6.758  1.00  0.00     0.277 HD
HETATM    6  C8  UNL     1     -14.402  -8.460   7.594  1.00  0.00     0.242 C 
HETATM    7  C9  UNL     1     -14.054  -9.903   7.419  1.00  0.00     0.057 C 
ENDROOT
BRANCH   7   8
HETATM    8  C10 UNL     1     -12.628 -10.195   7.537  1.00  0.00    -0.049 A 
HETATM    9  C11 UNL     1     -12.097 -10.528   8.763  1.00  0.00     0.009 A 
HETATM   10  C12 UNL     1     -10.735 -10.807   8.875  1.00  0.00     0.020 A 
HETATM   11  C13 UNL     1      -9.906 -10.756   7.788  1.00  0.00     0.059 A 
HETATM   12  C14 UNL     1      -8.543 -11.028   7.873  1.00  0.00     0.258 A 
HETATM   13  C16 UNL     1     -10.443 -10.419   6.558  1.00  0.00     0.049 A 
HETATM   14  O2  UNL     1      -8.048 -11.336   8.993  1.00  0.00    -0.267 OA
HETATM   15  N2  UNL     1      -7.794 -10.959   6.773  1.00  0.00    -0.319 N 
HETATM   16  C15 UNL     1      -8.318 -10.631   5.572  1.00  0.00     0.183 A 
ATOM     17  H2  UNL     1      -6.797 -11.160   6.840  1.00  0.00     0.169 HD
HETATM   18  N3  UNL     1      -9.643 -10.366   5.497  1.00  0.00    -0.351 N 
ATOM     19  H3  UNL     1     -10.043 -10.118   4.592  1.00  0.00     0.166 HD
HETATM   20  C17 UNL     1     -11.799 -10.142   6.446  1.00  0.00     0.038 A 
ENDBRANCH   7   8
BRANCH   1  21
HETATM   21  C1  UNL     1     -15.025 -11.622   5.949  1.00  0.00     0.172 C 
HETATM   22  O1  UNL     1     -15.005 -12.356   6.966  1.00  0.00    -0.291 OA
BRANCH  21  23
HETATM   23  C2  UNL     1     -15.469 -12.203   4.688  1.00  0.00     0.052 A 
HETATM   24  C3  UNL     1     -15.740 -13.498   4.361  1.00  0.00     0.024 A 
HETATM   25  C4  UNL     1     -16.138 -13.756   3.095  1.00  0.00     0.028 A 
HETATM   26  C5  UNL     1     -16.235 -12.693   2.245  1.00  0.00     0.052 A 
HETATM   27 BR1  UNL     1     -16.765 -12.701   0.392  1.00  0.00    -0.043 Br
HETATM   28  S1  UNL     1     -15.776 -11.375   3.216  1.00  0.00    -0.079 SA
ENDBRANCH  21  23
ENDBRANCH   1  21
TORSDOF 3
ENDMDL
