MODEL 5
REMARK VINA RESULT: -8.952079664      4.655      7.581
REMARK  3 active torsions:
REMARK  status: ('A' for Active; 'I' for Inactive)
REMARK    1  A    between atoms: C1_2  and  C2_3 
REMARK    2  A    between atoms: C1_2  and  C6_9 
REMARK    3  A    between atoms: C9_15  and  C10_16 
ROOT
HETATM    1  C6  UNL     1     -17.373  -8.622   6.930  1.00  0.00     0.097 C 
HETATM    2  C7  UNL     1     -17.608  -8.148   8.340  1.00  0.00     0.245 C 
HETATM    3  N1  UNL     1     -18.086  -6.793   8.307  1.00  0.00    -0.074 N 
ATOM      4  H11 UNL     1     -17.411  -6.112   8.653  1.00  0.00     0.277 HD
ATOM      5  H12 UNL     1     -18.816  -6.600   8.993  1.00  0.00     0.277 HD
HETATM    6  C8  UNL     1     -18.503  -6.558   6.928  1.00  0.00     0.242 C 
HETATM    7  C9  UNL     1     -17.541  -7.358   6.111  1.00  0.00     0.057 C 
ENDROOT
BRANCH   7   8
HETATM    8  C10 UNL     1     -17.983  -7.618   4.745  1.00  0.00    -0.049 A 
HETATM    9  C11 UNL     1     -19.255  -8.093   4.516  1.00  0.00     0.009 A 
HETATM   10  C12 UNL     1     -19.678  -8.342   3.210  1.00  0.00     0.020 A 
HETATM   11  C13 UNL     1     -18.851  -8.125   2.141  1.00  0.00     0.059 A 
HETATM   12  C14 UNL     1     -19.248  -8.366   0.829  1.00  0.00     0.258 A 
HETATM   13  C16 UNL     1     -17.573  -7.649   2.375  1.00  0.00     0.049 A 
HETATM   14  O2  UNL     1     -20.413  -8.800   0.609  1.00  0.00    -0.267 OA
HETATM   15  N2  UNL     1     -18.391  -8.133  -0.165  1.00  0.00    -0.319 N 
HETATM   16  C15 UNL     1     -17.143  -7.668   0.063  1.00  0.00     0.183 A 
ATOM     17  H2  UNL     1     -18.685  -8.311  -1.125  1.00  0.00     0.169 HD
HETATM   18  N3  UNL     1     -16.764  -7.436   1.341  1.00  0.00    -0.351 N 
ATOM     19  H3  UNL     1     -15.823  -7.085   1.518  1.00  0.00     0.166 HD
HETATM   20  C17 UNL     1     -17.153  -7.401   3.675  1.00  0.00     0.038 A 
ENDBRANCH   7   8
BRANCH   1  21
HETATM   21  C1  UNL     1     -16.040  -9.203   6.749  1.00  0.00     0.172 C 
HETATM   22  O1  UNL     1     -15.021  -8.560   7.098  1.00  0.00    -0.291 OA
BRANCH  21  23
HETATM   23  C2  UNL     1     -15.855 -10.528   6.170  1.00  0.00     0.052 A 
HETATM   24  C3  UNL     1     -15.124 -11.589   6.612  1.00  0.00     0.024 A 
HETATM   25  C4  UNL     1     -15.129 -12.712   5.860  1.00  0.00     0.028 A 
HETATM   26  C5  UNL     1     -15.870 -12.690   4.714  1.00  0.00     0.052 A 
HETATM   27 BR1  UNL     1     -16.097 -14.101   3.421  1.00  0.00    -0.043 Br
HETATM   28  S1  UNL     1     -16.535 -11.124   4.710  1.00  0.00    -0.079 SA
ENDBRANCH  21  23
ENDBRANCH   1  21
TORSDOF 3
ENDMDL
