MODEL 6
REMARK VINA RESULT: -9.931568904      3.671      7.539
REMARK  3 active torsions:
REMARK  status: ('A' for Active; 'I' for Inactive)
REMARK    1  A    between atoms: C1_2  and  C2_3 
REMARK    2  A    between atoms: C1_2  and  C8_10 
REMARK    3  A    between atoms: C11_16  and  C12_17 
ROOT
HETATM    1  C8  UNL     1     -25.561  -7.187  22.305  1.00  0.00     0.096 C 
HETATM    2  C9  UNL     1     -25.716  -6.539  23.651  1.00  0.00     0.245 C 
HETATM    3  N1  UNL     1     -25.022  -5.295  23.639  1.00  0.00    -0.074 N 
ATOM      4  H11 UNL     1     -24.502  -5.127  24.500  1.00  0.00     0.277 HD
ATOM      5  H12 UNL     1     -25.652  -4.495  23.697  1.00  0.00     0.277 HD
HETATM    6  C10 UNL     1     -24.193  -5.253  22.485  1.00  0.00     0.242 C 
HETATM    7  C11 UNL     1     -24.799  -6.198  21.498  1.00  0.00     0.057 C 
ENDROOT
BRANCH   7   8
HETATM    8  C12 UNL     1     -25.635  -5.429  20.526  1.00  0.00    -0.049 A 
HETATM    9  C13 UNL     1     -25.013  -4.561  19.666  1.00  0.00     0.009 A 
HETATM   10  C14 UNL     1     -25.799  -3.848  18.753  1.00  0.00     0.020 A 
HETATM   11  C15 UNL     1     -27.160  -4.050  18.755  1.00  0.00     0.059 A 
HETATM   12  C16 UNL     1     -27.985  -3.362  17.862  1.00  0.00     0.258 A 
HETATM   13  C18 UNL     1     -27.802  -4.920  19.613  1.00  0.00     0.049 A 
HETATM   14  O2  UNL     1     -27.411  -2.561  17.070  1.00  0.00    -0.267 OA
HETATM   15  N2  UNL     1     -29.299  -3.573  17.883  1.00  0.00    -0.319 N 
HETATM   16  C17 UNL     1     -29.897  -4.428  18.731  1.00  0.00     0.183 A 
ATOM     17  H2  UNL     1     -29.881  -3.059  17.222  1.00  0.00     0.169 HD
HETATM   18  N3  UNL     1     -29.147  -5.112  19.607  1.00  0.00    -0.351 N 
ATOM     19  H3  UNL     1     -29.580  -5.765  20.259  1.00  0.00     0.166 HD
HETATM   20  C19 UNL     1     -27.009  -5.609  20.503  1.00  0.00     0.038 A 
ENDBRANCH   7   8
BRANCH   1  21
HETATM   21  C1  UNL     1     -24.749  -8.448  22.405  1.00  0.00     0.166 C 
HETATM   22  O1  UNL     1     -23.496  -8.364  22.418  1.00  0.00    -0.292 OA
BRANCH  21  23
HETATM   23  C2  UNL     1     -25.375  -9.766  22.488  1.00  0.00     0.012 A 
HETATM   24  C3  UNL     1     -25.971 -10.167  23.668  1.00  0.00     0.015 A 
HETATM   25  C4  UNL     1     -26.573 -11.402  23.815  1.00  0.00     0.003 A 
HETATM   26  C5  UNL     1     -26.580 -12.274  22.746  1.00  0.00     0.024 A 
HETATM   27  C6  UNL     1     -25.986 -11.883  21.562  1.00  0.00     0.035 A 
HETATM   28 CL1  UNL     1     -26.021 -13.028  20.228  1.00  0.00    -0.084 Cl
HETATM   29  C7  UNL     1     -25.383 -10.640  21.421  1.00  0.00     0.039 A 
ENDBRANCH  21  23
ENDBRANCH   1  21
TORSDOF 3
ENDMDL
