MODEL 3
REMARK VINA RESULT: -10.300363441      1.123      1.687
REMARK  3 active torsions:
REMARK  status: ('A' for Active; 'I' for Inactive)
REMARK    1  A    between atoms: C1_2  and  C2_3 
REMARK    2  A    between atoms: C1_2  and  C8_10 
REMARK    3  A    between atoms: C11_16  and  C12_17 
ROOT
HETATM    1  C8  UNL     1     -26.005  -7.232  21.438  1.00  0.00     0.096 C 
HETATM    2  C9  UNL     1     -24.648  -6.693  21.785  1.00  0.00     0.245 C 
HETATM    3  N1  UNL     1     -24.379  -6.987  23.153  1.00  0.00    -0.074 N 
ATOM      4  H11 UNL     1     -23.939  -6.208  23.643  1.00  0.00     0.277 HD
ATOM      5  H12 UNL     1     -23.626  -7.666  23.267  1.00  0.00     0.277 HD
HETATM    6  C10 UNL     1     -25.589  -7.406  23.770  1.00  0.00     0.242 C 
HETATM    7  C11 UNL     1     -26.463  -7.922  22.672  1.00  0.00     0.057 C 
ENDROOT
BRANCH   7   8
HETATM    8  C12 UNL     1     -26.357  -9.412  22.615  1.00  0.00    -0.049 A 
HETATM    9  C13 UNL     1     -26.435 -10.122  23.785  1.00  0.00     0.009 A 
HETATM   10  C14 UNL     1     -26.342 -11.518  23.725  1.00  0.00     0.020 A 
HETATM   11  C15 UNL     1     -26.180 -12.118  22.497  1.00  0.00     0.059 A 
HETATM   12  C16 UNL     1     -26.084 -13.507  22.388  1.00  0.00     0.258 A 
HETATM   13  C18 UNL     1     -26.100 -11.418  21.310  1.00  0.00     0.049 A 
HETATM   14  O2  UNL     1     -26.155 -14.161  23.467  1.00  0.00    -0.267 OA
HETATM   15  N2  UNL     1     -25.926 -14.063  21.190  1.00  0.00    -0.319 N 
HETATM   16  C17 UNL     1     -25.852 -13.356  20.049  1.00  0.00     0.183 A 
ATOM     17  H2  UNL     1     -25.857 -15.079  21.134  1.00  0.00     0.169 HD
HETATM   18  N3  UNL     1     -25.940 -12.019  20.102  1.00  0.00    -0.351 N 
ATOM     19  H3  UNL     1     -25.886 -11.462  19.250  1.00  0.00     0.166 HD
HETATM   20  C19 UNL     1     -26.193 -10.046  21.393  1.00  0.00     0.038 A 
ENDBRANCH   7   8
BRANCH   1  21
HETATM   21  C1  UNL     1     -26.965  -6.117  21.129  1.00  0.00     0.166 C 
HETATM   22  O1  UNL     1     -27.901  -5.882  21.935  1.00  0.00    -0.292 OA
BRANCH  21  23
HETATM   23  C2  UNL     1     -26.840  -5.299  19.925  1.00  0.00     0.012 A 
HETATM   24  C3  UNL     1     -27.975  -4.907  19.243  1.00  0.00     0.015 A 
HETATM   25  C4  UNL     1     -27.926  -4.141  18.095  1.00  0.00     0.003 A 
HETATM   26  C5  UNL     1     -26.698  -3.750  17.604  1.00  0.00     0.024 A 
HETATM   27  C6  UNL     1     -25.556  -4.136  18.278  1.00  0.00     0.035 A 
HETATM   28 CL1  UNL     1     -24.013  -3.613  17.615  1.00  0.00    -0.084 Cl
HETATM   29  C7  UNL     1     -25.613  -4.907  19.432  1.00  0.00     0.039 A 
ENDBRANCH  21  23
ENDBRANCH   1  21
TORSDOF 3
ENDMDL
