MODEL 4
REMARK VINA RESULT: -10.026189758      3.720      7.723
REMARK  3 active torsions:
REMARK  status: ('A' for Active; 'I' for Inactive)
REMARK    1  A    between atoms: C1_2  and  C2_3 
REMARK    2  A    between atoms: C1_2  and  C8_10 
REMARK    3  A    between atoms: C11_16  and  C12_17 
ROOT
HETATM    1  C8  UNL     1     -25.696  -7.082  22.326  1.00  0.00     0.096 C 
HETATM    2  C9  UNL     1     -25.522  -6.266  23.574  1.00  0.00     0.245 C 
HETATM    3  N1  UNL     1     -24.892  -5.036  23.228  1.00  0.00    -0.074 N 
ATOM      4  H11 UNL     1     -24.175  -4.761  23.900  1.00  0.00     0.277 HD
ATOM      5  H12 UNL     1     -25.510  -4.233  23.346  1.00  0.00     0.277 HD
HETATM    6  C10 UNL     1     -24.386  -5.145  21.905  1.00  0.00     0.242 C 
HETATM    7  C11 UNL     1     -25.196  -6.207  21.233  1.00  0.00     0.057 C 
ENDROOT
BRANCH   7   8
HETATM    8  C12 UNL     1     -26.275  -5.568  20.420  1.00  0.00    -0.049 A 
HETATM    9  C13 UNL     1     -27.570  -5.658  20.860  1.00  0.00     0.009 A 
HETATM   10  C14 UNL     1     -28.577  -5.051  20.100  1.00  0.00     0.020 A 
HETATM   11  C15 UNL     1     -28.225  -4.390  18.945  1.00  0.00     0.059 A 
HETATM   12  C16 UNL     1     -29.194  -3.769  18.154  1.00  0.00     0.258 A 
HETATM   13  C18 UNL     1     -26.926  -4.290  18.488  1.00  0.00     0.049 A 
HETATM   14  O2  UNL     1     -30.389  -3.852  18.560  1.00  0.00    -0.267 OA
HETATM   15  N2  UNL     1     -28.830  -3.136  17.041  1.00  0.00    -0.319 N 
HETATM   16  C17 UNL     1     -27.555  -3.054  16.621  1.00  0.00     0.183 A 
ATOM     17  H2  UNL     1     -29.554  -2.691  16.479  1.00  0.00     0.169 HD
HETATM   18  N3  UNL     1     -26.589  -3.635  17.346  1.00  0.00    -0.351 N 
ATOM     19  H3  UNL     1     -25.616  -3.585  17.046  1.00  0.00     0.166 HD
HETATM   20  C19 UNL     1     -25.953  -4.894  19.251  1.00  0.00     0.038 A 
ENDBRANCH   7   8
BRANCH   1  21
HETATM   21  C1  UNL     1     -24.848  -8.323  22.371  1.00  0.00     0.166 C 
HETATM   22  O1  UNL     1     -23.598  -8.205  22.321  1.00  0.00    -0.292 OA
BRANCH  21  23
HETATM   23  C2  UNL     1     -25.434  -9.657  22.472  1.00  0.00     0.012 A 
HETATM   24  C3  UNL     1     -26.016 -10.061  23.658  1.00  0.00     0.015 A 
HETATM   25  C4  UNL     1     -26.580 -11.311  23.822  1.00  0.00     0.003 A 
HETATM   26  C5  UNL     1     -26.564 -12.196  22.764  1.00  0.00     0.024 A 
HETATM   27  C6  UNL     1     -25.985 -11.803  21.574  1.00  0.00     0.035 A 
HETATM   28 CL1  UNL     1     -25.988 -12.965  20.253  1.00  0.00    -0.084 Cl
HETATM   29  C7  UNL     1     -25.419 -10.544  21.416  1.00  0.00     0.039 A 
ENDBRANCH  21  23
ENDBRANCH   1  21
TORSDOF 3
ENDMDL
