MODEL 7
REMARK VINA RESULT: -9.922395447      3.934      7.738
REMARK  3 active torsions:
REMARK  status: ('A' for Active; 'I' for Inactive)
REMARK    1  A    between atoms: C1_2  and  C2_3 
REMARK    2  A    between atoms: C1_2  and  C8_10 
REMARK    3  A    between atoms: C11_16  and  C12_17 
ROOT
HETATM    1  C8  UNL     1     -25.710  -6.977  22.276  1.00  0.00     0.096 C 
HETATM    2  C9  UNL     1     -25.515  -6.139  23.507  1.00  0.00     0.245 C 
HETATM    3  N1  UNL     1     -24.878  -4.921  23.130  1.00  0.00    -0.074 N 
ATOM      4  H11 UNL     1     -24.152  -4.639  23.788  1.00  0.00     0.277 HD
ATOM      5  H12 UNL     1     -25.488  -4.111  23.239  1.00  0.00     0.277 HD
HETATM    6  C10 UNL     1     -24.388  -5.061  21.804  1.00  0.00     0.242 C 
HETATM    7  C11 UNL     1     -25.214  -6.129  21.161  1.00  0.00     0.057 C 
ENDROOT
BRANCH   7   8
HETATM    8  C12 UNL     1     -26.296  -5.495  20.347  1.00  0.00    -0.049 A 
HETATM    9  C13 UNL     1     -27.589  -5.581  20.794  1.00  0.00     0.009 A 
HETATM   10  C14 UNL     1     -28.599  -4.980  20.032  1.00  0.00     0.020 A 
HETATM   11  C15 UNL     1     -28.251  -4.329  18.870  1.00  0.00     0.059 A 
HETATM   12  C16 UNL     1     -29.224  -3.714  18.078  1.00  0.00     0.258 A 
HETATM   13  C18 UNL     1     -26.955  -4.234  18.407  1.00  0.00     0.049 A 
HETATM   14  O2  UNL     1     -30.416  -3.793  18.490  1.00  0.00    -0.267 OA
HETATM   15  N2  UNL     1     -28.864  -3.092  16.959  1.00  0.00    -0.319 N 
HETATM   16  C17 UNL     1     -27.591  -3.014  16.532  1.00  0.00     0.183 A 
ATOM     17  H2  UNL     1     -29.590  -2.650  16.396  1.00  0.00     0.169 HD
HETATM   18  N3  UNL     1     -26.622  -3.589  17.258  1.00  0.00    -0.351 N 
ATOM     19  H3  UNL     1     -25.650  -3.543  16.953  1.00  0.00     0.166 HD
HETATM   20  C19 UNL     1     -25.979  -4.832  19.172  1.00  0.00     0.038 A 
ENDBRANCH   7   8
BRANCH   1  21
HETATM   21  C1  UNL     1     -24.873  -8.224  22.336  1.00  0.00     0.166 C 
HETATM   22  O1  UNL     1     -23.663  -8.128  22.665  1.00  0.00    -0.292 OA
BRANCH  21  23
HETATM   23  C2  UNL     1     -25.424  -9.542  22.027  1.00  0.00     0.012 A 
HETATM   24  C3  UNL     1     -25.717  -9.872  20.719  1.00  0.00     0.015 A 
HETATM   25  C4  UNL     1     -26.247 -11.096  20.361  1.00  0.00     0.003 A 
HETATM   26  C5  UNL     1     -26.495 -12.030  21.344  1.00  0.00     0.024 A 
HETATM   27  C6  UNL     1     -26.205 -11.712  22.657  1.00  0.00     0.035 A 
HETATM   28 CL1  UNL     1     -26.538 -12.935  23.875  1.00  0.00    -0.084 Cl
HETATM   29  C7  UNL     1     -25.673 -10.478  23.010  1.00  0.00     0.039 A 
ENDBRANCH  21  23
ENDBRANCH   1  21
TORSDOF 3
ENDMDL
