MODEL 1
REMARK VINA RESULT: -8.470357565      0.000      0.000
REMARK  4 active torsions:
REMARK  status: ('A' for Active; 'I' for Inactive)
REMARK    1  A    between atoms: O1_2  and  C2_3 
REMARK    2  A    between atoms: C7_8  and  C8_9 
REMARK    3  A    between atoms: C16_24  and  C17_25 
REMARK    4  A    between atoms: C18_26  and  C19_27 
ROOT
HETATM    1  C2  UNL     1      21.138  -3.169   7.789  1.00  0.00     0.080 A 
HETATM    2  C3  UNL     1      20.086  -3.958   8.172  1.00  0.00     0.052 A 
HETATM    3  C4  UNL     1      19.050  -4.147   7.282  1.00  0.00     0.008 A 
HETATM    4  C5  UNL     1      19.066  -3.551   6.020  1.00  0.00     0.044 A 
HETATM    5  C6  UNL     1      20.138  -2.762   5.662  1.00  0.00     0.045 A 
HETATM    6  C7  UNL     1      21.186  -2.557   6.531  1.00  0.00     0.014 A 
HETATM    7  N2  UNL     1      17.943  -3.914   5.397  1.00  0.00    -0.355 N 
ATOM      8  H2  UNL     1      17.692  -3.622   4.453  1.00  0.00     0.166 HD
HETATM    9  C13 UNL     1      17.190  -4.708   6.166  1.00  0.00     0.047 A 
HETATM   10  C14 UNL     1      15.975  -5.335   5.996  1.00  0.00     0.047 A 
HETATM   11  C15 UNL     1      15.457  -6.104   7.005  1.00  0.00     0.090 A 
HETATM   12  N3  UNL     1      16.149  -6.231   8.144  1.00  0.00    -0.364 N 
ATOM     13  H3  UNL     1      15.749  -6.806   8.885  1.00  0.00     0.165 HD
HETATM   14  C16 UNL     1      17.349  -5.642   8.373  1.00  0.00     0.059 A 
HETATM   15  C24 UNL     1      17.870  -4.867   7.358  1.00  0.00     0.031 A 
ENDROOT
BRANCH  14  16
HETATM   16  C17 UNL     1      18.008  -5.858   9.657  1.00  0.00     0.040 A 
HETATM   17  C18 UNL     1      18.887  -6.864   9.944  1.00  0.00     0.044 A 
HETATM   18  N4  UNL     1      19.246  -6.696  11.225  1.00  0.00    -0.303 N 
HETATM   19  N5  UNL     1      18.626  -5.633  11.735  1.00  0.00    -0.304 N 
ATOM     20  H4  UNL     1      19.896  -7.293  11.735  1.00  0.00     0.186 HD
HETATM   21  C22 UNL     1      17.838  -5.078  10.780  1.00  0.00     0.036 A 
ATOM     22  H5  UNL     1      18.727  -5.290  12.691  1.00  0.00     0.186 HD
HETATM   23  C23 UNL     1      16.984  -3.869  10.965  1.00  0.00     0.070 C 
BRANCH  17  24
HETATM   24  C19 UNL     1      19.338  -7.930   8.985  1.00  0.00     0.038 A 
HETATM   25  C20 UNL     1      19.823  -9.225   9.495  1.00  0.00     0.011 A 
HETATM   26  C21 UNL     1      18.423  -9.169   9.035  1.00  0.00     0.011 A 
ENDBRANCH  17  24
ENDBRANCH  14  16
BRANCH   1  27
HETATM   27  O1  UNL     1      22.197  -2.951   8.646  1.00  0.00    -0.355 OA
HETATM   28  C1  UNL     1      22.194  -3.581   9.911  1.00  0.00     0.210 C 
ENDBRANCH   1  27
BRANCH   6  29
HETATM   29  C8  UNL     1      22.337  -1.728   6.186  1.00  0.00     0.032 A 
HETATM   30  C9  UNL     1      22.354  -0.356   6.225  1.00  0.00     0.042 A 
HETATM   31  C10 UNL     1      21.279   0.593   6.601  1.00  0.00     0.071 C 
HETATM   32  N1  UNL     1      23.608  -0.016   5.831  1.00  0.00    -0.265 N 
HETATM   33  O2  UNL     1      24.298  -1.067   5.576  1.00  0.00    -0.242 OA
ATOM     34  H1  UNL     1      23.953   0.940   5.750  1.00  0.00     0.194 HD
HETATM   35  C11 UNL     1      23.584  -2.139   5.771  1.00  0.00     0.085 A 
HETATM   36  C12 UNL     1      24.008  -3.563   5.590  1.00  0.00     0.079 C 
ENDBRANCH   6  29
TORSDOF 4
ENDMDL
