MODEL 5
REMARK VINA RESULT: -8.429627893      3.282      6.416
REMARK  4 active torsions:
REMARK  status: ('A' for Active; 'I' for Inactive)
REMARK    1  A    between atoms: O1_2  and  C2_3 
REMARK    2  A    between atoms: C7_8  and  C8_9 
REMARK    3  A    between atoms: C16_24  and  C17_25 
REMARK    4  A    between atoms: C18_26  and  C19_27 
ROOT
HETATM    1  C2  UNL     1      16.707  -5.949   7.917  1.00  0.00     0.080 A 
HETATM    2  C3  UNL     1      17.740  -5.715   8.786  1.00  0.00     0.052 A 
HETATM    3  C4  UNL     1      18.759  -4.878   8.383  1.00  0.00     0.008 A 
HETATM    4  C5  UNL     1      18.745  -4.280   7.122  1.00  0.00     0.044 A 
HETATM    5  C6  UNL     1      17.691  -4.534   6.269  1.00  0.00     0.045 A 
HETATM    6  C7  UNL     1      16.662  -5.366   6.646  1.00  0.00     0.014 A 
HETATM    7  N2  UNL     1      19.848  -3.536   7.023  1.00  0.00    -0.355 N 
ATOM      8  H2  UNL     1      20.096  -2.984   6.203  1.00  0.00     0.166 HD
HETATM    9  C13 UNL     1      20.587  -3.606   8.136  1.00  0.00     0.047 A 
HETATM   10  C14 UNL     1      21.781  -3.043   8.531  1.00  0.00     0.047 A 
HETATM   11  C15 UNL     1      22.289  -3.321   9.772  1.00  0.00     0.090 A 
HETATM   12  N3  UNL     1      21.608  -4.140  10.583  1.00  0.00    -0.364 N 
ATOM     13  H3  UNL     1      22.000  -4.337  11.504  1.00  0.00     0.165 HD
HETATM   14  C16 UNL     1      20.429  -4.725  10.255  1.00  0.00     0.059 A 
HETATM   15  C24 UNL     1      19.918  -4.447   9.005  1.00  0.00     0.031 A 
ENDROOT
BRANCH  14  16
HETATM   16  C17 UNL     1      19.780  -5.600  11.227  1.00  0.00     0.040 A 
HETATM   17  C18 UNL     1      18.830  -5.220  12.133  1.00  0.00     0.044 A 
HETATM   18  N4  UNL     1      18.511  -6.323  12.827  1.00  0.00    -0.303 N 
HETATM   19  N5  UNL     1      19.223  -7.358  12.387  1.00  0.00    -0.304 N 
ATOM     20  H4  UNL     1      17.824  -6.363  13.580  1.00  0.00     0.186 HD
HETATM   21  C22 UNL     1      20.034  -6.945  11.381  1.00  0.00     0.036 A 
ATOM     22  H5  UNL     1      19.169  -8.311  12.749  1.00  0.00     0.186 HD
HETATM   23  C23 UNL     1      20.985  -7.814  10.631  1.00  0.00     0.070 C 
BRANCH  17  24
HETATM   24  C19 UNL     1      18.276  -3.832  12.288  1.00  0.00     0.038 A 
HETATM   25  C20 UNL     1      17.089  -3.419  11.518  1.00  0.00     0.011 A 
HETATM   26  C21 UNL     1      16.867  -3.844  12.913  1.00  0.00     0.011 A 
ENDBRANCH  17  24
ENDBRANCH  14  16
BRANCH   1  27
HETATM   27  O1  UNL     1      15.666  -6.780   8.278  1.00  0.00    -0.355 OA
HETATM   28  C1  UNL     1      15.914  -7.832   9.187  1.00  0.00     0.210 C 
ENDBRANCH   1  27
BRANCH   6  29
HETATM   29  C8  UNL     1      15.531  -5.657   5.770  1.00  0.00     0.032 A 
HETATM   30  C9  UNL     1      15.324  -6.854   5.129  1.00  0.00     0.042 A 
HETATM   31  C10 UNL     1      16.140  -8.092   5.151  1.00  0.00     0.071 C 
HETATM   32  N1  UNL     1      14.171  -6.678   4.434  1.00  0.00    -0.265 N 
HETATM   33  O2  UNL     1      13.710  -5.496   4.625  1.00  0.00    -0.242 OA
ATOM     34  H1  UNL     1      13.734  -7.386   3.845  1.00  0.00     0.194 HD
HETATM   35  C11 UNL     1      14.489  -4.826   5.425  1.00  0.00     0.085 A 
HETATM   36  C12 UNL     1      14.313  -3.418   5.901  1.00  0.00     0.079 C 
ENDBRANCH   6  29
TORSDOF 4
ENDMDL
