MODEL 7
REMARK VINA RESULT: -8.354793335      0.570      2.702
REMARK  4 active torsions:
REMARK  status: ('A' for Active; 'I' for Inactive)
REMARK    1  A    between atoms: O1_2  and  C2_3 
REMARK    2  A    between atoms: C7_8  and  C8_9 
REMARK    3  A    between atoms: C16_24  and  C17_25 
REMARK    4  A    between atoms: C18_26  and  C19_27 
ROOT
HETATM    1  C2  UNL     1      20.930  -3.369   7.818  1.00  0.00     0.080 A 
HETATM    2  C3  UNL     1      19.897  -4.184   8.197  1.00  0.00     0.052 A 
HETATM    3  C4  UNL     1      18.844  -4.357   7.324  1.00  0.00     0.008 A 
HETATM    4  C5  UNL     1      18.824  -3.719   6.083  1.00  0.00     0.044 A 
HETATM    5  C6  UNL     1      19.878  -2.904   5.729  1.00  0.00     0.045 A 
HETATM    6  C7  UNL     1      20.942  -2.714   6.581  1.00  0.00     0.014 A 
HETATM    7  N2  UNL     1      17.693  -4.076   5.472  1.00  0.00    -0.355 N 
ATOM      8  H2  UNL     1      17.417  -3.756   4.544  1.00  0.00     0.166 HD
HETATM    9  C13 UNL     1      16.967  -4.905   6.230  1.00  0.00     0.047 A 
HETATM   10  C14 UNL     1      15.756  -5.543   6.065  1.00  0.00     0.047 A 
HETATM   11  C15 UNL     1      15.271  -6.352   7.058  1.00  0.00     0.090 A 
HETATM   12  N3  UNL     1      15.989  -6.508   8.176  1.00  0.00    -0.364 N 
ATOM     13  H3  UNL     1      15.613  -7.114   8.907  1.00  0.00     0.165 HD
HETATM   14  C16 UNL     1      17.186  -5.911   8.399  1.00  0.00     0.059 A 
HETATM   15  C24 UNL     1      17.675  -5.095   7.401  1.00  0.00     0.031 A 
ENDROOT
BRANCH  14  16
HETATM   16  C17 UNL     1      17.877  -6.161   9.661  1.00  0.00     0.040 A 
HETATM   17  C18 UNL     1      17.713  -5.450  10.816  1.00  0.00     0.044 A 
HETATM   18  N4  UNL     1      18.533  -6.006  11.720  1.00  0.00    -0.303 N 
HETATM   19  N5  UNL     1      19.191  -7.025  11.170  1.00  0.00    -0.304 N 
ATOM     20  H4  UNL     1      18.637  -5.695  12.685  1.00  0.00     0.186 HD
HETATM   21  C22 UNL     1      18.806  -7.156   9.876  1.00  0.00     0.036 A 
ATOM     22  H5  UNL     1      19.875  -7.614  11.646  1.00  0.00     0.186 HD
HETATM   23  C23 UNL     1      19.319  -8.185   8.926  1.00  0.00     0.070 C 
BRANCH  17  24
HETATM   24  C19 UNL     1      16.786  -4.280  10.998  1.00  0.00     0.038 A 
HETATM   25  C20 UNL     1      16.271  -3.948  12.338  1.00  0.00     0.011 A 
HETATM   26  C21 UNL     1      17.426  -3.170  11.853  1.00  0.00     0.011 A 
ENDBRANCH  17  24
ENDBRANCH  14  16
BRANCH   1  27
HETATM   27  O1  UNL     1      22.005  -3.166   8.659  1.00  0.00    -0.355 OA
HETATM   28  C1  UNL     1      21.963  -3.705   9.965  1.00  0.00     0.210 C 
ENDBRANCH   1  27
BRANCH   6  29
HETATM   29  C8  UNL     1      22.075  -1.859   6.240  1.00  0.00     0.032 A 
HETATM   30  C9  UNL     1      23.315  -2.313   5.867  1.00  0.00     0.042 A 
HETATM   31  C10 UNL     1      23.809  -3.704   5.720  1.00  0.00     0.071 C 
HETATM   32  N1  UNL     1      24.043  -1.188   5.648  1.00  0.00    -0.265 N 
HETATM   33  O2  UNL     1      23.328  -0.144   5.862  1.00  0.00    -0.242 OA
ATOM     34  H1  UNL     1      25.020  -1.175   5.355  1.00  0.00     0.194 HD
HETATM   35  C11 UNL     1      22.124  -0.483   6.224  1.00  0.00     0.085 A 
HETATM   36  C12 UNL     1      20.985   0.426   6.565  1.00  0.00     0.079 C 
ENDBRANCH   6  29
TORSDOF 4
ENDMDL
