MODEL 3
REMARK VINA RESULT: -8.450610392      3.290      6.251
REMARK  4 active torsions:
REMARK  status: ('A' for Active; 'I' for Inactive)
REMARK    1  A    between atoms: O1_2  and  C2_3 
REMARK    2  A    between atoms: C7_8  and  C8_9 
REMARK    3  A    between atoms: C16_24  and  C17_25 
REMARK    4  A    between atoms: C18_26  and  C19_27 
ROOT
HETATM    1  C2  UNL     1      16.731  -5.958   7.933  1.00  0.00     0.080 A 
HETATM    2  C3  UNL     1      17.759  -5.723   8.806  1.00  0.00     0.052 A 
HETATM    3  C4  UNL     1      18.782  -4.889   8.406  1.00  0.00     0.008 A 
HETATM    4  C5  UNL     1      18.776  -4.297   7.143  1.00  0.00     0.044 A 
HETATM    5  C6  UNL     1      17.728  -4.553   6.284  1.00  0.00     0.045 A 
HETATM    6  C7  UNL     1      16.694  -5.381   6.658  1.00  0.00     0.014 A 
HETATM    7  N2  UNL     1      19.881  -3.556   7.048  1.00  0.00    -0.355 N 
ATOM      8  H2  UNL     1      20.135  -3.008   6.227  1.00  0.00     0.166 HD
HETATM    9  C13 UNL     1      20.613  -3.622   8.165  1.00  0.00     0.047 A 
HETATM   10  C14 UNL     1      21.806  -3.060   8.566  1.00  0.00     0.047 A 
HETATM   11  C15 UNL     1      22.305  -3.333   9.812  1.00  0.00     0.090 A 
HETATM   12  N3  UNL     1      21.618  -4.148  10.621  1.00  0.00    -0.364 N 
ATOM     13  H3  UNL     1      22.004  -4.341  11.546  1.00  0.00     0.165 HD
HETATM   14  C16 UNL     1      20.440  -4.731  10.288  1.00  0.00     0.059 A 
HETATM   15  C24 UNL     1      19.937  -4.458   9.034  1.00  0.00     0.031 A 
ENDROOT
BRANCH  14  16
HETATM   16  C17 UNL     1      19.783  -5.601  11.260  1.00  0.00     0.040 A 
HETATM   17  C18 UNL     1      18.846  -5.211  12.175  1.00  0.00     0.044 A 
HETATM   18  N4  UNL     1      18.513  -6.312  12.865  1.00  0.00    -0.303 N 
HETATM   19  N5  UNL     1      19.205  -7.357  12.414  1.00  0.00    -0.304 N 
ATOM     20  H4  UNL     1      17.832  -6.344  13.623  1.00  0.00     0.186 HD
HETATM   21  C22 UNL     1      20.015  -6.952  11.404  1.00  0.00     0.036 A 
ATOM     22  H5  UNL     1      19.137  -8.310  12.771  1.00  0.00     0.186 HD
HETATM   23  C23 UNL     1      20.946  -7.832  10.642  1.00  0.00     0.070 C 
BRANCH  17  24
HETATM   24  C19 UNL     1      18.317  -3.814  12.343  1.00  0.00     0.038 A 
HETATM   25  C20 UNL     1      17.197  -3.343  11.511  1.00  0.00     0.011 A 
HETATM   26  C21 UNL     1      16.869  -3.809  12.871  1.00  0.00     0.011 A 
ENDBRANCH  17  24
ENDBRANCH  14  16
BRANCH   1  27
HETATM   27  O1  UNL     1      15.686  -6.786   8.290  1.00  0.00    -0.355 OA
HETATM   28  C1  UNL     1      15.928  -7.841   9.198  1.00  0.00     0.210 C 
ENDBRANCH   1  27
BRANCH   6  29
HETATM   29  C8  UNL     1      15.569  -5.674   5.777  1.00  0.00     0.032 A 
HETATM   30  C9  UNL     1      14.577  -4.783   5.449  1.00  0.00     0.042 A 
HETATM   31  C10 UNL     1      14.392  -3.375   5.874  1.00  0.00     0.071 C 
HETATM   32  N1  UNL     1      13.754  -5.473   4.618  1.00  0.00    -0.265 N 
HETATM   33  O2  UNL     1      14.190  -6.668   4.448  1.00  0.00    -0.242 OA
ATOM     34  H1  UNL     1      12.909  -5.095   4.190  1.00  0.00     0.194 HD
HETATM   35  C11 UNL     1      15.288  -6.854   5.124  1.00  0.00     0.085 A 
HETATM   36  C12 UNL     1      16.113  -8.100   5.198  1.00  0.00     0.079 C 
ENDBRANCH   6  29
TORSDOF 4
ENDMDL
