MODEL 2
REMARK VINA RESULT: -8.461677207      0.328      1.443
REMARK  4 active torsions:
REMARK  status: ('A' for Active; 'I' for Inactive)
REMARK    1  A    between atoms: O1_2  and  C2_3 
REMARK    2  A    between atoms: C7_8  and  C8_9 
REMARK    3  A    between atoms: C16_24  and  C17_25 
REMARK    4  A    between atoms: C18_26  and  C19_27 
ROOT
HETATM    1  C2  UNL     1      21.136  -3.163   7.805  1.00  0.00     0.080 A 
HETATM    2  C3  UNL     1      20.086  -3.954   8.191  1.00  0.00     0.052 A 
HETATM    3  C4  UNL     1      19.049  -4.147   7.303  1.00  0.00     0.008 A 
HETATM    4  C5  UNL     1      19.062  -3.553   6.040  1.00  0.00     0.044 A 
HETATM    5  C6  UNL     1      20.132  -2.761   5.680  1.00  0.00     0.045 A 
HETATM    6  C7  UNL     1      21.180  -2.552   6.547  1.00  0.00     0.014 A 
HETATM    7  N2  UNL     1      17.940  -3.919   5.419  1.00  0.00    -0.355 N 
ATOM      8  H2  UNL     1      17.686  -3.629   4.475  1.00  0.00     0.166 HD
HETATM    9  C13 UNL     1      17.189  -4.714   6.190  1.00  0.00     0.047 A 
HETATM   10  C14 UNL     1      15.976  -5.344   6.023  1.00  0.00     0.047 A 
HETATM   11  C15 UNL     1      15.461  -6.113   7.033  1.00  0.00     0.090 A 
HETATM   12  N3  UNL     1      16.155  -6.237   8.171  1.00  0.00    -0.364 N 
ATOM     13  H3  UNL     1      15.757  -6.813   8.914  1.00  0.00     0.165 HD
HETATM   14  C16 UNL     1      17.353  -5.645   8.397  1.00  0.00     0.059 A 
HETATM   15  C24 UNL     1      17.871  -4.870   7.381  1.00  0.00     0.031 A 
ENDROOT
BRANCH  14  16
HETATM   16  C17 UNL     1      18.015  -5.858   9.681  1.00  0.00     0.040 A 
HETATM   17  C18 UNL     1      18.897  -6.862   9.968  1.00  0.00     0.044 A 
HETATM   18  N4  UNL     1      19.257  -6.691  11.249  1.00  0.00    -0.303 N 
HETATM   19  N5  UNL     1      18.635  -5.629  11.758  1.00  0.00    -0.304 N 
ATOM     20  H4  UNL     1      19.910  -7.286  11.758  1.00  0.00     0.186 HD
HETATM   21  C22 UNL     1      17.845  -5.077  10.804  1.00  0.00     0.036 A 
ATOM     22  H5  UNL     1      18.737  -5.285  12.713  1.00  0.00     0.186 HD
HETATM   23  C23 UNL     1      16.988  -3.870  10.988  1.00  0.00     0.070 C 
BRANCH  17  24
HETATM   24  C19 UNL     1      19.349  -7.928   9.010  1.00  0.00     0.038 A 
HETATM   25  C20 UNL     1      19.894  -9.198   9.521  1.00  0.00     0.011 A 
HETATM   26  C21 UNL     1      18.478  -9.195   9.110  1.00  0.00     0.011 A 
ENDBRANCH  17  24
ENDBRANCH  14  16
BRANCH   1  27
HETATM   27  O1  UNL     1      22.195  -2.942   8.661  1.00  0.00    -0.355 OA
HETATM   28  C1  UNL     1      22.205  -3.585   9.919  1.00  0.00     0.210 C 
ENDBRANCH   1  27
BRANCH   6  29
HETATM   29  C8  UNL     1      22.328  -1.721   6.200  1.00  0.00     0.032 A 
HETATM   30  C9  UNL     1      23.546  -2.201   5.785  1.00  0.00     0.042 A 
HETATM   31  C10 UNL     1      23.995  -3.600   5.591  1.00  0.00     0.071 C 
HETATM   32  N1  UNL     1      24.301  -1.091   5.576  1.00  0.00    -0.265 N 
HETATM   33  O2  UNL     1      23.622  -0.033   5.834  1.00  0.00    -0.242 OA
ATOM     34  H1  UNL     1      25.270  -1.098   5.260  1.00  0.00     0.194 HD
HETATM   35  C11 UNL     1      22.417  -0.347   6.218  1.00  0.00     0.085 A 
HETATM   36  C12 UNL     1      21.314   0.585   6.609  1.00  0.00     0.079 C 
ENDBRANCH   6  29
TORSDOF 4
ENDMDL
