MODEL 6
REMARK VINA RESULT: -10.048817420      4.349      9.300
REMARK  6 active torsions:
REMARK  status: ('A' for Active; 'I' for Inactive)
REMARK    1  A    between atoms: C5_7  and  C6_8 
REMARK    2  A    between atoms: C6_8  and  C7_9 
REMARK    3  A    between atoms: C6_8  and  C17_29 
REMARK    4  A    between atoms: C7_9  and  N2_10 
REMARK       I    between atoms: N2_10  and  C8_12 
REMARK    5  A    between atoms: C8_12  and  C9_14 
REMARK    6  A    between atoms: C12_18  and  N3_19 
ROOT
HETATM    1  C6  UNL     1     -14.800 -41.100 -11.636  1.00  0.00     0.104 C 
ENDROOT
BRANCH   1   2
HETATM    2  C5  UNL     1     -16.133 -40.491 -12.006  1.00  0.00     0.092 A 
HETATM    3  N1  UNL     1     -17.313 -41.126 -12.036  1.00  0.00    -0.343 N 
HETATM    4  C4  UNL     1     -18.299 -40.287 -12.408  1.00  0.00     0.061 A 
ATOM      5  H1  UNL     1     -17.447 -42.111 -11.808  1.00  0.00     0.167 HD
HETATM    6  C3  UNL     1     -19.656 -40.423 -12.593  1.00  0.00     0.039 A 
HETATM    7  C23 UNL     1     -17.662 -39.061 -12.616  1.00  0.00     0.061 A 
HETATM    8  C2  UNL     1     -20.416 -39.349 -12.988  1.00  0.00    -0.054 A 
HETATM    9  C1  UNL     1     -21.891 -39.451 -13.201  1.00  0.00     0.049 C 
HETATM   10  C25 UNL     1     -19.805 -38.130 -13.199  1.00  0.00    -0.054 A 
HETATM   11  C24 UNL     1     -18.446 -37.991 -13.014  1.00  0.00     0.039 A 
HETATM   12  C26 UNL     1     -20.643 -36.974 -13.628  1.00  0.00     0.049 C 
HETATM   13  N6  UNL     1     -16.337 -39.210 -12.364  1.00  0.00    -0.343 N 
ATOM     14  H6  UNL     1     -15.625 -38.482 -12.434  1.00  0.00     0.167 HD
ENDBRANCH   1   2
BRANCH   1  15
HETATM   15  C7  UNL     1     -14.172 -40.149 -10.667  1.00  0.00     0.140 C 
BRANCH  15  16
HETATM   16  N2  UNL     1     -12.832 -39.719 -11.108  1.00  0.00    -0.356 N 
HETATM   17  C8  UNL     1     -12.645 -38.534 -11.830  1.00  0.00     0.255 C 
HETATM   18  O1  UNL     1     -13.733 -37.865 -12.051  1.00  0.00    -0.268 OA
ATOM     19  H2  UNL     1     -12.023 -40.299 -10.883  1.00  0.00     0.162 HD
BRANCH  17  20
HETATM   20  C9  UNL     1     -11.388 -38.008 -12.329  1.00  0.00     0.075 A 
HETATM   21  C10 UNL     1     -10.936 -38.472 -13.582  1.00  0.00     0.053 A 
HETATM   22 CL1  UNL     1     -11.951 -39.617 -14.441  1.00  0.00    -0.083 Cl
HETATM   23  C11 UNL     1      -9.759 -38.075 -14.155  1.00  0.00     0.055 A 
HETATM   24  C12 UNL     1      -8.931 -37.182 -13.527  1.00  0.00     0.044 A 
HETATM   25  C15 UNL     1      -9.347 -36.714 -12.304  1.00  0.00     0.055 A 
HETATM   26  C16 UNL     1     -10.557 -37.121 -11.713  1.00  0.00     0.053 A 
HETATM   27 CL2  UNL     1     -10.977 -36.504 -10.132  1.00  0.00    -0.083 Cl
BRANCH  24  28
HETATM   28  N3  UNL     1      -7.705 -36.770 -14.126  1.00  0.00    -0.301 N 
HETATM   29  C13 UNL     1      -7.520 -35.816 -15.041  1.00  0.00     0.206 A 
HETATM   30  N4  UNL     1      -6.209 -35.723 -15.363  1.00  0.00    -0.295 N 
HETATM   31  N5  UNL     1      -5.573 -36.632 -14.637  1.00  0.00    -0.295 N 
ATOM     32  H4  UNL     1      -5.790 -35.078 -16.034  1.00  0.00     0.187 HD
HETATM   33  C14 UNL     1      -6.492 -37.284 -13.870  1.00  0.00     0.206 A 
ATOM     34  H5  UNL     1      -4.570 -36.812 -14.650  1.00  0.00     0.187 HD
ENDBRANCH  24  28
ENDBRANCH  17  20
ENDBRANCH  15  16
ENDBRANCH   1  15
BRANCH   1  35
HETATM   35  C17 UNL     1     -15.022 -42.406 -10.985  1.00  0.00    -0.045 A 
HETATM   36  C18 UNL     1     -15.135 -43.568 -11.680  1.00  0.00     0.008 A 
HETATM   37  C19 UNL     1     -15.345 -44.773 -11.024  1.00  0.00     0.001 A 
HETATM   38  C20 UNL     1     -15.438 -44.790  -9.646  1.00  0.00     0.000 A 
HETATM   39  C21 UNL     1     -15.325 -43.623  -8.934  1.00  0.00     0.001 A 
HETATM   40  C22 UNL     1     -15.119 -42.445  -9.602  1.00  0.00     0.008 A 
ENDBRANCH   1  35
TORSDOF 6
ENDMDL
