MODEL 12
REMARK VINA RESULT: -9.349956506      0.995      2.201
REMARK  6 active torsions:
REMARK  status: ('A' for Active; 'I' for Inactive)
REMARK    1  A    between atoms: C5_7  and  C6_8 
REMARK    2  A    between atoms: C6_8  and  C7_9 
REMARK    3  A    between atoms: C6_8  and  C17_29 
REMARK    4  A    between atoms: C7_9  and  N2_10 
REMARK       I    between atoms: N2_10  and  C8_12 
REMARK    5  A    between atoms: C8_12  and  C9_14 
REMARK    6  A    between atoms: C12_18  and  N3_19 
ROOT
HETATM    1  C6  UNL     1     -14.365 -35.710 -13.495  1.00  0.00     0.104 C 
ENDROOT
BRANCH   1   2
HETATM    2  C5  UNL     1     -13.831 -35.356 -12.126  1.00  0.00     0.092 A 
HETATM    3  N1  UNL     1     -12.585 -35.569 -11.682  1.00  0.00    -0.343 N 
HETATM    4  C4  UNL     1     -12.446 -35.133 -10.414  1.00  0.00     0.061 A 
ATOM      5  H1  UNL     1     -11.841 -36.002 -12.229  1.00  0.00     0.167 HD
HETATM    6  C3  UNL     1     -11.404 -35.111  -9.516  1.00  0.00     0.039 A 
HETATM    7  C23 UNL     1     -13.702 -34.623 -10.076  1.00  0.00     0.061 A 
HETATM    8  C2  UNL     1     -11.580 -34.584  -8.259  1.00  0.00    -0.054 A 
HETATM    9  C1  UNL     1     -10.477 -34.540  -7.252  1.00  0.00     0.049 C 
HETATM   10  C25 UNL     1     -12.813 -34.075  -7.906  1.00  0.00    -0.054 A 
HETATM   11  C24 UNL     1     -13.858 -34.096  -8.805  1.00  0.00     0.039 A 
HETATM   12  C26 UNL     1     -12.988 -33.506  -6.539  1.00  0.00     0.049 C 
HETATM   13  N6  UNL     1     -14.534 -34.770 -11.138  1.00  0.00    -0.343 N 
ATOM     14  H6  UNL     1     -15.513 -34.488 -11.181  1.00  0.00     0.167 HD
ENDBRANCH   1   2
BRANCH   1  15
HETATM   15  C7  UNL     1     -15.680 -36.382 -13.260  1.00  0.00     0.140 C 
BRANCH  15  16
HETATM   16  N2  UNL     1     -15.513 -37.734 -12.695  1.00  0.00    -0.356 N 
HETATM   17  C8  UNL     1     -15.736 -38.881 -13.466  1.00  0.00     0.255 C 
HETATM   18  O1  UNL     1     -16.077 -38.643 -14.694  1.00  0.00    -0.268 OA
ATOM     19  H2  UNL     1     -15.230 -37.835 -11.720  1.00  0.00     0.162 HD
BRANCH  17  20
HETATM   20  C9  UNL     1     -15.618 -40.260 -13.029  1.00  0.00     0.075 A 
HETATM   21  C10 UNL     1     -16.731 -40.840 -12.385  1.00  0.00     0.053 A 
HETATM   22 CL1  UNL     1     -18.171 -39.854 -12.203  1.00  0.00    -0.083 Cl
HETATM   23  C11 UNL     1     -16.743 -42.121 -11.904  1.00  0.00     0.055 A 
HETATM   24  C12 UNL     1     -15.646 -42.933 -12.024  1.00  0.00     0.044 A 
HETATM   25  C15 UNL     1     -14.546 -42.393 -12.646  1.00  0.00     0.055 A 
HETATM   26  C16 UNL     1     -14.532 -41.076 -13.141  1.00  0.00     0.053 A 
HETATM   27 CL2  UNL     1     -13.069 -40.464 -13.877  1.00  0.00    -0.083 Cl
BRANCH  24  28
HETATM   28  N3  UNL     1     -15.661 -44.267 -11.522  1.00  0.00    -0.301 N 
HETATM   29  C13 UNL     1     -16.014 -45.381 -12.168  1.00  0.00     0.206 A 
HETATM   30  N4  UNL     1     -15.896 -46.453 -11.350  1.00  0.00    -0.295 N 
HETATM   31  N5  UNL     1     -15.465 -45.996 -10.183  1.00  0.00    -0.295 N 
ATOM     32  H4  UNL     1     -16.099 -47.425 -11.586  1.00  0.00     0.187 HD
HETATM   33  C14 UNL     1     -15.318 -44.645 -10.281  1.00  0.00     0.206 A 
ATOM     34  H5  UNL     1     -15.275 -46.559  -9.354  1.00  0.00     0.187 HD
ENDBRANCH  24  28
ENDBRANCH  17  20
ENDBRANCH  15  16
ENDBRANCH   1  15
BRANCH   1  35
HETATM   35  C17 UNL     1     -14.566 -34.473 -14.276  1.00  0.00    -0.045 A 
HETATM   36  C18 UNL     1     -14.758 -33.258 -13.698  1.00  0.00     0.008 A 
HETATM   37  C19 UNL     1     -14.943 -32.122 -14.474  1.00  0.00     0.001 A 
HETATM   38  C20 UNL     1     -14.931 -32.229 -15.851  1.00  0.00     0.000 A 
HETATM   39  C21 UNL     1     -14.738 -33.451 -16.445  1.00  0.00     0.001 A 
HETATM   40  C22 UNL     1     -14.558 -34.559 -15.659  1.00  0.00     0.008 A 
ENDBRANCH   1  35
TORSDOF 6
ENDMDL
