MODEL 1
REMARK VINA RESULT: -10.607547595      0.000      0.000
REMARK  6 active torsions:
REMARK  status: ('A' for Active; 'I' for Inactive)
REMARK    1  A    between atoms: C5_7  and  C6_8 
REMARK    2  A    between atoms: C6_8  and  C7_9 
REMARK    3  A    between atoms: C6_8  and  C17_29 
REMARK    4  A    between atoms: C7_9  and  N2_10 
REMARK       I    between atoms: N2_10  and  C8_12 
REMARK    5  A    between atoms: C8_12  and  C9_14 
REMARK    6  A    between atoms: C12_18  and  N3_19 
ROOT
HETATM    1  C6  UNL     1     -14.613 -35.766 -13.590  1.00  0.00     0.104 C 
ENDROOT
BRANCH   1   2
HETATM    2  C5  UNL     1     -14.016 -35.416 -12.246  1.00  0.00     0.092 A 
HETATM    3  N1  UNL     1     -14.657 -34.842 -11.219  1.00  0.00    -0.343 N 
HETATM    4  C4  UNL     1     -13.827 -34.671 -10.171  1.00  0.00     0.061 A 
ATOM      5  H1  UNL     1     -15.641 -34.571 -11.228  1.00  0.00     0.167 HD
HETATM    6  C3  UNL     1     -13.974 -34.145  -8.908  1.00  0.00     0.039 A 
HETATM    7  C23 UNL     1     -12.601 -35.179 -10.604  1.00  0.00     0.061 A 
HETATM    8  C2  UNL     1     -12.907 -34.109  -8.042  1.00  0.00    -0.054 A 
HETATM    9  C1  UNL     1     -13.020 -33.547  -6.662  1.00  0.00     0.049 C 
HETATM   10  C25 UNL     1     -11.687 -34.606  -8.451  1.00  0.00    -0.054 A 
HETATM   11  C24 UNL     1     -11.539 -35.134  -9.716  1.00  0.00     0.039 A 
HETATM   12  C26 UNL     1     -10.540 -34.560  -7.499  1.00  0.00     0.049 C 
HETATM   13  N6  UNL     1     -12.739 -35.629 -11.876  1.00  0.00    -0.343 N 
ATOM     14  H6  UNL     1     -12.008 -36.053 -12.449  1.00  0.00     0.167 HD
ENDBRANCH   1   2
BRANCH   1  15
HETATM   15  C7  UNL     1     -15.992 -36.270 -13.305  1.00  0.00     0.140 C 
BRANCH  15  16
HETATM   16  N2  UNL     1     -15.975 -37.437 -12.404  1.00  0.00    -0.356 N 
HETATM   17  C8  UNL     1     -15.894 -38.744 -12.900  1.00  0.00     0.255 C 
HETATM   18  O1  UNL     1     -15.822 -38.822 -14.193  1.00  0.00    -0.268 OA
ATOM     19  H2  UNL     1     -16.024 -37.289 -11.396  1.00  0.00     0.162 HD
BRANCH  17  20
HETATM   20  C9  UNL     1     -15.881 -39.971 -12.125  1.00  0.00     0.075 A 
HETATM   21  C10 UNL     1     -14.663 -40.352 -11.525  1.00  0.00     0.053 A 
HETATM   22 CL1  UNL     1     -13.282 -39.290 -11.738  1.00  0.00    -0.083 Cl
HETATM   23  C11 UNL     1     -14.508 -41.495 -10.789  1.00  0.00     0.055 A 
HETATM   24  C12 UNL     1     -15.555 -42.356 -10.590  1.00  0.00     0.044 A 
HETATM   25  C15 UNL     1     -16.754 -42.010 -11.166  1.00  0.00     0.055 A 
HETATM   26  C16 UNL     1     -16.915 -40.835 -11.922  1.00  0.00     0.053 A 
HETATM   27 CL2  UNL     1     -18.469 -40.504 -12.653  1.00  0.00    -0.083 Cl
BRANCH  24  28
HETATM   28  N3  UNL     1     -15.392 -43.547  -9.824  1.00  0.00    -0.301 N 
HETATM   29  C13 UNL     1     -15.242 -43.655  -8.502  1.00  0.00     0.206 A 
HETATM   30  N4  UNL     1     -15.113 -44.957  -8.151  1.00  0.00    -0.295 N 
HETATM   31  N5  UNL     1     -15.185 -45.662  -9.270  1.00  0.00    -0.295 N 
ATOM     32  H4  UNL     1     -14.986 -45.323  -7.207  1.00  0.00     0.187 HD
HETATM   33  C14 UNL     1     -15.356 -44.797 -10.309  1.00  0.00     0.206 A 
ATOM     34  H5  UNL     1     -15.123 -46.677  -9.342  1.00  0.00     0.187 HD
ENDBRANCH  24  28
ENDBRANCH  17  20
ENDBRANCH  15  16
ENDBRANCH   1  15
BRANCH   1  35
HETATM   35  C17 UNL     1     -14.686 -34.550 -14.424  1.00  0.00    -0.045 A 
HETATM   36  C18 UNL     1     -14.876 -33.308 -13.905  1.00  0.00     0.008 A 
HETATM   37  C19 UNL     1     -14.938 -32.194 -14.730  1.00  0.00     0.001 A 
HETATM   38  C20 UNL     1     -14.803 -32.349 -16.096  1.00  0.00     0.000 A 
HETATM   39  C21 UNL     1     -14.610 -33.598 -16.630  1.00  0.00     0.001 A 
HETATM   40  C22 UNL     1     -14.553 -34.684 -15.797  1.00  0.00     0.008 A 
ENDBRANCH   1  35
TORSDOF 6
ENDMDL
