MODEL 3
REMARK VINA RESULT: -10.593784635      0.042      1.172
REMARK  6 active torsions:
REMARK  status: ('A' for Active; 'I' for Inactive)
REMARK    1  A    between atoms: C5_7  and  C6_8 
REMARK    2  A    between atoms: C6_8  and  C7_9 
REMARK    3  A    between atoms: C6_8  and  C17_29 
REMARK    4  A    between atoms: C7_9  and  N2_10 
REMARK       I    between atoms: N2_10  and  C8_12 
REMARK    5  A    between atoms: C8_12  and  C9_14 
REMARK    6  A    between atoms: C12_18  and  N3_19 
ROOT
HETATM    1  C6  UNL     1     -14.583 -35.758 -13.588  1.00  0.00     0.104 C 
ENDROOT
BRANCH   1   2
HETATM    2  C5  UNL     1     -14.010 -35.401 -12.235  1.00  0.00     0.092 A 
HETATM    3  N1  UNL     1     -12.746 -35.596 -11.834  1.00  0.00    -0.343 N 
HETATM    4  C4  UNL     1     -12.572 -35.163 -10.570  1.00  0.00     0.061 A 
ATOM      5  H1  UNL     1     -12.014 -36.016 -12.407  1.00  0.00     0.167 HD
HETATM    6  C3  UNL     1     -11.501 -35.129  -9.707  1.00  0.00     0.039 A 
HETATM    7  C23 UNL     1     -13.823 -34.673 -10.188  1.00  0.00     0.061 A 
HETATM    8  C2  UNL     1     -11.643 -34.609  -8.442  1.00  0.00    -0.054 A 
HETATM    9  C1  UNL     1     -10.508 -34.551  -7.472  1.00  0.00     0.049 C 
HETATM   10  C25 UNL     1     -12.871 -34.120  -8.046  1.00  0.00    -0.054 A 
HETATM   11  C24 UNL     1     -13.945 -34.153  -8.910  1.00  0.00     0.039 A 
HETATM   12  C26 UNL     1     -13.009 -33.559  -6.672  1.00  0.00     0.049 C 
HETATM   13  N6  UNL     1     -14.687 -34.829 -11.222  1.00  0.00    -0.343 N 
ATOM     14  H6  UNL     1     -15.672 -34.562 -11.231  1.00  0.00     0.167 HD
ENDBRANCH   1   2
BRANCH   1  15
HETATM   15  C7  UNL     1     -15.954 -36.293 -13.321  1.00  0.00     0.140 C 
BRANCH  15  16
HETATM   16  N2  UNL     1     -15.923 -37.455 -12.414  1.00  0.00    -0.356 N 
HETATM   17  C8  UNL     1     -15.906 -38.767 -12.904  1.00  0.00     0.255 C 
HETATM   18  O1  UNL     1     -15.904 -38.854 -14.198  1.00  0.00    -0.268 OA
ATOM     19  H2  UNL     1     -15.915 -37.300 -11.406  1.00  0.00     0.162 HD
BRANCH  17  20
HETATM   20  C9  UNL     1     -15.887 -39.989 -12.122  1.00  0.00     0.075 A 
HETATM   21  C10 UNL     1     -14.657 -40.385 -11.557  1.00  0.00     0.053 A 
HETATM   22 CL1  UNL     1     -13.268 -39.345 -11.819  1.00  0.00    -0.083 Cl
HETATM   23  C11 UNL     1     -14.497 -41.526 -10.819  1.00  0.00     0.055 A 
HETATM   24  C12 UNL     1     -15.551 -42.370 -10.583  1.00  0.00     0.044 A 
HETATM   25  C15 UNL     1     -16.761 -42.009 -11.124  1.00  0.00     0.055 A 
HETATM   26  C16 UNL     1     -16.927 -40.836 -11.882  1.00  0.00     0.053 A 
HETATM   27 CL2  UNL     1     -18.498 -40.486 -12.567  1.00  0.00    -0.083 Cl
BRANCH  24  28
HETATM   28  N3  UNL     1     -15.381 -43.558  -9.814  1.00  0.00    -0.301 N 
HETATM   29  C13 UNL     1     -15.229 -43.664  -8.492  1.00  0.00     0.206 A 
HETATM   30  N4  UNL     1     -15.095 -44.964  -8.139  1.00  0.00    -0.295 N 
HETATM   31  N5  UNL     1     -15.166 -45.672  -9.257  1.00  0.00    -0.295 N 
ATOM     32  H4  UNL     1     -14.966 -45.327  -7.194  1.00  0.00     0.187 HD
HETATM   33  C14 UNL     1     -15.341 -44.809 -10.297  1.00  0.00     0.206 A 
ATOM     34  H5  UNL     1     -15.100 -46.687  -9.326  1.00  0.00     0.187 HD
ENDBRANCH  24  28
ENDBRANCH  17  20
ENDBRANCH  15  16
ENDBRANCH   1  15
BRANCH   1  35
HETATM   35  C17 UNL     1     -14.673 -34.540 -14.417  1.00  0.00    -0.045 A 
HETATM   36  C18 UNL     1     -14.856 -33.300 -13.892  1.00  0.00     0.008 A 
HETATM   37  C19 UNL     1     -14.934 -32.184 -14.713  1.00  0.00     0.001 A 
HETATM   38  C20 UNL     1     -14.823 -32.335 -16.081  1.00  0.00     0.000 A 
HETATM   39  C21 UNL     1     -14.637 -33.583 -16.622  1.00  0.00     0.001 A 
HETATM   40  C22 UNL     1     -14.564 -34.671 -15.793  1.00  0.00     0.008 A 
ENDBRANCH   1  35
TORSDOF 6
ENDMDL
