MODEL 4
REMARK VINA RESULT: -10.560214864      0.357      2.022
REMARK  6 active torsions:
REMARK  status: ('A' for Active; 'I' for Inactive)
REMARK    1  A    between atoms: C5_7  and  C6_8 
REMARK    2  A    between atoms: C6_8  and  C7_9 
REMARK    3  A    between atoms: C6_8  and  C17_29 
REMARK    4  A    between atoms: C7_9  and  N2_10 
REMARK       I    between atoms: N2_10  and  C8_12 
REMARK    5  A    between atoms: C8_12  and  C9_14 
REMARK    6  A    between atoms: C12_18  and  N3_19 
ROOT
HETATM    1  C6  UNL     1     -14.459 -35.717 -13.615  1.00  0.00     0.104 C 
ENDROOT
BRANCH   1   2
HETATM    2  C5  UNL     1     -13.935 -35.363 -12.242  1.00  0.00     0.092 A 
HETATM    3  N1  UNL     1     -12.679 -35.533 -11.804  1.00  0.00    -0.343 N 
HETATM    4  C4  UNL     1     -12.554 -35.111 -10.531  1.00  0.00     0.061 A 
ATOM      5  H1  UNL     1     -11.921 -35.930 -12.359  1.00  0.00     0.167 HD
HETATM    6  C3  UNL     1     -11.511 -35.062  -9.635  1.00  0.00     0.039 A 
HETATM    7  C23 UNL     1     -13.827 -34.655 -10.182  1.00  0.00     0.061 A 
HETATM    8  C2  UNL     1     -11.703 -34.560  -8.370  1.00  0.00    -0.054 A 
HETATM    9  C1  UNL     1     -10.600 -34.488  -7.365  1.00  0.00     0.049 C 
HETATM   10  C25 UNL     1     -12.953 -34.104  -8.006  1.00  0.00    -0.054 A 
HETATM   11  C24 UNL     1     -14.000 -34.152  -8.903  1.00  0.00     0.039 A 
HETATM   12  C26 UNL     1     -13.145 -33.562  -6.631  1.00  0.00     0.049 C 
HETATM   13  N6  UNL     1     -14.656 -34.818 -11.244  1.00  0.00    -0.343 N 
ATOM     14  H6  UNL     1     -15.646 -34.574 -11.280  1.00  0.00     0.167 HD
ENDBRANCH   1   2
BRANCH   1  15
HETATM   15  C7  UNL     1     -15.782 -36.374 -13.389  1.00  0.00     0.140 C 
BRANCH  15  16
HETATM   16  N2  UNL     1     -15.681 -37.506 -12.449  1.00  0.00    -0.356 N 
HETATM   17  C8  UNL     1     -15.365 -38.797 -12.890  1.00  0.00     0.255 C 
HETATM   18  O1  UNL     1     -15.161 -38.891 -14.167  1.00  0.00    -0.268 OA
ATOM     19  H2  UNL     1     -15.845 -37.345 -11.456  1.00  0.00     0.162 HD
BRANCH  17  20
HETATM   20  C9  UNL     1     -15.246 -39.992 -12.074  1.00  0.00     0.075 A 
HETATM   21  C10 UNL     1     -16.306 -40.922 -12.118  1.00  0.00     0.053 A 
HETATM   22 CL1  UNL     1     -17.656 -40.569 -13.184  1.00  0.00    -0.083 Cl
HETATM   23  C11 UNL     1     -16.330 -42.074 -11.382  1.00  0.00     0.055 A 
HETATM   24  C12 UNL     1     -15.300 -42.397 -10.537  1.00  0.00     0.044 A 
HETATM   25  C15 UNL     1     -14.256 -41.507 -10.474  1.00  0.00     0.055 A 
HETATM   26  C16 UNL     1     -14.229 -40.322 -11.230  1.00  0.00     0.053 A 
HETATM   27 CL2  UNL     1     -12.875 -39.230 -11.047  1.00  0.00    -0.083 Cl
BRANCH  24  28
HETATM   28  N3  UNL     1     -15.329 -43.598  -9.771  1.00  0.00    -0.301 N 
HETATM   29  C13 UNL     1     -15.403 -44.854 -10.218  1.00  0.00     0.206 A 
HETATM   30  N4  UNL     1     -15.408 -45.722  -9.179  1.00  0.00    -0.295 N 
HETATM   31  N5  UNL     1     -15.335 -44.994  -8.074  1.00  0.00    -0.295 N 
ATOM     32  H4  UNL     1     -15.457 -46.739  -9.236  1.00  0.00     0.187 HD
HETATM   33  C14 UNL     1     -15.286 -43.679  -8.432  1.00  0.00     0.206 A 
ATOM     34  H5  UNL     1     -15.317 -45.354  -7.121  1.00  0.00     0.187 HD
ENDBRANCH  24  28
ENDBRANCH  17  20
ENDBRANCH  15  16
ENDBRANCH   1  15
BRANCH   1  35
HETATM   35  C17 UNL     1     -14.640 -34.482 -14.402  1.00  0.00    -0.045 A 
HETATM   36  C18 UNL     1     -14.834 -33.263 -13.832  1.00  0.00     0.008 A 
HETATM   37  C19 UNL     1     -15.000 -32.129 -14.614  1.00  0.00     0.001 A 
HETATM   38  C20 UNL     1     -14.965 -32.240 -15.991  1.00  0.00     0.000 A 
HETATM   39  C21 UNL     1     -14.769 -33.465 -16.577  1.00  0.00     0.001 A 
HETATM   40  C22 UNL     1     -14.608 -34.572 -15.785  1.00  0.00     0.008 A 
ENDBRANCH   1  35
TORSDOF 6
ENDMDL
