MODEL 7
REMARK VINA RESULT: -10.029660692      4.326      9.275
REMARK  6 active torsions:
REMARK  status: ('A' for Active; 'I' for Inactive)
REMARK    1  A    between atoms: C5_7  and  C6_8 
REMARK    2  A    between atoms: C6_8  and  C7_9 
REMARK    3  A    between atoms: C6_8  and  C17_29 
REMARK    4  A    between atoms: C7_9  and  N2_10 
REMARK       I    between atoms: N2_10  and  C8_12 
REMARK    5  A    between atoms: C8_12  and  C9_14 
REMARK    6  A    between atoms: C12_18  and  N3_19 
ROOT
HETATM    1  C6  UNL     1     -14.820 -41.076 -11.656  1.00  0.00     0.104 C 
ENDROOT
BRANCH   1   2
HETATM    2  C5  UNL     1     -16.150 -40.455 -12.019  1.00  0.00     0.092 A 
HETATM    3  N1  UNL     1     -16.360 -39.177 -12.366  1.00  0.00    -0.343 N 
HETATM    4  C4  UNL     1     -17.664 -38.959 -12.626  1.00  0.00     0.061 A 
ATOM      5  H1  UNL     1     -15.631 -38.466 -12.426  1.00  0.00     0.167 HD
HETATM    6  C3  UNL     1     -18.393 -37.858 -13.013  1.00  0.00     0.039 A 
HETATM    7  C23 UNL     1     -18.278 -40.196 -12.419  1.00  0.00     0.061 A 
HETATM    8  C2  UNL     1     -19.751 -37.955 -13.203  1.00  0.00    -0.054 A 
HETATM    9  C1  UNL     1     -20.582 -36.787 -13.622  1.00  0.00     0.049 C 
HETATM   10  C25 UNL     1     -20.376 -39.169 -13.004  1.00  0.00    -0.054 A 
HETATM   11  C24 UNL     1     -19.647 -40.273 -12.617  1.00  0.00     0.039 A 
HETATM   12  C26 UNL     1     -21.849 -39.258 -13.215  1.00  0.00     0.049 C 
HETATM   13  N6  UNL     1     -17.333 -41.096 -12.048  1.00  0.00    -0.343 N 
ATOM     14  H6  UNL     1     -17.490 -42.080 -11.830  1.00  0.00     0.167 HD
ENDBRANCH   1   2
BRANCH   1  15
HETATM   15  C7  UNL     1     -14.186 -40.140 -10.677  1.00  0.00     0.140 C 
BRANCH  15  16
HETATM   16  N2  UNL     1     -12.843 -39.715 -11.114  1.00  0.00    -0.356 N 
HETATM   17  C8  UNL     1     -12.648 -38.529 -11.831  1.00  0.00     0.255 C 
HETATM   18  O1  UNL     1     -13.733 -37.854 -12.053  1.00  0.00    -0.268 OA
ATOM     19  H2  UNL     1     -12.038 -40.299 -10.888  1.00  0.00     0.162 HD
BRANCH  17  20
HETATM   20  C9  UNL     1     -11.387 -38.007 -12.325  1.00  0.00     0.075 A 
HETATM   21  C10 UNL     1     -10.927 -38.481 -13.571  1.00  0.00     0.053 A 
HETATM   22 CL1  UNL     1     -11.937 -39.631 -14.430  1.00  0.00    -0.083 Cl
HETATM   23  C11 UNL     1      -9.745 -38.089 -14.139  1.00  0.00     0.055 A 
HETATM   24  C12 UNL     1      -8.922 -37.191 -13.512  1.00  0.00     0.044 A 
HETATM   25  C15 UNL     1      -9.345 -36.715 -12.295  1.00  0.00     0.055 A 
HETATM   26  C16 UNL     1     -10.560 -37.116 -11.710  1.00  0.00     0.053 A 
HETATM   27 CL2  UNL     1     -10.991 -36.488 -10.136  1.00  0.00    -0.083 Cl
BRANCH  24  28
HETATM   28  N3  UNL     1      -7.691 -36.785 -14.105  1.00  0.00    -0.301 N 
HETATM   29  C13 UNL     1      -6.473 -37.287 -13.890  1.00  0.00     0.206 A 
HETATM   30  N4  UNL     1      -5.557 -36.632 -14.642  1.00  0.00    -0.295 N 
HETATM   31  N5  UNL     1      -6.218 -35.713 -15.331  1.00  0.00    -0.295 N 
ATOM     32  H4  UNL     1      -4.553 -36.812 -14.672  1.00  0.00     0.187 HD
HETATM   33  C14 UNL     1      -7.538 -35.800 -15.004  1.00  0.00     0.206 A 
ATOM     34  H5  UNL     1      -5.809 -35.053 -15.993  1.00  0.00     0.187 HD
ENDBRANCH  24  28
ENDBRANCH  17  20
ENDBRANCH  15  16
ENDBRANCH   1  15
BRANCH   1  35
HETATM   35  C17 UNL     1     -15.051 -42.387 -11.019  1.00  0.00    -0.045 A 
HETATM   36  C18 UNL     1     -15.189 -43.539 -11.728  1.00  0.00     0.008 A 
HETATM   37  C19 UNL     1     -15.405 -44.749 -11.085  1.00  0.00     0.001 A 
HETATM   38  C20 UNL     1     -15.480 -44.784  -9.706  1.00  0.00     0.000 A 
HETATM   39  C21 UNL     1     -15.342 -43.627  -8.981  1.00  0.00     0.001 A 
HETATM   40  C22 UNL     1     -15.130 -42.443  -9.636  1.00  0.00     0.008 A 
ENDBRANCH   1  35
TORSDOF 6
ENDMDL
