MODEL 5
REMARK VINA RESULT: -10.148676418      4.481      9.257
REMARK  6 active torsions:
REMARK  status: ('A' for Active; 'I' for Inactive)
REMARK    1  A    between atoms: C5_7  and  C6_8 
REMARK    2  A    between atoms: C6_8  and  C7_9 
REMARK    3  A    between atoms: C6_8  and  C17_29 
REMARK    4  A    between atoms: C7_9  and  N2_10 
REMARK       I    between atoms: N2_10  and  C8_12 
REMARK    5  A    between atoms: C8_12  and  C9_14 
REMARK    6  A    between atoms: C12_18  and  N3_19 
ROOT
HETATM    1  C6  UNL     1     -14.828 -41.163 -11.675  1.00  0.00     0.104 C 
ENDROOT
BRANCH   1   2
HETATM    2  C5  UNL     1     -16.159 -40.531 -12.013  1.00  0.00     0.092 A 
HETATM    3  N1  UNL     1     -17.351 -41.143 -12.007  1.00  0.00    -0.343 N 
HETATM    4  C4  UNL     1     -18.331 -40.288 -12.358  1.00  0.00     0.061 A 
ATOM      5  H1  UNL     1     -17.497 -42.125 -11.770  1.00  0.00     0.167 HD
HETATM    6  C3  UNL     1     -19.694 -40.399 -12.505  1.00  0.00     0.039 A 
HETATM    7  C23 UNL     1     -17.676 -39.076 -12.591  1.00  0.00     0.061 A 
HETATM    8  C2  UNL     1     -20.444 -39.313 -12.887  1.00  0.00    -0.054 A 
HETATM    9  C1  UNL     1     -21.926 -39.388 -13.060  1.00  0.00     0.049 C 
HETATM   10  C25 UNL     1     -19.816 -38.107 -13.122  1.00  0.00    -0.054 A 
HETATM   11  C24 UNL     1     -18.450 -37.993 -12.974  1.00  0.00     0.039 A 
HETATM   12  C26 UNL     1     -20.643 -36.937 -13.535  1.00  0.00     0.049 C 
HETATM   13  N6  UNL     1     -16.348 -39.248 -12.374  1.00  0.00    -0.343 N 
ATOM     14  H6  UNL     1     -15.624 -38.535 -12.467  1.00  0.00     0.167 HD
ENDBRANCH   1   2
BRANCH   1  15
HETATM   15  C7  UNL     1     -14.096 -40.156 -10.847  1.00  0.00     0.140 C 
BRANCH  15  16
HETATM   16  N2  UNL     1     -12.771 -39.839 -11.411  1.00  0.00    -0.356 N 
HETATM   17  C8  UNL     1     -12.562 -38.693 -12.187  1.00  0.00     0.255 C 
HETATM   18  O1  UNL     1     -13.615 -37.953 -12.343  1.00  0.00    -0.268 OA
ATOM     19  H2  UNL     1     -11.989 -40.469 -11.231  1.00  0.00     0.162 HD
BRANCH  17  20
HETATM   20  C9  UNL     1     -11.317 -38.275 -12.806  1.00  0.00     0.075 A 
HETATM   21  C10 UNL     1     -10.484 -37.403 -12.074  1.00  0.00     0.053 A 
HETATM   22 CL1  UNL     1     -11.009 -36.931 -10.467  1.00  0.00    -0.083 Cl
HETATM   23  C11 UNL     1      -9.297 -36.916 -12.549  1.00  0.00     0.055 A 
HETATM   24  C12 UNL     1      -8.840 -37.256 -13.796  1.00  0.00     0.044 A 
HETATM   25  C15 UNL     1      -9.634 -38.103 -14.532  1.00  0.00     0.055 A 
HETATM   26  C16 UNL     1     -10.854 -38.605 -14.044  1.00  0.00     0.053 A 
HETATM   27 CL2  UNL     1     -11.816 -39.642 -15.073  1.00  0.00    -0.083 Cl
BRANCH  24  28
HETATM   28  N3  UNL     1      -7.604 -36.747 -14.289  1.00  0.00    -0.301 N 
HETATM   29  C13 UNL     1      -7.413 -35.704 -15.101  1.00  0.00     0.206 A 
HETATM   30  N4  UNL     1      -6.092 -35.536 -15.344  1.00  0.00    -0.295 N 
HETATM   31  N5  UNL     1      -5.457 -36.487 -14.674  1.00  0.00    -0.295 N 
ATOM     32  H4  UNL     1      -5.667 -34.816 -15.929  1.00  0.00     0.187 HD
HETATM   33  C14 UNL     1      -6.386 -37.240 -14.020  1.00  0.00     0.206 A 
ATOM     34  H5  UNL     1      -4.448 -36.630 -14.651  1.00  0.00     0.187 HD
ENDBRANCH  24  28
ENDBRANCH  17  20
ENDBRANCH  15  16
ENDBRANCH   1  15
BRANCH   1  35
HETATM   35  C17 UNL     1     -15.055 -42.391 -10.887  1.00  0.00    -0.045 A 
HETATM   36  C18 UNL     1     -15.061 -42.406  -9.528  1.00  0.00     0.008 A 
HETATM   37  C19 UNL     1     -15.279 -43.586  -8.830  1.00  0.00     0.001 A 
HETATM   38  C20 UNL     1     -15.496 -44.759  -9.527  1.00  0.00     0.000 A 
HETATM   39  C21 UNL     1     -15.493 -44.755 -10.899  1.00  0.00     0.001 A 
HETATM   40  C22 UNL     1     -15.274 -43.579 -11.567  1.00  0.00     0.008 A 
ENDBRANCH   1  35
TORSDOF 6
ENDMDL
