MODEL 2
REMARK VINA RESULT: -10.602925960      0.357      1.536
REMARK  6 active torsions:
REMARK  status: ('A' for Active; 'I' for Inactive)
REMARK    1  A    between atoms: C5_7  and  C6_8 
REMARK    2  A    between atoms: C6_8  and  C7_9 
REMARK    3  A    between atoms: C6_8  and  C17_29 
REMARK    4  A    between atoms: C7_9  and  N2_10 
REMARK       I    between atoms: N2_10  and  C8_12 
REMARK    5  A    between atoms: C8_12  and  C9_14 
REMARK    6  A    between atoms: C12_18  and  N3_19 
ROOT
HETATM    1  C6  UNL     1     -14.458 -35.710 -13.592  1.00  0.00     0.104 C 
ENDROOT
BRANCH   1   2
HETATM    2  C5  UNL     1     -13.906 -35.370 -12.226  1.00  0.00     0.092 A 
HETATM    3  N1  UNL     1     -14.582 -34.806 -11.216  1.00  0.00    -0.343 N 
HETATM    4  C4  UNL     1     -13.788 -34.642 -10.140  1.00  0.00     0.061 A 
ATOM      5  H1  UNL     1     -15.566 -34.537 -11.255  1.00  0.00     0.167 HD
HETATM    6  C3  UNL     1     -13.977 -34.127  -8.878  1.00  0.00     0.039 A 
HETATM    7  C23 UNL     1     -12.547 -35.144 -10.536  1.00  0.00     0.061 A 
HETATM    8  C2  UNL     1     -12.940 -34.096  -7.976  1.00  0.00    -0.054 A 
HETATM    9  C1  UNL     1     -13.100 -33.547  -6.596  1.00  0.00     0.049 C 
HETATM   10  C25 UNL     1     -11.706 -34.588  -8.349  1.00  0.00    -0.054 A 
HETATM   11  C24 UNL     1     -11.515 -35.104  -9.613  1.00  0.00     0.039 A 
HETATM   12  C26 UNL     1     -10.591 -34.547  -7.360  1.00  0.00     0.049 C 
HETATM   13  N6  UNL     1     -12.642 -35.584 -11.816  1.00  0.00    -0.343 N 
ATOM     14  H6  UNL     1     -11.891 -36.001 -12.368  1.00  0.00     0.167 HD
ENDBRANCH   1   2
BRANCH   1  15
HETATM   15  C7  UNL     1     -15.784 -36.355 -13.347  1.00  0.00     0.140 C 
BRANCH  15  16
HETATM   16  N2  UNL     1     -15.679 -37.491 -12.412  1.00  0.00    -0.356 N 
HETATM   17  C8  UNL     1     -15.368 -38.781 -12.860  1.00  0.00     0.255 C 
HETATM   18  O1  UNL     1     -15.172 -38.871 -14.138  1.00  0.00    -0.268 OA
ATOM     19  H2  UNL     1     -15.837 -37.333 -11.417  1.00  0.00     0.162 HD
BRANCH  17  20
HETATM   20  C9  UNL     1     -15.246 -39.978 -12.049  1.00  0.00     0.075 A 
HETATM   21  C10 UNL     1     -16.310 -40.904 -12.085  1.00  0.00     0.053 A 
HETATM   22 CL1  UNL     1     -17.668 -40.542 -13.136  1.00  0.00    -0.083 Cl
HETATM   23  C11 UNL     1     -16.332 -42.059 -11.353  1.00  0.00     0.055 A 
HETATM   24  C12 UNL     1     -15.295 -42.389 -10.519  1.00  0.00     0.044 A 
HETATM   25  C15 UNL     1     -14.246 -41.503 -10.463  1.00  0.00     0.055 A 
HETATM   26  C16 UNL     1     -14.221 -40.315 -11.216  1.00  0.00     0.053 A 
HETATM   27 CL2  UNL     1     -12.862 -39.230 -11.042  1.00  0.00    -0.083 Cl
BRANCH  24  28
HETATM   28  N3  UNL     1     -15.320 -43.592  -9.757  1.00  0.00    -0.301 N 
HETATM   29  C13 UNL     1     -15.276 -43.722  -8.429  1.00  0.00     0.206 A 
HETATM   30  N4  UNL     1     -15.321 -45.030  -8.084  1.00  0.00    -0.295 N 
HETATM   31  N5  UNL     1     -15.394 -45.719  -9.213  1.00  0.00    -0.295 N 
ATOM     32  H4  UNL     1     -15.302 -45.411  -7.137  1.00  0.00     0.187 HD
HETATM   33  C14 UNL     1     -15.393 -44.837 -10.252  1.00  0.00     0.206 A 
ATOM     34  H5  UNL     1     -15.442 -46.735  -9.292  1.00  0.00     0.187 HD
ENDBRANCH  24  28
ENDBRANCH  17  20
ENDBRANCH  15  16
ENDBRANCH   1  15
BRANCH   1  35
HETATM   35  C17 UNL     1     -14.640 -34.468 -14.368  1.00  0.00    -0.045 A 
HETATM   36  C18 UNL     1     -14.820 -33.252 -13.787  1.00  0.00     0.008 A 
HETATM   37  C19 UNL     1     -14.987 -32.111 -14.558  1.00  0.00     0.001 A 
HETATM   38  C20 UNL     1     -14.969 -32.212 -15.936  1.00  0.00     0.000 A 
HETATM   39  C21 UNL     1     -14.788 -33.434 -16.533  1.00  0.00     0.001 A 
HETATM   40  C22 UNL     1     -14.625 -34.547 -15.752  1.00  0.00     0.008 A 
ENDBRANCH   1  35
TORSDOF 6
ENDMDL
