MODEL 1
REMARK VINA RESULT: -11.704362322      0.000      0.000
REMARK  6 active torsions:
REMARK  status: ('A' for Active; 'I' for Inactive)
REMARK    1  A    between atoms: C1_2  and  C2_4 
REMARK    2  A    between atoms: C3_5  and  C4_6 
REMARK    3  A    between atoms: C4_6  and  C5_7 
REMARK    4  A    between atoms: C5_7  and  C6_8 
REMARK    5  A    between atoms: C6_8  and  O3_9 
REMARK    6  A    between atoms: O3_9  and  C7_10 
ROOT
HETATM    1  C2  UNL     1      -8.549 -22.167   6.091  1.00  0.00     0.119 A 
HETATM    2  C3  UNL     1      -8.378 -21.937   4.749  1.00  0.00    -0.012 A 
HETATM    3  C17 UNL     1      -9.086 -20.774   4.445  1.00  0.00     0.000 A 
HETATM    4  C18 UNL     1      -9.314 -20.023   3.301  1.00  0.00     0.014 A 
HETATM    5  C19 UNL     1     -10.089 -18.882   3.337  1.00  0.00     0.002 A 
HETATM    6  C20 UNL     1     -10.660 -18.470   4.544  1.00  0.00     0.009 A 
HETATM    7  C21 UNL     1     -10.428 -19.231   5.695  1.00  0.00    -0.030 A 
HETATM    8  C22 UNL     1      -9.653 -20.357   5.620  1.00  0.00     0.052 A 
HETATM    9  N1  UNL     1      -9.330 -21.187   6.591  1.00  0.00    -0.340 N 
HETATM   10  C23 UNL     1      -9.817 -20.950   7.938  1.00  0.00     0.130 C 
HETATM   11  C24 UNL     1     -11.050 -20.074   7.935  1.00  0.00     0.025 C 
HETATM   12  C25 UNL     1     -10.979 -18.890   7.029  1.00  0.00     0.042 C 
ENDROOT
BRANCH   2  13
HETATM   13  C4  UNL     1      -7.631 -22.723   3.730  1.00  0.00     0.044 C 
BRANCH  13  14
HETATM   14  C5  UNL     1      -6.155 -22.476   3.797  1.00  0.00     0.031 C 
BRANCH  14  15
HETATM   15  C6  UNL     1      -5.760 -21.145   3.225  1.00  0.00     0.176 C 
BRANCH  15  16
HETATM   16  O3  UNL     1      -6.135 -20.808   2.019  1.00  0.00    -0.350 OA
BRANCH  16  17
HETATM   17  C7  UNL     1      -6.080 -20.221   0.856  1.00  0.00     0.079 A 
HETATM   18  C8  UNL     1      -5.494 -18.977   0.666  1.00  0.00     0.037 A 
HETATM   19  C9  UNL     1      -5.461 -18.393  -0.572  1.00  0.00     0.004 A 
HETATM   20  C10 UNL     1      -6.009 -19.022  -1.666  1.00  0.00     0.012 A 
HETATM   21  C11 UNL     1      -6.593 -20.251  -1.498  1.00  0.00    -0.023 A 
HETATM   22  C12 UNL     1      -7.159 -20.923  -2.569  1.00  0.00     0.012 A 
HETATM   23  C16 UNL     1      -6.643 -20.862  -0.275  1.00  0.00     0.007 A 
HETATM   24  C13 UNL     1      -7.750 -22.154  -2.425  1.00  0.00     0.001 A 
HETATM   25  C14 UNL     1      -7.800 -22.768  -1.196  1.00  0.00     0.001 A 
HETATM   26  C15 UNL     1      -7.236 -22.105  -0.114  1.00  0.00     0.015 A 
ENDBRANCH  16  17
ENDBRANCH  15  16
ENDBRANCH  14  15
ENDBRANCH  13  14
ENDBRANCH   2  13
BRANCH   1  27
HETATM   27  C1  UNL     1      -7.978 -23.257   6.858  1.00  0.00     0.227 C 
HETATM   28  O1  UNL     1      -6.724 -23.315   7.051  1.00  0.00    -0.643 OA
HETATM   29  O2  UNL     1      -8.732 -24.286   7.419  1.00  0.00    -0.643 OA
ENDBRANCH   1  27
TORSDOF 6
ENDMDL
