MODEL 18
REMARK VINA RESULT: -8.849010436      2.208      7.280
REMARK  6 active torsions:
REMARK  status: ('A' for Active; 'I' for Inactive)
REMARK    1  A    between atoms: C1_2  and  C2_4 
REMARK    2  A    between atoms: C3_5  and  C4_6 
REMARK    3  A    between atoms: C4_6  and  C5_7 
REMARK    4  A    between atoms: C5_7  and  C6_8 
REMARK    5  A    between atoms: C6_8  and  O3_9 
REMARK    6  A    between atoms: O3_9  and  C7_10 
ROOT
HETATM    1  C2  UNL     1      -7.216 -21.639  -0.231  1.00  0.00     0.119 A 
HETATM    2  C3  UNL     1      -7.395 -21.574   1.127  1.00  0.00    -0.012 A 
HETATM    3  C17 UNL     1      -6.813 -20.380   1.556  1.00  0.00     0.000 A 
HETATM    4  C18 UNL     1      -6.655 -19.738   2.775  1.00  0.00     0.014 A 
HETATM    5  C19 UNL     1      -6.008 -18.522   2.863  1.00  0.00     0.002 A 
HETATM    6  C20 UNL     1      -5.500 -17.922   1.708  1.00  0.00     0.009 A 
HETATM    7  C21 UNL     1      -5.662 -18.575   0.481  1.00  0.00    -0.030 A 
HETATM    8  C22 UNL     1      -6.309 -19.780   0.433  1.00  0.00     0.052 A 
HETATM    9  N1  UNL     1      -6.552 -20.531  -0.622  1.00  0.00    -0.340 N 
HETATM   10  C23 UNL     1      -6.109 -20.098  -1.936  1.00  0.00     0.130 C 
HETATM   11  C24 UNL     1      -4.978 -19.099  -1.837  1.00  0.00     0.025 C 
HETATM   12  C25 UNL     1      -5.166 -18.034  -0.808  1.00  0.00     0.042 C 
ENDROOT
BRANCH   2  13
HETATM   13  C4  UNL     1      -8.040 -22.543   2.055  1.00  0.00     0.044 C 
BRANCH  13  14
HETATM   14  C5  UNL     1      -7.204 -22.804   3.270  1.00  0.00     0.031 C 
BRANCH  14  15
HETATM   15  C6  UNL     1      -8.018 -22.909   4.527  1.00  0.00     0.176 C 
BRANCH  15  16
HETATM   16  O3  UNL     1      -8.411 -21.829   5.151  1.00  0.00    -0.350 OA
BRANCH  16  17
HETATM   17  C7  UNL     1      -9.147 -21.079   5.924  1.00  0.00     0.079 A 
HETATM   18  C8  UNL     1      -9.270 -21.297   7.289  1.00  0.00     0.037 A 
HETATM   19  C9  UNL     1     -10.058 -20.488   8.064  1.00  0.00     0.004 A 
HETATM   20  C10 UNL     1     -10.751 -19.435   7.512  1.00  0.00     0.012 A 
HETATM   21  C11 UNL     1     -10.641 -19.205   6.165  1.00  0.00    -0.023 A 
HETATM   22  C12 UNL     1     -11.321 -18.158   5.564  1.00  0.00     0.012 A 
HETATM   23  C16 UNL     1      -9.864 -19.994   5.362  1.00  0.00     0.007 A 
HETATM   24  C13 UNL     1     -11.227 -17.909   4.217  1.00  0.00     0.001 A 
HETATM   25  C14 UNL     1     -10.445 -18.702   3.410  1.00  0.00     0.001 A 
HETATM   26  C15 UNL     1      -9.759 -19.755   4.001  1.00  0.00     0.015 A 
ENDBRANCH  16  17
ENDBRANCH  15  16
ENDBRANCH  14  15
ENDBRANCH  13  14
ENDBRANCH   2  13
BRANCH   1  27
HETATM   27  C1  UNL     1      -7.675 -22.694  -1.112  1.00  0.00     0.227 C 
HETATM   28  O1  UNL     1      -7.132 -23.842  -1.073  1.00  0.00    -0.643 OA
HETATM   29  O2  UNL     1      -8.706 -22.537  -2.037  1.00  0.00    -0.643 OA
ENDBRANCH   1  27
TORSDOF 6
ENDMDL
