MODEL 2
REMARK VINA RESULT: -11.173391233      0.505      1.965
REMARK  6 active torsions:
REMARK  status: ('A' for Active; 'I' for Inactive)
REMARK    1  A    between atoms: C1_2  and  C2_4 
REMARK    2  A    between atoms: C3_5  and  C4_6 
REMARK    3  A    between atoms: C4_6  and  C5_7 
REMARK    4  A    between atoms: C5_7  and  C6_8 
REMARK    5  A    between atoms: C6_8  and  O3_9 
REMARK    6  A    between atoms: O3_9  and  C7_10 
ROOT
HETATM    1  C2  UNL     1      -8.782 -22.028   6.338  1.00  0.00     0.119 A 
HETATM    2  C3  UNL     1      -8.611 -21.923   4.981  1.00  0.00    -0.012 A 
HETATM    3  C17 UNL     1      -9.257 -20.751   4.582  1.00  0.00     0.000 A 
HETATM    4  C18 UNL     1      -9.453 -20.090   3.378  1.00  0.00     0.014 A 
HETATM    5  C19 UNL     1     -10.163 -18.908   3.320  1.00  0.00     0.002 A 
HETATM    6  C20 UNL     1     -10.699 -18.363   4.490  1.00  0.00     0.009 A 
HETATM    7  C21 UNL     1     -10.498 -19.035   5.700  1.00  0.00    -0.030 A 
HETATM    8  C22 UNL     1      -9.788 -20.205   5.719  1.00  0.00     0.052 A 
HETATM    9  N1  UNL     1      -9.502 -20.966   6.756  1.00  0.00    -0.340 N 
HETATM   10  C23 UNL     1      -9.962 -20.588   8.080  1.00  0.00     0.130 C 
HETATM   11  C24 UNL     1     -11.145 -19.648   8.008  1.00  0.00     0.025 C 
HETATM   12  C25 UNL     1     -11.017 -18.551   7.003  1.00  0.00     0.042 C 
ENDROOT
BRANCH   2  13
HETATM   13  C4  UNL     1      -7.919 -22.834   4.030  1.00  0.00     0.044 C 
BRANCH  13  14
HETATM   14  C5  UNL     1      -6.429 -22.683   4.086  1.00  0.00     0.031 C 
BRANCH  14  15
HETATM   15  C6  UNL     1      -5.918 -21.593   3.191  1.00  0.00     0.176 C 
BRANCH  15  16
HETATM   16  O3  UNL     1      -6.498 -21.355   2.043  1.00  0.00    -0.350 OA
BRANCH  16  17
HETATM   17  C7  UNL     1      -6.795 -21.513   0.783  1.00  0.00     0.079 A 
HETATM   18  C8  UNL     1      -7.467 -22.628   0.301  1.00  0.00     0.037 A 
HETATM   19  C9  UNL     1      -7.756 -22.758  -1.031  1.00  0.00     0.004 A 
HETATM   20  C10 UNL     1      -7.389 -21.786  -1.933  1.00  0.00     0.012 A 
HETATM   21  C11 UNL     1      -6.724 -20.678  -1.475  1.00  0.00    -0.023 A 
HETATM   22  C12 UNL     1      -6.332 -19.673  -2.346  1.00  0.00     0.012 A 
HETATM   23  C16 UNL     1      -6.419 -20.517  -0.152  1.00  0.00     0.007 A 
HETATM   24  C13 UNL     1      -5.665 -18.554  -1.911  1.00  0.00     0.001 A 
HETATM   25  C14 UNL     1      -5.359 -18.394  -0.580  1.00  0.00     0.001 A 
HETATM   26  C15 UNL     1      -5.746 -19.393   0.302  1.00  0.00     0.015 A 
ENDBRANCH  16  17
ENDBRANCH  15  16
ENDBRANCH  14  15
ENDBRANCH  13  14
ENDBRANCH   2  13
BRANCH   1  27
HETATM   27  C1  UNL     1      -8.265 -23.078   7.193  1.00  0.00     0.227 C 
HETATM   28  O1  UNL     1      -7.017 -23.167   7.415  1.00  0.00    -0.643 OA
HETATM   29  O2  UNL     1      -9.066 -24.037   7.811  1.00  0.00    -0.643 OA
ENDBRANCH   1  27
TORSDOF 6
ENDMDL
