MODEL 15
REMARK VINA RESULT: -8.991786161      2.075      7.481
REMARK  6 active torsions:
REMARK  status: ('A' for Active; 'I' for Inactive)
REMARK    1  A    between atoms: C1_2  and  C2_4 
REMARK    2  A    between atoms: C3_5  and  C4_6 
REMARK    3  A    between atoms: C4_6  and  C5_7 
REMARK    4  A    between atoms: C5_7  and  C6_8 
REMARK    5  A    between atoms: C6_8  and  O3_9 
REMARK    6  A    between atoms: O3_9  and  C7_10 
ROOT
HETATM    1  C2  UNL     1      -6.551 -20.770   1.519  1.00  0.00     0.119 A 
HETATM    2  C3  UNL     1      -7.338 -21.804   1.077  1.00  0.00    -0.012 A 
HETATM    3  C17 UNL     1      -7.394 -21.703  -0.314  1.00  0.00     0.000 A 
HETATM    4  C18 UNL     1      -8.005 -22.416  -1.334  1.00  0.00     0.014 A 
HETATM    5  C19 UNL     1      -7.858 -22.043  -2.655  1.00  0.00     0.002 A 
HETATM    6  C20 UNL     1      -7.082 -20.927  -2.977  1.00  0.00     0.009 A 
HETATM    7  C21 UNL     1      -6.469 -20.211  -1.944  1.00  0.00    -0.030 A 
HETATM    8  C22 UNL     1      -6.638 -20.611  -0.646  1.00  0.00     0.052 A 
HETATM    9  N1  UNL     1      -6.141 -20.064   0.445  1.00  0.00    -0.340 N 
HETATM   10  C23 UNL     1      -5.299 -18.884   0.344  1.00  0.00     0.130 C 
HETATM   11  C24 UNL     1      -5.535 -18.145  -0.954  1.00  0.00     0.025 C 
HETATM   12  C25 UNL     1      -5.623 -19.013  -2.166  1.00  0.00     0.042 C 
ENDROOT
BRANCH   2  13
HETATM   13  C4  UNL     1      -8.056 -22.856   1.845  1.00  0.00     0.044 C 
BRANCH  13  14
HETATM   14  C5  UNL     1      -9.254 -22.314   2.563  1.00  0.00     0.031 C 
BRANCH  14  15
HETATM   15  C6  UNL     1      -9.015 -22.115   4.031  1.00  0.00     0.176 C 
BRANCH  15  16
HETATM   16  O3  UNL     1      -9.425 -21.025   4.625  1.00  0.00    -0.350 OA
BRANCH  16  17
HETATM   17  C7  UNL     1     -10.074 -19.905   4.782  1.00  0.00     0.079 A 
HETATM   18  C8  UNL     1     -10.460 -19.102   3.718  1.00  0.00     0.037 A 
HETATM   19  C9  UNL     1     -11.136 -17.930   3.926  1.00  0.00     0.004 A 
HETATM   20  C10 UNL     1     -11.454 -17.513   5.199  1.00  0.00     0.012 A 
HETATM   21  C11 UNL     1     -11.080 -18.292   6.262  1.00  0.00    -0.023 A 
HETATM   22  C12 UNL     1     -11.377 -17.913   7.562  1.00  0.00     0.012 A 
HETATM   23  C16 UNL     1     -10.404 -19.468   6.089  1.00  0.00     0.007 A 
HETATM   24  C13 UNL     1     -11.013 -18.677   8.643  1.00  0.00     0.001 A 
HETATM   25  C14 UNL     1     -10.332 -19.859   8.468  1.00  0.00     0.001 A 
HETATM   26  C15 UNL     1     -10.029 -20.250   7.171  1.00  0.00     0.015 A 
ENDBRANCH  16  17
ENDBRANCH  15  16
ENDBRANCH  14  15
ENDBRANCH  13  14
ENDBRANCH   2  13
BRANCH   1  27
HETATM   27  C1  UNL     1      -6.193 -20.487   2.894  1.00  0.00     0.227 C 
HETATM   28  O1  UNL     1      -6.604 -19.424   3.457  1.00  0.00    -0.643 OA
HETATM   29  O2  UNL     1      -5.398 -21.324   3.676  1.00  0.00    -0.643 OA
ENDBRANCH   1  27
TORSDOF 6
ENDMDL
