MODEL 12
REMARK VINA RESULT: -9.354644440      1.897      7.311
REMARK  6 active torsions:
REMARK  status: ('A' for Active; 'I' for Inactive)
REMARK    1  A    between atoms: C1_2  and  C2_4 
REMARK    2  A    between atoms: C3_5  and  C4_6 
REMARK    3  A    between atoms: C4_6  and  C5_7 
REMARK    4  A    between atoms: C5_7  and  C6_8 
REMARK    5  A    between atoms: C6_8  and  O3_9 
REMARK    6  A    between atoms: O3_9  and  C7_10 
ROOT
HETATM    1  C2  UNL     1      -6.575 -20.761   1.516  1.00  0.00     0.119 A 
HETATM    2  C3  UNL     1      -7.372 -21.778   1.056  1.00  0.00    -0.012 A 
HETATM    3  C17 UNL     1      -7.404 -21.670  -0.335  1.00  0.00     0.000 A 
HETATM    4  C18 UNL     1      -8.010 -22.368  -1.369  1.00  0.00     0.014 A 
HETATM    5  C19 UNL     1      -7.835 -21.991  -2.685  1.00  0.00     0.002 A 
HETATM    6  C20 UNL     1      -7.033 -20.888  -2.990  1.00  0.00     0.009 A 
HETATM    7  C21 UNL     1      -6.425 -20.187  -1.942  1.00  0.00    -0.030 A 
HETATM    8  C22 UNL     1      -6.622 -20.590  -0.649  1.00  0.00     0.052 A 
HETATM    9  N1  UNL     1      -6.134 -20.057   0.452  1.00  0.00    -0.340 N 
HETATM   10  C23 UNL     1      -5.270 -18.893   0.371  1.00  0.00     0.130 C 
HETATM   11  C24 UNL     1      -5.471 -18.143  -0.927  1.00  0.00     0.025 C 
HETATM   12  C25 UNL     1      -5.554 -19.004  -2.145  1.00  0.00     0.042 C 
ENDROOT
BRANCH   2  13
HETATM   13  C4  UNL     1      -8.122 -22.821   1.807  1.00  0.00     0.044 C 
BRANCH  13  14
HETATM   14  C5  UNL     1      -9.082 -22.228   2.792  1.00  0.00     0.031 C 
BRANCH  14  15
HETATM   15  C6  UNL     1      -8.742 -22.565   4.214  1.00  0.00     0.176 C 
BRANCH  15  16
HETATM   16  O3  UNL     1      -8.787 -21.643   5.140  1.00  0.00    -0.350 OA
BRANCH  16  17
HETATM   17  C7  UNL     1      -9.314 -20.840   6.022  1.00  0.00     0.079 A 
HETATM   18  C8  UNL     1      -9.200 -21.043   7.390  1.00  0.00     0.037 A 
HETATM   19  C9  UNL     1      -9.773 -20.178   8.284  1.00  0.00     0.004 A 
HETATM   20  C10 UNL     1     -10.479 -19.079   7.851  1.00  0.00     0.012 A 
HETATM   21  C11 UNL     1     -10.603 -18.862   6.503  1.00  0.00    -0.023 A 
HETATM   22  C12 UNL     1     -11.306 -17.771   6.019  1.00  0.00     0.012 A 
HETATM   23  C16 UNL     1     -10.044 -19.707   5.584  1.00  0.00     0.007 A 
HETATM   24  C13 UNL     1     -11.444 -17.533   4.674  1.00  0.00     0.001 A 
HETATM   25  C14 UNL     1     -10.882 -18.383   3.751  1.00  0.00     0.001 A 
HETATM   26  C15 UNL     1     -10.174 -19.480   4.223  1.00  0.00     0.015 A 
ENDBRANCH  16  17
ENDBRANCH  15  16
ENDBRANCH  14  15
ENDBRANCH  13  14
ENDBRANCH   2  13
BRANCH   1  27
HETATM   27  C1  UNL     1      -6.235 -20.490   2.898  1.00  0.00     0.227 C 
HETATM   28  O1  UNL     1      -5.392 -21.221   3.505  1.00  0.00    -0.643 OA
HETATM   29  O2  UNL     1      -6.788 -19.448   3.641  1.00  0.00    -0.643 OA
ENDBRANCH   1  27
TORSDOF 6
ENDMDL
