MODEL 2
REMARK VINA RESULT: -7.418955555      0.030      2.053
REMARK  4 active torsions:
REMARK  status: ('A' for Active; 'I' for Inactive)
REMARK    1  A    between atoms: C1_2  and  C2_4 
REMARK    2  A    between atoms: C2_4  and  C3_5 
REMARK    3  A    between atoms: C8_10  and  N1_11 
REMARK    4  A    between atoms: N1_11  and  C9_13 
ROOT
HETATM    1  C3  UNL     1      34.647  -6.654  56.012  1.00  0.00    -0.021 A 
HETATM    2  C4  UNL     1      34.333  -7.997  56.096  1.00  0.00     0.010 A 
HETATM    3  C5  UNL     1      34.002  -8.634  54.902  1.00  0.00     0.001 A 
HETATM    4  C6  UNL     1      33.991  -7.953  53.710  1.00  0.00     0.002 A 
HETATM    5  C7  UNL     1      34.311  -6.617  53.667  1.00  0.00     0.030 A 
HETATM    6  C8  UNL     1      34.641  -5.962  54.826  1.00  0.00     0.039 A 
ENDROOT
BRANCH   6   7
HETATM    7  N1  UNL     1      34.991  -4.591  54.748  1.00  0.00    -0.353 N 
ATOM      8  H1  UNL     1      35.212  -4.095  55.612  1.00  0.00     0.166 HD
BRANCH   7   9
HETATM    9  C9  UNL     1      35.050  -3.880  53.531  1.00  0.00     0.076 A 
HETATM   10  C10 UNL     1      36.179  -3.859  52.765  1.00  0.00     0.062 A 
HETATM   11 CL1  UNL     1      37.603  -4.743  53.289  1.00  0.00    -0.082 Cl
HETATM   12  C11 UNL     1      36.245  -3.150  51.561  1.00  0.00     0.026 A 
HETATM   13  C12 UNL     1      35.140  -2.451  51.129  1.00  0.00     0.003 A 
HETATM   14  C13 UNL     1      33.996  -2.461  51.886  1.00  0.00     0.026 A 
HETATM   15  C14 UNL     1      33.956  -3.180  53.091  1.00  0.00     0.062 A 
HETATM   16 CL2  UNL     1      32.515  -3.199  54.067  1.00  0.00    -0.082 Cl
ENDBRANCH   7   9
ENDBRANCH   6   7
BRANCH   1  17
HETATM   17  C2  UNL     1      35.010  -5.881  57.229  1.00  0.00     0.153 C 
BRANCH  17  18
HETATM   18  C1  UNL     1      33.885  -5.304  57.944  1.00  0.00     0.177 C 
HETATM   19  O1  UNL     1      33.105  -4.504  57.381  1.00  0.00    -0.648 OA
HETATM   20  O2  UNL     1      33.641  -5.623  59.278  1.00  0.00    -0.648 OA
ENDBRANCH  17  18
ENDBRANCH   1  17
TORSDOF 4
ENDMDL
