MODEL 5
REMARK VINA RESULT: -6.174314423      2.870      5.767
REMARK  4 active torsions:
REMARK  status: ('A' for Active; 'I' for Inactive)
REMARK    1  A    between atoms: C1_2  and  C2_4 
REMARK    2  A    between atoms: C2_4  and  C3_5 
REMARK    3  A    between atoms: C8_10  and  N1_11 
REMARK    4  A    between atoms: N1_11  and  C9_13 
ROOT
HETATM    1  C3  UNL     1      35.308  -4.857  53.742  1.00  0.00    -0.021 A 
HETATM    2  C4  UNL     1      36.385  -4.297  53.081  1.00  0.00     0.010 A 
HETATM    3  C5  UNL     1      37.650  -4.624  53.565  1.00  0.00     0.001 A 
HETATM    4  C6  UNL     1      37.806  -5.459  54.643  1.00  0.00     0.002 A 
HETATM    5  C7  UNL     1      36.711  -5.997  55.273  1.00  0.00     0.030 A 
HETATM    6  C8  UNL     1      35.452  -5.695  54.821  1.00  0.00     0.039 A 
ENDROOT
BRANCH   6   7
HETATM    7  N1  UNL     1      34.341  -6.285  55.474  1.00  0.00    -0.353 N 
ATOM      8  H1  UNL     1      33.515  -5.712  55.641  1.00  0.00     0.166 HD
BRANCH   7   9
HETATM    9  C9  UNL     1      34.326  -7.629  55.903  1.00  0.00     0.076 A 
HETATM   10  C10 UNL     1      34.447  -7.963  57.220  1.00  0.00     0.062 A 
HETATM   11 CL1  UNL     1      34.618  -6.699  58.427  1.00  0.00    -0.082 Cl
HETATM   12  C11 UNL     1      34.439  -9.294  57.651  1.00  0.00     0.026 A 
HETATM   13  C12 UNL     1      34.304 -10.302  56.723  1.00  0.00     0.003 A 
HETATM   14  C13 UNL     1      34.181  -9.984  55.394  1.00  0.00     0.026 A 
HETATM   15  C14 UNL     1      34.192  -8.640  54.987  1.00  0.00     0.062 A 
HETATM   16 CL2  UNL     1      34.044  -8.219  53.306  1.00  0.00    -0.082 Cl
ENDBRANCH   7   9
ENDBRANCH   6   7
BRANCH   1  17
HETATM   17  C2  UNL     1      33.915  -4.569  53.307  1.00  0.00     0.153 C 
BRANCH  17  18
HETATM   18  C1  UNL     1      33.705  -3.231  52.783  1.00  0.00     0.177 C 
HETATM   19  O1  UNL     1      33.621  -2.244  53.547  1.00  0.00    -0.648 OA
HETATM   20  O2  UNL     1      33.588  -3.006  51.413  1.00  0.00    -0.648 OA
ENDBRANCH  17  18
ENDBRANCH   1  17
TORSDOF 4
ENDMDL
