MODEL 3
REMARK VINA RESULT: -6.437921654      1.238      2.508
REMARK  4 active torsions:
REMARK  status: ('A' for Active; 'I' for Inactive)
REMARK    1  A    between atoms: C1_2  and  C2_4 
REMARK    2  A    between atoms: C2_4  and  C3_5 
REMARK    3  A    between atoms: C8_10  and  N1_11 
REMARK    4  A    between atoms: N1_11  and  C9_13 
ROOT
HETATM    1  C3  UNL     1      34.446  -7.226  56.439  1.00  0.00    -0.021 A 
HETATM    2  C4  UNL     1      34.194  -8.584  56.473  1.00  0.00     0.010 A 
HETATM    3  C5  UNL     1      33.877  -9.187  55.258  1.00  0.00     0.001 A 
HETATM    4  C6  UNL     1      33.820  -8.460  54.094  1.00  0.00     0.002 A 
HETATM    5  C7  UNL     1      34.078  -7.111  54.102  1.00  0.00     0.030 A 
HETATM    6  C8  UNL     1      34.393  -6.487  55.282  1.00  0.00     0.039 A 
ENDROOT
BRANCH   6   7
HETATM    7  N1  UNL     1      34.680  -5.100  55.256  1.00  0.00    -0.353 N 
ATOM      8  H1  UNL     1      34.514  -4.553  56.100  1.00  0.00     0.166 HD
BRANCH   7   9
HETATM    9  C9  UNL     1      35.186  -4.440  54.116  1.00  0.00     0.076 A 
HETATM   10  C10 UNL     1      36.470  -4.620  53.693  1.00  0.00     0.062 A 
HETATM   11 CL1  UNL     1      37.533  -5.705  54.573  1.00  0.00    -0.082 Cl
HETATM   12  C11 UNL     1      36.978  -3.963  52.567  1.00  0.00     0.026 A 
HETATM   13  C12 UNL     1      36.162  -3.110  51.859  1.00  0.00     0.003 A 
HETATM   14  C13 UNL     1      34.868  -2.917  52.270  1.00  0.00     0.026 A 
HETATM   15  C14 UNL     1      34.382  -3.587  53.404  1.00  0.00     0.062 A 
HETATM   16 CL2  UNL     1      32.744  -3.350  53.943  1.00  0.00    -0.082 Cl
ENDBRANCH   7   9
ENDBRANCH   6   7
BRANCH   1  17
HETATM   17  C2  UNL     1      34.789  -6.485  57.683  1.00  0.00     0.153 C 
BRANCH  17  18
HETATM   18  C1  UNL     1      34.636  -7.248  58.909  1.00  0.00     0.177 C 
HETATM   19  O1  UNL     1      33.754  -6.954  59.746  1.00  0.00    -0.648 OA
HETATM   20  O2  UNL     1      35.468  -8.330  59.191  1.00  0.00    -0.648 OA
ENDBRANCH  17  18
ENDBRANCH   1  17
TORSDOF 4
ENDMDL
