MODEL 6
REMARK VINA RESULT: -5.934616651      2.861      5.941
REMARK  4 active torsions:
REMARK  status: ('A' for Active; 'I' for Inactive)
REMARK    1  A    between atoms: C1_2  and  C2_4 
REMARK    2  A    between atoms: C2_4  and  C3_5 
REMARK    3  A    between atoms: C8_10  and  N1_11 
REMARK    4  A    between atoms: N1_11  and  C9_13 
ROOT
HETATM    1  C3  UNL     1      35.291  -4.881  53.747  1.00  0.00    -0.021 A 
HETATM    2  C4  UNL     1      36.333  -4.281  53.066  1.00  0.00     0.010 A 
HETATM    3  C5  UNL     1      37.620  -4.587  53.504  1.00  0.00     0.001 A 
HETATM    4  C6  UNL     1      37.830  -5.441  54.559  1.00  0.00     0.002 A 
HETATM    5  C7  UNL     1      36.767  -6.019  55.210  1.00  0.00     0.030 A 
HETATM    6  C8  UNL     1      35.488  -5.737  54.803  1.00  0.00     0.039 A 
ENDROOT
BRANCH   6   7
HETATM    7  N1  UNL     1      34.413  -6.368  55.477  1.00  0.00    -0.353 N 
ATOM      8  H1  UNL     1      33.460  -6.098  55.232  1.00  0.00     0.166 HD
BRANCH   7   9
HETATM    9  C9  UNL     1      34.598  -7.351  56.471  1.00  0.00     0.076 A 
HETATM   10  C10 UNL     1      34.817  -8.660  56.154  1.00  0.00     0.062 A 
HETATM   11 CL1  UNL     1      34.882  -9.149  54.469  1.00  0.00    -0.082 Cl
HETATM   12  C11 UNL     1      34.995  -9.640  57.136  1.00  0.00     0.026 A 
HETATM   13  C12 UNL     1      34.951  -9.281  58.464  1.00  0.00     0.003 A 
HETATM   14  C13 UNL     1      34.732  -7.969  58.801  1.00  0.00     0.026 A 
HETATM   15  C14 UNL     1      34.556  -7.004  57.797  1.00  0.00     0.062 A 
HETATM   16 CL2  UNL     1      34.271  -5.337  58.206  1.00  0.00    -0.082 Cl
ENDBRANCH   7   9
ENDBRANCH   6   7
BRANCH   1  17
HETATM   17  C2  UNL     1      33.879  -4.617  53.362  1.00  0.00     0.153 C 
BRANCH  17  18
HETATM   18  C1  UNL     1      33.625  -3.280  52.854  1.00  0.00     0.177 C 
HETATM   19  O1  UNL     1      33.522  -2.304  53.629  1.00  0.00    -0.648 OA
HETATM   20  O2  UNL     1      33.487  -3.046  51.487  1.00  0.00    -0.648 OA
ENDBRANCH  17  18
ENDBRANCH   1  17
TORSDOF 4
ENDMDL
