MODEL 1
REMARK VINA RESULT: -7.434209847      0.000      0.000
REMARK  4 active torsions:
REMARK  status: ('A' for Active; 'I' for Inactive)
REMARK    1  A    between atoms: C1_2  and  C2_4 
REMARK    2  A    between atoms: C2_4  and  C3_5 
REMARK    3  A    between atoms: C8_10  and  N1_11 
REMARK    4  A    between atoms: N1_11  and  C9_13 
ROOT
HETATM    1  C3  UNL     1      34.646  -6.647  56.014  1.00  0.00    -0.021 A 
HETATM    2  C4  UNL     1      34.299  -7.981  56.101  1.00  0.00     0.010 A 
HETATM    3  C5  UNL     1      33.969  -8.617  54.906  1.00  0.00     0.001 A 
HETATM    4  C6  UNL     1      33.992  -7.943  53.710  1.00  0.00     0.002 A 
HETATM    5  C7  UNL     1      34.344  -6.616  53.665  1.00  0.00     0.030 A 
HETATM    6  C8  UNL     1      34.673  -5.961  54.824  1.00  0.00     0.039 A 
ENDROOT
BRANCH   6   7
HETATM    7  N1  UNL     1      35.057  -4.600  54.743  1.00  0.00    -0.353 N 
ATOM      8  H1  UNL     1      35.331  -4.120  55.601  1.00  0.00     0.166 HD
BRANCH   7   9
HETATM    9  C9  UNL     1      35.079  -3.877  53.532  1.00  0.00     0.076 A 
HETATM   10  C10 UNL     1      33.988  -3.187  53.089  1.00  0.00     0.062 A 
HETATM   11 CL1  UNL     1      32.514  -3.181  54.043  1.00  0.00    -0.082 Cl
HETATM   12  C11 UNL     1      34.002  -2.474  51.886  1.00  0.00     0.026 A 
HETATM   13  C12 UNL     1      35.147  -2.462  51.122  1.00  0.00     0.003 A 
HETATM   14  C13 UNL     1      36.253  -3.150  51.553  1.00  0.00     0.026 A 
HETATM   15  C14 UNL     1      36.214  -3.859  52.763  1.00  0.00     0.062 A 
HETATM   16 CL2  UNL     1      37.605  -4.742  53.322  1.00  0.00    -0.082 Cl
ENDBRANCH   7   9
ENDBRANCH   6   7
BRANCH   1  17
HETATM   17  C2  UNL     1      35.010  -5.875  57.232  1.00  0.00     0.153 C 
BRANCH  17  18
HETATM   18  C1  UNL     1      33.886  -5.289  57.942  1.00  0.00     0.177 C 
HETATM   19  O1  UNL     1      33.102  -4.500  57.369  1.00  0.00    -0.648 OA
HETATM   20  O2  UNL     1      33.647  -5.588  59.282  1.00  0.00    -0.648 OA
ENDBRANCH  17  18
ENDBRANCH   1  17
TORSDOF 4
ENDMDL
