MODEL 4
REMARK VINA RESULT: -6.232032525      2.855      5.795
REMARK  4 active torsions:
REMARK  status: ('A' for Active; 'I' for Inactive)
REMARK    1  A    between atoms: C1_2  and  C2_4 
REMARK    2  A    between atoms: C2_4  and  C3_5 
REMARK    3  A    between atoms: C8_10  and  N1_11 
REMARK    4  A    between atoms: N1_11  and  C9_13 
ROOT
HETATM    1  C3  UNL     1      35.309  -4.834  53.732  1.00  0.00    -0.021 A 
HETATM    2  C4  UNL     1      36.374  -4.280  53.048  1.00  0.00     0.010 A 
HETATM    3  C5  UNL     1      37.647  -4.597  53.517  1.00  0.00     0.001 A 
HETATM    4  C6  UNL     1      37.822  -5.418  54.604  1.00  0.00     0.002 A 
HETATM    5  C7  UNL     1      36.738  -5.951  55.257  1.00  0.00     0.030 A 
HETATM    6  C8  UNL     1      35.471  -5.658  54.820  1.00  0.00     0.039 A 
ENDROOT
BRANCH   6   7
HETATM    7  N1  UNL     1      34.372  -6.242  55.498  1.00  0.00    -0.353 N 
ATOM      8  H1  UNL     1      33.567  -5.655  55.715  1.00  0.00     0.166 HD
BRANCH   7   9
HETATM    9  C9  UNL     1      34.340  -7.598  55.884  1.00  0.00     0.076 A 
HETATM   10  C10 UNL     1      34.200  -8.602  54.971  1.00  0.00     0.062 A 
HETATM   11 CL1  UNL     1      34.064  -8.214  53.264  1.00  0.00    -0.082 Cl
HETATM   12  C11 UNL     1      34.160  -9.948  55.350  1.00  0.00     0.026 A 
HETATM   13  C12 UNL     1      34.267 -10.277  56.682  1.00  0.00     0.003 A 
HETATM   14  C13 UNL     1      34.409  -9.281  57.614  1.00  0.00     0.026 A 
HETATM   15  C14 UNL     1      34.445  -7.937  57.209  1.00  0.00     0.062 A 
HETATM   16 CL2  UNL     1      34.618  -6.660  58.378  1.00  0.00    -0.082 Cl
ENDBRANCH   7   9
ENDBRANCH   6   7
BRANCH   1  17
HETATM   17  C2  UNL     1      33.909  -4.555  53.316  1.00  0.00     0.153 C 
BRANCH  17  18
HETATM   18  C1  UNL     1      33.685  -3.222  52.783  1.00  0.00     0.177 C 
HETATM   19  O1  UNL     1      33.592  -2.232  53.541  1.00  0.00    -0.648 OA
HETATM   20  O2  UNL     1      33.567  -3.007  51.411  1.00  0.00    -0.648 OA
ENDBRANCH  17  18
ENDBRANCH   1  17
TORSDOF 4
ENDMDL
