MODEL 3
REMARK VINA RESULT: -8.742321513      3.723      5.797
REMARK  13 active torsions:
REMARK  status: ('A' for Active; 'I' for Inactive)
REMARK    1  A    between atoms: N1_2  and  C4_5 
REMARK    2  A    between atoms: C4_5  and  C5_6 
REMARK    3  A    between atoms: C5_6  and  O1_7 
REMARK    4  A    between atoms: O1_7  and  P1_8 
REMARK    5  A    between atoms: P1_8  and  O4_11 
REMARK    6  A    between atoms: O4_11  and  P2_12 
REMARK    7  A    between atoms: P2_12  and  O7_15 
REMARK    8  A    between atoms: O7_15  and  C6_16 
REMARK    9  A    between atoms: C6_16  and  C7_17 
REMARK   10  A    between atoms: C8_19  and  N2_20 
REMARK   11  A    between atoms: C11_23  and  N3_24 
REMARK   12  A    between atoms: C13_31  and  O10_32 
REMARK   13  A    between atoms: C14_34  and  O11_35 
ROOT
HETATM    1  C7  UNL     1      18.211  22.673  51.378  1.00  0.00     0.180 C 
HETATM    2  O8  UNL     1      17.707  22.694  52.678  1.00  0.00    -0.353 OA
HETATM    3  C8  UNL     1      17.953  21.446  53.182  1.00  0.00     0.263 C 
HETATM    4  C13 UNL     1      17.916  20.457  52.048  1.00  0.00     0.198 C 
HETATM    5  C14 UNL     1      17.608  21.372  50.862  1.00  0.00     0.182 C 
ENDROOT
BRANCH   1   6
HETATM    6  C6  UNL     1      17.815  23.853  50.571  1.00  0.00     0.216 C 
BRANCH   6   7
HETATM    7  O7  UNL     1      16.666  23.505  49.857  1.00  0.00    -0.287 OA
BRANCH   7   8
HETATM    8  P2  UNL     1      15.447  24.455  49.952  1.00  0.00     0.417 P 
HETATM    9  O5  UNL     1      16.402  25.702  50.435  1.00  0.00    -0.624 OA
HETATM   10  O6  UNL     1      15.241  24.226  48.302  1.00  0.00    -0.624 OA
BRANCH   8  11
HETATM   11  O4  UNL     1      14.210  25.361  49.893  1.00  0.00    -0.180 OA
BRANCH  11  12
HETATM   12  P1  UNL     1      12.851  25.173  50.593  1.00  0.00     0.417 P 
HETATM   13  O2  UNL     1      13.287  23.601  50.946  1.00  0.00    -0.624 OA
HETATM   14  O3  UNL     1      13.051  26.332  51.702  1.00  0.00    -0.624 OA
BRANCH  12  15
HETATM   15  O1  UNL     1      11.414  24.821  51.083  1.00  0.00    -0.288 OA
BRANCH  15  16
HETATM   16  C5  UNL     1      10.991  25.316  52.322  1.00  0.00     0.209 C 
BRANCH  16  17
HETATM   17  C4  UNL     1       9.933  24.383  52.816  1.00  0.00     0.262 C 
BRANCH  17  18
HETATM   18  N1  UNL     1      10.230  23.808  54.094  1.00  0.00    -0.077 N 
HETATM   19  C1  UNL     1      10.421  24.873  55.064  1.00  0.00     0.271 C 
HETATM   20  C2  UNL     1      11.418  22.994  54.112  1.00  0.00     0.271 C 
HETATM   21  C3  UNL     1       9.088  23.031  54.525  1.00  0.00     0.271 C 
ENDBRANCH  17  18
ENDBRANCH  16  17
ENDBRANCH  15  16
ENDBRANCH  12  15
ENDBRANCH  11  12
ENDBRANCH   8  11
ENDBRANCH   7   8
ENDBRANCH   6   7
ENDBRANCH   1   6
BRANCH   5  22
HETATM   22  O11 UNL     1      18.324  20.876  49.777  1.00  0.00    -0.390 OA
ATOM     23  H11 UNL     1      18.392  19.929  49.810  1.00  0.00     0.210 HD
ENDBRANCH   5  22
BRANCH   3  24
HETATM   24  N2  UNL     1      16.982  21.023  54.172  1.00  0.00    -0.280 N 
HETATM   25  C9  UNL     1      15.684  21.338  54.010  1.00  0.00     0.102 A 
HETATM   26  C10 UNL     1      14.709  20.958  54.926  1.00  0.00     0.065 A 
HETATM   27  C11 UNL     1      15.075  20.236  56.043  1.00  0.00     0.103 A 
HETATM   28  N4  UNL     1      16.379  19.936  56.178  1.00  0.00    -0.295 N 
HETATM   29  C12 UNL     1      17.305  20.317  55.271  1.00  0.00     0.330 A 
ATOM     30  H4  UNL     1      16.680  19.402  56.994  1.00  0.00     0.172 HD
HETATM   31  O9  UNL     1      18.530  20.029  55.410  1.00  0.00    -0.246 OA
BRANCH  27  32
HETATM   32  N3  UNL     1      14.198  19.853  56.938  1.00  0.00    -0.385 N 
ATOM     33  H32 UNL     1      14.153  18.881  57.248  1.00  0.00     0.157 HD
ATOM     34  H31 UNL     1      13.534  20.504  57.355  1.00  0.00     0.157 HD
ENDBRANCH  27  32
ENDBRANCH   3  24
BRANCH   4  35
HETATM   35  O10 UNL     1      19.221  19.988  51.870  1.00  0.00    -0.388 OA
ATOM     36  H10 UNL     1      19.172  19.041  51.823  1.00  0.00     0.210 HD
ENDBRANCH   4  35
TORSDOF 13
ENDMDL
