MODEL 1
REMARK VINA RESULT: -9.296664139      0.000      0.000
REMARK  13 active torsions:
REMARK  status: ('A' for Active; 'I' for Inactive)
REMARK    1  A    between atoms: N1_2  and  C4_5 
REMARK    2  A    between atoms: C4_5  and  C5_6 
REMARK    3  A    between atoms: C5_6  and  O1_7 
REMARK    4  A    between atoms: O1_7  and  P1_8 
REMARK    5  A    between atoms: P1_8  and  O4_11 
REMARK    6  A    between atoms: O4_11  and  P2_12 
REMARK    7  A    between atoms: P2_12  and  O7_15 
REMARK    8  A    between atoms: O7_15  and  C6_16 
REMARK    9  A    between atoms: C6_16  and  C7_17 
REMARK   10  A    between atoms: C8_19  and  N2_20 
REMARK   11  A    between atoms: C11_23  and  N3_24 
REMARK   12  A    between atoms: C13_31  and  O10_32 
REMARK   13  A    between atoms: C14_34  and  O11_35 
ROOT
HETATM    1  C7  UNL     1      18.803  22.453  52.244  1.00  0.00     0.180 C 
HETATM    2  O8  UNL     1      17.947  22.567  53.339  1.00  0.00    -0.353 OA
HETATM    3  C8  UNL     1      18.004  21.354  53.970  1.00  0.00     0.263 C 
HETATM    4  C13 UNL     1      18.268  20.290  52.939  1.00  0.00     0.198 C 
HETATM    5  C14 UNL     1      18.339  21.124  51.659  1.00  0.00     0.182 C 
ENDROOT
BRANCH   1   6
HETATM    6  C6  UNL     1      18.688  23.578  51.283  1.00  0.00     0.216 C 
BRANCH   6   7
HETATM    7  O7  UNL     1      17.402  24.105  51.408  1.00  0.00    -0.287 OA
BRANCH   7   8
HETATM    8  P2  UNL     1      16.447  23.963  50.197  1.00  0.00     0.417 P 
HETATM    9  O5  UNL     1      15.397  23.056  51.078  1.00  0.00    -0.624 OA
HETATM   10  O6  UNL     1      16.266  25.631  50.247  1.00  0.00    -0.624 OA
BRANCH   8  11
HETATM   11  O4  UNL     1      15.497  23.981  48.994  1.00  0.00    -0.180 OA
BRANCH  11  12
HETATM   12  P1  UNL     1      15.683  23.317  47.616  1.00  0.00     0.417 P 
HETATM   13  O2  UNL     1      16.759  22.249  48.313  1.00  0.00    -0.624 OA
HETATM   14  O3  UNL     1      14.139  22.885  47.408  1.00  0.00    -0.624 OA
BRANCH  12  15
HETATM   15  O1  UNL     1      16.124  22.763  46.229  1.00  0.00    -0.288 OA
BRANCH  15  16
HETATM   16  C5  UNL     1      17.062  23.490  45.486  1.00  0.00     0.209 C 
BRANCH  16  17
HETATM   17  C4  UNL     1      16.799  23.182  44.047  1.00  0.00     0.262 C 
BRANCH  17  18
HETATM   18  N1  UNL     1      16.275  24.294  43.311  1.00  0.00    -0.077 N 
HETATM   19  C1  UNL     1      17.295  25.324  43.212  1.00  0.00     0.271 C 
HETATM   20  C2  UNL     1      15.111  24.898  43.907  1.00  0.00     0.271 C 
HETATM   21  C3  UNL     1      15.973  23.853  41.966  1.00  0.00     0.271 C 
ENDBRANCH  17  18
ENDBRANCH  16  17
ENDBRANCH  15  16
ENDBRANCH  12  15
ENDBRANCH  11  12
ENDBRANCH   8  11
ENDBRANCH   7   8
ENDBRANCH   6   7
ENDBRANCH   1   6
BRANCH   5  22
HETATM   22  O11 UNL     1      19.323  20.550  50.861  1.00  0.00    -0.390 OA
ATOM     23  H11 UNL     1      18.947  20.124  50.099  1.00  0.00     0.210 HD
ENDBRANCH   5  22
BRANCH   3  24
HETATM   24  N2  UNL     1      16.778  21.007  54.662  1.00  0.00    -0.280 N 
HETATM   25  C9  UNL     1      15.596  21.431  54.177  1.00  0.00     0.102 A 
HETATM   26  C10 UNL     1      14.389  21.128  54.799  1.00  0.00     0.065 A 
HETATM   27  C11 UNL     1      14.393  20.370  55.952  1.00  0.00     0.103 A 
HETATM   28  N4  UNL     1      15.589  19.962  56.412  1.00  0.00    -0.295 N 
HETATM   29  C12 UNL     1      16.746  20.271  55.788  1.00  0.00     0.330 A 
ATOM     30  H4  UNL     1      15.623  19.400  57.263  1.00  0.00     0.172 HD
HETATM   31  O9  UNL     1      17.866  19.880  56.232  1.00  0.00    -0.246 OA
BRANCH  27  32
HETATM   32  N3  UNL     1      13.285  20.057  56.578  1.00  0.00    -0.385 N 
ATOM     33  H32 UNL     1      12.398  20.493  56.326  1.00  0.00     0.157 HD
ATOM     34  H31 UNL     1      13.268  19.372  57.333  1.00  0.00     0.157 HD
ENDBRANCH  27  32
ENDBRANCH   3  24
BRANCH   4  35
HETATM   35  O10 UNL     1      19.556  19.801  53.176  1.00  0.00    -0.388 OA
ATOM     36  H10 UNL     1      20.109  20.122  52.474  1.00  0.00     0.210 HD
ENDBRANCH   4  35
TORSDOF 13
ENDMDL
