MODEL 6
REMARK VINA RESULT: -8.390418469      3.753      4.877
REMARK  13 active torsions:
REMARK  status: ('A' for Active; 'I' for Inactive)
REMARK    1  A    between atoms: N1_2  and  C4_5 
REMARK    2  A    between atoms: C4_5  and  C5_6 
REMARK    3  A    between atoms: C5_6  and  O1_7 
REMARK    4  A    between atoms: O1_7  and  P1_8 
REMARK    5  A    between atoms: P1_8  and  O4_11 
REMARK    6  A    between atoms: O4_11  and  P2_12 
REMARK    7  A    between atoms: P2_12  and  O7_15 
REMARK    8  A    between atoms: O7_15  and  C6_16 
REMARK    9  A    between atoms: C6_16  and  C7_17 
REMARK   10  A    between atoms: C8_19  and  N2_20 
REMARK   11  A    between atoms: C11_23  and  N3_24 
REMARK   12  A    between atoms: C13_31  and  O10_32 
REMARK   13  A    between atoms: C14_34  and  O11_35 
ROOT
HETATM    1  C7  UNL     1      19.059  22.017  51.994  1.00  0.00     0.180 C 
HETATM    2  O8  UNL     1      18.103  22.290  52.972  1.00  0.00    -0.353 OA
HETATM    3  C8  UNL     1      18.210  21.269  53.877  1.00  0.00     0.263 C 
HETATM    4  C13 UNL     1      18.656  20.029  53.149  1.00  0.00     0.198 C 
HETATM    5  C14 UNL     1      18.766  20.547  51.715  1.00  0.00     0.182 C 
ENDROOT
BRANCH   1   6
HETATM    6  C6  UNL     1      18.931  22.870  50.787  1.00  0.00     0.216 C 
BRANCH   6   7
HETATM    7  O7  UNL     1      18.109  22.195  49.882  1.00  0.00    -0.287 OA
BRANCH   7   8
HETATM    8  P2  UNL     1      16.738  22.831  49.545  1.00  0.00     0.417 P 
HETATM    9  O5  UNL     1      17.215  23.147  48.005  1.00  0.00    -0.624 OA
HETATM   10  O6  UNL     1      16.056  21.330  49.857  1.00  0.00    -0.624 OA
BRANCH   8  11
HETATM   11  O4  UNL     1      15.314  23.323  49.257  1.00  0.00    -0.180 OA
BRANCH  11  12
HETATM   12  P1  UNL     1      14.556  24.496  49.907  1.00  0.00     0.417 P 
HETATM   13  O2  UNL     1      14.002  23.445  51.079  1.00  0.00    -0.624 OA
HETATM   14  O3  UNL     1      15.853  25.416  50.198  1.00  0.00    -0.624 OA
BRANCH  12  15
HETATM   15  O1  UNL     1      13.561  25.554  50.470  1.00  0.00    -0.288 OA
BRANCH  15  16
HETATM   16  C5  UNL     1      12.617  25.146  51.419  1.00  0.00     0.209 C 
BRANCH  16  17
HETATM   17  C4  UNL     1      11.295  25.674  50.963  1.00  0.00     0.262 C 
BRANCH  17  18
HETATM   18  N1  UNL     1      10.188  25.176  51.724  1.00  0.00    -0.077 N 
HETATM   19  C1  UNL     1       8.949  25.630  51.117  1.00  0.00     0.271 C 
HETATM   20  C2  UNL     1      10.177  25.609  53.098  1.00  0.00     0.271 C 
HETATM   21  C3  UNL     1      10.198  23.730  51.658  1.00  0.00     0.271 C 
ENDBRANCH  17  18
ENDBRANCH  16  17
ENDBRANCH  15  16
ENDBRANCH  12  15
ENDBRANCH  11  12
ENDBRANCH   8  11
ENDBRANCH   7   8
ENDBRANCH   6   7
ENDBRANCH   1   6
BRANCH   5  22
HETATM   22  O11 UNL     1      19.863  19.911  51.142  1.00  0.00    -0.390 OA
ATOM     23  H11 UNL     1      20.321  19.372  51.776  1.00  0.00     0.210 HD
ENDBRANCH   5  22
BRANCH   3  24
HETATM   24  N2  UNL     1      16.963  20.964  54.551  1.00  0.00    -0.280 N 
HETATM   25  C9  UNL     1      15.798  21.367  54.012  1.00  0.00     0.102 A 
HETATM   26  C10 UNL     1      14.573  21.103  54.614  1.00  0.00     0.065 A 
HETATM   27  C11 UNL     1      14.539  20.405  55.804  1.00  0.00     0.103 A 
HETATM   28  N4  UNL     1      15.719  20.015  56.318  1.00  0.00    -0.295 N 
HETATM   29  C12 UNL     1      16.895  20.286  55.711  1.00  0.00     0.330 A 
ATOM     30  H4  UNL     1      15.726  19.497  57.197  1.00  0.00     0.172 HD
HETATM   31  O9  UNL     1      18.000  19.913  56.206  1.00  0.00    -0.246 OA
BRANCH  27  32
HETATM   32  N3  UNL     1      13.413  20.129  56.413  1.00  0.00    -0.385 N 
ATOM     33  H32 UNL     1      12.865  19.307  56.159  1.00  0.00     0.157 HD
ATOM     34  H31 UNL     1      13.043  20.721  57.157  1.00  0.00     0.157 HD
ENDBRANCH  27  32
ENDBRANCH   3  24
BRANCH   4  35
HETATM   35  O10 UNL     1      19.956  19.747  53.579  1.00  0.00    -0.388 OA
ATOM     36  H10 UNL     1      20.496  20.491  53.339  1.00  0.00     0.210 HD
ENDBRANCH   4  35
TORSDOF 13
ENDMDL
