MODEL 7
REMARK VINA RESULT: -8.316837371      3.761      5.207
REMARK  13 active torsions:
REMARK  status: ('A' for Active; 'I' for Inactive)
REMARK    1  A    between atoms: N1_2  and  C4_5 
REMARK    2  A    between atoms: C4_5  and  C5_6 
REMARK    3  A    between atoms: C5_6  and  O1_7 
REMARK    4  A    between atoms: O1_7  and  P1_8 
REMARK    5  A    between atoms: P1_8  and  O4_11 
REMARK    6  A    between atoms: O4_11  and  P2_12 
REMARK    7  A    between atoms: P2_12  and  O7_15 
REMARK    8  A    between atoms: O7_15  and  C6_16 
REMARK    9  A    between atoms: C6_16  and  C7_17 
REMARK   10  A    between atoms: C8_19  and  N2_20 
REMARK   11  A    between atoms: C11_23  and  N3_24 
REMARK   12  A    between atoms: C13_31  and  O10_32 
REMARK   13  A    between atoms: C14_34  and  O11_35 
ROOT
HETATM    1  C7  UNL     1      19.237  22.139  51.473  1.00  0.00     0.180 C 
HETATM    2  O8  UNL     1      18.525  22.331  52.657  1.00  0.00    -0.353 OA
HETATM    3  C8  UNL     1      18.669  21.165  53.358  1.00  0.00     0.263 C 
HETATM    4  C13 UNL     1      18.807  20.031  52.378  1.00  0.00     0.198 C 
HETATM    5  C14 UNL     1      18.711  20.774  51.045  1.00  0.00     0.182 C 
ENDROOT
BRANCH   1   6
HETATM    6  C6  UNL     1      18.995  23.195  50.460  1.00  0.00     0.216 C 
BRANCH   6   7
HETATM    7  O7  UNL     1      18.069  22.692  49.544  1.00  0.00    -0.287 OA
BRANCH   7   8
HETATM    8  P2  UNL     1      16.698  23.407  49.442  1.00  0.00     0.417 P 
HETATM    9  O5  UNL     1      17.324  24.787  50.077  1.00  0.00    -0.624 OA
HETATM   10  O6  UNL     1      16.803  23.198  47.780  1.00  0.00    -0.624 OA
BRANCH   8  11
HETATM   11  O4  UNL     1      15.345  24.081  49.185  1.00  0.00    -0.180 OA
BRANCH  11  12
HETATM   12  P1  UNL     1      14.112  24.135  50.107  1.00  0.00     0.417 P 
HETATM   13  O2  UNL     1      14.787  22.919  51.028  1.00  0.00    -0.624 OA
HETATM   14  O3  UNL     1      14.286  25.678  50.558  1.00  0.00    -0.624 OA
BRANCH  12  15
HETATM   15  O1  UNL     1      12.800  23.946  50.925  1.00  0.00    -0.288 OA
BRANCH  15  16
HETATM   16  C5  UNL     1      12.274  25.047  51.611  1.00  0.00     0.209 C 
BRANCH  16  17
HETATM   17  C4  UNL     1      10.786  24.946  51.504  1.00  0.00     0.262 C 
BRANCH  17  18
HETATM   18  N1  UNL     1      10.132  24.809  52.771  1.00  0.00    -0.077 N 
HETATM   19  C1  UNL     1       9.515  23.496  52.850  1.00  0.00     0.271 C 
HETATM   20  C2  UNL     1       9.099  25.784  53.008  1.00  0.00     0.271 C 
HETATM   21  C3  UNL     1      11.132  24.880  53.815  1.00  0.00     0.271 C 
ENDBRANCH  17  18
ENDBRANCH  16  17
ENDBRANCH  15  16
ENDBRANCH  12  15
ENDBRANCH  11  12
ENDBRANCH   8  11
ENDBRANCH   7   8
ENDBRANCH   6   7
ENDBRANCH   1   6
BRANCH   5  22
HETATM   22  O11 UNL     1      19.590  20.144  50.170  1.00  0.00    -0.390 OA
ATOM     23  H11 UNL     1      19.177  19.407  49.734  1.00  0.00     0.210 HD
ENDBRANCH   5  22
BRANCH   3  24
HETATM   24  N2  UNL     1      17.541  20.869  54.221  1.00  0.00    -0.280 N 
HETATM   25  C9  UNL     1      16.301  21.230  53.845  1.00  0.00     0.102 A 
HETATM   26  C10 UNL     1      15.184  20.972  54.633  1.00  0.00     0.065 A 
HETATM   27  C11 UNL     1      15.342  20.327  55.841  1.00  0.00     0.103 A 
HETATM   28  N4  UNL     1      16.593  19.978  56.190  1.00  0.00    -0.295 N 
HETATM   29  C12 UNL     1      17.660  20.241  55.405  1.00  0.00     0.330 A 
ATOM     30  H4  UNL     1      16.741  19.500  57.079  1.00  0.00     0.172 HD
HETATM   31  O9  UNL     1      18.834  19.908  55.746  1.00  0.00    -0.246 OA
BRANCH  27  32
HETATM   32  N3  UNL     1      14.324  20.060  56.622  1.00  0.00    -0.385 N 
ATOM     33  H32 UNL     1      13.460  19.670  56.244  1.00  0.00     0.157 HD
ATOM     34  H31 UNL     1      14.356  20.231  57.627  1.00  0.00     0.157 HD
ENDBRANCH  27  32
ENDBRANCH   3  24
BRANCH   4  35
HETATM   35  O10 UNL     1      20.118  19.556  52.483  1.00  0.00    -0.388 OA
ATOM     36  H10 UNL     1      20.549  19.743  51.658  1.00  0.00     0.210 HD
ENDBRANCH   4  35
TORSDOF 13
ENDMDL
