MODEL 2
REMARK VINA RESULT: -9.076249749      0.927      1.188
REMARK  13 active torsions:
REMARK  status: ('A' for Active; 'I' for Inactive)
REMARK    1  A    between atoms: N1_2  and  C4_5 
REMARK    2  A    between atoms: C4_5  and  C5_6 
REMARK    3  A    between atoms: C5_6  and  O1_7 
REMARK    4  A    between atoms: O1_7  and  P1_8 
REMARK    5  A    between atoms: P1_8  and  O4_11 
REMARK    6  A    between atoms: O4_11  and  P2_12 
REMARK    7  A    between atoms: P2_12  and  O7_15 
REMARK    8  A    between atoms: O7_15  and  C6_16 
REMARK    9  A    between atoms: C6_16  and  C7_17 
REMARK   10  A    between atoms: C8_19  and  N2_20 
REMARK   11  A    between atoms: C11_23  and  N3_24 
REMARK   12  A    between atoms: C13_31  and  O10_32 
REMARK   13  A    between atoms: C14_34  and  O11_35 
ROOT
HETATM    1  C7  UNL     1      19.014  22.329  51.449  1.00  0.00     0.180 C 
HETATM    2  O8  UNL     1      18.366  22.452  52.678  1.00  0.00    -0.353 OA
HETATM    3  C8  UNL     1      18.544  21.249  53.304  1.00  0.00     0.263 C 
HETATM    4  C13 UNL     1      18.630  20.172  52.256  1.00  0.00     0.198 C 
HETATM    5  C14 UNL     1      18.465  20.989  50.973  1.00  0.00     0.182 C 
ENDROOT
BRANCH   1   6
HETATM    6  C6  UNL     1      18.721  23.439  50.510  1.00  0.00     0.216 C 
BRANCH   6   7
HETATM    7  O7  UNL     1      17.527  24.033  50.925  1.00  0.00    -0.287 OA
BRANCH   7   8
HETATM    8  P2  UNL     1      16.314  23.951  49.966  1.00  0.00     0.417 P 
HETATM    9  O5  UNL     1      15.496  22.987  51.016  1.00  0.00    -0.624 OA
HETATM   10  O6  UNL     1      16.158  25.612  50.150  1.00  0.00    -0.624 OA
BRANCH   8  11
HETATM   11  O4  UNL     1      15.108  24.029  49.021  1.00  0.00    -0.180 OA
BRANCH  11  12
HETATM   12  P1  UNL     1      15.039  23.670  47.525  1.00  0.00     0.417 P 
HETATM   13  O2  UNL     1      16.693  23.460  47.532  1.00  0.00    -0.624 OA
HETATM   14  O3  UNL     1      14.063  22.391  47.685  1.00  0.00    -0.624 OA
BRANCH  12  15
HETATM   15  O1  UNL     1      15.091  23.555  45.972  1.00  0.00    -0.288 OA
BRANCH  15  16
HETATM   16  C5  UNL     1      15.303  24.718  45.222  1.00  0.00     0.209 C 
BRANCH  16  17
HETATM   17  C4  UNL     1      15.194  24.325  43.784  1.00  0.00     0.262 C 
BRANCH  17  18
HETATM   18  N1  UNL     1      16.443  24.365  43.084  1.00  0.00    -0.077 N 
HETATM   19  C1  UNL     1      16.460  25.520  42.203  1.00  0.00     0.271 C 
HETATM   20  C2  UNL     1      16.702  23.203  42.275  1.00  0.00     0.271 C 
HETATM   21  C3  UNL     1      17.505  24.544  44.051  1.00  0.00     0.271 C 
ENDBRANCH  17  18
ENDBRANCH  16  17
ENDBRANCH  15  16
ENDBRANCH  12  15
ENDBRANCH  11  12
ENDBRANCH   8  11
ENDBRANCH   7   8
ENDBRANCH   6   7
ENDBRANCH   1   6
BRANCH   5  22
HETATM   22  O11 UNL     1      19.297  20.409  50.019  1.00  0.00    -0.390 OA
ATOM     23  H11 UNL     1      19.479  19.500  50.226  1.00  0.00     0.210 HD
ENDBRANCH   5  22
BRANCH   3  24
HETATM   24  N2  UNL     1      17.464  20.904  54.207  1.00  0.00    -0.280 N 
HETATM   25  C9  UNL     1      16.200  21.247  53.897  1.00  0.00     0.102 A 
HETATM   26  C10 UNL     1      15.125  20.942  54.725  1.00  0.00     0.065 A 
HETATM   27  C11 UNL     1      15.351  20.267  55.907  1.00  0.00     0.103 A 
HETATM   28  N4  UNL     1      16.624  19.938  56.190  1.00  0.00    -0.295 N 
HETATM   29  C12 UNL     1      17.649  20.247  55.367  1.00  0.00     0.330 A 
ATOM     30  H4  UNL     1      16.822  19.438  57.057  1.00  0.00     0.172 HD
HETATM   31  O9  UNL     1      18.844  19.931  55.645  1.00  0.00    -0.246 OA
BRANCH  27  32
HETATM   32  N3  UNL     1      14.375  19.955  56.723  1.00  0.00    -0.385 N 
ATOM     33  H32 UNL     1      13.449  19.715  56.368  1.00  0.00     0.157 HD
ATOM     34  H31 UNL     1      14.503  19.941  57.735  1.00  0.00     0.157 HD
ENDBRANCH  27  32
ENDBRANCH   3  24
BRANCH   4  35
HETATM   35  O10 UNL     1      19.943  19.694  52.266  1.00  0.00    -0.388 OA
ATOM     36  H10 UNL     1      19.985  19.010  52.923  1.00  0.00     0.210 HD
ENDBRANCH   4  35
TORSDOF 13
ENDMDL
