MODEL 3
REMARK VINA RESULT: -6.707784014      0.113      1.337
REMARK  3 active torsions:
REMARK  status: ('A' for Active; 'I' for Inactive)
REMARK    1  A    between atoms: C2_3  and  P1_4 
REMARK    2  A    between atoms: C4_9  and  O5_10 
REMARK    3  A    between atoms: N1_12  and  O6_13 
ROOT
HETATM    1  O1  UNL     1      57.201 130.365 -90.709  1.00  0.00    -0.270 OA
HETATM    2  C1  UNL     1      56.236 130.028 -91.410  1.00  0.00     0.263 C 
HETATM    3  C2  UNL     1      54.985 130.813 -91.573  1.00  0.00     0.214 C 
HETATM    4  C3  UNL     1      54.609 130.520 -92.996  1.00  0.00     0.084 C 
HETATM    5  C4  UNL     1      54.935 129.042 -93.102  1.00  0.00     0.251 C 
HETATM    6  N1  UNL     1      56.069 128.852 -92.215  1.00  0.00    -0.198 N 
ENDROOT
BRANCH   3   7
HETATM    7  P1  UNL     1      55.276 132.519 -91.203  1.00  0.00     0.273 P 
HETATM    8  O2  UNL     1      54.483 132.874 -89.945  1.00  0.00    -0.639 OA
HETATM    9  O3  UNL     1      54.614 133.483 -92.448  1.00  0.00    -0.639 OA
HETATM   10  O4  UNL     1      56.879 132.910 -90.950  1.00  0.00    -0.639 OA
ENDBRANCH   3   7
BRANCH   6  11
HETATM   11  O6  UNL     1      56.835 127.748 -92.164  1.00  0.00    -0.282 OA
ATOM     12  H6  UNL     1      56.520 126.856 -92.069  1.00  0.00     0.245 HD
ENDBRANCH   6  11
BRANCH   5  13
HETATM   13  O5  UNL     1      53.875 128.310 -92.587  1.00  0.00    -0.374 OA
ATOM     14  H5  UNL     1      54.218 127.636 -92.012  1.00  0.00     0.212 HD
ENDBRANCH   5  13
TORSDOF 3
ENDMDL
