MODEL 6
REMARK VINA RESULT: -6.469473985      0.124      1.324
REMARK  3 active torsions:
REMARK  status: ('A' for Active; 'I' for Inactive)
REMARK    1  A    between atoms: C2_3  and  P1_4 
REMARK    2  A    between atoms: C4_9  and  O5_10 
REMARK    3  A    between atoms: N1_12  and  O6_13 
ROOT
HETATM    1  O1  UNL     1      57.186 130.357 -90.692  1.00  0.00    -0.270 OA
HETATM    2  C1  UNL     1      56.226 130.024 -91.401  1.00  0.00     0.263 C 
HETATM    3  C2  UNL     1      54.966 130.797 -91.550  1.00  0.00     0.214 C 
HETATM    4  C3  UNL     1      54.596 130.528 -92.980  1.00  0.00     0.084 C 
HETATM    5  C4  UNL     1      54.939 129.056 -93.115  1.00  0.00     0.251 C 
HETATM    6  N1  UNL     1      56.074 128.862 -92.230  1.00  0.00    -0.198 N 
ENDROOT
BRANCH   3   7
HETATM    7  P1  UNL     1      55.237 132.498 -91.145  1.00  0.00     0.273 P 
HETATM    8  O2  UNL     1      54.740 133.350 -92.313  1.00  0.00    -0.639 OA
HETATM    9  O3  UNL     1      56.918 132.789 -91.050  1.00  0.00    -0.639 OA
HETATM   10  O4  UNL     1      54.475 133.010 -89.751  1.00  0.00    -0.639 OA
ENDBRANCH   3   7
BRANCH   6  11
HETATM   11  O6  UNL     1      56.852 127.766 -92.200  1.00  0.00    -0.282 OA
ATOM     12  H6  UNL     1      57.524 127.542 -92.834  1.00  0.00     0.245 HD
ENDBRANCH   6  11
BRANCH   5  13
HETATM   13  O5  UNL     1      53.887 128.302 -92.616  1.00  0.00    -0.374 OA
ATOM     14  H5  UNL     1      54.210 127.751 -91.913  1.00  0.00     0.212 HD
ENDBRANCH   5  13
TORSDOF 3
ENDMDL
