MODEL 8
REMARK VINA RESULT: -6.281219885      5.886      7.023
REMARK  3 active torsions:
REMARK  status: ('A' for Active; 'I' for Inactive)
REMARK    1  A    between atoms: C2_3  and  P1_4 
REMARK    2  A    between atoms: C4_9  and  O5_10 
REMARK    3  A    between atoms: N1_12  and  O6_13 
ROOT
HETATM    1  O1  UNL     1      51.438 133.544 -86.664  1.00  0.00    -0.270 OA
HETATM    2  C1  UNL     1      51.850 132.403 -86.412  1.00  0.00     0.263 C 
HETATM    3  C2  UNL     1      53.263 131.959 -86.537  1.00  0.00     0.214 C 
HETATM    4  C3  UNL     1      53.387 130.973 -85.412  1.00  0.00     0.084 C 
HETATM    5  C4  UNL     1      52.055 130.250 -85.488  1.00  0.00     0.251 C 
HETATM    6  N1  UNL     1      51.118 131.257 -85.955  1.00  0.00    -0.198 N 
ENDROOT
BRANCH   3   7
HETATM    7  P1  UNL     1      54.354 133.349 -86.450  1.00  0.00     0.273 P 
HETATM    8  O2  UNL     1      53.541 134.564 -86.002  1.00  0.00    -0.639 OA
HETATM    9  O3  UNL     1      54.909 133.724 -88.022  1.00  0.00    -0.639 OA
HETATM   10  O4  UNL     1      55.643 133.156 -85.406  1.00  0.00    -0.639 OA
ENDBRANCH   3   7
BRANCH   6  11
HETATM   11  O6  UNL     1      49.779 131.126 -85.953  1.00  0.00    -0.282 OA
ATOM     12  H6  UNL     1      49.290 130.418 -85.551  1.00  0.00     0.245 HD
ENDBRANCH   6  11
BRANCH   5  13
HETATM   13  O5  UNL     1      52.133 129.268 -86.465  1.00  0.00    -0.374 OA
ATOM     14  H5  UNL     1      51.575 128.540 -86.215  1.00  0.00     0.212 HD
ENDBRANCH   5  13
TORSDOF 3
ENDMDL
