MODEL 9
REMARK VINA RESULT: -6.268701005      5.872      6.868
REMARK  3 active torsions:
REMARK  status: ('A' for Active; 'I' for Inactive)
REMARK    1  A    between atoms: C2_3  and  P1_4 
REMARK    2  A    between atoms: C4_9  and  O5_10 
REMARK    3  A    between atoms: N1_12  and  O6_13 
ROOT
HETATM    1  O1  UNL     1      51.404 133.477 -86.844  1.00  0.00    -0.270 OA
HETATM    2  C1  UNL     1      51.869 132.372 -86.531  1.00  0.00     0.263 C 
HETATM    3  C2  UNL     1      53.309 132.008 -86.576  1.00  0.00     0.214 C 
HETATM    4  C3  UNL     1      53.436 131.070 -85.411  1.00  0.00     0.084 C 
HETATM    5  C4  UNL     1      52.152 130.268 -85.520  1.00  0.00     0.251 C 
HETATM    6  N1  UNL     1      51.182 131.201 -86.066  1.00  0.00    -0.198 N 
ENDROOT
BRANCH   3   7
HETATM    7  P1  UNL     1      54.313 133.462 -86.491  1.00  0.00     0.273 P 
HETATM    8  O2  UNL     1      54.871 133.736 -87.888  1.00  0.00    -0.639 OA
HETATM    9  O3  UNL     1      55.674 133.146 -85.508  1.00  0.00    -0.639 OA
HETATM   10  O4  UNL     1      53.513 134.828 -85.960  1.00  0.00    -0.639 OA
ENDBRANCH   3   7
BRANCH   6  11
HETATM   11  O6  UNL     1      49.855 130.992 -86.120  1.00  0.00    -0.282 OA
ATOM     12  H6  UNL     1      49.427 130.148 -86.213  1.00  0.00     0.245 HD
ENDBRANCH   6  11
BRANCH   5  13
HETATM   13  O5  UNL     1      52.333 129.259 -86.455  1.00  0.00    -0.374 OA
ATOM     14  H5  UNL     1      52.142 129.603 -87.320  1.00  0.00     0.212 HD
ENDBRANCH   5  13
TORSDOF 3
ENDMDL
