MODEL 5
REMARK VINA RESULT: -6.514591752      5.854      6.874
REMARK  3 active torsions:
REMARK  status: ('A' for Active; 'I' for Inactive)
REMARK    1  A    between atoms: C2_3  and  P1_4 
REMARK    2  A    between atoms: C4_9  and  O5_10 
REMARK    3  A    between atoms: N1_12  and  O6_13 
ROOT
HETATM    1  O1  UNL     1      51.375 133.487 -86.784  1.00  0.00    -0.270 OA
HETATM    2  C1  UNL     1      51.800 132.364 -86.481  1.00  0.00     0.263 C 
HETATM    3  C2  UNL     1      53.216 131.927 -86.597  1.00  0.00     0.214 C 
HETATM    4  C3  UNL     1      53.359 130.999 -85.427  1.00  0.00     0.084 C 
HETATM    5  C4  UNL     1      52.034 130.260 -85.456  1.00  0.00     0.251 C 
HETATM    6  N1  UNL     1      51.083 131.234 -85.962  1.00  0.00    -0.198 N 
ENDROOT
BRANCH   3   7
HETATM    7  P1  UNL     1      54.294 133.330 -86.588  1.00  0.00     0.273 P 
HETATM    8  O2  UNL     1      55.448 133.036 -85.629  1.00  0.00    -0.639 OA
HETATM    9  O3  UNL     1      53.468 134.665 -85.914  1.00  0.00    -0.639 OA
HETATM   10  O4  UNL     1      54.929 133.728 -88.080  1.00  0.00    -0.639 OA
ENDBRANCH   3   7
BRANCH   6  11
HETATM   11  O6  UNL     1      49.746 131.091 -85.943  1.00  0.00    -0.282 OA
ATOM     12  H6  UNL     1      49.264 130.420 -85.474  1.00  0.00     0.245 HD
ENDBRANCH   6  11
BRANCH   5  13
HETATM   13  O5  UNL     1      52.113 129.232 -86.384  1.00  0.00    -0.374 OA
ATOM     14  H5  UNL     1      52.006 129.596 -87.256  1.00  0.00     0.212 HD
ENDBRANCH   5  13
TORSDOF 3
ENDMDL
