MODEL 1
REMARK VINA RESULT: -6.746433491      0.000      0.000
REMARK  3 active torsions:
REMARK  status: ('A' for Active; 'I' for Inactive)
REMARK    1  A    between atoms: C2_3  and  P1_4 
REMARK    2  A    between atoms: C4_9  and  O5_10 
REMARK    3  A    between atoms: N1_12  and  O6_13 
ROOT
HETATM    1  O1  UNL     1      57.170 130.453 -90.693  1.00  0.00    -0.270 OA
HETATM    2  C1  UNL     1      56.221 130.080 -91.398  1.00  0.00     0.263 C 
HETATM    3  C2  UNL     1      54.952 130.830 -91.587  1.00  0.00     0.214 C 
HETATM    4  C3  UNL     1      54.599 130.504 -93.009  1.00  0.00     0.084 C 
HETATM    5  C4  UNL     1      54.963 129.033 -93.086  1.00  0.00     0.251 C 
HETATM    6  N1  UNL     1      56.093 128.887 -92.184  1.00  0.00    -0.198 N 
ENDROOT
BRANCH   3   7
HETATM    7  P1  UNL     1      55.197 132.548 -91.243  1.00  0.00     0.273 P 
HETATM    8  O2  UNL     1      56.695 132.785 -91.048  1.00  0.00    -0.639 OA
HETATM    9  O3  UNL     1      54.475 132.927 -89.741  1.00  0.00    -0.639 OA
HETATM   10  O4  UNL     1      54.645 133.581 -92.433  1.00  0.00    -0.639 OA
ENDBRANCH   3   7
BRANCH   6  11
HETATM   11  O6  UNL     1      56.885 127.803 -92.107  1.00  0.00    -0.282 OA
ATOM     12  H6  UNL     1      57.554 127.556 -92.735  1.00  0.00     0.245 HD
ENDBRANCH   6  11
BRANCH   5  13
HETATM   13  O5  UNL     1      53.917 128.283 -92.569  1.00  0.00    -0.374 OA
ATOM     14  H5  UNL     1      53.714 127.580 -93.174  1.00  0.00     0.212 HD
ENDBRANCH   5  13
TORSDOF 3
ENDMDL
