MODEL 8
REMARK VINA RESULT: -8.222838140      2.414      3.812
REMARK  6 active torsions:
REMARK  status: ('A' for Active; 'I' for Inactive)
REMARK    1  A    between atoms: C2_2  and  C3_3 
REMARK    2  A    between atoms: C2_2  and  C7_12 
REMARK    3  A    between atoms: C7_12  and  O1_13 
REMARK    4  A    between atoms: C7_12  and  C8_15 
REMARK    5  A    between atoms: C7_12  and  C11_23 
REMARK    6  A    between atoms: C8_15  and  N3_16 
ROOT
HETATM    1  C7  UNL     1      99.322   8.860  16.163  1.00  0.00     0.131 C 
ENDROOT
BRANCH   1   2
HETATM    2  C2  UNL     1      98.001   9.220  15.810  1.00  0.00    -0.013 C 
HETATM    3  C1  UNL     1      97.233   8.415  14.757  1.00  0.00     0.050 C 
BRANCH   2   4
HETATM    4  C3  UNL     1      96.977   9.662  16.815  1.00  0.00     0.079 A 
HETATM    5  N1  UNL     1      96.328  10.871  16.651  1.00  0.00    -0.350 N 
HETATM    6  C4  UNL     1      95.481  11.346  17.614  1.00  0.00     0.180 A 
ATOM      7  H1  UNL     1      96.481  11.415  15.802  1.00  0.00     0.166 HD
HETATM    8  N2  UNL     1      95.212  10.717  18.748  1.00  0.00    -0.359 N 
HETATM    9  C5  UNL     1      95.817   9.537  18.950  1.00  0.00     0.133 A 
ATOM     10  H2  UNL     1      94.574  11.112  19.438  1.00  0.00     0.166 HD
HETATM   11  C6  UNL     1      96.691   9.023  17.981  1.00  0.00     0.158 A 
HETATM   12  F1  UNL     1      97.113   7.765  18.292  1.00  0.00    -0.202 F 
ENDBRANCH   2   4
ENDBRANCH   1   2
BRANCH   1  13
HETATM   13  O1  UNL     1      99.570   7.458  16.000  1.00  0.00    -0.378 OA
ATOM     14  H1  UNL     1     100.475   7.273  15.776  1.00  0.00     0.211 HD
ENDBRANCH   1  13
BRANCH   1  15
HETATM   15  C8  UNL     1     100.120   9.270  17.304  1.00  0.00     0.197 C 
BRANCH  15  16
HETATM   16  N3  UNL     1     100.410  10.725  17.389  1.00  0.00    -0.283 N 
HETATM   17  C9  UNL     1     101.682  11.240  17.317  1.00  0.00     0.201 A 
HETATM   18  N4  UNL     1     101.642  12.560  17.430  1.00  0.00    -0.346 N 
HETATM   19  C10 UNL     1     100.330  12.908  17.571  1.00  0.00     0.198 A 
ATOM     20  H4  UNL     1     102.440  13.196  17.415  1.00  0.00     0.167 HD
HETATM   21  N5  UNL     1      99.652  11.765  17.539  1.00  0.00    -0.293 N 
ATOM     22  H5  UNL     1      98.637  11.712  17.623  1.00  0.00     0.188 HD
ENDBRANCH  15  16
ENDBRANCH   1  15
BRANCH   1  23
HETATM   23  C11 UNL     1     100.129   9.279  14.850  1.00  0.00     0.021 A 
HETATM   24  C12 UNL     1     101.091   8.476  14.392  1.00  0.00     0.017 A 
HETATM   25  C13 UNL     1     101.860   8.965  13.294  1.00  0.00     0.043 A 
HETATM   26  C14 UNL     1     101.615  10.188  12.749  1.00  0.00     0.119 A 
HETATM   27  F2  UNL     1     102.340  10.671  11.700  1.00  0.00    -0.206 F 
HETATM   28  C15 UNL     1     100.611  11.000  13.240  1.00  0.00     0.085 A 
HETATM   29  C16 UNL     1      99.857  10.508  14.326  1.00  0.00     0.129 A 
HETATM   30  F3  UNL     1      98.857  11.302  14.713  1.00  0.00    -0.205 F 
ENDBRANCH   1  23
TORSDOF 6
ENDMDL
