MODEL 14
REMARK VINA RESULT: -8.008217211      2.477      3.766
REMARK  6 active torsions:
REMARK  status: ('A' for Active; 'I' for Inactive)
REMARK    1  A    between atoms: C2_2  and  C3_3 
REMARK    2  A    between atoms: C2_2  and  C7_12 
REMARK    3  A    between atoms: C7_12  and  O1_13 
REMARK    4  A    between atoms: C7_12  and  C8_15 
REMARK    5  A    between atoms: C7_12  and  C11_23 
REMARK    6  A    between atoms: C8_15  and  N3_16 
ROOT
HETATM    1  C7  UNL     1      99.145   9.062  16.298  1.00  0.00     0.131 C 
ENDROOT
BRANCH   1   2
HETATM    2  C2  UNL     1      97.814   9.206  15.841  1.00  0.00    -0.013 C 
HETATM    3  C1  UNL     1      97.253   8.259  14.775  1.00  0.00     0.050 C 
BRANCH   2   4
HETATM    4  C3  UNL     1      96.665   9.522  16.754  1.00  0.00     0.079 A 
HETATM    5  N1  UNL     1      96.581   8.913  17.992  1.00  0.00    -0.350 N 
HETATM    6  C4  UNL     1      95.484   9.095  18.788  1.00  0.00     0.180 A 
ATOM      7  H1  UNL     1      97.346   8.320  18.315  1.00  0.00     0.166 HD
HETATM    8  N2  UNL     1      94.442   9.845  18.462  1.00  0.00    -0.359 N 
HETATM    9  C5  UNL     1      94.481  10.460  17.271  1.00  0.00     0.133 A 
ATOM     10  H2  UNL     1      93.645   9.950  19.089  1.00  0.00     0.166 HD
HETATM   11  C6  UNL     1      95.591  10.292  16.431  1.00  0.00     0.158 A 
HETATM   12  F1  UNL     1      95.518  11.085  15.326  1.00  0.00    -0.202 F 
ENDBRANCH   2   4
ENDBRANCH   1   2
BRANCH   1  13
HETATM   13  O1  UNL     1      99.550   7.690  16.382  1.00  0.00    -0.378 OA
ATOM     14  H1  UNL     1     100.328   7.573  16.914  1.00  0.00     0.211 HD
ENDBRANCH   1  13
BRANCH   1  15
HETATM   15  C8  UNL     1      99.830   9.740  17.382  1.00  0.00     0.197 C 
BRANCH  15  16
HETATM   16  N3  UNL     1      99.753  11.225  17.354  1.00  0.00    -0.283 N 
HETATM   17  C9  UNL     1     100.865  12.031  17.360  1.00  0.00     0.201 A 
HETATM   18  N4  UNL     1     100.499  13.305  17.341  1.00  0.00    -0.346 N 
HETATM   19  C10 UNL     1      99.134  13.326  17.316  1.00  0.00     0.198 A 
ATOM     20  H4  UNL     1     101.119  14.116  17.345  1.00  0.00     0.167 HD
HETATM   21  N5  UNL     1      98.756  12.052  17.327  1.00  0.00    -0.293 N 
ATOM     22  H5  UNL     1      97.781  11.756  17.315  1.00  0.00     0.188 HD
ENDBRANCH  15  16
ENDBRANCH   1  15
BRANCH   1  23
HETATM   23  C11 UNL     1      99.974   9.351  14.964  1.00  0.00     0.021 A 
HETATM   24  C12 UNL     1     100.988   8.547  14.639  1.00  0.00     0.017 A 
HETATM   25  C13 UNL     1     101.769   8.932  13.508  1.00  0.00     0.043 A 
HETATM   26  C14 UNL     1     101.483  10.061  12.803  1.00  0.00     0.119 A 
HETATM   27  F2  UNL     1     102.218  10.442  11.721  1.00  0.00    -0.206 F 
HETATM   28  C15 UNL     1     100.425  10.875  13.158  1.00  0.00     0.085 A 
HETATM   29  C16 UNL     1      99.660  10.487  14.278  1.00  0.00     0.129 A 
HETATM   30  F3  UNL     1      98.610  11.271  14.533  1.00  0.00    -0.205 F 
ENDBRANCH   1  23
TORSDOF 6
ENDMDL
