MODEL 10
REMARK VINA RESULT: -8.178632521      3.324      6.164
REMARK  6 active torsions:
REMARK  status: ('A' for Active; 'I' for Inactive)
REMARK    1  A    between atoms: C2_2  and  C3_3 
REMARK    2  A    between atoms: C2_2  and  C7_12 
REMARK    3  A    between atoms: C7_12  and  O1_13 
REMARK    4  A    between atoms: C7_12  and  C8_15 
REMARK    5  A    between atoms: C7_12  and  C11_23 
REMARK    6  A    between atoms: C8_15  and  N3_16 
ROOT
HETATM    1  C7  UNL     1      98.288   9.195  15.840  1.00  0.00     0.131 C 
ENDROOT
BRANCH   1   2
HETATM    2  C2  UNL     1      99.253   9.374  16.859  1.00  0.00    -0.013 C 
HETATM    3  C1  UNL     1     100.220   8.242  17.219  1.00  0.00     0.050 C 
BRANCH   2   4
HETATM    4  C3  UNL     1     100.028  10.647  17.037  1.00  0.00     0.079 A 
HETATM    5  N1  UNL     1     101.410  10.619  17.033  1.00  0.00    -0.350 N 
HETATM    6  C4  UNL     1     102.133  11.746  17.311  1.00  0.00     0.180 A 
ATOM      7  H1  UNL     1     101.896   9.748  16.820  1.00  0.00     0.166 HD
HETATM    8  N2  UNL     1     101.599  12.923  17.596  1.00  0.00    -0.359 N 
HETATM    9  C5  UNL     1     100.261  13.001  17.608  1.00  0.00     0.133 A 
ATOM     10  H2  UNL     1     102.181  13.736  17.798  1.00  0.00     0.166 HD
HETATM   11  C6  UNL     1      99.491  11.863  17.327  1.00  0.00     0.158 A 
HETATM   12  F1  UNL     1      98.161  12.152  17.259  1.00  0.00    -0.202 F 
ENDBRANCH   2   4
ENDBRANCH   1   2
BRANCH   1  13
HETATM   13  O1  UNL     1      98.019   7.812  15.578  1.00  0.00    -0.378 OA
ATOM     14  H1  UNL     1      97.220   7.512  15.996  1.00  0.00     0.211 HD
ENDBRANCH   1  13
BRANCH   1  15
HETATM   15  C8  UNL     1      98.154   9.870  14.562  1.00  0.00     0.197 C 
BRANCH  15  16
HETATM   16  N3  UNL     1      99.433  10.237  13.899  1.00  0.00    -0.283 N 
HETATM   17  C9  UNL     1     100.235   9.320  13.264  1.00  0.00     0.201 A 
HETATM   18  N4  UNL     1     101.310   9.922  12.775  1.00  0.00    -0.346 N 
HETATM   19  C10 UNL     1     101.202  11.246  13.090  1.00  0.00     0.198 A 
ATOM     20  H4  UNL     1     102.073   9.481  12.261  1.00  0.00     0.167 HD
HETATM   21  N5  UNL     1     100.060  11.362  13.761  1.00  0.00    -0.293 N 
ATOM     22  H5  UNL     1      99.713  12.247  14.130  1.00  0.00     0.188 HD
ENDBRANCH  15  16
ENDBRANCH   1  15
BRANCH   1  23
HETATM   23  C11 UNL     1      96.928   9.433  16.643  1.00  0.00     0.021 A 
HETATM   24  C12 UNL     1      96.868   9.107  17.935  1.00  0.00     0.017 A 
HETATM   25  C13 UNL     1      95.591   9.222  18.562  1.00  0.00     0.043 A 
HETATM   26  C14 UNL     1      94.499   9.646  17.869  1.00  0.00     0.119 A 
HETATM   27  F2  UNL     1      93.273   9.763  18.453  1.00  0.00    -0.206 F 
HETATM   28  C15 UNL     1      94.589   9.982  16.532  1.00  0.00     0.085 A 
HETATM   29  C16 UNL     1      95.854   9.863  15.921  1.00  0.00     0.129 A 
HETATM   30  F3  UNL     1      95.898  10.266  14.649  1.00  0.00    -0.205 F 
ENDBRANCH   1  23
TORSDOF 6
ENDMDL
