MODEL 9
REMARK VINA RESULT: -8.196889437      3.479      6.621
REMARK  6 active torsions:
REMARK  status: ('A' for Active; 'I' for Inactive)
REMARK    1  A    between atoms: C2_2  and  C3_3 
REMARK    2  A    between atoms: C2_2  and  C7_12 
REMARK    3  A    between atoms: C7_12  and  O1_13 
REMARK    4  A    between atoms: C7_12  and  C8_15 
REMARK    5  A    between atoms: C7_12  and  C11_23 
REMARK    6  A    between atoms: C8_15  and  N3_16 
ROOT
HETATM    1  C7  UNL     1      96.430  10.368  16.452  1.00  0.00     0.131 C 
ENDROOT
BRANCH   1   2
HETATM    2  C2  UNL     1      96.748   9.162  15.784  1.00  0.00    -0.013 C 
HETATM    3  C1  UNL     1      96.159   8.862  14.402  1.00  0.00     0.050 C 
BRANCH   2   4
HETATM    4  C3  UNL     1      98.128   8.570  15.778  1.00  0.00     0.079 A 
HETATM    5  N1  UNL     1      99.014   8.897  14.768  1.00  0.00    -0.350 N 
HETATM    6  C4  UNL     1     100.231   8.279  14.679  1.00  0.00     0.180 A 
ATOM      7  H1  UNL     1      98.757   9.607  14.082  1.00  0.00     0.166 HD
HETATM    8  N2  UNL     1     100.659   7.349  15.519  1.00  0.00    -0.359 N 
HETATM    9  C5  UNL     1      99.835   7.002  16.518  1.00  0.00     0.133 A 
ATOM     10  H2  UNL     1     101.575   6.916  15.410  1.00  0.00     0.166 HD
HETATM   11  C6  UNL     1      98.580   7.617  16.637  1.00  0.00     0.158 A 
HETATM   12  F1  UNL     1      97.932   7.237  17.774  1.00  0.00    -0.202 F 
ENDBRANCH   2   4
ENDBRANCH   1   2
BRANCH   1  13
HETATM   13  O1  UNL     1      95.619  11.239  15.653  1.00  0.00    -0.378 OA
ATOM     14  H1  UNL     1      94.696  11.016  15.696  1.00  0.00     0.211 HD
ENDBRANCH   1  13
BRANCH   1  15
HETATM   15  C8  UNL     1      97.277  11.239  17.245  1.00  0.00     0.197 C 
BRANCH  15  16
HETATM   16  N3  UNL     1      98.577  11.601  16.623  1.00  0.00    -0.283 N 
HETATM   17  C9  UNL     1      99.781  11.452  17.268  1.00  0.00     0.201 A 
HETATM   18  N4  UNL     1     100.768  11.863  16.483  1.00  0.00    -0.346 N 
HETATM   19  C10 UNL     1     100.199  12.277  15.313  1.00  0.00     0.198 A 
ATOM     20  H4  UNL     1     101.762  11.868  16.709  1.00  0.00     0.167 HD
HETATM   21  N5  UNL     1      98.891  12.095  15.467  1.00  0.00    -0.293 N 
ATOM     22  H5  UNL     1      98.204  12.320  14.748  1.00  0.00     0.188 HD
ENDBRANCH  15  16
ENDBRANCH   1  15
BRANCH   1  23
HETATM   23  C11 UNL     1      95.222   9.904  17.388  1.00  0.00     0.021 A 
HETATM   24  C12 UNL     1      93.972   9.986  16.930  1.00  0.00     0.017 A 
HETATM   25  C13 UNL     1      92.931   9.680  17.857  1.00  0.00     0.043 A 
HETATM   26  C14 UNL     1      93.211   9.322  19.140  1.00  0.00     0.119 A 
HETATM   27  F2  UNL     1      92.230   9.026  20.038  1.00  0.00    -0.206 F 
HETATM   28  C15 UNL     1      94.515   9.241  19.590  1.00  0.00     0.085 A 
HETATM   29  C16 UNL     1      95.536   9.547  18.666  1.00  0.00     0.129 A 
HETATM   30  F3  UNL     1      96.776   9.385  19.134  1.00  0.00    -0.205 F 
ENDBRANCH   1  23
TORSDOF 6
ENDMDL
