MODEL 6
REMARK VINA RESULT: -8.306852380      3.358      6.036
REMARK  6 active torsions:
REMARK  status: ('A' for Active; 'I' for Inactive)
REMARK    1  A    between atoms: C2_2  and  C3_3 
REMARK    2  A    between atoms: C2_2  and  C7_12 
REMARK    3  A    between atoms: C7_12  and  O1_13 
REMARK    4  A    between atoms: C7_12  and  C8_15 
REMARK    5  A    between atoms: C7_12  and  C11_23 
REMARK    6  A    between atoms: C8_15  and  N3_16 
ROOT
HETATM    1  C7  UNL     1      98.998   9.235  15.216  1.00  0.00     0.131 C 
ENDROOT
BRANCH   1   2
HETATM    2  C2  UNL     1      99.727   9.428  16.413  1.00  0.00    -0.013 C 
HETATM    3  C1  UNL     1     100.664   8.335  16.935  1.00  0.00     0.050 C 
BRANCH   2   4
HETATM    4  C3  UNL     1     100.378  10.732  16.773  1.00  0.00     0.079 A 
HETATM    5  N1  UNL     1     101.747  10.876  16.649  1.00  0.00    -0.350 N 
HETATM    6  C4  UNL     1     102.373  12.012  17.083  1.00  0.00     0.180 A 
ATOM      7  H1  UNL     1     102.297  10.127  16.229  1.00  0.00     0.166 HD
HETATM    8  N2  UNL     1     101.751  13.041  17.638  1.00  0.00    -0.359 N 
HETATM    9  C5  UNL     1     100.420  12.948  17.776  1.00  0.00     0.133 A 
ATOM     10  H2  UNL     1     102.261  13.868  17.947  1.00  0.00     0.166 HD
HETATM   11  C6  UNL     1      99.749  11.796  17.341  1.00  0.00     0.158 A 
HETATM   12  F1  UNL     1      98.397  11.926  17.442  1.00  0.00    -0.202 F 
ENDBRANCH   2   4
ENDBRANCH   1   2
BRANCH   1  13
HETATM   13  O1  UNL     1      98.736   7.851  14.952  1.00  0.00    -0.378 OA
ATOM     14  H1  UNL     1      98.448   7.701  14.059  1.00  0.00     0.211 HD
ENDBRANCH   1  13
BRANCH   1  15
HETATM   15  C8  UNL     1      99.170   9.858  13.917  1.00  0.00     0.197 C 
BRANCH  15  16
HETATM   16  N3  UNL     1     100.580  10.061  13.490  1.00  0.00    -0.283 N 
HETATM   17  C9  UNL     1     101.098  11.297  13.189  1.00  0.00     0.201 A 
HETATM   18  N4  UNL     1     102.369  11.179  12.830  1.00  0.00    -0.346 N 
HETATM   19  C10 UNL     1     102.681   9.852  12.905  1.00  0.00     0.198 A 
ATOM     20  H4  UNL     1     102.995  11.934  12.552  1.00  0.00     0.167 HD
HETATM   21  N5  UNL     1     101.567   9.244  13.303  1.00  0.00    -0.293 N 
ATOM     22  H5  UNL     1     101.498   8.237  13.447  1.00  0.00     0.188 HD
ENDBRANCH  15  16
ENDBRANCH   1  15
BRANCH   1  23
HETATM   23  C11 UNL     1      97.508   9.551  15.696  1.00  0.00     0.021 A 
HETATM   24  C12 UNL     1      96.826  10.533  15.104  1.00  0.00     0.017 A 
HETATM   25  C13 UNL     1      95.552  10.850  15.663  1.00  0.00     0.043 A 
HETATM   26  C14 UNL     1      95.065  10.177  16.741  1.00  0.00     0.119 A 
HETATM   27  F2  UNL     1      93.850  10.467  17.286  1.00  0.00    -0.206 F 
HETATM   28  C15 UNL     1      95.789   9.161  17.333  1.00  0.00     0.085 A 
HETATM   29  C16 UNL     1      97.048   8.856  16.775  1.00  0.00     0.129 A 
HETATM   30  F3  UNL     1      97.672   7.821  17.343  1.00  0.00    -0.205 F 
ENDBRANCH   1  23
TORSDOF 6
ENDMDL
