MODEL 7
REMARK VINA RESULT: -8.291287313      2.655      4.049
REMARK  6 active torsions:
REMARK  status: ('A' for Active; 'I' for Inactive)
REMARK    1  A    between atoms: C2_2  and  C3_3 
REMARK    2  A    between atoms: C2_2  and  C7_12 
REMARK    3  A    between atoms: C7_12  and  O1_13 
REMARK    4  A    between atoms: C7_12  and  C8_15 
REMARK    5  A    between atoms: C7_12  and  C11_23 
REMARK    6  A    between atoms: C8_15  and  N3_16 
ROOT
HETATM    1  C7  UNL     1      98.900   9.868  16.869  1.00  0.00     0.131 C 
ENDROOT
BRANCH   1   2
HETATM    2  C2  UNL     1      97.775   9.062  16.574  1.00  0.00    -0.013 C 
HETATM    3  C1  UNL     1      97.902   7.536  16.538  1.00  0.00     0.050 C 
BRANCH   2   4
HETATM    4  C3  UNL     1      96.403   9.347  17.111  1.00  0.00     0.079 A 
HETATM    5  N1  UNL     1      96.108   9.067  18.432  1.00  0.00    -0.350 N 
HETATM    6  C4  UNL     1      94.834   9.207  18.909  1.00  0.00     0.180 A 
ATOM      7  H1  UNL     1      96.849   8.752  19.059  1.00  0.00     0.166 HD
HETATM    8  N2  UNL     1      93.804   9.611  18.180  1.00  0.00    -0.359 N 
HETATM    9  C5  UNL     1      94.043   9.898  16.892  1.00  0.00     0.133 A 
ATOM     10  H2  UNL     1      92.871   9.699  18.580  1.00  0.00     0.166 HD
HETATM   11  C6  UNL     1      95.339   9.764  16.373  1.00  0.00     0.158 A 
HETATM   12  F1  UNL     1      95.423  10.217  15.091  1.00  0.00    -0.202 F 
ENDBRANCH   2   4
ENDBRANCH   1   2
BRANCH   1  13
HETATM   13  O1  UNL     1      99.874   9.179  17.664  1.00  0.00    -0.378 OA
ATOM     14  H1  UNL     1     100.480   8.672  17.136  1.00  0.00     0.211 HD
ENDBRANCH   1  13
BRANCH   1  15
HETATM   15  C8  UNL     1      98.962  11.256  17.289  1.00  0.00     0.197 C 
BRANCH  15  16
HETATM   16  N3  UNL     1     100.323  11.766  17.601  1.00  0.00    -0.283 N 
HETATM   17  C9  UNL     1     100.961  12.710  16.835  1.00  0.00     0.201 A 
HETATM   18  N4  UNL     1     102.159  12.968  17.340  1.00  0.00    -0.346 N 
HETATM   19  C10 UNL     1     102.298  12.187  18.451  1.00  0.00     0.198 A 
ATOM     20  H4  UNL     1     102.846  13.625  16.969  1.00  0.00     0.167 HD
HETATM   21  N5  UNL     1     101.167  11.496  18.546  1.00  0.00    -0.293 N 
ATOM     22  H5  UNL     1     100.982  10.821  19.288  1.00  0.00     0.188 HD
ENDBRANCH  15  16
ENDBRANCH   1  15
BRANCH   1  23
HETATM   23  C11 UNL     1      99.742   9.748  15.517  1.00  0.00     0.021 A 
HETATM   24  C12 UNL     1     100.920   9.122  15.535  1.00  0.00     0.017 A 
HETATM   25  C13 UNL     1     101.681   9.161  14.328  1.00  0.00     0.043 A 
HETATM   26  C14 UNL     1     101.217   9.804  13.221  1.00  0.00     0.119 A 
HETATM   27  F2  UNL     1     101.931   9.850  12.061  1.00  0.00    -0.206 F 
HETATM   28  C15 UNL     1      99.992  10.441  13.227  1.00  0.00     0.085 A 
HETATM   29  C16 UNL     1      99.249  10.399  14.425  1.00  0.00     0.129 A 
HETATM   30  F3  UNL     1      98.045  10.970  14.352  1.00  0.00    -0.205 F 
ENDBRANCH   1  23
TORSDOF 6
ENDMDL
