MODEL 2
REMARK VINA RESULT: -7.642552783      0.644      1.061
REMARK  5 active torsions:
REMARK  status: ('A' for Active; 'I' for Inactive)
REMARK    1  A    between atoms: O1_1  and  C1_3 
REMARK    2  A    between atoms: C3_6  and  O3_7 
REMARK    3  A    between atoms: C4_9  and  O4_10 
REMARK    4  A    between atoms: O4_10  and  P1_11 
REMARK    5  A    between atoms: C5_15  and  O8_16 
ROOT
HETATM    1  C1  UNL     1     -14.237 -28.478  16.745  1.00  0.00     0.173 C 
HETATM    2  C2  UNL     1     -15.003 -28.655  15.454  1.00  0.00     0.205 C 
HETATM    3  O2  UNL     1     -16.377 -28.714  15.640  1.00  0.00    -0.356 OA
HETATM    4  C3  UNL     1     -16.810 -27.832  16.609  1.00  0.00     0.288 C 
HETATM    5  C4  UNL     1     -16.302 -28.192  17.990  1.00  0.00     0.221 C 
HETATM    6  C5  UNL     1     -15.088 -29.060  17.883  1.00  0.00     0.183 C 
ENDROOT
BRANCH   5   7
HETATM    7  O4  UNL     1     -16.124 -27.026  18.691  1.00  0.00    -0.270 OA
BRANCH   7   8
HETATM    8  P1  UNL     1     -16.667 -26.786  20.111  1.00  0.00     0.422 P 
HETATM    9  O5  UNL     1     -16.986 -26.337  21.552  1.00  0.00    -0.617 OA
HETATM   10  O6  UNL     1     -17.801 -27.904  19.956  1.00  0.00    -0.617 OA
HETATM   11  O7  UNL     1     -15.118 -27.236  20.639  1.00  0.00    -0.617 OA
ENDBRANCH   7   8
ENDBRANCH   5   7
BRANCH   4  12
HETATM   12  O3  UNL     1     -18.203 -27.870  16.653  1.00  0.00    -0.369 OA
ATOM     13  H3  UNL     1     -18.468 -28.299  17.458  1.00  0.00     0.212 HD
ENDBRANCH   4  12
BRANCH   6  14
HETATM   14  O8  UNL     1     -15.464 -30.339  17.478  1.00  0.00    -0.390 OA
ATOM     15  H8  UNL     1     -15.119 -30.938  18.129  1.00  0.00     0.210 HD
ENDBRANCH   6  14
BRANCH   1  16
HETATM   16  O1  UNL     1     -13.018 -29.100  16.642  1.00  0.00    -0.391 OA
ATOM     17  H1  UNL     1     -12.335 -28.445  16.560  1.00  0.00     0.210 HD
ENDBRANCH   1  16
TORSDOF 5
ENDMDL
