MODEL 9
REMARK VINA RESULT: -5.934685935      6.278      8.354
REMARK  5 active torsions:
REMARK  status: ('A' for Active; 'I' for Inactive)
REMARK    1  A    between atoms: O1_1  and  C1_3 
REMARK    2  A    between atoms: C3_6  and  O3_7 
REMARK    3  A    between atoms: C4_9  and  O4_10 
REMARK    4  A    between atoms: O4_10  and  P1_11 
REMARK    5  A    between atoms: C5_15  and  O8_16 
ROOT
HETATM    1  C1  UNL     1     -15.454 -27.999  24.186  1.00  0.00     0.173 C 
HETATM    2  C2  UNL     1     -15.336 -27.589  25.636  1.00  0.00     0.205 C 
HETATM    3  O2  UNL     1     -15.096 -28.660  26.485  1.00  0.00    -0.356 OA
HETATM    4  C3  UNL     1     -14.226 -29.578  25.933  1.00  0.00     0.288 C 
HETATM    5  C4  UNL     1     -14.811 -30.277  24.724  1.00  0.00     0.221 C 
HETATM    6  C5  UNL     1     -15.922 -29.460  24.143  1.00  0.00     0.183 C 
ENDROOT
BRANCH   5   7
HETATM    7  O4  UNL     1     -13.783 -30.560  23.860  1.00  0.00    -0.270 OA
BRANCH   7   8
HETATM    8  P1  UNL     1     -13.103 -31.936  23.757  1.00  0.00     0.422 P 
HETATM    9  O5  UNL     1     -12.161 -33.152  23.624  1.00  0.00    -0.617 OA
HETATM   10  O6  UNL     1     -14.487 -32.725  23.893  1.00  0.00    -0.617 OA
HETATM   11  O7  UNL     1     -12.583 -31.420  22.226  1.00  0.00    -0.617 OA
ENDBRANCH   7   8
ENDBRANCH   5   7
BRANCH   4  12
HETATM   12  O3  UNL     1     -13.947 -30.555  26.887  1.00  0.00    -0.369 OA
ATOM     13  H3  UNL     1     -14.601 -31.240  26.819  1.00  0.00     0.212 HD
ENDBRANCH   4  12
BRANCH   6  14
HETATM   14  O8  UNL     1     -17.040 -29.538  24.970  1.00  0.00    -0.390 OA
ATOM     15  H8  UNL     1     -16.783 -29.161  25.803  1.00  0.00     0.210 HD
ENDBRANCH   6  14
BRANCH   1  16
HETATM   16  O1  UNL     1     -16.327 -27.157  23.542  1.00  0.00    -0.391 OA
ATOM     17  H1  UNL     1     -17.130 -27.089  24.047  1.00  0.00     0.210 HD
ENDBRANCH   1  16
TORSDOF 5
ENDMDL
