MODEL 3
REMARK VINA RESULT: -7.374582338      0.656      1.044
REMARK  5 active torsions:
REMARK  status: ('A' for Active; 'I' for Inactive)
REMARK    1  A    between atoms: O1_1  and  C1_3 
REMARK    2  A    between atoms: C3_6  and  O3_7 
REMARK    3  A    between atoms: C4_9  and  O4_10 
REMARK    4  A    between atoms: O4_10  and  P1_11 
REMARK    5  A    between atoms: C5_15  and  O8_16 
ROOT
HETATM    1  C1  UNL     1     -14.269 -28.261  16.987  1.00  0.00     0.173 C 
HETATM    2  C2  UNL     1     -14.924 -28.455  15.638  1.00  0.00     0.205 C 
HETATM    3  O2  UNL     1     -16.302 -28.591  15.717  1.00  0.00    -0.356 OA
HETATM    4  C3  UNL     1     -16.855 -27.751  16.662  1.00  0.00     0.288 C 
HETATM    5  C4  UNL     1     -16.435 -28.108  18.072  1.00  0.00     0.221 C 
HETATM    6  C5  UNL     1     -15.171 -28.908  18.048  1.00  0.00     0.183 C 
ENDROOT
BRANCH   5   7
HETATM    7  O4  UNL     1     -16.375 -26.948  18.802  1.00  0.00    -0.270 OA
BRANCH   7   8
HETATM    8  P1  UNL     1     -16.333 -26.901  20.340  1.00  0.00     0.422 P 
HETATM    9  O5  UNL     1     -16.593 -26.912  21.861  1.00  0.00    -0.617 OA
HETATM   10  O6  UNL     1     -14.765 -26.586  20.371  1.00  0.00    -0.617 OA
HETATM   11  O7  UNL     1     -17.438 -25.621  20.202  1.00  0.00    -0.617 OA
ENDBRANCH   7   8
ENDBRANCH   5   7
BRANCH   4  12
HETATM   12  O3  UNL     1     -18.243 -27.864  16.598  1.00  0.00    -0.369 OA
ATOM     13  H3  UNL     1     -18.622 -27.343  17.295  1.00  0.00     0.212 HD
ENDBRANCH   4  12
BRANCH   6  14
HETATM   14  O8  UNL     1     -15.445 -30.198  17.596  1.00  0.00    -0.390 OA
ATOM     15  H8  UNL     1     -15.792 -30.105  16.717  1.00  0.00     0.210 HD
ENDBRANCH   6  14
BRANCH   1  16
HETATM   16  O1  UNL     1     -13.013 -28.816  16.969  1.00  0.00    -0.391 OA
ATOM     17  H1  UNL     1     -12.545 -28.561  17.755  1.00  0.00     0.210 HD
ENDBRANCH   1  16
TORSDOF 5
ENDMDL
