MODEL 7
REMARK VINA RESULT: -6.130374395      7.173      8.636
REMARK  5 active torsions:
REMARK  status: ('A' for Active; 'I' for Inactive)
REMARK    1  A    between atoms: O1_1  and  C1_3 
REMARK    2  A    between atoms: C3_6  and  O3_7 
REMARK    3  A    between atoms: C4_9  and  O4_10 
REMARK    4  A    between atoms: O4_10  and  P1_11 
REMARK    5  A    between atoms: C5_15  and  O8_16 
ROOT
HETATM    1  C1  UNL     1     -16.200 -29.328  24.894  1.00  0.00     0.173 C 
HETATM    2  C2  UNL     1     -15.423 -28.104  25.323  1.00  0.00     0.205 C 
HETATM    3  O2  UNL     1     -14.100 -28.381  25.632  1.00  0.00    -0.356 OA
HETATM    4  C3  UNL     1     -13.547 -29.309  24.772  1.00  0.00     0.288 C 
HETATM    5  C4  UNL     1     -14.181 -30.677  24.909  1.00  0.00     0.221 C 
HETATM    6  C5  UNL     1     -15.537 -30.558  25.532  1.00  0.00     0.183 C 
ENDROOT
BRANCH   5   7
HETATM    7  O4  UNL     1     -14.159 -31.279  23.676  1.00  0.00    -0.270 OA
BRANCH   7   8
HETATM    8  P1  UNL     1     -13.160 -32.380  23.277  1.00  0.00     0.422 P 
HETATM    9  O5  UNL     1     -12.340 -33.667  23.048  1.00  0.00    -0.617 OA
HETATM   10  O6  UNL     1     -12.258 -31.371  22.425  1.00  0.00    -0.617 OA
HETATM   11  O7  UNL     1     -12.879 -32.548  24.942  1.00  0.00    -0.617 OA
ENDBRANCH   7   8
ENDBRANCH   5   7
BRANCH   4  12
HETATM   12  O3  UNL     1     -12.193 -29.444  25.075  1.00  0.00    -0.369 OA
ATOM     13  H3  UNL     1     -12.086 -30.184  25.660  1.00  0.00     0.212 HD
ENDBRANCH   4  12
BRANCH   6  14
HETATM   14  O8  UNL     1     -15.403 -30.271  26.888  1.00  0.00    -0.390 OA
ATOM     15  H8  UNL     1     -14.473 -30.312  27.080  1.00  0.00     0.210 HD
ENDBRANCH   6  14
BRANCH   1  16
HETATM   16  O1  UNL     1     -17.512 -29.194  25.274  1.00  0.00    -0.391 OA
ATOM     17  H1  UNL     1     -18.051 -29.790  24.767  1.00  0.00     0.210 HD
ENDBRANCH   1  16
TORSDOF 5
ENDMDL
