MODEL 1
REMARK VINA RESULT: -7.783136603      0.000      0.000
REMARK  5 active torsions:
REMARK  status: ('A' for Active; 'I' for Inactive)
REMARK    1  A    between atoms: O1_1  and  C1_3 
REMARK    2  A    between atoms: C3_6  and  O3_7 
REMARK    3  A    between atoms: C4_9  and  O4_10 
REMARK    4  A    between atoms: O4_10  and  P1_11 
REMARK    5  A    between atoms: C5_15  and  O8_16 
ROOT
HETATM    1  C1  UNL     1     -14.321 -28.198  17.004  1.00  0.00     0.173 C 
HETATM    2  C2  UNL     1     -14.938 -28.416  15.641  1.00  0.00     0.205 C 
HETATM    3  O2  UNL     1     -16.313 -28.592  15.689  1.00  0.00    -0.356 OA
HETATM    4  C3  UNL     1     -16.913 -27.765  16.617  1.00  0.00     0.288 C 
HETATM    5  C4  UNL     1     -16.516 -28.105  18.038  1.00  0.00     0.221 C 
HETATM    6  C5  UNL     1     -15.229 -28.868  18.047  1.00  0.00     0.183 C 
ENDROOT
BRANCH   5   7
HETATM    7  O4  UNL     1     -16.507 -26.940  18.764  1.00  0.00    -0.270 OA
BRANCH   7   8
HETATM    8  P1  UNL     1     -16.661 -26.881  20.294  1.00  0.00     0.422 P 
HETATM    9  O5  UNL     1     -16.687 -27.102  21.821  1.00  0.00    -0.617 OA
HETATM   10  O6  UNL     1     -17.343 -25.434  20.253  1.00  0.00    -0.617 OA
HETATM   11  O7  UNL     1     -17.628 -28.264  20.120  1.00  0.00    -0.617 OA
ENDBRANCH   7   8
ENDBRANCH   5   7
BRANCH   4  12
HETATM   12  O3  UNL     1     -18.295 -27.920  16.521  1.00  0.00    -0.369 OA
ATOM     13  H3  UNL     1     -18.653 -27.993  17.397  1.00  0.00     0.212 HD
ENDBRANCH   4  12
BRANCH   6  14
HETATM   14  O8  UNL     1     -15.454 -30.166  17.595  1.00  0.00    -0.390 OA
ATOM     15  H8  UNL     1     -16.225 -30.479  18.052  1.00  0.00     0.210 HD
ENDBRANCH   6  14
BRANCH   1  16
HETATM   16  O1  UNL     1     -13.050 -28.715  17.019  1.00  0.00    -0.391 OA
ATOM     17  H1  UNL     1     -12.431 -28.040  16.768  1.00  0.00     0.210 HD
ENDBRANCH   1  16
TORSDOF 5
ENDMDL
