MODEL 5
REMARK VINA RESULT: -6.385265508      2.151      4.806
REMARK  5 active torsions:
REMARK  status: ('A' for Active; 'I' for Inactive)
REMARK    1  A    between atoms: O1_1  and  C1_3 
REMARK    2  A    between atoms: C3_6  and  O3_7 
REMARK    3  A    between atoms: C4_9  and  O4_10 
REMARK    4  A    between atoms: O4_10  and  P1_11 
REMARK    5  A    between atoms: C5_15  and  O8_16 
ROOT
HETATM    1  C1  UNL     1     -16.754 -26.325  19.789  1.00  0.00     0.173 C 
HETATM    2  C2  UNL     1     -15.798 -26.486  20.949  1.00  0.00     0.205 C 
HETATM    3  O2  UNL     1     -15.030 -27.638  20.864  1.00  0.00    -0.356 OA
HETATM    4  C3  UNL     1     -14.628 -27.902  19.570  1.00  0.00     0.288 C 
HETATM    5  C4  UNL     1     -15.790 -28.248  18.662  1.00  0.00     0.221 C 
HETATM    6  C5  UNL     1     -17.068 -27.724  19.237  1.00  0.00     0.183 C 
ENDROOT
BRANCH   5   7
HETATM    7  O4  UNL     1     -15.490 -27.795  17.402  1.00  0.00    -0.270 OA
BRANCH   7   8
HETATM    8  P1  UNL     1     -15.518 -28.679  16.143  1.00  0.00     0.422 P 
HETATM    9  O5  UNL     1     -15.634 -29.307  14.737  1.00  0.00    -0.617 OA
HETATM   10  O6  UNL     1     -15.083 -29.990  16.951  1.00  0.00    -0.617 OA
HETATM   11  O7  UNL     1     -17.161 -28.265  16.047  1.00  0.00    -0.617 OA
ENDBRANCH   7   8
ENDBRANCH   5   7
BRANCH   4  12
HETATM   12  O3  UNL     1     -13.770 -29.001  19.588  1.00  0.00    -0.369 OA
ATOM     13  H3  UNL     1     -12.891 -28.701  19.391  1.00  0.00     0.212 HD
ENDBRANCH   4  12
BRANCH   6  14
HETATM   14  O8  UNL     1     -17.441 -28.502  20.330  1.00  0.00    -0.390 OA
ATOM     15  H8  UNL     1     -16.635 -28.772  20.754  1.00  0.00     0.210 HD
ENDBRANCH   6  14
BRANCH   1  16
HETATM   16  O1  UNL     1     -17.885 -25.673  20.214  1.00  0.00    -0.391 OA
ATOM     17  H1  UNL     1     -18.540 -26.311  20.472  1.00  0.00     0.210 HD
ENDBRANCH   1  16
TORSDOF 5
ENDMDL
