MODEL 2
REMARK VINA RESULT: -7.042943456      1.380      1.592
REMARK  7 active torsions:
REMARK  status: ('A' for Active; 'I' for Inactive)
REMARK    1  A    between atoms: C2_2  and  O1_4 
REMARK    2  A    between atoms: O1_4  and  P1_5 
REMARK    3  A    between atoms: P1_5  and  O4_8 
REMARK    4  A    between atoms: O4_8  and  C4_9 
REMARK    5  A    between atoms: C5_10  and  O5_11 
REMARK    6  A    between atoms: C6_13  and  O6_14 
REMARK    7  A    between atoms: C8_18  and  O8_19 
ROOT
HETATM    1  C4  UNL     1     -16.150 -27.544  18.084  1.00  0.00     0.220 C 
HETATM    2  C5  UNL     1     -14.917 -28.420  18.031  1.00  0.00     0.183 C 
HETATM    3  C6  UNL     1     -14.041 -27.879  16.920  1.00  0.00     0.173 C 
HETATM    4  C7  UNL     1     -14.759 -27.985  15.612  1.00  0.00     0.205 C 
HETATM    5  O7  UNL     1     -16.131 -28.205  15.764  1.00  0.00    -0.356 OA
HETATM    6  C8  UNL     1     -16.689 -27.322  16.691  1.00  0.00     0.288 C 
ENDROOT
BRANCH   1   7
HETATM    7  O4  UNL     1     -15.828 -26.392  18.736  1.00  0.00    -0.277 OA
BRANCH   7   8
HETATM    8  P1  UNL     1     -15.761 -26.500  20.398  1.00  0.00     0.409 P 
HETATM    9  O2  UNL     1     -16.717 -25.312  20.488  1.00  0.00    -0.624 OA
HETATM   10  O3  UNL     1     -16.682 -27.587  21.185  1.00  0.00    -0.624 OA
BRANCH   8  11
HETATM   11  O1  UNL     1     -14.573 -25.646  21.190  1.00  0.00    -0.285 OA
BRANCH  11  12
HETATM   12  C2  UNL     1     -13.295 -25.980  20.862  1.00  0.00     0.126 C 
HETATM   13  C1  UNL     1     -13.058 -27.452  21.128  1.00  0.00     0.040 C 
HETATM   14  C3  UNL     1     -12.256 -25.221  21.675  1.00  0.00     0.040 C 
ENDBRANCH  11  12
ENDBRANCH   8  11
ENDBRANCH   7   8
ENDBRANCH   1   7
BRANCH   2  15
HETATM   15  O5  UNL     1     -15.236 -29.757  17.841  1.00  0.00    -0.390 OA
ATOM     16  H5  UNL     1     -15.787 -29.887  17.078  1.00  0.00     0.210 HD
ENDBRANCH   2  15
BRANCH   6  17
HETATM   17  O8  UNL     1     -18.060 -27.566  16.727  1.00  0.00    -0.369 OA
ATOM     18  H8  UNL     1     -18.366 -27.622  15.829  1.00  0.00     0.212 HD
ENDBRANCH   6  17
BRANCH   3  19
HETATM   19  O6  UNL     1     -12.857 -28.609  16.944  1.00  0.00    -0.391 OA
ATOM     20  H6  UNL     1     -12.159 -28.014  16.697  1.00  0.00     0.210 HD
ENDBRANCH   3  19
TORSDOF 7
ENDMDL
