MODEL 1
REMARK VINA RESULT: -7.154506910      0.000      0.000
REMARK  7 active torsions:
REMARK  status: ('A' for Active; 'I' for Inactive)
REMARK    1  A    between atoms: C2_2  and  O1_4 
REMARK    2  A    between atoms: O1_4  and  P1_5 
REMARK    3  A    between atoms: P1_5  and  O4_8 
REMARK    4  A    between atoms: O4_8  and  C4_9 
REMARK    5  A    between atoms: C5_10  and  O5_11 
REMARK    6  A    between atoms: C6_13  and  O6_14 
REMARK    7  A    between atoms: C8_18  and  O8_19 
ROOT
HETATM    1  C4  UNL     1     -16.097 -27.665  18.080  1.00  0.00     0.220 C 
HETATM    2  C5  UNL     1     -14.885 -28.563  17.961  1.00  0.00     0.183 C 
HETATM    3  C6  UNL     1     -13.997 -27.963  16.891  1.00  0.00     0.173 C 
HETATM    4  C7  UNL     1     -14.718 -27.956  15.580  1.00  0.00     0.205 C 
HETATM    5  O7  UNL     1     -16.094 -28.155  15.719  1.00  0.00    -0.356 OA
HETATM    6  C8  UNL     1     -16.632 -27.331  16.709  1.00  0.00     0.288 C 
ENDROOT
BRANCH   1   7
HETATM    7  O4  UNL     1     -15.749 -26.571  18.814  1.00  0.00    -0.277 OA
BRANCH   7   8
HETATM    8  P1  UNL     1     -16.287 -26.561  20.392  1.00  0.00     0.409 P 
HETATM    9  O2  UNL     1     -17.063 -25.280  20.091  1.00  0.00    -0.624 OA
HETATM   10  O3  UNL     1     -17.551 -27.489  20.831  1.00  0.00    -0.624 OA
BRANCH   8  11
HETATM   11  O1  UNL     1     -15.363 -25.774  21.529  1.00  0.00    -0.285 OA
BRANCH  11  12
HETATM   12  C2  UNL     1     -15.623 -26.104  22.823  1.00  0.00     0.126 C 
HETATM   13  C1  UNL     1     -15.147 -25.002  23.746  1.00  0.00     0.040 C 
HETATM   14  C3  UNL     1     -14.913 -27.376  23.265  1.00  0.00     0.040 C 
ENDBRANCH  11  12
ENDBRANCH   8  11
ENDBRANCH   7   8
ENDBRANCH   1   7
BRANCH   2  15
HETATM   15  O5  UNL     1     -15.234 -29.875  17.675  1.00  0.00    -0.390 OA
ATOM     16  H5  UNL     1     -15.105 -30.087  16.758  1.00  0.00     0.210 HD
ENDBRANCH   2  15
BRANCH   6  17
HETATM   17  O8  UNL     1     -18.008 -27.545  16.729  1.00  0.00    -0.369 OA
ATOM     18  H8  UNL     1     -18.281 -27.752  15.843  1.00  0.00     0.212 HD
ENDBRANCH   6  17
BRANCH   3  19
HETATM   19  O6  UNL     1     -12.830 -28.719  16.859  1.00  0.00    -0.391 OA
ATOM     20  H6  UNL     1     -12.745 -29.062  15.978  1.00  0.00     0.210 HD
ENDBRANCH   3  19
TORSDOF 7
ENDMDL
