MODEL 9
REMARK VINA RESULT: -6.432468609      6.740      7.577
REMARK  7 active torsions:
REMARK  status: ('A' for Active; 'I' for Inactive)
REMARK    1  A    between atoms: C2_2  and  O1_4 
REMARK    2  A    between atoms: O1_4  and  P1_5 
REMARK    3  A    between atoms: P1_5  and  O4_8 
REMARK    4  A    between atoms: O4_8  and  C4_9 
REMARK    5  A    between atoms: C5_10  and  O5_11 
REMARK    6  A    between atoms: C6_13  and  O6_14 
REMARK    7  A    between atoms: C8_18  and  O8_19 
ROOT
HETATM    1  C4  UNL     1     -13.620 -30.171  25.449  1.00  0.00     0.220 C 
HETATM    2  C5  UNL     1     -12.235 -30.777  25.511  1.00  0.00     0.183 C 
HETATM    3  C6  UNL     1     -11.838 -31.113  24.089  1.00  0.00     0.173 C 
HETATM    4  C7  UNL     1     -12.780 -32.131  23.528  1.00  0.00     0.205 C 
HETATM    5  O7  UNL     1     -13.954 -32.252  24.276  1.00  0.00    -0.356 OA
HETATM    6  C8  UNL     1     -14.510 -31.003  24.558  1.00  0.00     0.288 C 
ENDROOT
BRANCH   1   7
HETATM    7  O4  UNL     1     -13.503 -28.875  25.048  1.00  0.00    -0.277 OA
BRANCH   7   8
HETATM    8  P1  UNL     1     -13.644 -27.733  26.255  1.00  0.00     0.409 P 
HETATM    9  O2  UNL     1     -14.462 -28.732  27.070  1.00  0.00    -0.624 OA
HETATM   10  O3  UNL     1     -12.432 -27.515  27.321  1.00  0.00    -0.624 OA
BRANCH   8  11
HETATM   11  O1  UNL     1     -14.931 -26.681  26.191  1.00  0.00    -0.285 OA
BRANCH  11  12
HETATM   12  C2  UNL     1     -15.822 -26.907  25.187  1.00  0.00     0.126 C 
HETATM   13  C1  UNL     1     -15.509 -26.016  24.004  1.00  0.00     0.040 C 
HETATM   14  C3  UNL     1     -17.258 -26.605  25.589  1.00  0.00     0.040 C 
ENDBRANCH  11  12
ENDBRANCH   8  11
ENDBRANCH   7   8
ENDBRANCH   1   7
BRANCH   2  15
HETATM   15  O5  UNL     1     -12.188 -31.887  26.343  1.00  0.00    -0.390 OA
ATOM     16  H5  UNL     1     -12.317 -32.697  25.864  1.00  0.00     0.210 HD
ENDBRANCH   2  15
BRANCH   6  17
HETATM   17  O8  UNL     1     -15.705 -31.222  25.242  1.00  0.00    -0.369 OA
ATOM     18  H8  UNL     1     -16.415 -31.122  24.619  1.00  0.00     0.212 HD
ENDBRANCH   6  17
BRANCH   3  19
HETATM   19  O6  UNL     1     -10.522 -31.563  24.129  1.00  0.00    -0.391 OA
ATOM     20  H6  UNL     1     -10.252 -31.710  23.231  1.00  0.00     0.210 HD
ENDBRANCH   3  19
TORSDOF 7
ENDMDL
