MODEL 14
REMARK VINA RESULT: -6.181997990      3.658      5.927
REMARK  7 active torsions:
REMARK  status: ('A' for Active; 'I' for Inactive)
REMARK    1  A    between atoms: C2_2  and  O1_4 
REMARK    2  A    between atoms: O1_4  and  P1_5 
REMARK    3  A    between atoms: P1_5  and  O4_8 
REMARK    4  A    between atoms: O4_8  and  C4_9 
REMARK    5  A    between atoms: C5_10  and  O5_11 
REMARK    6  A    between atoms: C6_13  and  O6_14 
REMARK    7  A    between atoms: C8_18  and  O8_19 
ROOT
HETATM    1  C4  UNL     1     -15.035 -26.851  23.401  1.00  0.00     0.220 C 
HETATM    2  C5  UNL     1     -15.693 -25.743  22.608  1.00  0.00     0.183 C 
HETATM    3  C6  UNL     1     -16.025 -26.315  21.246  1.00  0.00     0.173 C 
HETATM    4  C7  UNL     1     -14.767 -26.722  20.547  1.00  0.00     0.205 C 
HETATM    5  O7  UNL     1     -13.673 -26.813  21.412  1.00  0.00    -0.356 OA
HETATM    6  C8  UNL     1     -13.990 -27.541  22.560  1.00  0.00     0.288 C 
ENDROOT
BRANCH   1   7
HETATM    7  O4  UNL     1     -16.010 -27.687  23.858  1.00  0.00    -0.277 OA
BRANCH   7   8
HETATM    8  P1  UNL     1     -15.762 -28.318  25.381  1.00  0.00     0.409 P 
HETATM    9  O2  UNL     1     -15.420 -26.914  25.878  1.00  0.00    -0.624 OA
HETATM   10  O3  UNL     1     -17.029 -28.599  26.366  1.00  0.00    -0.624 OA
BRANCH   8  11
HETATM   11  O1  UNL     1     -14.238 -28.862  25.766  1.00  0.00    -0.285 OA
BRANCH  11  12
HETATM   12  C2  UNL     1     -14.107 -30.213  25.861  1.00  0.00     0.126 C 
HETATM   13  C1  UNL     1     -12.748 -30.564  26.430  1.00  0.00     0.040 C 
HETATM   14  C3  UNL     1     -14.208 -30.915  24.515  1.00  0.00     0.040 C 
ENDBRANCH  11  12
ENDBRANCH   8  11
ENDBRANCH   7   8
ENDBRANCH   1   7
BRANCH   2  15
HETATM   15  O5  UNL     1     -14.887 -24.617  22.520  1.00  0.00    -0.390 OA
ATOM     16  H5  UNL     1     -15.309 -23.913  22.041  1.00  0.00     0.210 HD
ENDBRANCH   2  15
BRANCH   6  17
HETATM   17  O8  UNL     1     -12.830 -27.640  23.326  1.00  0.00    -0.369 OA
ATOM     18  H8  UNL     1     -12.183 -28.107  22.810  1.00  0.00     0.212 HD
ENDBRANCH   6  17
BRANCH   3  19
HETATM   19  O6  UNL     1     -16.733 -25.337  20.555  1.00  0.00    -0.391 OA
ATOM     20  H6  UNL     1     -17.542 -25.191  21.029  1.00  0.00     0.210 HD
ENDBRANCH   3  19
TORSDOF 7
ENDMDL
