MODEL 12
REMARK VINA RESULT: -6.218794365      2.088      6.042
REMARK  7 active torsions:
REMARK  status: ('A' for Active; 'I' for Inactive)
REMARK    1  A    between atoms: C2_2  and  O1_4 
REMARK    2  A    between atoms: O1_4  and  P1_5 
REMARK    3  A    between atoms: P1_5  and  O4_8 
REMARK    4  A    between atoms: O4_8  and  C4_9 
REMARK    5  A    between atoms: C5_10  and  O5_11 
REMARK    6  A    between atoms: C6_13  and  O6_14 
REMARK    7  A    between atoms: C8_18  and  O8_19 
ROOT
HETATM    1  C4  UNL     1     -15.134 -27.553  19.292  1.00  0.00     0.220 C 
HETATM    2  C5  UNL     1     -16.568 -27.188  19.610  1.00  0.00     0.183 C 
HETATM    3  C6  UNL     1     -16.549 -25.786  20.183  1.00  0.00     0.173 C 
HETATM    4  C7  UNL     1     -15.757 -25.769  21.453  1.00  0.00     0.205 C 
HETATM    5  O7  UNL     1     -14.961 -26.907  21.610  1.00  0.00    -0.356 OA
HETATM    6  C8  UNL     1     -14.237 -27.186  20.449  1.00  0.00     0.288 C 
ENDROOT
BRANCH   1   7
HETATM    7  O4  UNL     1     -14.789 -26.950  18.120  1.00  0.00    -0.277 OA
BRANCH   7   8
HETATM    8  P1  UNL     1     -15.095 -27.833  16.739  1.00  0.00     0.409 P 
HETATM    9  O2  UNL     1     -15.234 -29.086  17.602  1.00  0.00    -0.624 OA
HETATM   10  O3  UNL     1     -16.589 -27.844  16.089  1.00  0.00    -0.624 OA
BRANCH   8  11
HETATM   11  O1  UNL     1     -13.801 -28.494  15.930  1.00  0.00    -0.285 OA
BRANCH  11  12
HETATM   12  C2  UNL     1     -14.043 -28.862  14.642  1.00  0.00     0.126 C 
HETATM   13  C1  UNL     1     -14.824 -30.159  14.611  1.00  0.00     0.040 C 
HETATM   14  C3  UNL     1     -12.769 -29.104  13.845  1.00  0.00     0.040 C 
ENDBRANCH  11  12
ENDBRANCH   8  11
ENDBRANCH   7   8
ENDBRANCH   1   7
BRANCH   2  15
HETATM   15  O5  UNL     1     -17.157 -28.099  20.476  1.00  0.00    -0.390 OA
ATOM     16  H5  UNL     1     -17.384 -27.703  21.310  1.00  0.00     0.210 HD
ENDBRANCH   2  15
BRANCH   6  17
HETATM   17  O8  UNL     1     -13.425 -28.286  20.718  1.00  0.00    -0.369 OA
ATOM     18  H8  UNL     1     -13.527 -28.501  21.638  1.00  0.00     0.212 HD
ENDBRANCH   6  17
BRANCH   3  19
HETATM   19  O6  UNL     1     -17.873 -25.404  20.369  1.00  0.00    -0.391 OA
ATOM     20  H6  UNL     1     -18.142 -24.942  19.585  1.00  0.00     0.210 HD
ENDBRANCH   3  19
TORSDOF 7
ENDMDL
