MODEL 3
REMARK VINA RESULT: -7.899185563      2.415      6.833
REMARK  6 active torsions:
REMARK  status: ('A' for Active; 'I' for Inactive)
REMARK    1  A    between atoms: C2_4  and  O3_5 
REMARK    2  A    between atoms: C2_4  and  C3_7 
REMARK    3  A    between atoms: C3_7  and  C4_8 
REMARK    4  A    between atoms: C10_15  and  C11_16 
REMARK    5  A    between atoms: C19_27  and  C20_28 
REMARK    6  A    between atoms: C20_28  and  C21_29 
ROOT
HETATM    1  O1  UNL     1      10.646   5.901 -27.784  1.00  0.00    -0.259 OA
HETATM    2  C1  UNL     1       9.645   5.354 -27.220  1.00  0.00     0.293 A 
HETATM    3  O2  UNL     1       8.548   6.044 -26.738  1.00  0.00    -0.275 OA
HETATM    4  C2  UNL     1       7.673   5.081 -26.199  1.00  0.00     0.205 A 
HETATM    5  C10 UNL     1       8.316   3.760 -26.378  1.00  0.00     0.029 A 
HETATM    6  C19 UNL     1       9.465   3.946 -26.979  1.00  0.00     0.034 A 
ENDROOT
BRANCH   5   7
HETATM    7  C11 UNL     1       7.736   2.528 -25.905  1.00  0.00     0.004 A 
HETATM    8  C12 UNL     1       6.834   1.708 -26.570  1.00  0.00     0.101 A 
HETATM    9  N1  UNL     1       6.487   0.665 -25.809  1.00  0.00    -0.364 N 
HETATM   10  C13 UNL     1       7.170   0.816 -24.647  1.00  0.00     0.044 A 
ATOM     11  H1  UNL     1       5.844  -0.088 -26.052  1.00  0.00     0.165 HD
HETATM   12  C14 UNL     1       7.135  -0.017 -23.527  1.00  0.00     0.054 A 
HETATM   13  C18 UNL     1       7.950   1.946 -24.659  1.00  0.00     0.003 A 
HETATM   14  C15 UNL     1       7.886   0.298 -22.428  1.00  0.00     0.036 A 
HETATM   15 CL2  UNL     1       7.833  -0.751 -21.035  1.00  0.00    -0.084 Cl
HETATM   16  C16 UNL     1       8.660   1.436 -22.463  1.00  0.00     0.025 A 
HETATM   17  C17 UNL     1       8.711   2.270 -23.554  1.00  0.00     0.016 A 
ENDBRANCH   5   7
BRANCH   4  18
HETATM   18  O3  UNL     1       6.486   5.077 -26.899  1.00  0.00    -0.361 OA
ATOM     19  H3  UNL     1       5.763   5.273 -26.316  1.00  0.00     0.213 HD
ENDBRANCH   4  18
BRANCH   4  20
HETATM   20  C3  UNL     1       7.491   5.431 -24.740  1.00  0.00     0.113 C 
BRANCH  20  21
HETATM   21  C4  UNL     1       6.040   5.513 -24.433  1.00  0.00    -0.053 A 
HETATM   22  C5  UNL     1       5.433   6.755 -24.406  1.00  0.00     0.009 A 
HETATM   23  C6  UNL     1       4.087   6.811 -24.118  1.00  0.00     0.024 A 
HETATM   24  C7  UNL     1       3.340   5.672 -23.861  1.00  0.00     0.034 A 
HETATM   25 CL1  UNL     1       1.615   5.832 -23.500  1.00  0.00    -0.084 Cl
HETATM   26  C8  UNL     1       3.938   4.432 -23.887  1.00  0.00     0.024 A 
HETATM   27  C9  UNL     1       5.290   4.390 -24.178  1.00  0.00     0.009 A 
ENDBRANCH  20  21
ENDBRANCH   4  20
BRANCH   6  28
HETATM   28  C20 UNL     1      10.459   2.896 -27.414  1.00  0.00     0.084 C 
BRANCH  28  29
HETATM   29  C21 UNL     1      10.291   2.569 -28.858  1.00  0.00    -0.054 A 
HETATM   30  C22 UNL     1       9.236   1.806 -29.302  1.00  0.00     0.009 A 
HETATM   31  C23 UNL     1       9.113   1.516 -30.647  1.00  0.00     0.024 A 
HETATM   32  C24 UNL     1      10.026   1.973 -31.563  1.00  0.00     0.034 A 
HETATM   33 CL3  UNL     1       9.868   1.601 -33.288  1.00  0.00    -0.084 Cl
HETATM   34  C25 UNL     1      11.089   2.739 -31.138  1.00  0.00     0.024 A 
HETATM   35  C26 UNL     1      11.193   3.015 -29.796  1.00  0.00     0.009 A 
ENDBRANCH  28  29
ENDBRANCH   6  28
TORSDOF 6
ENDMDL
