MODEL 1
REMARK VINA RESULT: -8.009041475      0.000      0.000
REMARK  6 active torsions:
REMARK  status: ('A' for Active; 'I' for Inactive)
REMARK    1  A    between atoms: C2_4  and  O3_5 
REMARK    2  A    between atoms: C2_4  and  C3_7 
REMARK    3  A    between atoms: C3_7  and  C4_8 
REMARK    4  A    between atoms: C10_15  and  C11_16 
REMARK    5  A    between atoms: C19_27  and  C20_28 
REMARK    6  A    between atoms: C20_28  and  C21_29 
ROOT
HETATM    1  O1  UNL     1       4.374   3.390 -28.541  1.00  0.00    -0.259 OA
HETATM    2  C1  UNL     1       5.375   3.406 -27.756  1.00  0.00     0.293 A 
HETATM    3  O2  UNL     1       6.673   3.670 -28.152  1.00  0.00    -0.275 OA
HETATM    4  C2  UNL     1       7.470   3.595 -26.993  1.00  0.00     0.205 A 
HETATM    5  C10 UNL     1       6.569   3.260 -25.867  1.00  0.00     0.029 A 
HETATM    6  C19 UNL     1       5.351   3.158 -26.338  1.00  0.00     0.034 A 
ENDROOT
BRANCH   5   7
HETATM    7  C11 UNL     1       7.034   3.053 -24.518  1.00  0.00     0.004 A 
HETATM    8  C12 UNL     1       7.492   4.012 -23.625  1.00  0.00     0.101 A 
HETATM    9  N1  UNL     1       7.873   3.449 -22.474  1.00  0.00    -0.364 N 
HETATM   10  C13 UNL     1       7.659   2.119 -22.629  1.00  0.00     0.044 A 
ATOM     11  H1  UNL     1       8.246   3.921 -21.651  1.00  0.00     0.165 HD
HETATM   12  C14 UNL     1       7.911   1.104 -21.702  1.00  0.00     0.054 A 
HETATM   13  C18 UNL     1       7.145   1.827 -23.868  1.00  0.00     0.003 A 
HETATM   14  C15 UNL     1       7.642  -0.195 -22.035  1.00  0.00     0.036 A 
HETATM   15 CL2  UNL     1       7.962  -1.452 -20.868  1.00  0.00    -0.084 Cl
HETATM   16  C16 UNL     1       7.127  -0.463 -23.283  1.00  0.00     0.025 A 
HETATM   17  C17 UNL     1       6.871   0.518 -24.211  1.00  0.00     0.016 A 
ENDBRANCH   5   7
BRANCH   4  18
HETATM   18  O3  UNL     1       8.040   4.823 -26.732  1.00  0.00    -0.361 OA
ATOM     19  H3  UNL     1       8.307   5.236 -27.545  1.00  0.00     0.213 HD
ENDBRANCH   4  18
BRANCH   4  20
HETATM   20  C3  UNL     1       8.495   2.514 -27.242  1.00  0.00     0.113 C 
BRANCH  20  21
HETATM   21  C4  UNL     1       9.857   3.093 -27.121  1.00  0.00    -0.053 A 
HETATM   22  C5  UNL     1      10.549   3.417 -28.273  1.00  0.00     0.009 A 
HETATM   23  C6  UNL     1      11.812   3.952 -28.140  1.00  0.00     0.024 A 
HETATM   24  C7  UNL     1      12.394   4.169 -26.901  1.00  0.00     0.034 A 
HETATM   25 CL1  UNL     1      14.021   4.861 -26.818  1.00  0.00    -0.084 Cl
HETATM   26  C8  UNL     1      11.711   3.848 -25.749  1.00  0.00     0.024 A 
HETATM   27  C9  UNL     1      10.443   3.313 -25.897  1.00  0.00     0.009 A 
ENDBRANCH  20  21
ENDBRANCH   4  20
BRANCH   6  28
HETATM   28  C20 UNL     1       4.085   2.873 -25.566  1.00  0.00     0.084 C 
BRANCH  28  29
HETATM   29  C21 UNL     1       3.394   4.139 -25.191  1.00  0.00    -0.054 A 
HETATM   30  C22 UNL     1       3.792   4.877 -24.100  1.00  0.00     0.009 A 
HETATM   31  C23 UNL     1       3.126   6.043 -23.776  1.00  0.00     0.024 A 
HETATM   32  C24 UNL     1       2.065   6.490 -24.520  1.00  0.00     0.034 A 
HETATM   33 CL3  UNL     1       1.211   7.985 -24.104  1.00  0.00    -0.084 Cl
HETATM   34  C25 UNL     1       1.651   5.765 -25.616  1.00  0.00     0.024 A 
HETATM   35  C26 UNL     1       2.326   4.608 -25.921  1.00  0.00     0.009 A 
ENDBRANCH  28  29
ENDBRANCH   6  28
TORSDOF 6
ENDMDL
