MODEL 4
REMARK VINA RESULT: -7.806826960      1.336      6.640
REMARK  6 active torsions:
REMARK  status: ('A' for Active; 'I' for Inactive)
REMARK    1  A    between atoms: C2_4  and  O3_5 
REMARK    2  A    between atoms: C2_4  and  C3_7 
REMARK    3  A    between atoms: C3_7  and  C4_8 
REMARK    4  A    between atoms: C10_15  and  C11_16 
REMARK    5  A    between atoms: C19_27  and  C20_28 
REMARK    6  A    between atoms: C20_28  and  C21_29 
ROOT
HETATM    1  O1  UNL     1       5.295   2.551 -29.183  1.00  0.00    -0.259 OA
HETATM    2  C1  UNL     1       5.222   2.793 -27.936  1.00  0.00     0.293 A 
HETATM    3  O2  UNL     1       4.148   3.411 -27.322  1.00  0.00    -0.275 OA
HETATM    4  C2  UNL     1       4.457   3.485 -25.950  1.00  0.00     0.205 A 
HETATM    5  C10 UNL     1       5.795   2.877 -25.772  1.00  0.00     0.029 A 
HETATM    6  C19 UNL     1       6.218   2.478 -26.946  1.00  0.00     0.034 A 
ENDROOT
BRANCH   5   7
HETATM    7  C11 UNL     1       6.471   2.812 -24.501  1.00  0.00     0.004 A 
HETATM    8  C12 UNL     1       7.017   3.865 -23.779  1.00  0.00     0.101 A 
HETATM    9  N1  UNL     1       7.595   3.425 -22.657  1.00  0.00    -0.364 N 
HETATM   10  C13 UNL     1       7.421   2.081 -22.658  1.00  0.00     0.044 A 
ATOM     11  H1  UNL     1       8.069   3.985 -21.948  1.00  0.00     0.165 HD
HETATM   12  C14 UNL     1       7.858   1.166 -21.697  1.00  0.00     0.054 A 
HETATM   13  C18 UNL     1       6.736   1.657 -23.770  1.00  0.00     0.003 A 
HETATM   14  C15 UNL     1       7.601  -0.167 -21.867  1.00  0.00     0.036 A 
HETATM   15 CL2  UNL     1       8.154  -1.297 -20.659  1.00  0.00    -0.084 Cl
HETATM   16  C16 UNL     1       6.913  -0.566 -22.990  1.00  0.00     0.025 A 
HETATM   17  C17 UNL     1       6.473   0.314 -23.949  1.00  0.00     0.016 A 
ENDBRANCH   5   7
BRANCH   4  18
HETATM   18  O3  UNL     1       3.551   2.744 -25.222  1.00  0.00    -0.361 OA
ATOM     19  H3  UNL     1       2.678   3.099 -25.333  1.00  0.00     0.213 HD
ENDBRANCH   4  18
BRANCH   4  20
HETATM   20  C3  UNL     1       4.446   4.951 -25.583  1.00  0.00     0.113 C 
BRANCH  20  21
HETATM   21  C4  UNL     1       3.175   5.270 -24.884  1.00  0.00    -0.053 A 
HETATM   22  C5  UNL     1       3.214   5.577 -23.536  1.00  0.00     0.009 A 
HETATM   23  C6  UNL     1       2.026   5.870 -22.904  1.00  0.00     0.024 A 
HETATM   24  C7  UNL     1       0.813   5.864 -23.576  1.00  0.00     0.034 A 
HETATM   25 CL1  UNL     1      -0.670   6.252 -22.689  1.00  0.00    -0.084 Cl
HETATM   26  C8  UNL     1       0.766   5.560 -24.919  1.00  0.00     0.024 A 
HETATM   27  C9  UNL     1       1.968   5.268 -25.541  1.00  0.00     0.009 A 
ENDBRANCH  20  21
ENDBRANCH   4  20
BRANCH   6  28
HETATM   28  C20 UNL     1       7.509   1.761 -27.266  1.00  0.00     0.084 C 
BRANCH  28  29
HETATM   29  C21 UNL     1       8.637   2.726 -27.392  1.00  0.00    -0.054 A 
HETATM   30  C22 UNL     1       8.849   3.434 -28.552  1.00  0.00     0.009 A 
HETATM   31  C23 UNL     1       9.908   4.317 -28.638  1.00  0.00     0.024 A 
HETATM   32  C24 UNL     1      10.765   4.509 -27.586  1.00  0.00     0.034 A 
HETATM   33 CL3  UNL     1      12.122   5.641 -27.696  1.00  0.00    -0.084 Cl
HETATM   34  C25 UNL     1      10.569   3.810 -26.415  1.00  0.00     0.024 A 
HETATM   35  C26 UNL     1       9.511   2.936 -26.350  1.00  0.00     0.009 A 
ENDBRANCH  28  29
ENDBRANCH   6  28
TORSDOF 6
ENDMDL
