MODEL 6
REMARK VINA RESULT: -10.299472401      1.140      1.658
REMARK  18 active torsions:
REMARK  status: ('A' for Active; 'I' for Inactive)
REMARK    1  A    between atoms: O1_2  and  C2_3 
REMARK    2  A    between atoms: C5_6  and  S1_7 
REMARK    3  A    between atoms: S1_7  and  N1_10 
REMARK    4  A    between atoms: N1_10  and  C6_11 
REMARK    5  A    between atoms: N1_10  and  C10_15 
REMARK    6  A    between atoms: C6_11  and  C7_12 
REMARK    7  A    between atoms: C10_15  and  C11_16 
REMARK    8  A    between atoms: C11_16  and  O4_17 
REMARK    9  A    between atoms: C11_16  and  C12_19 
REMARK   10  A    between atoms: C12_19  and  C13_20 
REMARK   11  A    between atoms: C12_19  and  N2_27 
REMARK   12  A    between atoms: C13_20  and  C14_21 
REMARK       I    between atoms: N2_27  and  C20_29 
REMARK   13  A    between atoms: C20_29  and  C21_31 
REMARK   14  A    between atoms: C26_36  and  C27_37 
REMARK   15  A    between atoms: C27_37  and  O6_38 
REMARK   16  A    between atoms: C27_37  and  N3_40 
REMARK   17  A    between atoms: N3_40  and  C29_42 
REMARK   18  A    between atoms: C29_42  and  C30_43 
ROOT
HETATM    1  C12 UNL     1      16.097  22.997  17.046  1.00  0.00     0.122 C 
ENDROOT
BRANCH   1   2
HETATM    2  C11 UNL     1      16.300  24.126  17.967  1.00  0.00     0.180 C 
BRANCH   2   3
HETATM    3  C10 UNL     1      17.095  25.272  17.505  1.00  0.00     0.110 C 
BRANCH   3   4
HETATM    4  N1  UNL     1      18.454  25.141  17.229  1.00  0.00    -0.283 N 
BRANCH   4   5
HETATM    5  S1  UNL     1      19.088  24.981  15.717  1.00  0.00     0.264 S 
HETATM    6  O2  UNL     1      18.087  25.214  14.576  1.00  0.00    -0.200 OA
HETATM    7  O3  UNL     1      19.756  23.699  15.356  1.00  0.00    -0.200 OA
BRANCH   5   8
HETATM    8  C5  UNL     1      20.318  26.239  15.451  1.00  0.00     0.080 A 
HETATM    9  C4  UNL     1      19.950  27.536  15.186  1.00  0.00     0.028 A 
HETATM   10  C3  UNL     1      20.905  28.505  14.983  1.00  0.00     0.038 A 
HETATM   11  C2  UNL     1      22.251  28.221  15.034  1.00  0.00     0.068 A 
HETATM   12  C37 UNL     1      22.588  26.912  15.301  1.00  0.00     0.038 A 
HETATM   13  C36 UNL     1      21.656  25.934  15.507  1.00  0.00     0.028 A 
BRANCH  11  14
HETATM   14  O1  UNL     1      23.241  29.198  14.828  1.00  0.00    -0.356 OA
HETATM   15  C1  UNL     1      24.207  29.393  15.837  1.00  0.00     0.210 C 
ENDBRANCH  11  14
ENDBRANCH   5   8
ENDBRANCH   4   5
BRANCH   4  16
HETATM   16  C6  UNL     1      19.355  25.434  18.295  1.00  0.00     0.144 C 
BRANCH  16  17
HETATM   17  C7  UNL     1      20.117  24.292  18.864  1.00  0.00    -0.004 C 
HETATM   18  C8  UNL     1      19.442  23.458  19.887  1.00  0.00     0.011 C 
HETATM   19  C9  UNL     1      21.431  24.779  19.504  1.00  0.00     0.011 C 
ENDBRANCH  16  17
ENDBRANCH   4  16
ENDBRANCH   3   4
ENDBRANCH   2   3
BRANCH   2  20
HETATM   20  O4  UNL     1      14.998  24.581  18.305  1.00  0.00    -0.388 OA
ATOM     21  H4  UNL     1      14.675  24.066  19.035  1.00  0.00     0.210 HD
ENDBRANCH   2  20
ENDBRANCH   1   2
BRANCH   1  22
HETATM   22  C13 UNL     1      15.616  23.377  15.663  1.00  0.00     0.066 C 
BRANCH  22  23
HETATM   23  C14 UNL     1      14.748  22.385  14.998  1.00  0.00    -0.056 A 
HETATM   24  C15 UNL     1      13.376  22.416  15.047  1.00  0.00     0.007 A 
HETATM   25  C16 UNL     1      12.653  21.454  14.401  1.00  0.00     0.001 A 
HETATM   26  C17 UNL     1      13.238  20.418  13.679  1.00  0.00     0.000 A 
HETATM   27  C18 UNL     1      14.615  20.399  13.639  1.00  0.00     0.001 A 
HETATM   28  C19 UNL     1      15.344  21.367  14.288  1.00  0.00     0.007 A 
ENDBRANCH  22  23
ENDBRANCH   1  22
BRANCH   1  29
HETATM   29  N2  UNL     1      15.038  22.095  17.511  1.00  0.00    -0.349 N 
HETATM   30  C20 UNL     1      15.231  20.887  18.178  1.00  0.00     0.252 C 
HETATM   31  O5  UNL     1      16.418  20.534  18.411  1.00  0.00    -0.268 OA
ATOM     32  H2  UNL     1      14.075  22.377  17.331  1.00  0.00     0.163 HD
BRANCH  30  33
HETATM   33  C21 UNL     1      14.076  20.058  18.588  1.00  0.00     0.033 A 
HETATM   34  C22 UNL     1      14.150  19.396  19.789  1.00  0.00     0.024 A 
HETATM   35  C23 UNL     1      13.085  18.649  20.209  1.00  0.00    -0.060 A 
HETATM   36  C24 UNL     1      13.182  17.942  21.510  1.00  0.00     0.048 C 
HETATM   37  C25 UNL     1      11.945  18.576  19.405  1.00  0.00     0.022 A 
HETATM   38  C26 UNL     1      11.815  19.216  18.199  1.00  0.00     0.016 A 
HETATM   39  C35 UNL     1      12.955  19.967  17.831  1.00  0.00     0.032 A 
BRANCH  38  40
HETATM   40  C27 UNL     1      10.655  19.219  17.352  1.00  0.00     0.148 C 
BRANCH  40  41
HETATM   41  O6  UNL     1       9.819  20.192  17.578  1.00  0.00    -0.346 OA
ATOM     42  H6  UNL     1       9.638  20.743  16.826  1.00  0.00     0.219 HD
ENDBRANCH  40  41
BRANCH  40  43
HETATM   43  N3  UNL     1      10.279  18.362  16.344  1.00  0.00    -0.360 N 
HETATM   44  C28 UNL     1      10.949  17.183  15.876  1.00  0.00     0.152 C 
BRANCH  43  45
HETATM   45  C29 UNL     1       9.006  18.656  15.602  1.00  0.00     0.184 C 
BRANCH  45  46
HETATM   46  C30 UNL     1       9.348  19.228  14.281  1.00  0.00     0.058 A 
HETATM   47  N4  UNL     1       9.827  18.581  13.199  1.00  0.00    -0.340 N 
HETATM   48  C31 UNL     1      10.007  19.444  12.184  1.00  0.00     0.120 A 
ATOM     49  H4  UNL     1      10.025  17.581  13.157  1.00  0.00     0.167 HD
HETATM   50  C32 UNL     1      10.521  19.105  10.829  1.00  0.00     0.098 C 
HETATM   51  O7  UNL     1       9.643  20.603  12.639  1.00  0.00    -0.301 OA
HETATM   52  C33 UNL     1       9.239  20.541  13.886  1.00  0.00     0.075 A 
HETATM   53  C34 UNL     1       8.752  21.690  14.714  1.00  0.00     0.079 C 
ENDBRANCH  45  46
ENDBRANCH  43  45
ENDBRANCH  40  43
ENDBRANCH  38  40
ENDBRANCH  30  33
ENDBRANCH   1  29
TORSDOF 18
ENDMDL
