MODEL 9
REMARK VINA RESULT: -10.226788837      3.488     11.513
REMARK  18 active torsions:
REMARK  status: ('A' for Active; 'I' for Inactive)
REMARK    1  A    between atoms: O1_2  and  C2_3 
REMARK    2  A    between atoms: C5_6  and  S1_7 
REMARK    3  A    between atoms: S1_7  and  N1_10 
REMARK    4  A    between atoms: N1_10  and  C6_11 
REMARK    5  A    between atoms: N1_10  and  C10_15 
REMARK    6  A    between atoms: C6_11  and  C7_12 
REMARK    7  A    between atoms: C10_15  and  C11_16 
REMARK    8  A    between atoms: C11_16  and  O4_17 
REMARK    9  A    between atoms: C11_16  and  C12_19 
REMARK   10  A    between atoms: C12_19  and  C13_20 
REMARK   11  A    between atoms: C12_19  and  N2_27 
REMARK   12  A    between atoms: C13_20  and  C14_21 
REMARK       I    between atoms: N2_27  and  C20_29 
REMARK   13  A    between atoms: C20_29  and  C21_31 
REMARK   14  A    between atoms: C26_36  and  C27_37 
REMARK   15  A    between atoms: C27_37  and  O6_38 
REMARK   16  A    between atoms: C27_37  and  N3_40 
REMARK   17  A    between atoms: N3_40  and  C29_42 
REMARK   18  A    between atoms: C29_42  and  C30_43 
ROOT
HETATM    1  C12 UNL     1      16.398  24.487  16.536  1.00  0.00     0.122 C 
ENDROOT
BRANCH   1   2
HETATM    2  C11 UNL     1      16.072  24.031  17.896  1.00  0.00     0.180 C 
BRANCH   2   3
HETATM    3  C10 UNL     1      16.986  24.384  18.991  1.00  0.00     0.110 C 
BRANCH   3   4
HETATM    4  N1  UNL     1      17.881  23.452  19.511  1.00  0.00    -0.283 N 
BRANCH   4   5
HETATM    5  S1  UNL     1      18.140  21.953  18.880  1.00  0.00     0.264 S 
HETATM    6  O2  UNL     1      19.095  21.071  19.700  1.00  0.00    -0.200 OA
HETATM    7  O3  UNL     1      18.653  21.845  17.486  1.00  0.00    -0.200 OA
BRANCH   5   8
HETATM    8  C5  UNL     1      16.617  21.032  18.889  1.00  0.00     0.080 A 
HETATM    9  C4  UNL     1      15.767  21.091  19.967  1.00  0.00     0.028 A 
HETATM   10  C3  UNL     1      14.591  20.379  19.969  1.00  0.00     0.038 A 
HETATM   11  C2  UNL     1      14.220  19.586  18.906  1.00  0.00     0.068 A 
HETATM   12  C37 UNL     1      15.093  19.548  17.841  1.00  0.00     0.038 A 
HETATM   13  C36 UNL     1      16.266  20.247  17.818  1.00  0.00     0.028 A 
BRANCH  11  14
HETATM   14  O1  UNL     1      13.022  18.850  18.890  1.00  0.00    -0.356 OA
HETATM   15  C1  UNL     1      12.462  18.459  20.124  1.00  0.00     0.210 C 
ENDBRANCH  11  14
ENDBRANCH   5   8
ENDBRANCH   4   5
BRANCH   4  16
HETATM   16  C6  UNL     1      18.812  23.931  20.480  1.00  0.00     0.144 C 
BRANCH  16  17
HETATM   17  C7  UNL     1      19.895  24.821  19.988  1.00  0.00    -0.004 C 
HETATM   18  C8  UNL     1      21.004  24.197  19.227  1.00  0.00     0.011 C 
HETATM   19  C9  UNL     1      20.550  25.579  21.159  1.00  0.00     0.011 C 
ENDBRANCH  16  17
ENDBRANCH   4  16
ENDBRANCH   3   4
ENDBRANCH   2   3
BRANCH   2  20
HETATM   20  O4  UNL     1      14.789  24.570  18.181  1.00  0.00    -0.388 OA
ATOM     21  H4  UNL     1      14.150  24.151  17.617  1.00  0.00     0.210 HD
ENDBRANCH   2  20
ENDBRANCH   1   2
BRANCH   1  22
HETATM   22  C13 UNL     1      16.658  23.383  15.535  1.00  0.00     0.066 C 
BRANCH  22  23
HETATM   23  C14 UNL     1      15.463  22.648  15.075  1.00  0.00    -0.056 A 
HETATM   24  C15 UNL     1      14.178  23.110  15.221  1.00  0.00     0.007 A 
HETATM   25  C16 UNL     1      13.132  22.360  14.766  1.00  0.00     0.001 A 
HETATM   26  C17 UNL     1      13.294  21.124  14.147  1.00  0.00     0.000 A 
HETATM   27  C18 UNL     1      14.589  20.672  14.007  1.00  0.00     0.001 A 
HETATM   28  C19 UNL     1      15.642  21.426  14.465  1.00  0.00     0.007 A 
ENDBRANCH  22  23
ENDBRANCH   1  22
BRANCH   1  29
HETATM   29  N2  UNL     1      17.652  25.247  16.500  1.00  0.00    -0.349 N 
HETATM   30  C20 UNL     1      18.114  26.006  15.427  1.00  0.00     0.252 C 
HETATM   31  O5  UNL     1      17.393  26.052  14.394  1.00  0.00    -0.268 OA
ATOM     32  H2  UNL     1      18.238  25.218  17.334  1.00  0.00     0.163 HD
BRANCH  30  33
HETATM   33  C21 UNL     1      19.406  26.722  15.510  1.00  0.00     0.033 A 
HETATM   34  C22 UNL     1      19.868  27.354  14.382  1.00  0.00     0.024 A 
HETATM   35  C23 UNL     1      21.043  28.050  14.437  1.00  0.00    -0.060 A 
HETATM   36  C24 UNL     1      21.525  28.730  13.209  1.00  0.00     0.048 C 
HETATM   37  C25 UNL     1      21.748  28.102  15.642  1.00  0.00     0.022 A 
HETATM   38  C26 UNL     1      21.335  27.491  16.799  1.00  0.00     0.016 A 
HETATM   39  C35 UNL     1      20.114  26.790  16.665  1.00  0.00     0.032 A 
BRANCH  38  40
HETATM   40  C27 UNL     1      21.988  27.547  18.077  1.00  0.00     0.148 C 
BRANCH  40  41
HETATM   41  O6  UNL     1      21.331  28.195  18.996  1.00  0.00    -0.346 OA
ATOM     42  H6  UNL     1      21.843  28.426  19.762  1.00  0.00     0.219 HD
ENDBRANCH  40  41
BRANCH  40  43
HETATM   43  N3  UNL     1      23.195  27.032  18.490  1.00  0.00    -0.360 N 
HETATM   44  C28 UNL     1      23.698  26.892  19.826  1.00  0.00     0.152 C 
BRANCH  43  45
HETATM   45  C29 UNL     1      24.150  26.538  17.440  1.00  0.00     0.184 C 
BRANCH  45  46
HETATM   46  C30 UNL     1      25.107  27.620  17.123  1.00  0.00     0.058 A 
HETATM   47  N4  UNL     1      25.002  28.931  17.422  1.00  0.00    -0.340 N 
HETATM   48  C31 UNL     1      26.079  29.598  16.970  1.00  0.00     0.120 A 
ATOM     49  H4  UNL     1      24.220  29.355  17.919  1.00  0.00     0.167 HD
HETATM   50  C32 UNL     1      26.325  31.059  17.111  1.00  0.00     0.098 C 
HETATM   51  O7  UNL     1      26.832  28.706  16.403  1.00  0.00    -0.301 OA
HETATM   52  C33 UNL     1      26.307  27.505  16.460  1.00  0.00     0.075 A 
HETATM   53  C34 UNL     1      26.910  26.251  15.906  1.00  0.00     0.079 C 
ENDBRANCH  45  46
ENDBRANCH  43  45
ENDBRANCH  40  43
ENDBRANCH  38  40
ENDBRANCH  30  33
ENDBRANCH   1  29
TORSDOF 18
ENDMDL
