MODEL 15
REMARK VINA RESULT: -10.121148849      3.516     11.392
REMARK  18 active torsions:
REMARK  status: ('A' for Active; 'I' for Inactive)
REMARK    1  A    between atoms: O1_2  and  C2_3 
REMARK    2  A    between atoms: C5_6  and  S1_7 
REMARK    3  A    between atoms: S1_7  and  N1_10 
REMARK    4  A    between atoms: N1_10  and  C6_11 
REMARK    5  A    between atoms: N1_10  and  C10_15 
REMARK    6  A    between atoms: C6_11  and  C7_12 
REMARK    7  A    between atoms: C10_15  and  C11_16 
REMARK    8  A    between atoms: C11_16  and  O4_17 
REMARK    9  A    between atoms: C11_16  and  C12_19 
REMARK   10  A    between atoms: C12_19  and  C13_20 
REMARK   11  A    between atoms: C12_19  and  N2_27 
REMARK   12  A    between atoms: C13_20  and  C14_21 
REMARK       I    between atoms: N2_27  and  C20_29 
REMARK   13  A    between atoms: C20_29  and  C21_31 
REMARK   14  A    between atoms: C26_36  and  C27_37 
REMARK   15  A    between atoms: C27_37  and  O6_38 
REMARK   16  A    between atoms: C27_37  and  N3_40 
REMARK   17  A    between atoms: N3_40  and  C29_42 
REMARK   18  A    between atoms: C29_42  and  C30_43 
ROOT
HETATM    1  C12 UNL     1      16.475  24.497  16.553  1.00  0.00     0.122 C 
ENDROOT
BRANCH   1   2
HETATM    2  C11 UNL     1      16.166  24.033  17.914  1.00  0.00     0.180 C 
BRANCH   2   3
HETATM    3  C10 UNL     1      17.087  24.391  19.002  1.00  0.00     0.110 C 
BRANCH   3   4
HETATM    4  N1  UNL     1      17.939  23.444  19.566  1.00  0.00    -0.283 N 
BRANCH   4   5
HETATM    5  S1  UNL     1      18.179  21.929  18.966  1.00  0.00     0.264 S 
HETATM    6  O2  UNL     1      19.107  21.046  19.814  1.00  0.00    -0.200 OA
HETATM    7  O3  UNL     1      18.710  21.787  17.581  1.00  0.00    -0.200 OA
BRANCH   5   8
HETATM    8  C5  UNL     1      16.640  21.036  18.970  1.00  0.00     0.080 A 
HETATM    9  C4  UNL     1      15.782  21.120  20.040  1.00  0.00     0.028 A 
HETATM   10  C3  UNL     1      14.593  20.429  20.038  1.00  0.00     0.038 A 
HETATM   11  C2  UNL     1      14.217  19.634  18.979  1.00  0.00     0.068 A 
HETATM   12  C37 UNL     1      15.098  19.570  17.921  1.00  0.00     0.038 A 
HETATM   13  C36 UNL     1      16.284  20.248  17.903  1.00  0.00     0.028 A 
BRANCH  11  14
HETATM   14  O1  UNL     1      13.006  18.920  18.959  1.00  0.00    -0.356 OA
HETATM   15  C1  UNL     1      12.561  18.326  20.159  1.00  0.00     0.210 C 
ENDBRANCH  11  14
ENDBRANCH   5   8
ENDBRANCH   4   5
BRANCH   4  16
HETATM   16  C6  UNL     1      18.850  23.913  20.559  1.00  0.00     0.144 C 
BRANCH  16  17
HETATM   17  C7  UNL     1      19.953  24.795  20.096  1.00  0.00    -0.004 C 
HETATM   18  C8  UNL     1      20.971  24.204  19.196  1.00  0.00     0.011 C 
HETATM   19  C9  UNL     1      20.724  25.376  21.297  1.00  0.00     0.011 C 
ENDBRANCH  16  17
ENDBRANCH   4  16
ENDBRANCH   3   4
ENDBRANCH   2   3
BRANCH   2  20
HETATM   20  O4  UNL     1      14.881  24.558  18.213  1.00  0.00    -0.388 OA
ATOM     21  H4  UNL     1      14.699  24.412  19.134  1.00  0.00     0.210 HD
ENDBRANCH   2  20
ENDBRANCH   1   2
BRANCH   1  22
HETATM   22  C13 UNL     1      16.695  23.399  15.536  1.00  0.00     0.066 C 
BRANCH  22  23
HETATM   23  C14 UNL     1      15.480  22.679  15.106  1.00  0.00    -0.056 A 
HETATM   24  C15 UNL     1      14.211  23.197  15.202  1.00  0.00     0.007 A 
HETATM   25  C16 UNL     1      13.144  22.457  14.779  1.00  0.00     0.001 A 
HETATM   26  C17 UNL     1      13.269  21.178  14.244  1.00  0.00     0.000 A 
HETATM   27  C18 UNL     1      14.547  20.671  14.154  1.00  0.00     0.001 A 
HETATM   28  C19 UNL     1      15.622  21.415  14.579  1.00  0.00     0.007 A 
ENDBRANCH  22  23
ENDBRANCH   1  22
BRANCH   1  29
HETATM   29  N2  UNL     1      17.744  25.234  16.501  1.00  0.00    -0.349 N 
HETATM   30  C20 UNL     1      18.163  26.060  15.461  1.00  0.00     0.252 C 
HETATM   31  O5  UNL     1      17.388  26.196  14.477  1.00  0.00    -0.268 OA
ATOM     32  H2  UNL     1      18.373  25.132  17.296  1.00  0.00     0.163 HD
BRANCH  30  33
HETATM   33  C21 UNL     1      19.475  26.742  15.522  1.00  0.00     0.033 A 
HETATM   34  C22 UNL     1      19.932  27.367  14.388  1.00  0.00     0.024 A 
HETATM   35  C23 UNL     1      21.124  28.033  14.424  1.00  0.00    -0.060 A 
HETATM   36  C24 UNL     1      21.601  28.704  13.188  1.00  0.00     0.048 C 
HETATM   37  C25 UNL     1      21.852  28.062  15.615  1.00  0.00     0.022 A 
HETATM   38  C26 UNL     1      21.446  27.458  16.777  1.00  0.00     0.016 A 
HETATM   39  C35 UNL     1      20.205  26.789  16.664  1.00  0.00     0.032 A 
BRANCH  38  40
HETATM   40  C27 UNL     1      22.124  27.492  18.044  1.00  0.00     0.148 C 
BRANCH  40  41
HETATM   41  O6  UNL     1      21.381  27.859  19.049  1.00  0.00    -0.346 OA
ATOM     42  H6  UNL     1      21.276  28.799  19.142  1.00  0.00     0.219 HD
ENDBRANCH  40  41
BRANCH  40  43
HETATM   43  N3  UNL     1      23.429  27.206  18.369  1.00  0.00    -0.360 N 
HETATM   44  C28 UNL     1      24.596  27.287  17.539  1.00  0.00     0.152 C 
BRANCH  43  45
HETATM   45  C29 UNL     1      23.724  26.740  19.767  1.00  0.00     0.184 C 
BRANCH  45  46
HETATM   46  C30 UNL     1      24.725  25.653  19.703  1.00  0.00     0.058 A 
HETATM   47  N4  UNL     1      24.588  24.435  19.140  1.00  0.00    -0.340 N 
HETATM   48  C31 UNL     1      25.724  23.728  19.281  1.00  0.00     0.120 A 
ATOM     49  H4  UNL     1      23.746  24.098  18.675  1.00  0.00     0.167 HD
HETATM   50  C32 UNL     1      25.958  22.343  18.790  1.00  0.00     0.098 C 
HETATM   51  O7  UNL     1      26.543  24.504  19.921  1.00  0.00    -0.301 OA
HETATM   52  C33 UNL     1      26.006  25.668  20.203  1.00  0.00     0.075 A 
HETATM   53  C34 UNL     1      26.673  26.794  20.931  1.00  0.00     0.079 C 
ENDBRANCH  45  46
ENDBRANCH  43  45
ENDBRANCH  40  43
ENDBRANCH  38  40
ENDBRANCH  30  33
ENDBRANCH   1  29
TORSDOF 18
ENDMDL
