MODEL 8
REMARK VINA RESULT: -10.275288444      0.599      1.180
REMARK  18 active torsions:
REMARK  status: ('A' for Active; 'I' for Inactive)
REMARK    1  A    between atoms: O1_2  and  C2_3 
REMARK    2  A    between atoms: C5_6  and  S1_7 
REMARK    3  A    between atoms: S1_7  and  N1_10 
REMARK    4  A    between atoms: N1_10  and  C6_11 
REMARK    5  A    between atoms: N1_10  and  C10_15 
REMARK    6  A    between atoms: C6_11  and  C7_12 
REMARK    7  A    between atoms: C10_15  and  C11_16 
REMARK    8  A    between atoms: C11_16  and  O4_17 
REMARK    9  A    between atoms: C11_16  and  C12_19 
REMARK   10  A    between atoms: C12_19  and  C13_20 
REMARK   11  A    between atoms: C12_19  and  N2_27 
REMARK   12  A    between atoms: C13_20  and  C14_21 
REMARK       I    between atoms: N2_27  and  C20_29 
REMARK   13  A    between atoms: C20_29  and  C21_31 
REMARK   14  A    between atoms: C26_36  and  C27_37 
REMARK   15  A    between atoms: C27_37  and  O6_38 
REMARK   16  A    between atoms: C27_37  and  N3_40 
REMARK   17  A    between atoms: N3_40  and  C29_42 
REMARK   18  A    between atoms: C29_42  and  C30_43 
ROOT
HETATM    1  C12 UNL     1      15.344  22.834  17.089  1.00  0.00     0.122 C 
ENDROOT
BRANCH   1   2
HETATM    2  C11 UNL     1      15.567  23.889  18.088  1.00  0.00     0.180 C 
BRANCH   2   3
HETATM    3  C10 UNL     1      16.590  24.908  17.815  1.00  0.00     0.110 C 
BRANCH   3   4
HETATM    4  N1  UNL     1      17.914  24.551  17.569  1.00  0.00    -0.283 N 
BRANCH   4   5
HETATM    5  S1  UNL     1      18.603  24.492  16.074  1.00  0.00     0.264 S 
HETATM    6  O2  UNL     1      17.604  24.542  14.907  1.00  0.00    -0.200 OA
HETATM    7  O3  UNL     1      19.489  23.341  15.742  1.00  0.00    -0.200 OA
BRANCH   5   8
HETATM    8  C5  UNL     1      19.605  25.940  15.822  1.00  0.00     0.080 A 
HETATM    9  C4  UNL     1      20.672  26.207  16.645  1.00  0.00     0.028 A 
HETATM   10  C3  UNL     1      21.445  27.327  16.446  1.00  0.00     0.038 A 
HETATM   11  C2  UNL     1      21.185  28.217  15.428  1.00  0.00     0.068 A 
HETATM   12  C37 UNL     1      20.109  27.922  14.620  1.00  0.00     0.038 A 
HETATM   13  C36 UNL     1      19.328  26.815  14.800  1.00  0.00     0.028 A 
BRANCH  11  14
HETATM   14  O1  UNL     1      21.963  29.368  15.209  1.00  0.00    -0.356 OA
HETATM   15  C1  UNL     1      23.353  29.289  15.440  1.00  0.00     0.210 C 
ENDBRANCH  11  14
ENDBRANCH   5   8
ENDBRANCH   4   5
BRANCH   4  16
HETATM   16  C6  UNL     1      18.783  24.497  18.699  1.00  0.00     0.144 C 
BRANCH  16  17
HETATM   17  C7  UNL     1      18.369  23.620  19.824  1.00  0.00    -0.004 C 
HETATM   18  C8  UNL     1      18.764  24.028  21.194  1.00  0.00     0.011 C 
HETATM   19  C9  UNL     1      18.912  22.191  19.628  1.00  0.00     0.011 C 
ENDBRANCH  16  17
ENDBRANCH   4  16
ENDBRANCH   3   4
ENDBRANCH   2   3
BRANCH   2  20
HETATM   20  O4  UNL     1      14.312  24.535  18.246  1.00  0.00    -0.388 OA
ATOM     21  H4  UNL     1      14.216  24.797  19.154  1.00  0.00     0.210 HD
ENDBRANCH   2  20
ENDBRANCH   1   2
BRANCH   1  22
HETATM   22  C13 UNL     1      14.755  23.306  15.778  1.00  0.00     0.066 C 
BRANCH  22  23
HETATM   23  C14 UNL     1      14.380  22.239  14.829  1.00  0.00    -0.056 A 
HETATM   24  C15 UNL     1      13.152  21.626  14.815  1.00  0.00     0.007 A 
HETATM   25  C16 UNL     1      12.893  20.646  13.900  1.00  0.00     0.001 A 
HETATM   26  C17 UNL     1      13.824  20.220  12.957  1.00  0.00     0.000 A 
HETATM   27  C18 UNL     1      15.054  20.844  12.982  1.00  0.00     0.001 A 
HETATM   28  C19 UNL     1      15.314  21.831  13.902  1.00  0.00     0.007 A 
ENDBRANCH  22  23
ENDBRANCH   1  22
BRANCH   1  29
HETATM   29  N2  UNL     1      14.354  21.850  17.542  1.00  0.00    -0.349 N 
HETATM   30  C20 UNL     1      14.628  20.694  18.268  1.00  0.00     0.252 C 
HETATM   31  O5  UNL     1      15.830  20.468  18.571  1.00  0.00    -0.268 OA
ATOM     32  H2  UNL     1      13.379  22.029  17.305  1.00  0.00     0.163 HD
BRANCH  30  33
HETATM   33  C21 UNL     1      13.538  19.772  18.659  1.00  0.00     0.033 A 
HETATM   34  C22 UNL     1      13.656  19.102  19.852  1.00  0.00     0.024 A 
HETATM   35  C23 UNL     1      12.650  18.269  20.254  1.00  0.00    -0.060 A 
HETATM   36  C24 UNL     1      12.793  17.555  21.548  1.00  0.00     0.048 C 
HETATM   37  C25 UNL     1      11.525  18.117  19.441  1.00  0.00     0.022 A 
HETATM   38  C26 UNL     1      11.353  18.761  18.242  1.00  0.00     0.016 A 
HETATM   39  C35 UNL     1      12.433  19.603  17.892  1.00  0.00     0.032 A 
BRANCH  38  40
HETATM   40  C27 UNL     1      10.202  18.684  17.386  1.00  0.00     0.148 C 
BRANCH  40  41
HETATM   41  O6  UNL     1       9.335  19.642  17.553  1.00  0.00    -0.346 OA
ATOM     42  H6  UNL     1       9.646  20.505  17.306  1.00  0.00     0.219 HD
ENDBRANCH  40  41
BRANCH  40  43
HETATM   43  N3  UNL     1       9.862  17.764  16.422  1.00  0.00    -0.360 N 
HETATM   44  C28 UNL     1       8.876  16.724  16.486  1.00  0.00     0.152 C 
BRANCH  43  45
HETATM   45  C29 UNL     1      10.593  17.811  15.109  1.00  0.00     0.184 C 
BRANCH  45  46
HETATM   46  C30 UNL     1       9.606  17.995  14.023  1.00  0.00     0.058 A 
HETATM   47  N4  UNL     1       9.087  17.053  13.208  1.00  0.00    -0.340 N 
HETATM   48  C31 UNL     1       8.215  17.611  12.351  1.00  0.00     0.120 A 
ATOM     49  H4  UNL     1       9.324  16.062  13.238  1.00  0.00     0.167 HD
HETATM   50  C32 UNL     1       7.442  16.894  11.300  1.00  0.00     0.098 C 
HETATM   51  O7  UNL     1       8.199  18.876  12.638  1.00  0.00    -0.301 OA
HETATM   52  C33 UNL     1       9.009  19.169  13.628  1.00  0.00     0.075 A 
HETATM   53  C34 UNL     1       9.233  20.531  14.211  1.00  0.00     0.079 C 
ENDBRANCH  45  46
ENDBRANCH  43  45
ENDBRANCH  40  43
ENDBRANCH  38  40
ENDBRANCH  30  33
ENDBRANCH   1  29
TORSDOF 18
ENDMDL
