MODEL 1
REMARK VINA RESULT: -10.633224986      0.000      0.000
REMARK  18 active torsions:
REMARK  status: ('A' for Active; 'I' for Inactive)
REMARK    1  A    between atoms: O1_2  and  C2_3 
REMARK    2  A    between atoms: C5_6  and  S1_7 
REMARK    3  A    between atoms: S1_7  and  N1_10 
REMARK    4  A    between atoms: N1_10  and  C6_11 
REMARK    5  A    between atoms: N1_10  and  C10_15 
REMARK    6  A    between atoms: C6_11  and  C7_12 
REMARK    7  A    between atoms: C10_15  and  C11_16 
REMARK    8  A    between atoms: C11_16  and  O4_17 
REMARK    9  A    between atoms: C11_16  and  C12_19 
REMARK   10  A    between atoms: C12_19  and  C13_20 
REMARK   11  A    between atoms: C12_19  and  N2_27 
REMARK   12  A    between atoms: C13_20  and  C14_21 
REMARK       I    between atoms: N2_27  and  C20_29 
REMARK   13  A    between atoms: C20_29  and  C21_31 
REMARK   14  A    between atoms: C26_36  and  C27_37 
REMARK   15  A    between atoms: C27_37  and  O6_38 
REMARK   16  A    between atoms: C27_37  and  N3_40 
REMARK   17  A    between atoms: N3_40  and  C29_42 
REMARK   18  A    between atoms: C29_42  and  C30_43 
ROOT
HETATM    1  C12 UNL     1      15.339  22.823  17.086  1.00  0.00     0.122 C 
ENDROOT
BRANCH   1   2
HETATM    2  C11 UNL     1      15.560  23.878  18.087  1.00  0.00     0.180 C 
BRANCH   2   3
HETATM    3  C10 UNL     1      16.580  24.900  17.814  1.00  0.00     0.110 C 
BRANCH   3   4
HETATM    4  N1  UNL     1      17.905  24.547  17.572  1.00  0.00    -0.283 N 
BRANCH   4   5
HETATM    5  S1  UNL     1      18.601  24.496  16.080  1.00  0.00     0.264 S 
HETATM    6  O2  UNL     1      17.607  24.554  14.909  1.00  0.00    -0.200 OA
HETATM    7  O3  UNL     1      19.487  23.346  15.745  1.00  0.00    -0.200 OA
BRANCH   5   8
HETATM    8  C5  UNL     1      19.606  25.944  15.841  1.00  0.00     0.080 A 
HETATM    9  C4  UNL     1      20.684  26.193  16.656  1.00  0.00     0.028 A 
HETATM   10  C3  UNL     1      21.459  27.314  16.466  1.00  0.00     0.038 A 
HETATM   11  C2  UNL     1      21.191  28.221  15.466  1.00  0.00     0.068 A 
HETATM   12  C37 UNL     1      20.105  27.943  14.666  1.00  0.00     0.038 A 
HETATM   13  C36 UNL     1      19.322  26.837  14.837  1.00  0.00     0.028 A 
BRANCH  11  14
HETATM   14  O1  UNL     1      21.971  29.372  15.257  1.00  0.00    -0.356 OA
HETATM   15  C1  UNL     1      23.347  29.312  15.565  1.00  0.00     0.210 C 
ENDBRANCH  11  14
ENDBRANCH   5   8
ENDBRANCH   4   5
BRANCH   4  16
HETATM   16  C6  UNL     1      18.770  24.491  18.706  1.00  0.00     0.144 C 
BRANCH  16  17
HETATM   17  C7  UNL     1      18.340  23.630  19.837  1.00  0.00    -0.004 C 
HETATM   18  C8  UNL     1      18.748  24.037  21.203  1.00  0.00     0.011 C 
HETATM   19  C9  UNL     1      18.850  22.188  19.647  1.00  0.00     0.011 C 
ENDBRANCH  16  17
ENDBRANCH   4  16
ENDBRANCH   3   4
ENDBRANCH   2   3
BRANCH   2  20
HETATM   20  O4  UNL     1      14.303  24.520  18.247  1.00  0.00    -0.388 OA
ATOM     21  H4  UNL     1      13.681  24.125  17.647  1.00  0.00     0.210 HD
ENDBRANCH   2  20
ENDBRANCH   1   2
BRANCH   1  22
HETATM   22  C13 UNL     1      14.760  23.298  15.771  1.00  0.00     0.066 C 
BRANCH  22  23
HETATM   23  C14 UNL     1      14.404  22.233  14.813  1.00  0.00    -0.056 A 
HETATM   24  C15 UNL     1      13.183  21.604  14.788  1.00  0.00     0.007 A 
HETATM   25  C16 UNL     1      12.942  20.628  13.865  1.00  0.00     0.001 A 
HETATM   26  C17 UNL     1      13.883  20.220  12.925  1.00  0.00     0.000 A 
HETATM   27  C18 UNL     1      15.104  20.858  12.961  1.00  0.00     0.001 A 
HETATM   28  C19 UNL     1      15.347  21.842  13.889  1.00  0.00     0.007 A 
ENDBRANCH  22  23
ENDBRANCH   1  22
BRANCH   1  29
HETATM   29  N2  UNL     1      14.342  21.843  17.534  1.00  0.00    -0.349 N 
HETATM   30  C20 UNL     1      14.608  20.684  18.258  1.00  0.00     0.252 C 
HETATM   31  O5  UNL     1      15.808  20.452  18.565  1.00  0.00    -0.268 OA
ATOM     32  H2  UNL     1      13.369  22.028  17.293  1.00  0.00     0.163 HD
BRANCH  30  33
HETATM   33  C21 UNL     1      13.513  19.767  18.643  1.00  0.00     0.033 A 
HETATM   34  C22 UNL     1      13.626  19.087  19.831  1.00  0.00     0.024 A 
HETATM   35  C23 UNL     1      12.615  18.258  20.228  1.00  0.00    -0.060 A 
HETATM   36  C24 UNL     1      12.754  17.534  21.516  1.00  0.00     0.048 C 
HETATM   37  C25 UNL     1      11.489  18.120  19.414  1.00  0.00     0.022 A 
HETATM   38  C26 UNL     1      11.321  18.773  18.220  1.00  0.00     0.016 A 
HETATM   39  C35 UNL     1      12.406  19.611  17.875  1.00  0.00     0.032 A 
BRANCH  38  40
HETATM   40  C27 UNL     1      10.169  18.710  17.363  1.00  0.00     0.148 C 
BRANCH  40  41
HETATM   41  O6  UNL     1       9.341  19.708  17.491  1.00  0.00    -0.346 OA
ATOM     42  H6  UNL     1       8.850  19.919  16.706  1.00  0.00     0.219 HD
ENDBRANCH  40  41
BRANCH  40  43
HETATM   43  N3  UNL     1       9.793  17.768  16.434  1.00  0.00    -0.360 N 
HETATM   44  C28 UNL     1       8.872  16.679  16.587  1.00  0.00     0.152 C 
BRANCH  43  45
HETATM   45  C29 UNL     1      10.401  17.846  15.062  1.00  0.00     0.184 C 
BRANCH  45  46
HETATM   46  C30 UNL     1       9.584  18.759  14.233  1.00  0.00     0.058 A 
HETATM   47  N4  UNL     1       9.479  20.099  14.337  1.00  0.00    -0.340 N 
HETATM   48  C31 UNL     1       8.642  20.574  13.397  1.00  0.00     0.120 A 
ATOM     49  H4  UNL     1       9.963  20.671  15.029  1.00  0.00     0.167 HD
HETATM   50  C32 UNL     1       8.274  22.001  13.196  1.00  0.00     0.098 C 
HETATM   51  O7  UNL     1       8.242  19.537  12.728  1.00  0.00    -0.301 OA
HETATM   52  C33 UNL     1       8.768  18.423  13.178  1.00  0.00     0.075 A 
HETATM   53  C34 UNL     1       8.521  17.048  12.636  1.00  0.00     0.079 C 
ENDBRANCH  45  46
ENDBRANCH  43  45
ENDBRANCH  40  43
ENDBRANCH  38  40
ENDBRANCH  30  33
ENDBRANCH   1  29
TORSDOF 18
ENDMDL
