MODEL 13
REMARK VINA RESULT: -10.152544826      1.509      1.942
REMARK  18 active torsions:
REMARK  status: ('A' for Active; 'I' for Inactive)
REMARK    1  A    between atoms: O1_2  and  C2_3 
REMARK    2  A    between atoms: C5_6  and  S1_7 
REMARK    3  A    between atoms: S1_7  and  N1_10 
REMARK    4  A    between atoms: N1_10  and  C6_11 
REMARK    5  A    between atoms: N1_10  and  C10_15 
REMARK    6  A    between atoms: C6_11  and  C7_12 
REMARK    7  A    between atoms: C10_15  and  C11_16 
REMARK    8  A    between atoms: C11_16  and  O4_17 
REMARK    9  A    between atoms: C11_16  and  C12_19 
REMARK   10  A    between atoms: C12_19  and  C13_20 
REMARK   11  A    between atoms: C12_19  and  N2_27 
REMARK   12  A    between atoms: C13_20  and  C14_21 
REMARK       I    between atoms: N2_27  and  C20_29 
REMARK   13  A    between atoms: C20_29  and  C21_31 
REMARK   14  A    between atoms: C26_36  and  C27_37 
REMARK   15  A    between atoms: C27_37  and  O6_38 
REMARK   16  A    between atoms: C27_37  and  N3_40 
REMARK   17  A    between atoms: N3_40  and  C29_42 
REMARK   18  A    between atoms: C29_42  and  C30_43 
ROOT
HETATM    1  C12 UNL     1      15.229  22.662  16.959  1.00  0.00     0.122 C 
ENDROOT
BRANCH   1   2
HETATM    2  C11 UNL     1      15.365  23.707  17.985  1.00  0.00     0.180 C 
BRANCH   2   3
HETATM    3  C10 UNL     1      16.352  24.775  17.770  1.00  0.00     0.110 C 
BRANCH   3   4
HETATM    4  N1  UNL     1      17.703  24.483  17.601  1.00  0.00    -0.283 N 
BRANCH   4   5
HETATM    5  S1  UNL     1      18.463  24.386  16.143  1.00  0.00     0.264 S 
HETATM    6  O2  UNL     1      17.519  24.361  14.931  1.00  0.00    -0.200 OA
HETATM    7  O3  UNL     1      19.396  23.251  15.899  1.00  0.00    -0.200 OA
BRANCH   5   8
HETATM    8  C5  UNL     1      19.435  25.853  15.879  1.00  0.00     0.080 A 
HETATM    9  C4  UNL     1      20.531  26.120  16.664  1.00  0.00     0.028 A 
HETATM   10  C3  UNL     1      21.280  27.254  16.456  1.00  0.00     0.038 A 
HETATM   11  C2  UNL     1      20.968  28.159  15.466  1.00  0.00     0.068 A 
HETATM   12  C37 UNL     1      19.864  27.864  14.696  1.00  0.00     0.038 A 
HETATM   13  C36 UNL     1      19.106  26.743  14.886  1.00  0.00     0.028 A 
BRANCH  11  14
HETATM   14  O1  UNL     1      21.721  29.324  15.238  1.00  0.00    -0.356 OA
HETATM   15  C1  UNL     1      23.116  29.268  15.442  1.00  0.00     0.210 C 
ENDBRANCH  11  14
ENDBRANCH   5   8
ENDBRANCH   4   5
BRANCH   4  16
HETATM   16  C6  UNL     1      18.521  24.539  18.769  1.00  0.00     0.144 C 
BRANCH  16  17
HETATM   17  C7  UNL     1      18.232  23.550  19.839  1.00  0.00    -0.004 C 
HETATM   18  C8  UNL     1      18.851  23.776  21.168  1.00  0.00     0.011 C 
HETATM   19  C9  UNL     1      18.657  22.136  19.402  1.00  0.00     0.011 C 
ENDBRANCH  16  17
ENDBRANCH   4  16
ENDBRANCH   3   4
ENDBRANCH   2   3
BRANCH   2  20
HETATM   20  O4  UNL     1      14.077  24.294  18.104  1.00  0.00    -0.388 OA
ATOM     21  H4  UNL     1      13.767  24.168  18.993  1.00  0.00     0.210 HD
ENDBRANCH   2  20
ENDBRANCH   1   2
BRANCH   1  22
HETATM   22  C13 UNL     1      14.579  23.111  15.668  1.00  0.00     0.066 C 
BRANCH  22  23
HETATM   23  C14 UNL     1      14.098  22.027  14.789  1.00  0.00    -0.056 A 
HETATM   24  C15 UNL     1      12.799  21.582  14.764  1.00  0.00     0.007 A 
HETATM   25  C16 UNL     1      12.445  20.572  13.917  1.00  0.00     0.001 A 
HETATM   26  C17 UNL     1      13.344  19.950  13.055  1.00  0.00     0.000 A 
HETATM   27  C18 UNL     1      14.645  20.406  13.090  1.00  0.00     0.001 A 
HETATM   28  C19 UNL     1      15.002  21.423  13.942  1.00  0.00     0.007 A 
ENDBRANCH  22  23
ENDBRANCH   1  22
BRANCH   1  29
HETATM   29  N2  UNL     1      14.342  21.577  17.397  1.00  0.00    -0.349 N 
HETATM   30  C20 UNL     1      14.749  20.316  17.824  1.00  0.00     0.252 C 
HETATM   31  O5  UNL     1      15.986  20.079  17.844  1.00  0.00    -0.268 OA
ATOM     32  H2  UNL     1      13.340  21.764  17.388  1.00  0.00     0.163 HD
BRANCH  30  33
HETATM   33  C21 UNL     1      13.753  19.300  18.232  1.00  0.00     0.033 A 
HETATM   34  C22 UNL     1      13.566  19.082  19.575  1.00  0.00     0.024 A 
HETATM   35  C23 UNL     1      12.630  18.174  19.982  1.00  0.00    -0.060 A 
HETATM   36  C24 UNL     1      12.439  17.954  21.438  1.00  0.00     0.048 C 
HETATM   37  C25 UNL     1      11.886  17.486  19.021  1.00  0.00     0.022 A 
HETATM   38  C26 UNL     1      12.029  17.662  17.669  1.00  0.00     0.016 A 
HETATM   39  C35 UNL     1      13.015  18.616  17.324  1.00  0.00     0.032 A 
BRANCH  38  40
HETATM   40  C27 UNL     1      11.264  17.022  16.635  1.00  0.00     0.148 C 
BRANCH  40  41
HETATM   41  O6  UNL     1      11.679  15.831  16.310  1.00  0.00    -0.346 OA
ATOM     42  H6  UNL     1      11.775  15.686  15.376  1.00  0.00     0.219 HD
ENDBRANCH  40  41
BRANCH  40  43
HETATM   43  N3  UNL     1      10.168  17.461  15.929  1.00  0.00    -0.360 N 
HETATM   44  C28 UNL     1       9.444  18.691  16.075  1.00  0.00     0.152 C 
BRANCH  43  45
HETATM   45  C29 UNL     1       9.616  16.570  14.853  1.00  0.00     0.184 C 
BRANCH  45  46
HETATM   46  C30 UNL     1      10.436  16.737  13.633  1.00  0.00     0.058 A 
HETATM   47  N4  UNL     1      11.507  16.012  13.250  1.00  0.00    -0.340 N 
HETATM   48  C31 UNL     1      11.979  16.465  12.075  1.00  0.00     0.120 A 
ATOM     49  H4  UNL     1      11.901  15.232  13.775  1.00  0.00     0.167 HD
HETATM   50  C32 UNL     1      13.149  15.920  11.335  1.00  0.00     0.098 C 
HETATM   51  O7  UNL     1      11.207  17.454  11.745  1.00  0.00    -0.301 OA
HETATM   52  C33 UNL     1      10.266  17.667  12.634  1.00  0.00     0.075 A 
HETATM   53  C34 UNL     1       9.209  18.727  12.564  1.00  0.00     0.079 C 
ENDBRANCH  45  46
ENDBRANCH  43  45
ENDBRANCH  40  43
ENDBRANCH  38  40
ENDBRANCH  30  33
ENDBRANCH   1  29
TORSDOF 18
ENDMDL
