MODEL 3
REMARK VINA RESULT: -10.462271427      0.833      1.030
REMARK  18 active torsions:
REMARK  status: ('A' for Active; 'I' for Inactive)
REMARK    1  A    between atoms: O1_2  and  C2_3 
REMARK    2  A    between atoms: C5_6  and  S1_7 
REMARK    3  A    between atoms: S1_7  and  N1_10 
REMARK    4  A    between atoms: N1_10  and  C6_11 
REMARK    5  A    between atoms: N1_10  and  C10_15 
REMARK    6  A    between atoms: C6_11  and  C7_12 
REMARK    7  A    between atoms: C10_15  and  C11_16 
REMARK    8  A    between atoms: C11_16  and  O4_17 
REMARK    9  A    between atoms: C11_16  and  C12_19 
REMARK   10  A    between atoms: C12_19  and  C13_20 
REMARK   11  A    between atoms: C12_19  and  N2_27 
REMARK   12  A    between atoms: C13_20  and  C14_21 
REMARK       I    between atoms: N2_27  and  C20_29 
REMARK   13  A    between atoms: C20_29  and  C21_31 
REMARK   14  A    between atoms: C26_36  and  C27_37 
REMARK   15  A    between atoms: C27_37  and  O6_38 
REMARK   16  A    between atoms: C27_37  and  N3_40 
REMARK   17  A    between atoms: N3_40  and  C29_42 
REMARK   18  A    between atoms: C29_42  and  C30_43 
ROOT
HETATM    1  C12 UNL     1      15.230  22.717  17.242  1.00  0.00     0.122 C 
ENDROOT
BRANCH   1   2
HETATM    2  C11 UNL     1      15.454  23.744  18.270  1.00  0.00     0.180 C 
BRANCH   2   3
HETATM    3  C10 UNL     1      16.624  24.624  18.138  1.00  0.00     0.110 C 
BRANCH   3   4
HETATM    4  N1  UNL     1      17.711  24.262  17.347  1.00  0.00    -0.283 N 
BRANCH   4   5
HETATM    5  S1  UNL     1      17.970  24.801  15.812  1.00  0.00     0.264 S 
HETATM    6  O2  UNL     1      16.982  25.878  15.337  1.00  0.00    -0.200 OA
HETATM    7  O3  UNL     1      17.985  23.808  14.701  1.00  0.00    -0.200 OA
BRANCH   5   8
HETATM    8  C5  UNL     1      19.547  25.620  15.726  1.00  0.00     0.080 A 
HETATM    9  C4  UNL     1      20.560  25.114  14.949  1.00  0.00     0.028 A 
HETATM   10  C3  UNL     1      21.777  25.752  14.884  1.00  0.00     0.038 A 
HETATM   11  C2  UNL     1      22.029  26.909  15.587  1.00  0.00     0.068 A 
HETATM   12  C37 UNL     1      20.993  27.392  16.357  1.00  0.00     0.038 A 
HETATM   13  C36 UNL     1      19.777  26.774  16.435  1.00  0.00     0.028 A 
BRANCH  11  14
HETATM   14  O1  UNL     1      23.266  27.574  15.534  1.00  0.00    -0.356 OA
HETATM   15  C1  UNL     1      24.413  26.891  15.991  1.00  0.00     0.210 C 
ENDBRANCH  11  14
ENDBRANCH   5   8
ENDBRANCH   4   5
BRANCH   4  16
HETATM   16  C6  UNL     1      18.791  23.603  18.006  1.00  0.00     0.144 C 
BRANCH  16  17
HETATM   17  C7  UNL     1      19.343  24.264  19.217  1.00  0.00    -0.004 C 
HETATM   18  C8  UNL     1      20.785  24.606  19.216  1.00  0.00     0.011 C 
HETATM   19  C9  UNL     1      19.109  23.393  20.466  1.00  0.00     0.011 C 
ENDBRANCH  16  17
ENDBRANCH   4  16
ENDBRANCH   3   4
ENDBRANCH   2   3
BRANCH   2  20
HETATM   20  O4  UNL     1      14.280  24.543  18.273  1.00  0.00    -0.388 OA
ATOM     21  H4  UNL     1      14.231  25.011  19.098  1.00  0.00     0.210 HD
ENDBRANCH   2  20
ENDBRANCH   1   2
BRANCH   1  22
HETATM   22  C13 UNL     1      14.649  23.227  15.942  1.00  0.00     0.066 C 
BRANCH  22  23
HETATM   23  C14 UNL     1      14.328  22.192  14.940  1.00  0.00    -0.056 A 
HETATM   24  C15 UNL     1      13.123  21.536  14.877  1.00  0.00     0.007 A 
HETATM   25  C16 UNL     1      12.915  20.590  13.915  1.00  0.00     0.001 A 
HETATM   26  C17 UNL     1      13.876  20.242  12.970  1.00  0.00     0.000 A 
HETATM   27  C18 UNL     1      15.081  20.907  13.044  1.00  0.00     0.001 A 
HETATM   28  C19 UNL     1      15.291  21.859  14.012  1.00  0.00     0.007 A 
ENDBRANCH  22  23
ENDBRANCH   1  22
BRANCH   1  29
HETATM   29  N2  UNL     1      14.233  21.727  17.665  1.00  0.00    -0.349 N 
HETATM   30  C20 UNL     1      14.501  20.534  18.332  1.00  0.00     0.252 C 
HETATM   31  O5  UNL     1      15.705  20.277  18.603  1.00  0.00    -0.268 OA
ATOM     32  H2  UNL     1      13.257  21.931  17.453  1.00  0.00     0.163 HD
BRANCH  30  33
HETATM   33  C21 UNL     1      13.405  19.610  18.697  1.00  0.00     0.033 A 
HETATM   34  C22 UNL     1      13.503  18.928  19.885  1.00  0.00     0.024 A 
HETATM   35  C23 UNL     1      12.491  18.093  20.264  1.00  0.00    -0.060 A 
HETATM   36  C24 UNL     1      12.613  17.366  21.553  1.00  0.00     0.048 C 
HETATM   37  C25 UNL     1      11.378  17.951  19.432  1.00  0.00     0.022 A 
HETATM   38  C26 UNL     1      11.225  18.606  18.237  1.00  0.00     0.016 A 
HETATM   39  C35 UNL     1      12.311  19.450  17.912  1.00  0.00     0.032 A 
BRANCH  38  40
HETATM   40  C27 UNL     1      10.087  18.539  17.363  1.00  0.00     0.148 C 
BRANCH  40  41
HETATM   41  O6  UNL     1       9.249  19.529  17.485  1.00  0.00    -0.346 OA
ATOM     42  H6  UNL     1       9.384  20.071  18.253  1.00  0.00     0.219 HD
ENDBRANCH  40  41
BRANCH  40  43
HETATM   43  N3  UNL     1       9.734  17.600  16.422  1.00  0.00    -0.360 N 
HETATM   44  C28 UNL     1       8.818  16.504  16.552  1.00  0.00     0.152 C 
BRANCH  43  45
HETATM   45  C29 UNL     1      10.365  17.690  15.061  1.00  0.00     0.184 C 
BRANCH  45  46
HETATM   46  C30 UNL     1       9.569  18.621  14.230  1.00  0.00     0.058 A 
HETATM   47  N4  UNL     1       9.499  19.964  14.329  1.00  0.00    -0.340 N 
HETATM   48  C31 UNL     1       8.672  20.456  13.390  1.00  0.00     0.120 A 
ATOM     49  H4  UNL     1      10.001  20.526  15.017  1.00  0.00     0.167 HD
HETATM   50  C32 UNL     1       8.341  21.893  13.183  1.00  0.00     0.098 C 
HETATM   51  O7  UNL     1       8.243  19.428  12.726  1.00  0.00    -0.301 OA
HETATM   52  C33 UNL     1       8.742  18.302  13.179  1.00  0.00     0.075 A 
HETATM   53  C34 UNL     1       8.457  16.932  12.644  1.00  0.00     0.079 C 
ENDBRANCH  45  46
ENDBRANCH  43  45
ENDBRANCH  40  43
ENDBRANCH  38  40
ENDBRANCH  30  33
ENDBRANCH   1  29
TORSDOF 18
ENDMDL
