MODEL 1
REMARK VINA RESULT: -8.268550880      0.000      0.000
REMARK  2 active torsions:
REMARK  status: ('A' for Active; 'I' for Inactive)
REMARK    1  A    between atoms: C2_2  and  N1_3 
REMARK    2  A    between atoms: C9_13  and  N3_14 
ROOT
HETATM    1  N1  UNL     1      15.102  43.846  41.255  1.00  0.00    -0.345 N 
HETATM    2  C3  UNL     1      14.819  42.431  41.067  1.00  0.00     0.062 A 
HETATM    3  C4  UNL     1      15.500  41.947  39.982  1.00  0.00     0.035 A 
HETATM    4  C5  UNL     1      15.358  40.619  39.644  1.00  0.00     0.044 A 
HETATM    5  C6  UNL     1      14.526  39.831  40.424  1.00  0.00     0.118 A 
HETATM    6  F1  UNL     1      14.361  38.528  40.126  1.00  0.00    -0.206 F 
HETATM    7  C7  UNL     1      13.840  40.326  41.518  1.00  0.00     0.074 A 
HETATM    8  C8  UNL     1      13.977  41.662  41.867  1.00  0.00     0.063 A 
HETATM    9  N2  UNL     1      13.222  42.030  43.026  1.00  0.00    -0.340 N 
ATOM     10  H2  UNL     1      12.908  41.257  43.612  1.00  0.00     0.167 HD
HETATM   11  C9  UNL     1      12.884  43.213  43.430  1.00  0.00     0.116 C 
HETATM   12  C15 UNL     1      13.205  44.500  42.761  1.00  0.00     0.036 A 
HETATM   13  C16 UNL     1      12.396  45.517  43.170  1.00  0.00     0.041 A 
HETATM   14  C17 UNL     1      12.556  46.780  42.621  1.00  0.00     0.035 A 
HETATM   15 CL1  UNL     1      11.495  48.052  43.179  1.00  0.00    -0.084 Cl
HETATM   16  C18 UNL     1      13.532  47.034  41.652  1.00  0.00     0.026 A 
HETATM   17  C19 UNL     1      14.338  46.015  41.247  1.00  0.00     0.032 A 
HETATM   18  C20 UNL     1      14.157  44.775  41.810  1.00  0.00     0.049 A 
ENDROOT
BRANCH  11  19
HETATM   19  N3  UNL     1      12.135  43.348  44.607  1.00  0.00    -0.363 N 
HETATM   20  C10 UNL     1      12.783  43.412  45.887  1.00  0.00     0.154 C 
HETATM   21  C11 UNL     1      11.670  43.227  46.927  1.00  0.00     0.291 C 
HETATM   22  N4  UNL     1      10.838  44.413  46.823  1.00  0.00     0.087 N 
HETATM   23  C12 UNL     1       9.805  44.445  47.846  1.00  0.00     0.310 C 
HETATM   24  C13 UNL     1      10.297  44.558  45.508  1.00  0.00     0.291 C 
HETATM   25  C14 UNL     1      10.700  43.427  44.562  1.00  0.00     0.154 C 
ENDBRANCH  11  19
BRANCH   1  26
HETATM   26  C2  UNL     1      16.378  44.304  40.834  1.00  0.00     0.125 C 
HETATM   27  C1  UNL     1      17.565  43.693  41.596  1.00  0.00     0.027 C 
ENDBRANCH   1  26
TORSDOF 2
ENDMDL
