MODEL 2
REMARK VINA RESULT: -8.192333505      3.723      7.102
REMARK  2 active torsions:
REMARK  status: ('A' for Active; 'I' for Inactive)
REMARK    1  A    between atoms: C2_2  and  N1_3 
REMARK    2  A    between atoms: C9_13  and  N3_14 
ROOT
HETATM    1  N1  UNL     1      11.926  47.486  45.638  1.00  0.00    -0.345 N 
HETATM    2  C3  UNL     1      11.498  48.089  44.385  1.00  0.00     0.062 A 
HETATM    3  C4  UNL     1      10.872  49.283  44.617  1.00  0.00     0.035 A 
HETATM    4  C5  UNL     1      10.395  50.006  43.546  1.00  0.00     0.044 A 
HETATM    5  C6  UNL     1      10.573  49.485  42.275  1.00  0.00     0.118 A 
HETATM    6  F1  UNL     1      10.121  50.162  41.201  1.00  0.00    -0.206 F 
HETATM    7  C7  UNL     1      11.207  48.277  42.045  1.00  0.00     0.074 A 
HETATM    8  C8  UNL     1      11.691  47.542  43.118  1.00  0.00     0.063 A 
HETATM    9  N2  UNL     1      12.334  46.323  42.731  1.00  0.00    -0.340 N 
ATOM     10  H2  UNL     1      12.610  46.262  41.751  1.00  0.00     0.167 HD
HETATM   11  C9  UNL     1      12.613  45.288  43.458  1.00  0.00     0.116 C 
HETATM   12  C15 UNL     1      12.313  45.119  44.903  1.00  0.00     0.036 A 
HETATM   13  C16 UNL     1      12.342  43.812  45.292  1.00  0.00     0.041 A 
HETATM   14  C17 UNL     1      12.061  43.486  46.610  1.00  0.00     0.035 A 
HETATM   15 CL1  UNL     1      12.112  41.799  47.061  1.00  0.00    -0.084 Cl
HETATM   16  C18 UNL     1      11.747  44.471  47.552  1.00  0.00     0.026 A 
HETATM   17  C19 UNL     1      11.720  45.774  47.159  1.00  0.00     0.032 A 
HETATM   18  C20 UNL     1      12.003  46.066  45.848  1.00  0.00     0.049 A 
ENDROOT
BRANCH  11  19
HETATM   19  N3  UNL     1      13.253  44.189  42.871  1.00  0.00    -0.363 N 
HETATM   20  C10 UNL     1      12.491  43.132  42.266  1.00  0.00     0.154 C 
HETATM   21  C11 UNL     1      13.483  41.983  42.036  1.00  0.00     0.291 C 
HETATM   22  N4  UNL     1      14.406  42.462  41.023  1.00  0.00     0.087 N 
HETATM   23  C12 UNL     1      15.336  41.427  40.600  1.00  0.00     0.310 C 
HETATM   24  C13 UNL     1      15.080  43.648  41.449  1.00  0.00     0.291 C 
HETATM   25  C14 UNL     1      14.687  44.093  42.858  1.00  0.00     0.154 C 
ENDBRANCH  11  19
BRANCH   1  26
HETATM   26  C2  UNL     1      12.252  48.373  46.697  1.00  0.00     0.125 C 
HETATM   27  C1  UNL     1      13.690  48.245  47.225  1.00  0.00     0.027 C 
ENDBRANCH   1  26
TORSDOF 2
ENDMDL
