MODEL 3
REMARK VINA RESULT: -8.159220600      3.791      7.065
REMARK  2 active torsions:
REMARK  status: ('A' for Active; 'I' for Inactive)
REMARK    1  A    between atoms: C2_2  and  N1_3 
REMARK    2  A    between atoms: C9_13  and  N3_14 
ROOT
HETATM    1  N1  UNL     1      11.817  47.651  45.714  1.00  0.00    -0.345 N 
HETATM    2  C3  UNL     1      11.440  48.248  44.442  1.00  0.00     0.062 A 
HETATM    3  C4  UNL     1      10.758  49.418  44.645  1.00  0.00     0.035 A 
HETATM    4  C5  UNL     1      10.317  50.131  43.552  1.00  0.00     0.044 A 
HETATM    5  C6  UNL     1      10.586  49.626  42.290  1.00  0.00     0.118 A 
HETATM    6  F1  UNL     1      10.171  50.294  41.196  1.00  0.00    -0.206 F 
HETATM    7  C7  UNL     1      11.275  48.443  42.090  1.00  0.00     0.074 A 
HETATM    8  C8  UNL     1      11.723  47.718  43.184  1.00  0.00     0.063 A 
HETATM    9  N2  UNL     1      12.431  46.526  42.828  1.00  0.00    -0.340 N 
ATOM     10  H2  UNL     1      12.765  46.482  41.866  1.00  0.00     0.167 HD
HETATM   11  C9  UNL     1      12.705  45.496  43.565  1.00  0.00     0.116 C 
HETATM   12  C15 UNL     1      12.330  45.305  44.989  1.00  0.00     0.036 A 
HETATM   13  C16 UNL     1      12.384  43.998  45.372  1.00  0.00     0.041 A 
HETATM   14  C17 UNL     1      12.041  43.652  46.670  1.00  0.00     0.035 A 
HETATM   15 CL1  UNL     1      12.127  41.964  47.113  1.00  0.00    -0.084 Cl
HETATM   16  C18 UNL     1      11.638  44.617  47.598  1.00  0.00     0.026 A 
HETATM   17  C19 UNL     1      11.586  45.921  47.212  1.00  0.00     0.032 A 
HETATM   18  C20 UNL     1      11.933  46.233  45.920  1.00  0.00     0.049 A 
ENDROOT
BRANCH  11  19
HETATM   19  N3  UNL     1      13.417  44.425  43.008  1.00  0.00    -0.363 N 
HETATM   20  C10 UNL     1      14.713  44.063  43.514  1.00  0.00     0.154 C 
HETATM   21  C11 UNL     1      15.308  43.099  42.479  1.00  0.00     0.291 C 
HETATM   22  N4  UNL     1      14.488  41.902  42.544  1.00  0.00     0.087 N 
HETATM   23  C12 UNL     1      15.012  40.835  41.707  1.00  0.00     0.310 C 
HETATM   24  C13 UNL     1      13.118  42.191  42.253  1.00  0.00     0.291 C 
HETATM   25  C14 UNL     1      12.870  43.662  41.920  1.00  0.00     0.154 C 
ENDBRANCH  11  19
BRANCH   1  26
HETATM   26  C2  UNL     1      12.050  48.542  46.794  1.00  0.00     0.125 C 
HETATM   27  C1  UNL     1      13.492  49.061  46.900  1.00  0.00     0.027 C 
ENDBRANCH   1  26
TORSDOF 2
ENDMDL
