MODEL 4
REMARK VINA RESULT: -7.158418226      6.168      9.679
REMARK  10 active torsions:
REMARK  status: ('A' for Active; 'I' for Inactive)
REMARK    1  A    between atoms: C2_2  and  C4_4 
REMARK    2  A    between atoms: C4_4  and  C5_5 
REMARK    3  A    between atoms: C5_5  and  N1_6 
REMARK    4  A    between atoms: C5_5  and  C16_25 
REMARK       I    between atoms: N1_6  and  C6_8 
REMARK    5  A    between atoms: C6_8  and  C7_10 
REMARK    6  A    between atoms: C7_10  and  O2_11 
REMARK    7  A    between atoms: C7_10  and  C8_13 
REMARK    8  A    between atoms: C8_13  and  N2_14 
REMARK    9  A    between atoms: C8_13  and  C9_18 
REMARK   10  A    between atoms: C9_18  and  C10_19 
ROOT
HETATM    1  C7  UNL     1       9.232  15.531 -32.881  1.00  0.00     0.240 C 
ENDROOT
BRANCH   1   2
HETATM    2  C6  UNL     1      10.225  14.873 -31.972  1.00  0.00     0.249 C 
HETATM    3  N1  UNL     1      11.228  15.638 -31.322  1.00  0.00    -0.344 N 
ATOM      4  H1  UNL     1      11.265  16.645 -31.482  1.00  0.00     0.163 HD
HETATM    5  O1  UNL     1      10.200  13.647 -31.761  1.00  0.00    -0.271 OA
BRANCH   3   6
HETATM    6  C5  UNL     1      12.216  15.018 -30.423  1.00  0.00     0.185 C 
BRANCH   6   7
HETATM    7  C4  UNL     1      13.521  15.091 -31.151  1.00  0.00     0.040 C 
BRANCH   7   8
HETATM    8  C2  UNL     1      14.217  13.789 -31.362  1.00  0.00    -0.020 C 
HETATM    9  C1  UNL     1      14.062  12.819 -30.238  1.00  0.00     0.009 C 
HETATM   10  C3  UNL     1      13.595  13.167 -32.623  1.00  0.00     0.009 C 
ENDBRANCH   7   8
ENDBRANCH   6   7
BRANCH   6  11
HETATM   11  C16 UNL     1      12.253  15.828 -29.197  1.00  0.00     0.196 C 
HETATM   12  O3  UNL     1      13.334  16.279 -28.768  1.00  0.00    -0.646 OA
HETATM   13  O4  UNL     1      11.091  16.097 -28.510  1.00  0.00    -0.646 OA
ENDBRANCH   6  11
ENDBRANCH   3   6
ENDBRANCH   1   2
BRANCH   1  14
HETATM   14  O2  UNL     1       9.638  15.417 -34.193  1.00  0.00    -0.384 OA
ATOM     15  H2  UNL     1       8.953  15.720 -34.777  1.00  0.00     0.210 HD
ENDBRANCH   1  14
BRANCH   1  16
HETATM   16  C8  UNL     1       7.899  14.874 -32.622  1.00  0.00     0.225 C 
BRANCH  16  17
HETATM   17  N2  UNL     1       7.576  13.978 -33.704  1.00  0.00    -0.072 N 
ATOM     18  H23 UNL     1       8.317  13.939 -34.405  1.00  0.00     0.274 HD
ATOM     19  H22 UNL     1       7.598  13.001 -33.413  1.00  0.00     0.274 HD
ATOM     20  H21 UNL     1       6.677  14.236 -34.111  1.00  0.00     0.274 HD
ENDBRANCH  16  17
BRANCH  16  21
HETATM   21  C9  UNL     1       6.785  15.872 -32.442  1.00  0.00     0.074 C 
BRANCH  21  22
HETATM   22  C10 UNL     1       6.663  16.353 -31.062  1.00  0.00    -0.056 A 
HETATM   23  C11 UNL     1       6.043  17.545 -30.803  1.00  0.00     0.007 A 
HETATM   24  C12 UNL     1       5.944  17.968 -29.495  1.00  0.00     0.001 A 
HETATM   25  C13 UNL     1       6.465  17.202 -28.444  1.00  0.00     0.000 A 
HETATM   26  C14 UNL     1       7.087  16.004 -28.714  1.00  0.00     0.001 A 
HETATM   27  C15 UNL     1       7.187  15.579 -30.019  1.00  0.00     0.007 A 
ENDBRANCH  21  22
ENDBRANCH  16  21
ENDBRANCH   1  16
TORSDOF 10
ENDMDL
