MODEL 2
REMARK VINA RESULT: -7.558153539      0.088      1.234
REMARK  10 active torsions:
REMARK  status: ('A' for Active; 'I' for Inactive)
REMARK    1  A    between atoms: C2_2  and  C4_4 
REMARK    2  A    between atoms: C4_4  and  C5_5 
REMARK    3  A    between atoms: C5_5  and  N1_6 
REMARK    4  A    between atoms: C5_5  and  C16_25 
REMARK       I    between atoms: N1_6  and  C6_8 
REMARK    5  A    between atoms: C6_8  and  C7_10 
REMARK    6  A    between atoms: C7_10  and  O2_11 
REMARK    7  A    between atoms: C7_10  and  C8_13 
REMARK    8  A    between atoms: C8_13  and  N2_14 
REMARK    9  A    between atoms: C8_13  and  C9_18 
REMARK   10  A    between atoms: C9_18  and  C10_19 
ROOT
HETATM    1  C7  UNL     1       3.969  20.156 -28.577  1.00  0.00     0.240 C 
ENDROOT
BRANCH   1   2
HETATM    2  C6  UNL     1       4.335  20.502 -27.166  1.00  0.00     0.249 C 
HETATM    3  N1  UNL     1       3.471  20.169 -26.092  1.00  0.00    -0.344 N 
ATOM      4  H1  UNL     1       2.593  19.688 -26.292  1.00  0.00     0.163 HD
HETATM    5  O1  UNL     1       5.399  21.088 -26.896  1.00  0.00    -0.271 OA
BRANCH   3   6
HETATM    6  C5  UNL     1       3.805  20.496 -24.696  1.00  0.00     0.185 C 
BRANCH   6   7
HETATM    7  C4  UNL     1       2.882  21.610 -24.313  1.00  0.00     0.040 C 
BRANCH   7   8
HETATM    8  C2  UNL     1       3.496  22.718 -23.526  1.00  0.00    -0.020 C 
HETATM    9  C1  UNL     1       3.305  22.603 -22.051  1.00  0.00     0.009 C 
HETATM   10  C3  UNL     1       5.004  22.672 -23.822  1.00  0.00     0.009 C 
ENDBRANCH   7   8
ENDBRANCH   6   7
BRANCH   6  11
HETATM   11  C16 UNL     1       3.538  19.294 -23.893  1.00  0.00     0.196 C 
HETATM   12  O3  UNL     1       2.423  19.121 -23.363  1.00  0.00    -0.646 OA
HETATM   13  O4  UNL     1       4.521  18.346 -23.721  1.00  0.00    -0.646 OA
ENDBRANCH   6  11
ENDBRANCH   3   6
ENDBRANCH   1   2
BRANCH   1  14
HETATM   14  O2  UNL     1       3.597  21.290 -29.265  1.00  0.00    -0.384 OA
ATOM     15  H2  UNL     1       3.365  21.983 -28.658  1.00  0.00     0.210 HD
ENDBRANCH   1  14
BRANCH   1  16
HETATM   16  C8  UNL     1       5.167  19.469 -29.184  1.00  0.00     0.225 C 
BRANCH  16  17
HETATM   17  N2  UNL     1       5.227  19.749 -30.598  1.00  0.00    -0.072 N 
ATOM     18  H23 UNL     1       4.899  18.963 -31.159  1.00  0.00     0.274 HD
ATOM     19  H22 UNL     1       4.529  20.435 -30.882  1.00  0.00     0.274 HD
ATOM     20  H21 UNL     1       6.172  20.035 -30.854  1.00  0.00     0.274 HD
ENDBRANCH  16  17
BRANCH  16  21
HETATM   21  C9  UNL     1       5.157  17.979 -28.964  1.00  0.00     0.074 C 
BRANCH  21  22
HETATM   22  C10 UNL     1       6.459  17.452 -28.544  1.00  0.00    -0.056 A 
HETATM   23  C11 UNL     1       6.781  16.145 -28.785  1.00  0.00     0.007 A 
HETATM   24  C12 UNL     1       8.013  15.681 -28.377  1.00  0.00     0.001 A 
HETATM   25  C13 UNL     1       8.926  16.523 -27.727  1.00  0.00     0.000 A 
HETATM   26  C14 UNL     1       8.593  17.837 -27.489  1.00  0.00     0.001 A 
HETATM   27  C15 UNL     1       7.363  18.303 -27.895  1.00  0.00     0.007 A 
ENDBRANCH  21  22
ENDBRANCH  16  21
ENDBRANCH   1  16
TORSDOF 10
ENDMDL
