MODEL 6
REMARK VINA RESULT: -7.137618936      4.240      6.244
REMARK  10 active torsions:
REMARK  status: ('A' for Active; 'I' for Inactive)
REMARK    1  A    between atoms: C2_2  and  C4_4 
REMARK    2  A    between atoms: C4_4  and  C5_5 
REMARK    3  A    between atoms: C5_5  and  N1_6 
REMARK    4  A    between atoms: C5_5  and  C16_25 
REMARK       I    between atoms: N1_6  and  C6_8 
REMARK    5  A    between atoms: C6_8  and  C7_10 
REMARK    6  A    between atoms: C7_10  and  O2_11 
REMARK    7  A    between atoms: C7_10  and  C8_13 
REMARK    8  A    between atoms: C8_13  and  N2_14 
REMARK    9  A    between atoms: C8_13  and  C9_18 
REMARK   10  A    between atoms: C9_18  and  C10_19 
ROOT
HETATM    1  C7  UNL     1       6.012  17.566 -28.553  1.00  0.00     0.240 C 
ENDROOT
BRANCH   1   2
HETATM    2  C6  UNL     1       7.381  17.870 -28.024  1.00  0.00     0.249 C 
HETATM    3  N1  UNL     1       8.331  16.833 -27.839  1.00  0.00    -0.344 N 
ATOM      4  H1  UNL     1       8.071  15.874 -28.071  1.00  0.00     0.163 HD
HETATM    5  O1  UNL     1       7.722  19.030 -27.734  1.00  0.00    -0.271 OA
BRANCH   3   6
HETATM    6  C5  UNL     1       9.683  17.102 -27.321  1.00  0.00     0.185 C 
BRANCH   6   7
HETATM    7  C4  UNL     1       9.829  16.235 -26.111  1.00  0.00     0.040 C 
BRANCH   7   8
HETATM    8  C2  UNL     1      10.157  16.946 -24.841  1.00  0.00    -0.020 C 
HETATM    9  C1  UNL     1       9.186  18.017 -24.469  1.00  0.00     0.009 C 
HETATM   10  C3  UNL     1      10.144  15.878 -23.735  1.00  0.00     0.009 C 
ENDBRANCH   7   8
ENDBRANCH   6   7
BRANCH   6  11
HETATM   11  C16 UNL     1      10.635  16.705 -28.369  1.00  0.00     0.196 C 
HETATM   12  O3  UNL     1      11.396  17.546 -28.885  1.00  0.00    -0.646 OA
HETATM   13  O4  UNL     1      10.694  15.395 -28.789  1.00  0.00    -0.646 OA
ENDBRANCH   6  11
ENDBRANCH   3   6
ENDBRANCH   1   2
BRANCH   1  14
HETATM   14  O2  UNL     1       5.074  18.363 -27.933  1.00  0.00    -0.384 OA
ATOM     15  H2  UNL     1       4.239  17.911 -27.884  1.00  0.00     0.210 HD
ENDBRANCH   1  14
BRANCH   1  16
HETATM   16  C8  UNL     1       6.064  17.775 -30.046  1.00  0.00     0.225 C 
BRANCH  16  17
HETATM   17  N2  UNL     1       5.070  18.744 -30.439  1.00  0.00    -0.072 N 
ATOM     18  H23 UNL     1       4.121  18.414 -30.260  1.00  0.00     0.274 HD
ATOM     19  H22 UNL     1       5.062  19.557 -29.823  1.00  0.00     0.274 HD
ATOM     20  H21 UNL     1       5.207  19.005 -31.415  1.00  0.00     0.274 HD
ENDBRANCH  16  17
BRANCH  16  21
HETATM   21  C9  UNL     1       5.858  16.499 -30.819  1.00  0.00     0.074 C 
BRANCH  21  22
HETATM   22  C10 UNL     1       6.966  16.197 -31.732  1.00  0.00    -0.056 A 
HETATM   23  C11 UNL     1       8.063  15.517 -31.278  1.00  0.00     0.007 A 
HETATM   24  C12 UNL     1       9.087  15.249 -32.162  1.00  0.00     0.001 A 
HETATM   25  C13 UNL     1       9.016  15.661 -33.499  1.00  0.00     0.000 A 
HETATM   26  C14 UNL     1       7.908  16.344 -33.947  1.00  0.00     0.001 A 
HETATM   27  C15 UNL     1       6.884  16.613 -33.067  1.00  0.00     0.007 A 
ENDBRANCH  21  22
ENDBRANCH  16  21
ENDBRANCH   1  16
TORSDOF 10
ENDMDL
