MODEL 3
REMARK VINA RESULT: -7.257189614      0.905      1.562
REMARK  10 active torsions:
REMARK  status: ('A' for Active; 'I' for Inactive)
REMARK    1  A    between atoms: C2_2  and  C4_4 
REMARK    2  A    between atoms: C4_4  and  C5_5 
REMARK    3  A    between atoms: C5_5  and  N1_6 
REMARK    4  A    between atoms: C5_5  and  C16_25 
REMARK       I    between atoms: N1_6  and  C6_8 
REMARK    5  A    between atoms: C6_8  and  C7_10 
REMARK    6  A    between atoms: C7_10  and  O2_11 
REMARK    7  A    between atoms: C7_10  and  C8_13 
REMARK    8  A    between atoms: C8_13  and  N2_14 
REMARK    9  A    between atoms: C8_13  and  C9_18 
REMARK   10  A    between atoms: C9_18  and  C10_19 
ROOT
HETATM    1  C7  UNL     1       4.127  20.114 -28.547  1.00  0.00     0.240 C 
ENDROOT
BRANCH   1   2
HETATM    2  C6  UNL     1       4.495  20.393 -27.122  1.00  0.00     0.249 C 
HETATM    3  N1  UNL     1       3.559  20.178 -26.077  1.00  0.00    -0.344 N 
ATOM      4  H1  UNL     1       2.629  19.829 -26.309  1.00  0.00     0.163 HD
HETATM    5  O1  UNL     1       5.622  20.820 -26.813  1.00  0.00    -0.271 OA
BRANCH   3   6
HETATM    6  C5  UNL     1       3.893  20.444 -24.669  1.00  0.00     0.185 C 
BRANCH   6   7
HETATM    7  C4  UNL     1       2.926  21.493 -24.218  1.00  0.00     0.040 C 
BRANCH   7   8
HETATM    8  C2  UNL     1       3.267  22.182 -22.939  1.00  0.00    -0.020 C 
HETATM    9  C1  UNL     1       3.579  23.634 -23.088  1.00  0.00     0.009 C 
HETATM   10  C3  UNL     1       2.033  22.044 -22.034  1.00  0.00     0.009 C 
ENDBRANCH   7   8
ENDBRANCH   6   7
BRANCH   6  11
HETATM   11  C16 UNL     1       3.688  19.189 -23.930  1.00  0.00     0.196 C 
HETATM   12  O3  UNL     1       4.633  18.396 -23.755  1.00  0.00    -0.646 OA
HETATM   13  O4  UNL     1       2.445  18.881 -23.424  1.00  0.00    -0.646 OA
ENDBRANCH   6  11
ENDBRANCH   3   6
ENDBRANCH   1   2
BRANCH   1  14
HETATM   14  O2  UNL     1       3.911  21.294 -29.224  1.00  0.00    -0.384 OA
ATOM     15  H2  UNL     1       4.600  21.440 -29.861  1.00  0.00     0.210 HD
ENDBRANCH   1  14
BRANCH   1  16
HETATM   16  C8  UNL     1       5.250  19.298 -29.136  1.00  0.00     0.225 C 
BRANCH  16  17
HETATM   17  N2  UNL     1       5.371  19.578 -30.546  1.00  0.00    -0.072 N 
ATOM     18  H23 UNL     1       4.689  19.060 -31.101  1.00  0.00     0.274 HD
ATOM     19  H22 UNL     1       5.062  20.522 -30.777  1.00  0.00     0.274 HD
ATOM     20  H21 UNL     1       6.328  19.403 -30.853  1.00  0.00     0.274 HD
ENDBRANCH  16  17
BRANCH  16  21
HETATM   21  C9  UNL     1       5.063  17.817 -28.930  1.00  0.00     0.074 C 
BRANCH  21  22
HETATM   22  C10 UNL     1       6.235  17.030 -29.329  1.00  0.00    -0.056 A 
HETATM   23  C11 UNL     1       6.243  16.372 -30.528  1.00  0.00     0.007 A 
HETATM   24  C12 UNL     1       7.360  15.641 -30.873  1.00  0.00     0.001 A 
HETATM   25  C13 UNL     1       8.470  15.567 -30.020  1.00  0.00     0.000 A 
HETATM   26  C14 UNL     1       8.452  16.232 -28.815  1.00  0.00     0.001 A 
HETATM   27  C15 UNL     1       7.338  16.963 -28.469  1.00  0.00     0.007 A 
ENDBRANCH  21  22
ENDBRANCH  16  21
ENDBRANCH   1  16
TORSDOF 10
ENDMDL
