MODEL 1
REMARK VINA RESULT: -7.575263227      0.000      0.000
REMARK  10 active torsions:
REMARK  status: ('A' for Active; 'I' for Inactive)
REMARK    1  A    between atoms: C2_2  and  C4_4 
REMARK    2  A    between atoms: C4_4  and  C5_5 
REMARK    3  A    between atoms: C5_5  and  N1_6 
REMARK    4  A    between atoms: C5_5  and  C16_25 
REMARK       I    between atoms: N1_6  and  C6_8 
REMARK    5  A    between atoms: C6_8  and  C7_10 
REMARK    6  A    between atoms: C7_10  and  O2_11 
REMARK    7  A    between atoms: C7_10  and  C8_13 
REMARK    8  A    between atoms: C8_13  and  N2_14 
REMARK    9  A    between atoms: C8_13  and  C9_18 
REMARK   10  A    between atoms: C9_18  and  C10_19 
ROOT
HETATM    1  C7  UNL     1       4.012  20.129 -28.563  1.00  0.00     0.240 C 
ENDROOT
BRANCH   1   2
HETATM    2  C6  UNL     1       4.369  20.482 -27.152  1.00  0.00     0.249 C 
HETATM    3  N1  UNL     1       3.486  20.175 -26.084  1.00  0.00    -0.344 N 
ATOM      4  H1  UNL     1       2.602  19.709 -26.289  1.00  0.00     0.163 HD
HETATM    5  O1  UNL     1       5.440  21.051 -26.876  1.00  0.00    -0.271 OA
BRANCH   3   6
HETATM    6  C5  UNL     1       3.811  20.511 -24.688  1.00  0.00     0.185 C 
BRANCH   6   7
HETATM    7  C4  UNL     1       2.865  21.605 -24.307  1.00  0.00     0.040 C 
BRANCH   7   8
HETATM    8  C2  UNL     1       3.452  22.721 -23.510  1.00  0.00    -0.020 C 
HETATM    9  C1  UNL     1       3.261  22.589 -22.036  1.00  0.00     0.009 C 
HETATM   10  C3  UNL     1       4.961  22.712 -23.803  1.00  0.00     0.009 C 
ENDBRANCH   7   8
ENDBRANCH   6   7
BRANCH   6  11
HETATM   11  C16 UNL     1       3.568  19.304 -23.884  1.00  0.00     0.196 C 
HETATM   12  O3  UNL     1       4.443  18.421 -23.786  1.00  0.00    -0.646 OA
HETATM   13  O4  UNL     1       2.368  19.140 -23.230  1.00  0.00    -0.646 OA
ENDBRANCH   6  11
ENDBRANCH   3   6
ENDBRANCH   1   2
BRANCH   1  14
HETATM   14  O2  UNL     1       3.660  21.261 -29.265  1.00  0.00    -0.384 OA
ATOM     15  H2  UNL     1       4.179  21.332 -30.057  1.00  0.00     0.210 HD
ENDBRANCH   1  14
BRANCH   1  16
HETATM   16  C8  UNL     1       5.207  19.422 -29.153  1.00  0.00     0.225 C 
BRANCH  16  17
HETATM   17  N2  UNL     1       5.269  19.669 -30.573  1.00  0.00    -0.072 N 
ATOM     18  H23 UNL     1       4.341  19.734 -30.992  1.00  0.00     0.274 HD
ATOM     19  H22 UNL     1       5.594  20.612 -30.784  1.00  0.00     0.274 HD
ATOM     20  H21 UNL     1       5.844  18.956 -31.023  1.00  0.00     0.274 HD
ENDBRANCH  16  17
BRANCH  16  21
HETATM   21  C9  UNL     1       5.188  17.938 -28.899  1.00  0.00     0.074 C 
BRANCH  21  22
HETATM   22  C10 UNL     1       6.494  17.410 -28.489  1.00  0.00    -0.056 A 
HETATM   23  C11 UNL     1       7.393  18.221 -27.852  1.00  0.00     0.007 A 
HETATM   24  C12 UNL     1       8.612  17.694 -27.480  1.00  0.00     0.001 A 
HETATM   25  C13 UNL     1       8.933  16.356 -27.744  1.00  0.00     0.000 A 
HETATM   26  C14 UNL     1       8.022  15.547 -28.385  1.00  0.00     0.001 A 
HETATM   27  C15 UNL     1       6.805  16.071 -28.757  1.00  0.00     0.007 A 
ENDBRANCH  21  22
ENDBRANCH  16  21
ENDBRANCH   1  16
TORSDOF 10
ENDMDL
