MODEL 6
REMARK VINA RESULT: -6.082613118      5.339      8.045
REMARK  5 active torsions:
REMARK  status: ('A' for Active; 'I' for Inactive)
REMARK    1  A    between atoms: N5_13  and  C6_14 
REMARK    2  A    between atoms: C7_16  and  C8_17 
REMARK    3  A    between atoms: C8_17  and  O2_18 
REMARK    4  A    between atoms: C9_20  and  O3_21 
REMARK    5  A    between atoms: C10_23  and  O4_24 
ROOT
HETATM    1  N1  UNL     1      17.433 -12.967   4.800  1.00  0.00    -0.080 NA
HETATM    2  C1  UNL     1      17.199 -11.829   5.605  1.00  0.00     0.148 A 
HETATM    3  N2  UNL     1      16.236 -11.808   6.562  1.00  0.00    -0.339 N 
ATOM      4  H2  UNL     1      15.653 -12.631   6.719  1.00  0.00     0.167 HD
HETATM    5  C2  UNL     1      16.054 -10.701   7.301  1.00  0.00     0.183 A 
HETATM    6  N3  UNL     1      16.828  -9.622   7.086  1.00  0.00    -0.336 N 
ATOM      7  H3  UNL     1      16.679  -8.789   7.654  1.00  0.00     0.168 HD
HETATM    8  C3  UNL     1      17.806  -9.604   6.134  1.00  0.00     0.142 A 
HETATM    9  C4  UNL     1      17.995 -10.725   5.382  1.00  0.00     0.119 A 
HETATM   10  N4  UNL     1      19.005 -10.451   4.528  1.00  0.00    -0.346 N 
ATOM     11  H4  UNL     1      19.384 -11.091   3.831  1.00  0.00     0.167 HD
HETATM   12  C5  UNL     1      19.429  -9.190   4.751  1.00  0.00     0.188 A 
HETATM   13  N5  UNL     1      18.687  -8.672   5.740  1.00  0.00    -0.297 N 
ENDROOT
BRANCH  13  14
HETATM   14  C6  UNL     1      18.780  -7.366   6.311  1.00  0.00     0.262 C 
HETATM   15  O1  UNL     1      18.876  -7.454   7.695  1.00  0.00    -0.353 OA
HETATM   16  C7  UNL     1      18.528  -6.243   8.230  1.00  0.00     0.179 C 
HETATM   17  C9  UNL     1      17.807  -5.447   7.171  1.00  0.00     0.182 C 
HETATM   18  C10 UNL     1      17.535  -6.543   6.132  1.00  0.00     0.198 C 
BRANCH  16  19
HETATM   19  C8  UNL     1      17.589  -6.385   9.414  1.00  0.00     0.198 C 
BRANCH  19  20
HETATM   20  O2  UNL     1      17.044  -7.643   9.525  1.00  0.00    -0.398 OA
ATOM     21  H2  UNL     1      16.937  -8.079   8.688  1.00  0.00     0.209 HD
ENDBRANCH  19  20
ENDBRANCH  16  19
BRANCH  17  22
HETATM   22  O3  UNL     1      18.712  -4.547   6.596  1.00  0.00    -0.390 OA
ATOM     23  H3  UNL     1      19.580  -4.731   6.936  1.00  0.00     0.210 HD
ENDBRANCH  17  22
BRANCH  18  24
HETATM   24  O4  UNL     1      17.430  -6.008   4.855  1.00  0.00    -0.388 OA
ATOM     25  H4  UNL     1      18.277  -5.838   4.461  1.00  0.00     0.210 HD
ENDBRANCH  18  24
ENDBRANCH  13  14
TORSDOF 5
ENDMDL
