MODEL 1
REMARK VINA RESULT: -6.544309933      0.000      0.000
REMARK  5 active torsions:
REMARK  status: ('A' for Active; 'I' for Inactive)
REMARK    1  A    between atoms: N5_13  and  C6_14 
REMARK    2  A    between atoms: C7_16  and  C8_17 
REMARK    3  A    between atoms: C8_17  and  O2_18 
REMARK    4  A    between atoms: C9_20  and  O3_21 
REMARK    5  A    between atoms: C10_23  and  O4_24 
ROOT
HETATM    1  N1  UNL     1      16.760  -9.066   6.732  1.00  0.00    -0.080 NA
HETATM    2  C1  UNL     1      17.434 -10.233   6.307  1.00  0.00     0.148 A 
HETATM    3  N2  UNL     1      18.567 -10.180   5.561  1.00  0.00    -0.339 N 
ATOM      4  H2  UNL     1      18.959  -9.278   5.289  1.00  0.00     0.167 HD
HETATM    5  C2  UNL     1      19.170 -11.319   5.182  1.00  0.00     0.183 A 
HETATM    6  N3  UNL     1      18.645 -12.504   5.546  1.00  0.00    -0.336 N 
ATOM      7  H3  UNL     1      19.112 -13.360   5.252  1.00  0.00     0.168 HD
HETATM    8  C3  UNL     1      17.508 -12.598   6.295  1.00  0.00     0.142 A 
HETATM    9  C4  UNL     1      16.893 -11.445   6.682  1.00  0.00     0.119 A 
HETATM   10  N4  UNL     1      15.808 -11.808   7.400  1.00  0.00    -0.346 N 
ATOM     11  H4  UNL     1      15.139 -11.170   7.830  1.00  0.00     0.167 HD
HETATM   12  C5  UNL     1      15.758 -13.155   7.456  1.00  0.00     0.188 A 
HETATM   13  N5  UNL     1      16.806 -13.637   6.773  1.00  0.00    -0.297 N 
ENDROOT
BRANCH  13  14
HETATM   14  C6  UNL     1      17.159 -15.005   6.563  1.00  0.00     0.262 C 
HETATM   15  O1  UNL     1      16.493 -15.507   5.450  1.00  0.00    -0.353 OA
HETATM   16  C7  UNL     1      16.494 -16.873   5.527  1.00  0.00     0.179 C 
HETATM   17  C9  UNL     1      16.842 -17.269   6.939  1.00  0.00     0.182 C 
HETATM   18  C10 UNL     1      16.684 -15.922   7.656  1.00  0.00     0.198 C 
BRANCH  16  19
HETATM   19  C8  UNL     1      15.136 -17.470   5.205  1.00  0.00     0.198 C 
BRANCH  19  20
HETATM   20  O2  UNL     1      15.144 -18.844   5.163  1.00  0.00    -0.398 OA
ATOM     21  H2  UNL     1      14.275 -19.225   5.211  1.00  0.00     0.209 HD
ENDBRANCH  19  20
ENDBRANCH  16  19
BRANCH  17  22
HETATM   22  O3  UNL     1      18.200 -17.607   6.988  1.00  0.00    -0.390 OA
ATOM     23  H3  UNL     1      18.600 -17.146   7.715  1.00  0.00     0.210 HD
ENDBRANCH  17  22
BRANCH  18  24
HETATM   24  O4  UNL     1      17.485 -15.859   8.789  1.00  0.00    -0.388 OA
ATOM     25  H4  UNL     1      17.111 -16.327   9.525  1.00  0.00     0.210 HD
ENDBRANCH  18  24
ENDBRANCH  13  14
TORSDOF 5
ENDMDL
