MODEL 4
REMARK VINA RESULT: -6.292800325      5.753      8.286
REMARK  5 active torsions:
REMARK  status: ('A' for Active; 'I' for Inactive)
REMARK    1  A    between atoms: N5_13  and  C6_14 
REMARK    2  A    between atoms: C7_16  and  C8_17 
REMARK    3  A    between atoms: C8_17  and  O2_18 
REMARK    4  A    between atoms: C9_20  and  O3_21 
REMARK    5  A    between atoms: C10_23  and  O4_24 
ROOT
HETATM    1  N1  UNL     1      17.498 -12.924   4.595  1.00  0.00    -0.080 NA
HETATM    2  C1  UNL     1      18.221 -11.719   4.442  1.00  0.00     0.148 A 
HETATM    3  N2  UNL     1      19.160 -11.561   3.475  1.00  0.00    -0.339 N 
ATOM      4  H2  UNL     1      19.364 -12.324   2.829  1.00  0.00     0.167 HD
HETATM    5  C2  UNL     1      19.820 -10.395   3.370  1.00  0.00     0.183 A 
HETATM    6  N3  UNL     1      19.544  -9.395   4.226  1.00  0.00    -0.336 N 
ATOM      7  H3  UNL     1      20.053  -8.516   4.136  1.00  0.00     0.168 HD
HETATM    8  C3  UNL     1      18.607  -9.515   5.212  1.00  0.00     0.142 A 
HETATM    9  C4  UNL     1      17.935 -10.696   5.321  1.00  0.00     0.119 A 
HETATM   10  N4  UNL     1      17.080 -10.558   6.357  1.00  0.00    -0.346 N 
ATOM     11  H4  UNL     1      16.434 -11.272   6.694  1.00  0.00     0.167 HD
HETATM   12  C5  UNL     1      17.221  -9.320   6.873  1.00  0.00     0.188 A 
HETATM   13  N5  UNL     1      18.164  -8.682   6.165  1.00  0.00    -0.297 N 
ENDROOT
BRANCH  13  14
HETATM   14  C6  UNL     1      18.646  -7.350   6.350  1.00  0.00     0.262 C 
HETATM   15  O1  UNL     1      19.781  -7.358   7.153  1.00  0.00    -0.353 OA
HETATM   16  C7  UNL     1      19.957  -6.101   7.664  1.00  0.00     0.179 C 
HETATM   17  C9  UNL     1      18.669  -5.335   7.494  1.00  0.00     0.182 C 
HETATM   18  C10 UNL     1      17.708  -6.477   7.137  1.00  0.00     0.198 C 
BRANCH  16  19
HETATM   19  C8  UNL     1      20.284  -6.122   9.147  1.00  0.00     0.198 C 
BRANCH  19  20
HETATM   20  O2  UNL     1      21.515  -5.583   9.437  1.00  0.00    -0.398 OA
ATOM     21  H2  UNL     1      21.922  -5.971  10.202  1.00  0.00     0.209 HD
ENDBRANCH  19  20
ENDBRANCH  16  19
BRANCH  17  22
HETATM   22  O3  UNL     1      18.781  -4.519   6.362  1.00  0.00    -0.390 OA
ATOM     23  H3  UNL     1      17.940  -4.498   5.919  1.00  0.00     0.210 HD
ENDBRANCH  17  22
BRANCH  18  24
HETATM   24  O4  UNL     1      16.643  -6.016   6.373  1.00  0.00    -0.388 OA
ATOM     25  H4  UNL     1      15.844  -6.503   6.532  1.00  0.00     0.210 HD
ENDBRANCH  18  24
ENDBRANCH  13  14
TORSDOF 5
ENDMDL
