MODEL 3
REMARK VINA RESULT: -10.313868127      2.922      9.727
REMARK  7 active torsions:
REMARK  status: ('A' for Active; 'I' for Inactive)
REMARK    1  A    between atoms: O1_2  and  C2_3 
REMARK    2  A    between atoms: C5_6  and  N1_7 
REMARK    3  A    between atoms: C6_8  and  C7_9 
REMARK    4  A    between atoms: C7_9  and  C8_10 
REMARK    5  A    between atoms: C8_10  and  N2_11 
REMARK    6  A    between atoms: C14_18  and  O3_19 
REMARK    7  A    between atoms: O3_19  and  C15_20 
ROOT
HETATM    1  N1  UNL     1      -8.391  -1.991  17.529  1.00  0.00    -0.267 N 
HETATM    2  C6  UNL     1      -7.990  -2.293  18.793  1.00  0.00     0.093 A 
HETATM    3  N3  UNL     1      -8.848  -1.971  19.776  1.00  0.00    -0.344 N 
ATOM      4  H3  UNL     1      -8.575  -2.186  20.735  1.00  0.00     0.167 HD
HETATM    5  C20 UNL     1     -10.043  -1.385  19.582  1.00  0.00     0.049 A 
HETATM    6  C21 UNL     1     -10.880  -1.080  20.646  1.00  0.00     0.030 A 
HETATM    7  C22 UNL     1     -12.080  -0.483  20.351  1.00  0.00     0.002 A 
HETATM    8  C23 UNL     1     -12.447  -0.194  19.055  1.00  0.00     0.001 A 
HETATM    9  C24 UNL     1     -11.619  -0.495  17.996  1.00  0.00     0.019 A 
HETATM   10  C25 UNL     1     -10.405  -1.098  18.277  1.00  0.00     0.059 A 
HETATM   11  C26 UNL     1      -9.565  -1.407  17.239  1.00  0.00     0.266 A 
HETATM   12  O5  UNL     1      -9.878  -1.152  16.031  1.00  0.00    -0.267 OA
ENDROOT
BRANCH   2  13
HETATM   13  C7  UNL     1      -6.679  -2.941  19.063  1.00  0.00     0.097 C 
BRANCH  13  14
HETATM   14  C8  UNL     1      -6.205  -2.416  20.403  1.00  0.00     0.143 C 
BRANCH  14  15
HETATM   15  N2  UNL     1      -6.295  -3.391  21.452  1.00  0.00    -0.279 N 
HETATM   16  C9  UNL     1      -5.490  -4.549  21.632  1.00  0.00     0.261 A 
HETATM   17  O2  UNL     1      -4.540  -4.913  20.873  1.00  0.00    -0.267 OA
HETATM   18  C10 UNL     1      -5.911  -5.285  22.836  1.00  0.00     0.051 A 
HETATM   19  C11 UNL     1      -5.475  -6.442  23.447  1.00  0.00     0.018 A 
HETATM   20  C18 UNL     1      -6.961  -4.579  23.380  1.00  0.00     0.081 A 
HETATM   21  C12 UNL     1      -6.040  -6.948  24.596  1.00  0.00     0.004 A 
HETATM   22  C13 UNL     1      -7.104  -6.228  25.143  1.00  0.00     0.038 A 
HETATM   23  C14 UNL     1      -7.555  -5.069  24.549  1.00  0.00     0.086 A 
HETATM   24  C19 UNL     1      -7.219  -3.411  22.550  1.00  0.00     0.264 A 
HETATM   25  O4  UNL     1      -8.125  -2.554  22.780  1.00  0.00    -0.267 OA
BRANCH  23  26
HETATM   26  O3  UNL     1      -8.597  -4.382  25.101  1.00  0.00    -0.346 OA
BRANCH  26  27
HETATM   27  C15 UNL     1      -9.869  -4.832  25.417  1.00  0.00     0.120 C 
HETATM   28  C16 UNL     1     -10.556  -5.534  24.263  1.00  0.00     0.040 C 
HETATM   29  C17 UNL     1     -10.742  -3.609  25.731  1.00  0.00     0.040 C 
ENDBRANCH  26  27
ENDBRANCH  23  26
ENDBRANCH  14  15
ENDBRANCH  13  14
ENDBRANCH   2  13
BRANCH   1  30
HETATM   30  C5  UNL     1      -7.506  -2.321  16.490  1.00  0.00     0.044 A 
HETATM   31  C4  UNL     1      -7.152  -3.633  16.244  1.00  0.00     0.033 A 
HETATM   32  C3  UNL     1      -6.281  -3.948  15.221  1.00  0.00     0.039 A 
HETATM   33  C2  UNL     1      -5.735  -2.971  14.410  1.00  0.00     0.068 A 
HETATM   34  C28 UNL     1      -6.086  -1.652  14.649  1.00  0.00     0.039 A 
HETATM   35  C27 UNL     1      -6.959  -1.350  15.677  1.00  0.00     0.033 A 
BRANCH  33  36
HETATM   36  O1  UNL     1      -4.865  -3.332  13.394  1.00  0.00    -0.356 OA
HETATM   37  C1  UNL     1      -4.603  -4.646  13.012  1.00  0.00     0.210 C 
ENDBRANCH  33  36
ENDBRANCH   1  30
TORSDOF 7
ENDMDL
