MODEL 5
REMARK VINA RESULT: -10.118107246      2.104      9.669
REMARK  7 active torsions:
REMARK  status: ('A' for Active; 'I' for Inactive)
REMARK    1  A    between atoms: O1_2  and  C2_3 
REMARK    2  A    between atoms: C5_6  and  N1_7 
REMARK    3  A    between atoms: C6_8  and  C7_9 
REMARK    4  A    between atoms: C7_9  and  C8_10 
REMARK    5  A    between atoms: C8_10  and  N2_11 
REMARK    6  A    between atoms: C14_18  and  O3_19 
REMARK    7  A    between atoms: O3_19  and  C15_20 
ROOT
HETATM    1  N1  UNL     1      -8.759  -1.815  17.571  1.00  0.00    -0.267 N 
HETATM    2  C6  UNL     1      -8.400  -2.090  18.853  1.00  0.00     0.093 A 
HETATM    3  N3  UNL     1      -9.298  -1.765  19.799  1.00  0.00    -0.344 N 
ATOM      4  H3  UNL     1      -9.056  -1.960  20.771  1.00  0.00     0.167 HD
HETATM    5  C20 UNL     1     -10.492  -1.200  19.553  1.00  0.00     0.049 A 
HETATM    6  C21 UNL     1     -11.371  -0.889  20.580  1.00  0.00     0.030 A 
HETATM    7  C22 UNL     1     -12.569  -0.315  20.232  1.00  0.00     0.002 A 
HETATM    8  C23 UNL     1     -12.892  -0.053  18.919  1.00  0.00     0.001 A 
HETATM    9  C24 UNL     1     -12.022  -0.359  17.896  1.00  0.00     0.019 A 
HETATM   10  C25 UNL     1     -10.810  -0.940  18.231  1.00  0.00     0.059 A 
HETATM   11  C26 UNL     1      -9.929  -1.252  17.229  1.00  0.00     0.266 A 
HETATM   12  O5  UNL     1     -10.201  -1.022  16.006  1.00  0.00    -0.267 OA
ENDROOT
BRANCH   2  13
HETATM   13  C7  UNL     1      -7.090  -2.715  19.182  1.00  0.00     0.097 C 
BRANCH  13  14
HETATM   14  C8  UNL     1      -6.634  -2.101  20.491  1.00  0.00     0.143 C 
BRANCH  14  15
HETATM   15  N2  UNL     1      -6.624  -3.039  21.576  1.00  0.00    -0.279 N 
HETATM   16  C9  UNL     1      -7.711  -3.406  22.417  1.00  0.00     0.261 A 
HETATM   17  O2  UNL     1      -8.892  -2.947  22.338  1.00  0.00    -0.267 OA
HETATM   18  C10 UNL     1      -7.278  -4.404  23.410  1.00  0.00     0.051 A 
HETATM   19  C11 UNL     1      -7.921  -5.072  24.431  1.00  0.00     0.018 A 
HETATM   20  C18 UNL     1      -5.943  -4.639  23.172  1.00  0.00     0.081 A 
HETATM   21  C12 UNL     1      -7.291  -5.983  25.249  1.00  0.00     0.004 A 
HETATM   22  C13 UNL     1      -5.937  -6.219  25.004  1.00  0.00     0.038 A 
HETATM   23  C14 UNL     1      -5.276  -5.562  23.987  1.00  0.00     0.086 A 
HETATM   24  C19 UNL     1      -5.513  -3.815  22.052  1.00  0.00     0.264 A 
HETATM   25  O4  UNL     1      -4.336  -3.800  21.582  1.00  0.00    -0.267 OA
BRANCH  23  26
HETATM   26  O3  UNL     1      -3.953  -5.807  23.766  1.00  0.00    -0.346 OA
BRANCH  26  27
HETATM   27  C15 UNL     1      -2.850  -5.347  24.469  1.00  0.00     0.120 C 
HETATM   28  C16 UNL     1      -1.673  -5.013  23.576  1.00  0.00     0.040 C 
HETATM   29  C17 UNL     1      -2.363  -6.479  25.384  1.00  0.00     0.040 C 
ENDBRANCH  26  27
ENDBRANCH  23  26
ENDBRANCH  14  15
ENDBRANCH  13  14
ENDBRANCH   2  13
BRANCH   1  30
HETATM   30  C5  UNL     1      -7.832  -2.149  16.570  1.00  0.00     0.044 A 
HETATM   31  C4  UNL     1      -7.483  -3.463  16.331  1.00  0.00     0.033 A 
HETATM   32  C3  UNL     1      -6.570  -3.781  15.346  1.00  0.00     0.039 A 
HETATM   33  C2  UNL     1      -5.977  -2.806  14.568  1.00  0.00     0.068 A 
HETATM   34  C28 UNL     1      -6.322  -1.484  14.800  1.00  0.00     0.039 A 
HETATM   35  C27 UNL     1      -7.237  -1.179  15.790  1.00  0.00     0.033 A 
BRANCH  33  36
HETATM   36  O1  UNL     1      -5.066  -3.171  13.588  1.00  0.00    -0.356 OA
HETATM   37  C1  UNL     1      -4.725  -4.487  13.283  1.00  0.00     0.210 C 
ENDBRANCH  33  36
ENDBRANCH   1  30
TORSDOF 7
ENDMDL
