MODEL 6
REMARK VINA RESULT: -10.060537635      2.726      9.786
REMARK  7 active torsions:
REMARK  status: ('A' for Active; 'I' for Inactive)
REMARK    1  A    between atoms: O1_2  and  C2_3 
REMARK    2  A    between atoms: C5_6  and  N1_7 
REMARK    3  A    between atoms: C6_8  and  C7_9 
REMARK    4  A    between atoms: C7_9  and  C8_10 
REMARK    5  A    between atoms: C8_10  and  N2_11 
REMARK    6  A    between atoms: C14_18  and  O3_19 
REMARK    7  A    between atoms: O3_19  and  C15_20 
ROOT
HETATM    1  N1  UNL     1      -8.696  -1.843  17.752  1.00  0.00    -0.267 N 
HETATM    2  C6  UNL     1      -8.302  -2.135  19.021  1.00  0.00     0.093 A 
HETATM    3  N3  UNL     1      -9.164  -1.799  19.997  1.00  0.00    -0.344 N 
ATOM      4  H3  UNL     1      -8.896  -2.006  20.960  1.00  0.00     0.167 HD
HETATM    5  C20 UNL     1     -10.355  -1.209  19.792  1.00  0.00     0.049 A 
HETATM    6  C21 UNL     1     -11.195  -0.890  20.848  1.00  0.00     0.030 A 
HETATM    7  C22 UNL     1     -12.392  -0.291  20.541  1.00  0.00     0.002 A 
HETATM    8  C23 UNL     1     -12.750  -0.012  19.241  1.00  0.00     0.001 A 
HETATM    9  C24 UNL     1     -11.919  -0.327  18.189  1.00  0.00     0.019 A 
HETATM   10  C25 UNL     1     -10.709  -0.934  18.482  1.00  0.00     0.059 A 
HETATM   11  C26 UNL     1      -9.865  -1.256  17.451  1.00  0.00     0.266 A 
HETATM   12  O5  UNL     1     -10.171  -1.012  16.239  1.00  0.00    -0.267 OA
ENDROOT
BRANCH   2  13
HETATM   13  C7  UNL     1      -6.995  -2.786  19.304  1.00  0.00     0.097 C 
BRANCH  13  14
HETATM   14  C8  UNL     1      -6.565  -2.314  20.679  1.00  0.00     0.143 C 
BRANCH  14  15
HETATM   15  N2  UNL     1      -6.487  -3.377  21.638  1.00  0.00    -0.279 N 
HETATM   16  C9  UNL     1      -5.441  -4.329  21.797  1.00  0.00     0.261 A 
HETATM   17  O2  UNL     1      -4.386  -4.388  21.094  1.00  0.00    -0.267 OA
HETATM   18  C10 UNL     1      -5.750  -5.252  22.901  1.00  0.00     0.051 A 
HETATM   19  C11 UNL     1      -5.090  -6.329  23.456  1.00  0.00     0.018 A 
HETATM   20  C18 UNL     1      -6.970  -4.864  23.407  1.00  0.00     0.081 A 
HETATM   21  C12 UNL     1      -5.590  -7.058  24.511  1.00  0.00     0.004 A 
HETATM   22  C13 UNL     1      -6.827  -6.660  25.021  1.00  0.00     0.038 A 
HETATM   23  C14 UNL     1      -7.503  -5.586  24.482  1.00  0.00     0.086 A 
HETATM   24  C19 UNL     1      -7.447  -3.715  22.651  1.00  0.00     0.264 A 
HETATM   25  O4  UNL     1      -8.544  -3.117  22.869  1.00  0.00    -0.267 OA
BRANCH  23  26
HETATM   26  O3  UNL     1      -8.712  -5.215  24.995  1.00  0.00    -0.346 OA
BRANCH  26  27
HETATM   27  C15 UNL     1      -9.973  -5.711  24.705  1.00  0.00     0.120 C 
HETATM   28  C16 UNL     1     -11.084  -4.728  25.012  1.00  0.00     0.040 C 
HETATM   29  C17 UNL     1     -10.230  -6.920  25.616  1.00  0.00     0.040 C 
ENDBRANCH  26  27
ENDBRANCH  23  26
ENDBRANCH  14  15
ENDBRANCH  13  14
ENDBRANCH   2  13
BRANCH   1  30
HETATM   30  C5  UNL     1      -7.807  -2.187  16.721  1.00  0.00     0.044 A 
HETATM   31  C4  UNL     1      -7.306  -1.229  15.862  1.00  0.00     0.033 A 
HETATM   32  C3  UNL     1      -6.434  -1.577  14.851  1.00  0.00     0.039 A 
HETATM   33  C2  UNL     1      -6.031  -2.885  14.662  1.00  0.00     0.068 A 
HETATM   34  C28 UNL     1      -6.527  -3.853  15.520  1.00  0.00     0.039 A 
HETATM   35  C27 UNL     1      -7.400  -3.491  16.529  1.00  0.00     0.033 A 
BRANCH  33  36
HETATM   36  O1  UNL     1      -5.152  -3.189  13.634  1.00  0.00    -0.356 OA
HETATM   37  C1  UNL     1      -4.784  -4.483  13.271  1.00  0.00     0.210 C 
ENDBRANCH  33  36
ENDBRANCH   1  30
TORSDOF 7
ENDMDL
