MODEL 9
REMARK VINA RESULT: -9.551493366      1.957      2.292
REMARK  7 active torsions:
REMARK  status: ('A' for Active; 'I' for Inactive)
REMARK    1  A    between atoms: O1_2  and  C2_3 
REMARK    2  A    between atoms: C5_6  and  N1_7 
REMARK    3  A    between atoms: C6_8  and  C7_9 
REMARK    4  A    between atoms: C7_9  and  C8_10 
REMARK    5  A    between atoms: C8_10  and  N2_11 
REMARK    6  A    between atoms: C14_18  and  O3_19 
REMARK    7  A    between atoms: O3_19  and  C15_20 
ROOT
HETATM    1  N1  UNL     1      -2.850  -6.410  25.085  1.00  0.00    -0.267 N 
HETATM    2  C6  UNL     1      -3.230  -5.608  24.056  1.00  0.00     0.093 A 
HETATM    3  N3  UNL     1      -2.293  -4.766  23.587  1.00  0.00    -0.344 N 
ATOM      4  H3  UNL     1      -2.549  -4.151  22.814  1.00  0.00     0.167 HD
HETATM    5  C20 UNL     1      -1.040  -4.679  24.067  1.00  0.00     0.049 A 
HETATM    6  C21 UNL     1      -0.122  -3.785  23.534  1.00  0.00     0.030 A 
HETATM    7  C22 UNL     1       1.134  -3.768  24.088  1.00  0.00     0.002 A 
HETATM    8  C23 UNL     1       1.477  -4.598  25.132  1.00  0.00     0.001 A 
HETATM    9  C24 UNL     1       0.569  -5.487  25.664  1.00  0.00     0.019 A 
HETATM   10  C25 UNL     1      -0.702  -5.517  25.115  1.00  0.00     0.059 A 
HETATM   11  C26 UNL     1      -1.622  -6.393  25.628  1.00  0.00     0.266 A 
HETATM   12  O5  UNL     1      -1.333  -7.175  26.593  1.00  0.00    -0.267 OA
ENDROOT
BRANCH   2  13
HETATM   13  C7  UNL     1      -4.604  -5.663  23.487  1.00  0.00     0.097 C 
BRANCH  13  14
HETATM   14  C8  UNL     1      -4.501  -5.170  22.058  1.00  0.00     0.143 C 
BRANCH  14  15
HETATM   15  N2  UNL     1      -5.612  -4.352  21.665  1.00  0.00    -0.279 N 
HETATM   16  C9  UNL     1      -6.704  -3.926  22.471  1.00  0.00     0.261 A 
HETATM   17  O2  UNL     1      -6.872  -4.212  23.696  1.00  0.00    -0.267 OA
HETATM   18  C10 UNL     1      -7.631  -3.097  21.682  1.00  0.00     0.051 A 
HETATM   19  C11 UNL     1      -8.815  -2.451  21.974  1.00  0.00     0.018 A 
HETATM   20  C18 UNL     1      -7.106  -3.021  20.412  1.00  0.00     0.081 A 
HETATM   21  C12 UNL     1      -9.521  -1.717  21.048  1.00  0.00     0.004 A 
HETATM   22  C13 UNL     1      -8.983  -1.643  19.761  1.00  0.00     0.038 A 
HETATM   23  C14 UNL     1      -7.802  -2.281  19.449  1.00  0.00     0.086 A 
HETATM   24  C19 UNL     1      -5.866  -3.783  20.371  1.00  0.00     0.264 A 
HETATM   25  O4  UNL     1      -5.135  -3.911  19.343  1.00  0.00    -0.267 OA
BRANCH  23  26
HETATM   26  O3  UNL     1      -7.295  -2.195  18.185  1.00  0.00    -0.346 OA
BRANCH  26  27
HETATM   27  C15 UNL     1      -7.826  -2.674  16.997  1.00  0.00     0.120 C 
HETATM   28  C16 UNL     1      -6.886  -3.602  16.256  1.00  0.00     0.040 C 
HETATM   29  C17 UNL     1      -8.048  -1.479  16.059  1.00  0.00     0.040 C 
ENDBRANCH  26  27
ENDBRANCH  23  26
ENDBRANCH  14  15
ENDBRANCH  13  14
ENDBRANCH   2  13
BRANCH   1  30
HETATM   30  C5  UNL     1      -3.818  -7.296  25.587  1.00  0.00     0.044 A 
HETATM   31  C4  UNL     1      -4.683  -6.911  26.592  1.00  0.00     0.033 A 
HETATM   32  C3  UNL     1      -5.631  -7.789  27.079  1.00  0.00     0.039 A 
HETATM   33  C2  UNL     1      -5.749  -9.073  26.583  1.00  0.00     0.068 A 
HETATM   34  C28 UNL     1      -4.886  -9.466  25.574  1.00  0.00     0.039 A 
HETATM   35  C27 UNL     1      -3.941  -8.579  25.095  1.00  0.00     0.033 A 
BRANCH  33  36
HETATM   36  O1  UNL     1      -6.716  -9.920  27.101  1.00  0.00    -0.356 OA
HETATM   37  C1  UNL     1      -7.273 -10.994  26.410  1.00  0.00     0.210 C 
ENDBRANCH  33  36
ENDBRANCH   1  30
TORSDOF 7
ENDMDL
