MODEL 1
REMARK VINA RESULT: -11.430114324      0.000      0.000
REMARK  7 active torsions:
REMARK  status: ('A' for Active; 'I' for Inactive)
REMARK    1  A    between atoms: O1_2  and  C2_3 
REMARK    2  A    between atoms: C5_6  and  N1_7 
REMARK    3  A    between atoms: C6_8  and  C7_9 
REMARK    4  A    between atoms: C7_9  and  C8_10 
REMARK    5  A    between atoms: C8_10  and  N2_11 
REMARK    6  A    between atoms: C14_18  and  O3_19 
REMARK    7  A    between atoms: O3_19  and  C15_20 
ROOT
HETATM    1  N1  UNL     1      -4.148  -5.856  24.294  1.00  0.00    -0.267 N 
HETATM    2  C6  UNL     1      -3.908  -5.181  23.138  1.00  0.00     0.093 A 
HETATM    3  N3  UNL     1      -2.655  -4.725  22.971  1.00  0.00    -0.344 N 
ATOM      4  H3  UNL     1      -2.445  -4.214  22.113  1.00  0.00     0.167 HD
HETATM    5  C20 UNL     1      -1.658  -4.896  23.858  1.00  0.00     0.049 A 
HETATM    6  C21 UNL     1      -0.386  -4.397  23.621  1.00  0.00     0.030 A 
HETATM    7  C22 UNL     1       0.568  -4.621  24.583  1.00  0.00     0.002 A 
HETATM    8  C23 UNL     1       0.281  -5.310  25.740  1.00  0.00     0.001 A 
HETATM    9  C24 UNL     1      -0.981  -5.807  25.980  1.00  0.00     0.019 A 
HETATM   10  C25 UNL     1      -1.954  -5.590  25.018  1.00  0.00     0.059 A 
HETATM   11  C26 UNL     1      -3.217  -6.075  25.236  1.00  0.00     0.266 A 
HETATM   12  O5  UNL     1      -3.511  -6.717  26.296  1.00  0.00    -0.267 OA
ENDROOT
BRANCH   2  13
HETATM   13  C7  UNL     1      -4.975  -4.963  22.124  1.00  0.00     0.097 C 
BRANCH  13  14
HETATM   14  C8  UNL     1      -5.149  -3.463  21.994  1.00  0.00     0.143 C 
BRANCH  14  15
HETATM   15  N2  UNL     1      -6.042  -3.092  20.935  1.00  0.00    -0.279 N 
HETATM   16  C9  UNL     1      -7.402  -2.689  21.047  1.00  0.00     0.261 A 
HETATM   17  O2  UNL     1      -8.056  -2.594  22.131  1.00  0.00    -0.267 OA
HETATM   18  C10 UNL     1      -7.962  -2.394  19.717  1.00  0.00     0.051 A 
HETATM   19  C11 UNL     1      -9.200  -1.976  19.277  1.00  0.00     0.018 A 
HETATM   20  C18 UNL     1      -6.951  -2.614  18.809  1.00  0.00     0.081 A 
HETATM   21  C12 UNL     1      -9.495  -1.761  17.949  1.00  0.00     0.004 A 
HETATM   22  C13 UNL     1      -8.466  -1.986  17.031  1.00  0.00     0.038 A 
HETATM   23  C14 UNL     1      -7.221  -2.403  17.452  1.00  0.00     0.086 A 
HETATM   24  C19 UNL     1      -5.760  -3.044  19.528  1.00  0.00     0.264 A 
HETATM   25  O4  UNL     1      -4.653  -3.328  18.978  1.00  0.00    -0.267 OA
BRANCH  23  26
HETATM   26  O3  UNL     1      -6.231  -2.618  16.538  1.00  0.00    -0.346 OA
BRANCH  26  27
HETATM   27  C15 UNL     1      -6.323  -2.717  15.158  1.00  0.00     0.120 C 
HETATM   28  C16 UNL     1      -5.327  -3.693  14.565  1.00  0.00     0.040 C 
HETATM   29  C17 UNL     1      -5.967  -1.350  14.557  1.00  0.00     0.040 C 
ENDBRANCH  26  27
ENDBRANCH  23  26
ENDBRANCH  14  15
ENDBRANCH  13  14
ENDBRANCH   2  13
BRANCH   1  30
HETATM   30  C5  UNL     1      -5.453  -6.339  24.484  1.00  0.00     0.044 A 
HETATM   31  C4  UNL     1      -6.426  -5.553  25.069  1.00  0.00     0.033 A 
HETATM   32  C3  UNL     1      -7.706  -6.037  25.252  1.00  0.00     0.039 A 
HETATM   33  C2  UNL     1      -8.059  -7.313  24.859  1.00  0.00     0.068 A 
HETATM   34  C28 UNL     1      -7.089  -8.109  24.271  1.00  0.00     0.039 A 
HETATM   35  C27 UNL     1      -5.812  -7.613  24.093  1.00  0.00     0.033 A 
BRANCH  33  36
HETATM   36  O1  UNL     1      -9.357  -7.758  25.062  1.00  0.00    -0.356 OA
HETATM   37  C1  UNL     1     -10.333  -7.044  25.752  1.00  0.00     0.210 C 
ENDBRANCH  33  36
ENDBRANCH   1  30
TORSDOF 7
ENDMDL
