MODEL 12
REMARK VINA RESULT: -4.178434099      7.326      8.324
REMARK  4 active torsions:
REMARK  status: ('A' for Active; 'I' for Inactive)
REMARK    1  A    between atoms: O1_1  and  C1_3 
REMARK    2  A    between atoms: C1_3  and  C2_4 
REMARK    3  A    between atoms: C5_9  and  O2_10 
REMARK    4  A    between atoms: C6_12  and  O3_13 
ROOT
HETATM    1  C2  UNL     1     -57.596 -65.560 -44.026  1.00  0.00     0.079 C 
HETATM    2  C3  UNL     1     -58.649 -65.099 -43.071  1.00  0.00     0.069 C 
HETATM    3  N1  UNL     1     -59.251 -63.886 -43.462  1.00  0.00    -0.379 N 
ATOM      4  H1  UNL     1     -60.263 -63.764 -43.420  1.00  0.00     0.164 HD
HETATM    5  C4  UNL     1     -58.414 -62.848 -43.911  1.00  0.00     0.094 C 
HETATM    6  C5  UNL     1     -57.211 -63.259 -44.686  1.00  0.00     0.185 C 
HETATM    7  C6  UNL     1     -56.542 -64.474 -44.091  1.00  0.00     0.163 C 
ENDROOT
BRANCH   1   8
HETATM    8  C1  UNL     1     -57.002 -66.888 -43.621  1.00  0.00     0.176 C 
BRANCH   8   9
HETATM    9  O1  UNL     1     -56.629 -67.647 -44.710  1.00  0.00    -0.400 OA
ATOM     10  H1  UNL     1     -57.048 -68.500 -44.714  1.00  0.00     0.209 HD
ENDBRANCH   8   9
ENDBRANCH   1   8
BRANCH   7  11
HETATM   11  O3  UNL     1     -55.441 -64.850 -44.828  1.00  0.00    -0.392 OA
ATOM     12  H3  UNL     1     -55.141 -65.726 -44.614  1.00  0.00     0.210 HD
ENDBRANCH   7  11
BRANCH   6  13
HETATM   13  O2  UNL     1     -56.270 -62.240 -44.739  1.00  0.00    -0.388 OA
ATOM     14  H2  UNL     1     -56.034 -62.033 -45.636  1.00  0.00     0.210 HD
ENDBRANCH   6  13
TORSDOF 4
ENDMDL
