MODEL 13
REMARK VINA RESULT: -4.028636830      7.267      8.525
REMARK  4 active torsions:
REMARK  status: ('A' for Active; 'I' for Inactive)
REMARK    1  A    between atoms: O1_1  and  C1_3 
REMARK    2  A    between atoms: C1_3  and  C2_4 
REMARK    3  A    between atoms: C5_9  and  O2_10 
REMARK    4  A    between atoms: C6_12  and  O3_13 
ROOT
HETATM    1  C2  UNL     1     -56.929 -65.455 -43.691  1.00  0.00     0.079 C 
HETATM    2  C3  UNL     1     -56.180 -64.967 -44.889  1.00  0.00     0.069 C 
HETATM    3  N1  UNL     1     -56.002 -63.569 -44.891  1.00  0.00    -0.379 N 
ATOM      4  H1  UNL     1     -55.100 -63.155 -45.128  1.00  0.00     0.164 HD
HETATM    5  C4  UNL     1     -57.104 -62.761 -44.556  1.00  0.00     0.094 C 
HETATM    6  C5  UNL     1     -58.025 -63.300 -43.518  1.00  0.00     0.185 C 
HETATM    7  C6  UNL     1     -58.283 -64.776 -43.699  1.00  0.00     0.163 C 
ENDROOT
BRANCH   1   8
HETATM    8  C1  UNL     1     -57.062 -66.960 -43.677  1.00  0.00     0.176 C 
BRANCH   8   9
HETATM    9  O1  UNL     1     -56.635 -67.533 -44.856  1.00  0.00    -0.400 OA
ATOM     10  H1  UNL     1     -57.229 -67.360 -45.576  1.00  0.00     0.209 HD
ENDBRANCH   8   9
ENDBRANCH   1   8
BRANCH   7  11
HETATM   11  O3  UNL     1     -59.124 -65.262 -42.722  1.00  0.00    -0.392 OA
ATOM     12  H3  UNL     1     -59.468 -66.121 -42.932  1.00  0.00     0.210 HD
ENDBRANCH   7  11
BRANCH   6  13
HETATM   13  O2  UNL     1     -59.251 -62.650 -43.541  1.00  0.00    -0.388 OA
ATOM     14  H2  UNL     1     -59.692 -62.770 -44.375  1.00  0.00     0.210 HD
ENDBRANCH   6  13
TORSDOF 4
ENDMDL
