MODEL 17
REMARK VINA RESULT: -3.821461630      1.311      1.537
REMARK  4 active torsions:
REMARK  status: ('A' for Active; 'I' for Inactive)
REMARK    1  A    between atoms: O1_1  and  C1_3 
REMARK    2  A    between atoms: C1_3  and  C2_4 
REMARK    3  A    between atoms: C5_9  and  O2_10 
REMARK    4  A    between atoms: C6_12  and  O3_13 
ROOT
HETATM    1  C2  UNL     1     -49.901 -62.776 -43.614  1.00  0.00     0.079 C 
HETATM    2  C3  UNL     1     -49.171 -62.080 -42.510  1.00  0.00     0.069 C 
HETATM    3  N1  UNL     1     -47.993 -62.751 -42.124  1.00  0.00    -0.379 N 
ATOM      4  H1  UNL     1     -47.124 -62.239 -41.968  1.00  0.00     0.164 HD
HETATM    5  C4  UNL     1     -48.050 -64.147 -41.960  1.00  0.00     0.094 C 
HETATM    6  C5  UNL     1     -48.944 -64.884 -42.895  1.00  0.00     0.185 C 
HETATM    7  C6  UNL     1     -50.251 -64.163 -43.117  1.00  0.00     0.163 C 
ENDROOT
BRANCH   1   8
HETATM    8  C1  UNL     1     -51.129 -62.015 -44.052  1.00  0.00     0.176 C 
BRANCH   8   9
HETATM    9  O1  UNL     1     -51.782 -62.634 -45.097  1.00  0.00    -0.400 OA
ATOM     10  H1  UNL     1     -51.179 -62.977 -45.746  1.00  0.00     0.209 HD
ENDBRANCH   8   9
ENDBRANCH   1   8
BRANCH   7  11
HETATM   11  O3  UNL     1     -51.060 -64.850 -43.995  1.00  0.00    -0.392 OA
ATOM     12  H3  UNL     1     -50.965 -65.791 -43.918  1.00  0.00     0.210 HD
ENDBRANCH   7  11
BRANCH   6  13
HETATM   13  O2  UNL     1     -49.237 -66.155 -42.419  1.00  0.00    -0.388 OA
ATOM     14  H2  UNL     1     -49.891 -66.125 -41.730  1.00  0.00     0.210 HD
ENDBRANCH   6  13
TORSDOF 4
ENDMDL
