MODEL 1
REMARK VINA RESULT: -6.023849237      0.000      0.000
REMARK  4 active torsions:
REMARK  status: ('A' for Active; 'I' for Inactive)
REMARK    1  A    between atoms: O1_1  and  C1_3 
REMARK    2  A    between atoms: C1_3  and  C2_4 
REMARK    3  A    between atoms: C5_9  and  O2_10 
REMARK    4  A    between atoms: C6_12  and  O3_13 
ROOT
HETATM    1  C2  UNL     1     -49.908 -63.738 -44.246  1.00  0.00     0.079 C 
HETATM    2  C3  UNL     1     -50.212 -62.646 -43.272  1.00  0.00     0.069 C 
HETATM    3  N1  UNL     1     -49.114 -62.322 -42.451  1.00  0.00    -0.379 N 
ATOM      4  H1  UNL     1     -48.862 -61.351 -42.269  1.00  0.00     0.164 HD
HETATM    5  C4  UNL     1     -48.374 -63.380 -41.890  1.00  0.00     0.094 C 
HETATM    6  C5  UNL     1     -48.223 -64.598 -42.731  1.00  0.00     0.185 C 
HETATM    7  C6  UNL     1     -49.504 -64.957 -43.444  1.00  0.00     0.163 C 
ENDROOT
BRANCH   1   8
HETATM    8  C1  UNL     1     -51.078 -64.032 -45.155  1.00  0.00     0.176 C 
BRANCH   8   9
HETATM    9  O1  UNL     1     -52.181 -64.480 -44.459  1.00  0.00    -0.400 OA
ATOM     10  H1  UNL     1     -52.958 -64.520 -45.003  1.00  0.00     0.209 HD
ENDBRANCH   8   9
ENDBRANCH   1   8
BRANCH   7  11
HETATM   11  O3  UNL     1     -49.344 -66.077 -44.230  1.00  0.00    -0.392 OA
ATOM     12  H3  UNL     1     -48.786 -66.730 -43.825  1.00  0.00     0.210 HD
ENDBRANCH   7  11
BRANCH   6  13
HETATM   13  O2  UNL     1     -47.840 -65.694 -41.971  1.00  0.00    -0.388 OA
ATOM     14  H2  UNL     1     -48.137 -66.508 -42.362  1.00  0.00     0.210 HD
ENDBRANCH   6  13
TORSDOF 4
ENDMDL
