MODEL 11
REMARK VINA RESULT: -4.203348187      7.419      8.180
REMARK  4 active torsions:
REMARK  status: ('A' for Active; 'I' for Inactive)
REMARK    1  A    between atoms: O1_1  and  C1_3 
REMARK    2  A    between atoms: C1_3  and  C2_4 
REMARK    3  A    between atoms: C5_9  and  O2_10 
REMARK    4  A    between atoms: C6_12  and  O3_13 
ROOT
HETATM    1  C2  UNL     1     -57.291 -63.354 -44.204  1.00  0.00     0.079 C 
HETATM    2  C3  UNL     1     -58.768 -63.583 -44.177  1.00  0.00     0.069 C 
HETATM    3  N1  UNL     1     -59.143 -64.634 -43.317  1.00  0.00    -0.379 N 
ATOM      4  H1  UNL     1     -59.934 -64.535 -42.680  1.00  0.00     0.164 HD
HETATM    5  C4  UNL     1     -58.396 -65.825 -43.363  1.00  0.00     0.094 C 
HETATM    6  C5  UNL     1     -56.936 -65.678 -43.615  1.00  0.00     0.185 C 
HETATM    7  C6  UNL     1     -56.644 -64.641 -44.671  1.00  0.00     0.163 C 
ENDROOT
BRANCH   1   8
HETATM    8  C1  UNL     1     -56.911 -62.188 -45.086  1.00  0.00     0.176 C 
BRANCH   8   9
HETATM    9  O1  UNL     1     -57.754 -62.056 -46.169  1.00  0.00    -0.400 OA
ATOM     10  H1  UNL     1     -58.572 -61.631 -45.939  1.00  0.00     0.209 HD
ENDBRANCH   8   9
ENDBRANCH   1   8
BRANCH   7  11
HETATM   11  O3  UNL     1     -55.289 -64.506 -44.881  1.00  0.00    -0.392 OA
ATOM     12  H3  UNL     1     -54.905 -65.273 -45.288  1.00  0.00     0.210 HD
ENDBRANCH   7  11
BRANCH   6  13
HETATM   13  O2  UNL     1     -56.370 -66.876 -44.029  1.00  0.00    -0.388 OA
ATOM     14  H2  UNL     1     -56.856 -67.622 -43.696  1.00  0.00     0.210 HD
ENDBRANCH   6  13
TORSDOF 4
ENDMDL
