MODEL 2
REMARK VINA RESULT: -6.200928626      3.434      6.704
REMARK  8 active torsions:
REMARK  status: ('A' for Active; 'I' for Inactive)
REMARK       I    between atoms: C1_2  and  N1_3 
REMARK    1  A    between atoms: C1_2  and  C11_21 
REMARK    2  A    between atoms: N1_3  and  C2_5 
REMARK    3  A    between atoms: C2_5  and  C3_6 
REMARK    4  A    between atoms: C2_5  and  C4_9 
REMARK    5  A    between atoms: C3_6  and  O2_7 
REMARK    6  A    between atoms: C4_9  and  O3_10 
REMARK    7  A    between atoms: C4_9  and  C5_12 
REMARK    8  A    between atoms: C8_15  and  N2_16 
ROOT
HETATM    1  C4  UNL     1     -18.666  15.195  24.719  1.00  0.00     0.176 C 
ENDROOT
BRANCH   1   2
HETATM    2  C2  UNL     1     -18.693  13.880  25.460  1.00  0.00     0.141 C 
BRANCH   2   3
HETATM    3  N1  UNL     1     -18.257  12.853  24.538  1.00  0.00    -0.349 N 
HETATM    4  C1  UNL     1     -17.565  11.708  24.970  1.00  0.00     0.251 C 
HETATM    5  O1  UNL     1     -17.329  11.596  26.200  1.00  0.00    -0.271 OA
ATOM      6  H1  UNL     1     -18.459  12.963  23.544  1.00  0.00     0.163 HD
BRANCH   4   7
HETATM    7  C11 UNL     1     -17.121  10.661  24.020  1.00  0.00     0.269 C 
HETATM    8 CL1  UNL     1     -18.505   9.748  23.371  1.00  0.00    -0.098 Cl
HETATM    9 CL2  UNL     1     -16.069   9.494  24.869  1.00  0.00    -0.098 Cl
ENDBRANCH   4   7
ENDBRANCH   2   3
BRANCH   2  10
HETATM   10  C3  UNL     1     -20.051  13.580  26.043  1.00  0.00     0.192 C 
BRANCH  10  11
HETATM   11  O2  UNL     1     -20.840  13.001  25.068  1.00  0.00    -0.399 OA
ATOM     12  H2  UNL     1     -21.558  12.538  25.485  1.00  0.00     0.209 HD
ENDBRANCH  10  11
ENDBRANCH   2  10
ENDBRANCH   1   2
BRANCH   1  13
HETATM   13  O3  UNL     1     -18.842  14.878  23.353  1.00  0.00    -0.389 OA
ATOM     14  H3  UNL     1     -19.639  14.364  23.303  1.00  0.00     0.210 HD
ENDBRANCH   1  13
BRANCH   1  15
HETATM   15  C5  UNL     1     -17.422  15.958  24.947  1.00  0.00    -0.028 A 
HETATM   16  C6  UNL     1     -16.326  15.845  24.118  1.00  0.00     0.012 A 
HETATM   17  C7  UNL     1     -15.159  16.560  24.333  1.00  0.00     0.037 A 
HETATM   18  C8  UNL     1     -15.059  17.417  25.395  1.00  0.00     0.102 A 
HETATM   19  C9  UNL     1     -16.131  17.550  26.237  1.00  0.00     0.037 A 
HETATM   20  C10 UNL     1     -17.307  16.825  26.014  1.00  0.00     0.012 A 
BRANCH  18  21
HETATM   21  N2  UNL     1     -13.849  18.160  25.620  1.00  0.00    -0.116 N 
HETATM   22  O4  UNL     1     -12.951  18.124  24.755  1.00  0.00    -0.532 OA
HETATM   23  O5  UNL     1     -13.699  18.887  26.764  1.00  0.00    -0.532 OA
ENDBRANCH  18  21
ENDBRANCH   1  15
TORSDOF 8
ENDMDL
