MODEL 1
REMARK VINA RESULT: -6.202370675      0.000      0.000
REMARK  8 active torsions:
REMARK  status: ('A' for Active; 'I' for Inactive)
REMARK       I    between atoms: C1_2  and  N1_3 
REMARK    1  A    between atoms: C1_2  and  C11_21 
REMARK    2  A    between atoms: N1_3  and  C2_5 
REMARK    3  A    between atoms: C2_5  and  C3_6 
REMARK    4  A    between atoms: C2_5  and  C4_9 
REMARK    5  A    between atoms: C3_6  and  O2_7 
REMARK    6  A    between atoms: C4_9  and  O3_10 
REMARK    7  A    between atoms: C4_9  and  C5_12 
REMARK    8  A    between atoms: C8_15  and  N2_16 
ROOT
HETATM    1  C4  UNL     1     -16.264  15.115  23.201  1.00  0.00     0.176 C 
ENDROOT
BRANCH   1   2
HETATM    2  C2  UNL     1     -14.965  15.101  23.972  1.00  0.00     0.141 C 
BRANCH   2   3
HETATM    3  N1  UNL     1     -15.253  15.554  25.316  1.00  0.00    -0.349 N 
HETATM    4  C1  UNL     1     -14.574  15.043  26.436  1.00  0.00     0.251 C 
HETATM    5  O1  UNL     1     -13.693  14.167  26.237  1.00  0.00    -0.271 OA
ATOM      6  H1  UNL     1     -15.971  16.266  25.456  1.00  0.00     0.163 HD
BRANCH   4   7
HETATM    7  C11 UNL     1     -14.875  15.510  27.810  1.00  0.00     0.269 C 
HETATM    8 CL1  UNL     1     -13.905  16.943  28.232  1.00  0.00    -0.098 Cl
HETATM    9 CL2  UNL     1     -14.458  14.226  28.979  1.00  0.00    -0.098 Cl
ENDBRANCH   4   7
ENDBRANCH   2   3
BRANCH   2  10
HETATM   10  C3  UNL     1     -13.899  15.936  23.309  1.00  0.00     0.192 C 
BRANCH  10  11
HETATM   11  O2  UNL     1     -14.325  17.249  23.254  1.00  0.00    -0.399 OA
ATOM     12  H2  UNL     1     -13.692  17.799  23.700  1.00  0.00     0.209 HD
ENDBRANCH  10  11
ENDBRANCH   2  10
ENDBRANCH   1   2
BRANCH   1  13
HETATM   13  O3  UNL     1     -16.996  16.222  23.689  1.00  0.00    -0.389 OA
ATOM     14  H3  UNL     1     -16.358  16.812  24.072  1.00  0.00     0.210 HD
ENDBRANCH   1  13
BRANCH   1  15
HETATM   15  C5  UNL     1     -17.024  13.856  23.333  1.00  0.00    -0.028 A 
HETATM   16  C6  UNL     1     -18.380  13.785  23.090  1.00  0.00     0.012 A 
HETATM   17  C7  UNL     1     -19.093  12.603  23.214  1.00  0.00     0.037 A 
HETATM   18  C8  UNL     1     -18.459  11.450  23.589  1.00  0.00     0.102 A 
HETATM   19  C9  UNL     1     -17.113  11.489  23.837  1.00  0.00     0.037 A 
HETATM   20  C10 UNL     1     -16.398  12.686  23.710  1.00  0.00     0.012 A 
BRANCH  18  21
HETATM   21  N2  UNL     1     -19.196  10.222  23.718  1.00  0.00    -0.116 N 
HETATM   22  O4  UNL     1     -19.783   9.984  24.793  1.00  0.00    -0.532 OA
HETATM   23  O5  UNL     1     -19.244   9.344  22.677  1.00  0.00    -0.532 OA
ENDBRANCH  18  21
ENDBRANCH   1  15
TORSDOF 8
ENDMDL
