MODEL 8
REMARK VINA RESULT: -6.014383464      3.587      6.825
REMARK  8 active torsions:
REMARK  status: ('A' for Active; 'I' for Inactive)
REMARK       I    between atoms: C1_2  and  N1_3 
REMARK    1  A    between atoms: C1_2  and  C11_21 
REMARK    2  A    between atoms: N1_3  and  C2_5 
REMARK    3  A    between atoms: C2_5  and  C3_6 
REMARK    4  A    between atoms: C2_5  and  C4_9 
REMARK    5  A    between atoms: C3_6  and  O2_7 
REMARK    6  A    between atoms: C4_9  and  O3_10 
REMARK    7  A    between atoms: C4_9  and  C5_12 
REMARK    8  A    between atoms: C8_15  and  N2_16 
ROOT
HETATM    1  C4  UNL     1     -17.982  15.147  24.909  1.00  0.00     0.176 C 
ENDROOT
BRANCH   1   2
HETATM    2  C2  UNL     1     -18.365  13.827  25.533  1.00  0.00     0.141 C 
BRANCH   2   3
HETATM    3  N1  UNL     1     -18.014  12.784  24.592  1.00  0.00    -0.349 N 
HETATM    4  C1  UNL     1     -17.387  11.593  25.000  1.00  0.00     0.251 C 
HETATM    5  O1  UNL     1     -17.135  11.454  26.224  1.00  0.00    -0.271 OA
ATOM      6  H1  UNL     1     -18.227  12.917  23.603  1.00  0.00     0.163 HD
BRANCH   4   7
HETATM    7  C11 UNL     1     -17.030  10.530  24.031  1.00  0.00     0.269 C 
HETATM    8 CL1  UNL     1     -18.480   9.693  23.426  1.00  0.00    -0.098 Cl
HETATM    9 CL2  UNL     1     -16.011   9.307  24.841  1.00  0.00    -0.098 Cl
ENDBRANCH   4   7
ENDBRANCH   2   3
BRANCH   2  10
HETATM   10  C3  UNL     1     -19.823  13.778  25.916  1.00  0.00     0.192 C 
BRANCH  10  11
HETATM   11  O2  UNL     1     -20.512  13.047  24.968  1.00  0.00    -0.399 OA
ATOM     12  H2  UNL     1     -21.256  13.555  24.666  1.00  0.00     0.209 HD
ENDBRANCH  10  11
ENDBRANCH   2  10
ENDBRANCH   1   2
BRANCH   1  13
HETATM   13  O3  UNL     1     -17.661  14.865  23.561  1.00  0.00    -0.389 OA
ATOM     14  H3  UNL     1     -18.490  14.773  23.107  1.00  0.00     0.210 HD
ENDBRANCH   1  13
BRANCH   1  15
HETATM   15  C5  UNL     1     -16.864  15.812  25.609  1.00  0.00    -0.028 A 
HETATM   16  C6  UNL     1     -15.984  15.120  26.415  1.00  0.00     0.012 A 
HETATM   17  C7  UNL     1     -14.936  15.743  27.072  1.00  0.00     0.037 A 
HETATM   18  C8  UNL     1     -14.740  17.091  26.938  1.00  0.00     0.102 A 
HETATM   19  C9  UNL     1     -15.598  17.805  26.144  1.00  0.00     0.037 A 
HETATM   20  C10 UNL     1     -16.655  17.169  25.483  1.00  0.00     0.012 A 
BRANCH  18  21
HETATM   21  N2  UNL     1     -13.653  17.740  27.619  1.00  0.00    -0.116 N 
HETATM   22  O4  UNL     1     -13.327  18.892  27.270  1.00  0.00    -0.532 OA
HETATM   23  O5  UNL     1     -12.999  17.095  28.626  1.00  0.00    -0.532 OA
ENDBRANCH  18  21
ENDBRANCH   1  15
TORSDOF 8
ENDMDL
