MODEL 5
REMARK VINA RESULT: -6.040174042      1.516      1.700
REMARK  8 active torsions:
REMARK  status: ('A' for Active; 'I' for Inactive)
REMARK       I    between atoms: C1_2  and  N1_3 
REMARK    1  A    between atoms: C1_2  and  C11_21 
REMARK    2  A    between atoms: N1_3  and  C2_5 
REMARK    3  A    between atoms: C2_5  and  C3_6 
REMARK    4  A    between atoms: C2_5  and  C4_9 
REMARK    5  A    between atoms: C3_6  and  O2_7 
REMARK    6  A    between atoms: C4_9  and  O3_10 
REMARK    7  A    between atoms: C4_9  and  C5_12 
REMARK    8  A    between atoms: C8_15  and  N2_16 
ROOT
HETATM    1  C4  UNL     1     -17.110  16.249  24.580  1.00  0.00     0.176 C 
ENDROOT
BRANCH   1   2
HETATM    2  C2  UNL     1     -15.620  16.220  24.820  1.00  0.00     0.141 C 
BRANCH   2   3
HETATM    3  N1  UNL     1     -15.413  16.031  26.240  1.00  0.00    -0.349 N 
HETATM    4  C1  UNL     1     -14.862  14.847  26.763  1.00  0.00     0.251 C 
HETATM    5  O1  UNL     1     -14.549  13.940  25.950  1.00  0.00    -0.271 OA
ATOM      6  H1  UNL     1     -15.674  16.780  26.882  1.00  0.00     0.163 HD
BRANCH   4   7
HETATM    7  C11 UNL     1     -14.654  14.661  28.218  1.00  0.00     0.269 C 
HETATM    8 CL1  UNL     1     -14.967  16.168  29.113  1.00  0.00    -0.098 Cl
HETATM    9 CL2  UNL     1     -12.952  14.210  28.521  1.00  0.00    -0.098 Cl
ENDBRANCH   4   7
ENDBRANCH   2   3
BRANCH   2  10
HETATM   10  C3  UNL     1     -14.934  17.460  24.307  1.00  0.00     0.192 C 
BRANCH  10  11
HETATM   11  O2  UNL     1     -15.886  18.321  23.795  1.00  0.00    -0.399 OA
ATOM     12  H2  UNL     1     -15.750  18.411  22.859  1.00  0.00     0.209 HD
ENDBRANCH  10  11
ENDBRANCH   2  10
ENDBRANCH   1   2
BRANCH   1  13
HETATM   13  O3  UNL     1     -17.666  16.974  25.659  1.00  0.00    -0.389 OA
ATOM     14  H3  UNL     1     -17.545  16.432  26.430  1.00  0.00     0.210 HD
ENDBRANCH   1  13
BRANCH   1  15
HETATM   15  C5  UNL     1     -17.701  14.900  24.466  1.00  0.00    -0.028 A 
HETATM   16  C6  UNL     1     -17.311  14.005  23.491  1.00  0.00     0.012 A 
HETATM   17  C7  UNL     1     -17.866  12.740  23.384  1.00  0.00     0.037 A 
HETATM   18  C8  UNL     1     -18.836  12.334  24.260  1.00  0.00     0.102 A 
HETATM   19  C9  UNL     1     -19.244  13.201  25.238  1.00  0.00     0.037 A 
HETATM   20  C10 UNL     1     -18.680  14.478  25.342  1.00  0.00     0.012 A 
BRANCH  18  21
HETATM   21  N2  UNL     1     -19.413  11.022  24.150  1.00  0.00    -0.116 N 
HETATM   22  O4  UNL     1     -19.775  10.435  25.190  1.00  0.00    -0.532 OA
HETATM   23  O5  UNL     1     -19.557  10.442  22.925  1.00  0.00    -0.532 OA
ENDBRANCH  18  21
ENDBRANCH   1  15
TORSDOF 8
ENDMDL
