MODEL 6
REMARK VINA RESULT: -6.036420510      3.442      6.407
REMARK  8 active torsions:
REMARK  status: ('A' for Active; 'I' for Inactive)
REMARK       I    between atoms: C1_2  and  N1_3 
REMARK    1  A    between atoms: C1_2  and  C11_21 
REMARK    2  A    between atoms: N1_3  and  C2_5 
REMARK    3  A    between atoms: C2_5  and  C3_6 
REMARK    4  A    between atoms: C2_5  and  C4_9 
REMARK    5  A    between atoms: C3_6  and  O2_7 
REMARK    6  A    between atoms: C4_9  and  O3_10 
REMARK    7  A    between atoms: C4_9  and  C5_12 
REMARK    8  A    between atoms: C8_15  and  N2_16 
ROOT
HETATM    1  C4  UNL     1     -18.494  14.627  24.117  1.00  0.00     0.176 C 
ENDROOT
BRANCH   1   2
HETATM    2  C2  UNL     1     -18.576  13.574  25.196  1.00  0.00     0.141 C 
BRANCH   2   3
HETATM    3  N1  UNL     1     -18.329  12.292  24.572  1.00  0.00    -0.349 N 
HETATM    4  C1  UNL     1     -17.632  11.264  25.230  1.00  0.00     0.251 C 
HETATM    5  O1  UNL     1     -17.220  11.491  26.397  1.00  0.00    -0.271 OA
ATOM      6  H1  UNL     1     -18.673  12.128  23.624  1.00  0.00     0.163 HD
BRANCH   4   7
HETATM    7  C11 UNL     1     -17.383   9.954  24.584  1.00  0.00     0.269 C 
HETATM    8 CL1  UNL     1     -15.761   9.892  23.851  1.00  0.00    -0.098 Cl
HETATM    9 CL2  UNL     1     -18.566   9.706  23.269  1.00  0.00    -0.098 Cl
ENDBRANCH   4   7
ENDBRANCH   2   3
BRANCH   2  10
HETATM   10  C3  UNL     1     -19.895  13.606  25.926  1.00  0.00     0.192 C 
BRANCH  10  11
HETATM   11  O2  UNL     1     -20.873  13.073  25.109  1.00  0.00    -0.399 OA
ATOM     12  H2  UNL     1     -21.302  12.358  25.565  1.00  0.00     0.209 HD
ENDBRANCH  10  11
ENDBRANCH   2  10
ENDBRANCH   1   2
BRANCH   1  13
HETATM   13  O3  UNL     1     -18.789  13.965  22.902  1.00  0.00    -0.389 OA
ATOM     14  H3  UNL     1     -18.343  14.454  22.221  1.00  0.00     0.210 HD
ENDBRANCH   1  13
BRANCH   1  15
HETATM   15  C5  UNL     1     -17.179  15.299  24.067  1.00  0.00    -0.028 A 
HETATM   16  C6  UNL     1     -16.095  14.749  23.417  1.00  0.00     0.012 A 
HETATM   17  C7  UNL     1     -14.862  15.380  23.371  1.00  0.00     0.037 A 
HETATM   18  C8  UNL     1     -14.682  16.591  23.983  1.00  0.00     0.102 A 
HETATM   19  C9  UNL     1     -15.741  17.161  24.637  1.00  0.00     0.037 A 
HETATM   20  C10 UNL     1     -16.984  16.519  24.680  1.00  0.00     0.012 A 
BRANCH  18  21
HETATM   21  N2  UNL     1     -13.404  17.247  23.937  1.00  0.00    -0.116 N 
HETATM   22  O4  UNL     1     -13.067  17.974  24.892  1.00  0.00    -0.532 OA
HETATM   23  O5  UNL     1     -12.585  17.068  22.862  1.00  0.00    -0.532 OA
ENDBRANCH  18  21
ENDBRANCH   1  15
TORSDOF 8
ENDMDL
