MODEL 3
REMARK VINA RESULT: -8.450118984      6.035      8.952
REMARK  5 active torsions:
REMARK  status: ('A' for Active; 'I' for Inactive)
REMARK    1  A    between atoms: C2_2  and  N1_3 
REMARK    2  A    between atoms: C2_2  and  C9_13 
REMARK    3  A    between atoms: N1_3  and  C3_5 
REMARK       I    between atoms: C9_13  and  N2_15 
REMARK    4  A    between atoms: N2_15  and  C10_17 
REMARK    5  A    between atoms: C14_22  and  C15_23 
ROOT
HETATM    1  C10 UNL     1      29.876   8.253  -4.111  1.00  0.00     0.037 A 
HETATM    2  C11 UNL     1      30.118   7.025  -3.479  1.00  0.00     0.032 A 
HETATM    3  C12 UNL     1      31.111   6.160  -3.872  1.00  0.00     0.042 A 
HETATM    4  C13 UNL     1      31.912   6.520  -4.949  1.00  0.00     0.104 A 
HETATM    5  O2  UNL     1      32.910   5.938  -5.550  1.00  0.00    -0.291 OA
HETATM    6  C14 UNL     1      33.382   6.645  -6.540  1.00  0.00     0.159 A 
HETATM    7  N4  UNL     1      32.627   7.774  -6.578  1.00  0.00    -0.334 N 
ATOM      8  H4  UNL     1      32.738   8.542  -7.241  1.00  0.00     0.168 HD
HETATM    9  C20 UNL     1      31.709   7.714  -5.598  1.00  0.00     0.070 A 
HETATM   10  C21 UNL     1      30.691   8.551  -5.158  1.00  0.00     0.062 A 
ENDROOT
BRANCH   1  11
HETATM   11  N2  UNL     1      28.817   9.024  -3.601  1.00  0.00    -0.325 N 
HETATM   12  C9  UNL     1      27.492   8.935  -4.069  1.00  0.00     0.244 C 
HETATM   13  O1  UNL     1      27.154   8.164  -4.975  1.00  0.00    -0.271 OA
ATOM     14  H2  UNL     1      29.020   9.685  -2.851  1.00  0.00     0.169 HD
BRANCH  12  15
HETATM   15  C2  UNL     1      26.424   9.790  -3.469  1.00  0.00     0.170 C 
HETATM   16  C1  UNL     1      26.901  11.199  -3.398  1.00  0.00     0.042 C 
BRANCH  15  17
HETATM   17  N1  UNL     1      25.907   9.247  -2.250  1.00  0.00    -0.376 N 
ATOM     18  H1  UNL     1      26.348   9.539  -1.378  1.00  0.00     0.160 HD
BRANCH  17  19
HETATM   19  C3  UNL     1      24.830   8.336  -2.166  1.00  0.00     0.052 A 
HETATM   20  C4  UNL     1      23.551   8.800  -2.321  1.00  0.00     0.031 A 
HETATM   21  C5  UNL     1      22.448   7.954  -2.250  1.00  0.00     0.004 A 
HETATM   22  C6  UNL     1      22.640   6.613  -2.019  1.00  0.00     0.026 A 
HETATM   23  C7  UNL     1      23.935   6.142  -1.862  1.00  0.00     0.058 A 
HETATM   24 CL1  UNL     1      24.149   4.442  -1.570  1.00  0.00    -0.082 Cl
HETATM   25  C8  UNL     1      25.018   6.992  -1.935  1.00  0.00     0.082 A 
HETATM   26 CL2  UNL     1      26.625   6.306  -1.724  1.00  0.00    -0.080 Cl
ENDBRANCH  17  19
ENDBRANCH  15  17
ENDBRANCH  12  15
ENDBRANCH   1  11
BRANCH   6  27
HETATM   27  C15 UNL     1      34.488   6.313  -7.430  1.00  0.00     0.018 A 
HETATM   28  C16 UNL     1      34.578   5.078  -8.019  1.00  0.00     0.032 A 
HETATM   29  C17 UNL     1      35.641   4.767  -8.870  1.00  0.00     0.088 A 
HETATM   30  N3  UNL     1      36.566   5.719  -9.089  1.00  0.00    -0.375 N 
HETATM   31  C18 UNL     1      36.525   6.940  -8.539  1.00  0.00     0.088 A 
ATOM     32  H3  UNL     1      37.345   5.499  -9.709  1.00  0.00     0.164 HD
HETATM   33  C19 UNL     1      35.458   7.240  -7.689  1.00  0.00     0.032 A 
ENDBRANCH   6  27
TORSDOF 5
ENDMDL
