MODEL 2
REMARK VINA RESULT: -8.559517473      6.411      9.341
REMARK  5 active torsions:
REMARK  status: ('A' for Active; 'I' for Inactive)
REMARK    1  A    between atoms: C2_2  and  N1_3 
REMARK    2  A    between atoms: C2_2  and  C9_13 
REMARK    3  A    between atoms: N1_3  and  C3_5 
REMARK       I    between atoms: C9_13  and  N2_15 
REMARK    4  A    between atoms: N2_15  and  C10_17 
REMARK    5  A    between atoms: C14_22  and  C15_23 
ROOT
HETATM    1  C10 UNL     1      30.265   8.300  -4.671  1.00  0.00     0.037 A 
HETATM    2  C11 UNL     1      30.123   6.922  -4.447  1.00  0.00     0.032 A 
HETATM    3  C12 UNL     1      30.985   5.985  -4.963  1.00  0.00     0.042 A 
HETATM    4  C13 UNL     1      32.047   6.424  -5.744  1.00  0.00     0.104 A 
HETATM    5  O2  UNL     1      33.014   5.806  -6.362  1.00  0.00    -0.291 OA
HETATM    6  C14 UNL     1      33.811   6.623  -6.993  1.00  0.00     0.159 A 
HETATM    7  N4  UNL     1      33.318   7.869  -6.762  1.00  0.00    -0.334 N 
ATOM      8  H4  UNL     1      33.713   8.740  -7.117  1.00  0.00     0.168 HD
HETATM    9  C20 UNL     1      32.223   7.764  -5.989  1.00  0.00     0.070 A 
HETATM   10  C21 UNL     1      31.321   8.669  -5.443  1.00  0.00     0.062 A 
ENDROOT
BRANCH   1  11
HETATM   11  N2  UNL     1      29.296   9.134  -4.086  1.00  0.00    -0.325 N 
HETATM   12  C9  UNL     1      28.000   9.307  -4.606  1.00  0.00     0.244 C 
HETATM   13  O1  UNL     1      27.609   8.734  -5.630  1.00  0.00    -0.271 OA
ATOM     14  H2  UNL     1      29.547   9.641  -3.237  1.00  0.00     0.169 HD
BRANCH  12  15
HETATM   15  C2  UNL     1      27.029  10.211  -3.919  1.00  0.00     0.170 C 
HETATM   16  C1  UNL     1      27.308  11.621  -4.307  1.00  0.00     0.042 C 
BRANCH  15  17
HETATM   17  N1  UNL     1      26.944   9.959  -2.514  1.00  0.00    -0.376 N 
ATOM     18  H1  UNL     1      27.206  10.715  -1.881  1.00  0.00     0.160 HD
BRANCH  17  19
HETATM   19  C3  UNL     1      26.524   8.739  -1.937  1.00  0.00     0.052 A 
HETATM   20  C4  UNL     1      27.431   7.981  -1.246  1.00  0.00     0.031 A 
HETATM   21  C5  UNL     1      27.080   6.771  -0.655  1.00  0.00     0.004 A 
HETATM   22  C6  UNL     1      25.787   6.318  -0.763  1.00  0.00     0.026 A 
HETATM   23  C7  UNL     1      24.867   7.084  -1.462  1.00  0.00     0.058 A 
HETATM   24 CL1  UNL     1      23.240   6.488  -1.583  1.00  0.00    -0.082 Cl
HETATM   25  C8  UNL     1      25.230   8.282  -2.043  1.00  0.00     0.082 A 
HETATM   26 CL2  UNL     1      23.996   9.188  -2.911  1.00  0.00    -0.080 Cl
ENDBRANCH  17  19
ENDBRANCH  15  17
ENDBRANCH  12  15
ENDBRANCH   1  11
BRANCH   6  27
HETATM   27  C15 UNL     1      34.990   6.293  -7.784  1.00  0.00     0.018 A 
HETATM   28  C16 UNL     1      36.031   7.177  -7.908  1.00  0.00     0.032 A 
HETATM   29  C17 UNL     1      37.157   6.855  -8.669  1.00  0.00     0.088 A 
HETATM   30  N3  UNL     1      37.181   5.651  -9.272  1.00  0.00    -0.375 N 
HETATM   31  C18 UNL     1      36.192   4.753  -9.182  1.00  0.00     0.088 A 
ATOM     32  H3  UNL     1      38.000   5.410  -9.829  1.00  0.00     0.164 HD
HETATM   33  C19 UNL     1      35.071   5.086  -8.419  1.00  0.00     0.032 A 
ENDBRANCH   6  27
TORSDOF 5
ENDMDL
