MODEL 1
REMARK VINA RESULT: -8.833103179      0.000      0.000
REMARK  5 active torsions:
REMARK  status: ('A' for Active; 'I' for Inactive)
REMARK    1  A    between atoms: C2_2  and  N1_3 
REMARK    2  A    between atoms: C2_2  and  C9_13 
REMARK    3  A    between atoms: N1_3  and  C3_5 
REMARK       I    between atoms: C9_13  and  N2_15 
REMARK    4  A    between atoms: N2_15  and  C10_17 
REMARK    5  A    between atoms: C14_22  and  C15_23 
ROOT
HETATM    1  C10 UNL     1      24.530   5.318  -1.866  1.00  0.00     0.037 A 
HETATM    2  C11 UNL     1      25.356   4.750  -2.848  1.00  0.00     0.032 A 
HETATM    3  C12 UNL     1      26.068   3.591  -2.652  1.00  0.00     0.042 A 
HETATM    4  C13 UNL     1      25.965   2.953  -1.422  1.00  0.00     0.104 A 
HETATM    5  O2  UNL     1      26.496   1.868  -0.935  1.00  0.00    -0.291 OA
HETATM    6  C14 UNL     1      26.118   1.630   0.291  1.00  0.00     0.159 A 
HETATM    7  N4  UNL     1      25.274   2.644   0.619  1.00  0.00    -0.334 N 
ATOM      8  H4  UNL     1      24.800   2.756   1.515  1.00  0.00     0.168 HD
HETATM    9  C20 UNL     1      25.167   3.474  -0.433  1.00  0.00     0.070 A 
HETATM   10  C21 UNL     1      24.469   4.649  -0.684  1.00  0.00     0.062 A 
ENDROOT
BRANCH   1  11
HETATM   11  N2  UNL     1      23.874   6.512  -2.211  1.00  0.00    -0.325 N 
HETATM   12  C9  UNL     1      24.312   7.787  -1.806  1.00  0.00     0.244 C 
HETATM   13  O1  UNL     1      25.318   7.956  -1.106  1.00  0.00    -0.271 OA
ATOM     14  H2  UNL     1      23.035   6.452  -2.787  1.00  0.00     0.169 HD
BRANCH  12  15
HETATM   15  C2  UNL     1      23.558   9.008  -2.220  1.00  0.00     0.170 C 
HETATM   16  C1  UNL     1      22.153   8.636  -2.539  1.00  0.00     0.042 C 
BRANCH  15  17
HETATM   17  N1  UNL     1      24.244   9.763  -3.223  1.00  0.00    -0.376 N 
ATOM     18  H1  UNL     1      24.125  10.776  -3.217  1.00  0.00     0.160 HD
BRANCH  17  19
HETATM   19  C3  UNL     1      25.074   9.208  -4.224  1.00  0.00     0.052 A 
HETATM   20  C4  UNL     1      24.501   8.506  -5.251  1.00  0.00     0.031 A 
HETATM   21  C5  UNL     1      25.263   7.935  -6.266  1.00  0.00     0.004 A 
HETATM   22  C6  UNL     1      26.630   8.077  -6.244  1.00  0.00     0.026 A 
HETATM   23  C7  UNL     1      27.211   8.787  -5.205  1.00  0.00     0.058 A 
HETATM   24 CL1  UNL     1      28.941   8.950  -5.202  1.00  0.00    -0.082 Cl
HETATM   25  C8  UNL     1      26.443   9.347  -4.205  1.00  0.00     0.082 A 
HETATM   26 CL2  UNL     1      27.266  10.232  -2.926  1.00  0.00    -0.080 Cl
ENDBRANCH  17  19
ENDBRANCH  15  17
ENDBRANCH  12  15
ENDBRANCH   1  11
BRANCH   6  27
HETATM   27  C15 UNL     1      26.506   0.516   1.148  1.00  0.00     0.018 A 
HETATM   28  C16 UNL     1      26.061   0.430   2.443  1.00  0.00     0.032 A 
HETATM   29  C17 UNL     1      26.438  -0.640   3.259  1.00  0.00     0.088 A 
HETATM   30  N3  UNL     1      27.248  -1.575   2.730  1.00  0.00    -0.375 N 
HETATM   31  C18 UNL     1      27.709  -1.537   1.473  1.00  0.00     0.088 A 
ATOM     32  H3  UNL     1      27.526  -2.358   3.320  1.00  0.00     0.164 HD
HETATM   33  C19 UNL     1      27.327  -0.464   0.666  1.00  0.00     0.032 A 
ENDBRANCH   6  27
TORSDOF 5
ENDMDL
