MODEL 1
REMARK VINA RESULT: -8.823877235      0.000      0.000
REMARK  10 active torsions:
REMARK  status: ('A' for Active; 'I' for Inactive)
REMARK    1  A    between atoms: N5_13  and  C6_14 
REMARK    2  A    between atoms: C7_16  and  C8_17 
REMARK    3  A    between atoms: C8_17  and  O2_18 
REMARK    4  A    between atoms: O2_18  and  P1_19 
REMARK    5  A    between atoms: P1_19  and  O5_22 
REMARK    6  A    between atoms: O5_22  and  P2_23 
REMARK    7  A    between atoms: P2_23  and  O8_26 
REMARK    8  A    between atoms: O8_26  and  P3_27 
REMARK    9  A    between atoms: C9_31  and  O12_32 
REMARK   10  A    between atoms: C10_34  and  O13_35 
ROOT
HETATM    1  C6  UNL     1      28.316 -20.166 -41.929  1.00  0.00     0.159 C 
HETATM    2  O1  UNL     1      27.392 -19.327 -42.574  1.00  0.00    -0.326 OA
HETATM    3  C7  UNL     1      28.159 -18.656 -43.435  1.00  0.00     0.186 C 
HETATM    4  C9  UNL     1      29.598 -19.184 -43.484  1.00  0.00     0.186 C 
HETATM    5  C10 UNL     1      29.222 -20.620 -43.017  1.00  0.00     0.224 C 
ENDROOT
BRANCH   3   6
HETATM    6  C8  UNL     1      27.819 -18.325 -44.831  1.00  0.00     0.216 C 
BRANCH   6   7
HETATM    7  O2  UNL     1      26.956 -19.324 -45.347  1.00  0.00    -0.287 OA
BRANCH   7   8
HETATM    8  P1  UNL     1      25.419 -18.500 -45.288  1.00  0.00     0.417 P 
HETATM    9  O3  UNL     1      24.696 -18.737 -46.514  1.00  0.00    -0.624 OA
HETATM   10  O4  UNL     1      24.656 -19.362 -43.934  1.00  0.00    -0.624 OA
BRANCH   8  11
HETATM   11  O5  UNL     1      25.569 -16.922 -44.759  1.00  0.00    -0.180 OA
BRANCH  11  12
HETATM   12  P2  UNL     1      24.012 -16.161 -44.893  1.00  0.00     0.428 P 
HETATM   13  O6  UNL     1      24.076 -14.939 -44.026  1.00  0.00    -0.624 OA
HETATM   14  O7  UNL     1      22.761 -17.174 -44.478  1.00  0.00    -0.624 OA
BRANCH  12  15
HETATM   15  O8  UNL     1      23.872 -15.656 -46.523  1.00  0.00    -0.173 OA
BRANCH  15  16
HETATM   16  P3  UNL     1      22.256 -15.408 -46.894  1.00  0.00     0.431 P 
HETATM   17  O9  UNL     1      21.521 -16.671 -47.179  1.00  0.00    -0.616 OA
HETATM   18  O10 UNL     1      21.539 -14.645 -45.554  1.00  0.00    -0.616 OA
HETATM   19  O11 UNL     1      22.203 -14.385 -48.248  1.00  0.00    -0.616 OA
ENDBRANCH  15  16
ENDBRANCH  12  15
ENDBRANCH  11  12
ENDBRANCH   8  11
ENDBRANCH   7   8
ENDBRANCH   6   7
ENDBRANCH   3   6
BRANCH   4  20
HETATM   20  O12 UNL     1      30.328 -18.542 -42.536  1.00  0.00    -0.390 OA
ATOM     21  H12 UNL     1      30.928 -17.947 -42.968  1.00  0.00     0.210 HD
ENDBRANCH   4  20
BRANCH   1  22
HETATM   22  N5  UNL     1      27.854 -21.037 -40.963  1.00  0.00    -0.273 N 
HETATM   23  C3  UNL     1      26.588 -21.452 -40.799  1.00  0.00     0.146 A 
HETATM   24  N3  UNL     1      25.469 -21.023 -41.364  1.00  0.00    -0.336 N 
HETATM   25  C4  UNL     1      26.526 -22.463 -39.898  1.00  0.00     0.120 A 
HETATM   26  C2  UNL     1      24.299 -21.597 -41.037  1.00  0.00     0.183 A 
ATOM     27  H3  UNL     1      25.496 -20.263 -42.042  1.00  0.00     0.168 HD
HETATM   28  N2  UNL     1      24.218 -22.609 -40.154  1.00  0.00    -0.339 N 
HETATM   29  C1  UNL     1      25.332 -23.053 -39.573  1.00  0.00     0.148 A 
ATOM     30  H2  UNL     1      23.316 -23.031 -39.932  1.00  0.00     0.167 HD
HETATM   31  N1  UNL     1      25.259 -24.206 -38.759  1.00  0.00    -0.080 NA
HETATM   32  N4  UNL     1      27.792 -22.664 -39.482  1.00  0.00    -0.346 N 
HETATM   33  C5  UNL     1      28.591 -21.795 -40.128  1.00  0.00     0.192 A 
ATOM     34  H4  UNL     1      28.093 -23.357 -38.796  1.00  0.00     0.167 HD
ENDBRANCH   1  22
BRANCH   5  35
HETATM   35  O13 UNL     1      30.455 -21.123 -42.624  1.00  0.00    -0.385 OA
ATOM     36  H13 UNL     1      30.678 -21.991 -42.940  1.00  0.00     0.210 HD
ENDBRANCH   5  35
TORSDOF 10
ENDMDL
