MODEL 3
REMARK VINA RESULT: -8.490754706      1.962      3.228
REMARK  10 active torsions:
REMARK  status: ('A' for Active; 'I' for Inactive)
REMARK    1  A    between atoms: N5_13  and  C6_14 
REMARK    2  A    between atoms: C7_16  and  C8_17 
REMARK    3  A    between atoms: C8_17  and  O2_18 
REMARK    4  A    between atoms: O2_18  and  P1_19 
REMARK    5  A    between atoms: P1_19  and  O5_22 
REMARK    6  A    between atoms: O5_22  and  P2_23 
REMARK    7  A    between atoms: P2_23  and  O8_26 
REMARK    8  A    between atoms: O8_26  and  P3_27 
REMARK    9  A    between atoms: C9_31  and  O12_32 
REMARK   10  A    between atoms: C10_34  and  O13_35 
ROOT
HETATM    1  C6  UNL     1      28.340 -19.783 -41.033  1.00  0.00     0.159 C 
HETATM    2  O1  UNL     1      28.269 -19.482 -42.403  1.00  0.00    -0.326 OA
HETATM    3  C7  UNL     1      28.748 -18.239 -42.454  1.00  0.00     0.186 C 
HETATM    4  C9  UNL     1      29.312 -17.764 -41.108  1.00  0.00     0.186 C 
HETATM    5  C10 UNL     1      29.634 -19.197 -40.594  1.00  0.00     0.224 C 
ENDROOT
BRANCH   3   6
HETATM    6  C8  UNL     1      29.668 -17.698 -43.472  1.00  0.00     0.216 C 
BRANCH   6   7
HETATM    7  O2  UNL     1      29.001 -17.655 -44.722  1.00  0.00    -0.287 OA
BRANCH   7   8
HETATM    8  P1  UNL     1      28.705 -15.942 -44.883  1.00  0.00     0.417 P 
HETATM    9  O3  UNL     1      28.554 -15.354 -43.575  1.00  0.00    -0.624 OA
HETATM   10  O4  UNL     1      30.237 -15.432 -45.627  1.00  0.00    -0.624 OA
BRANCH   8  11
HETATM   11  O5  UNL     1      27.540 -15.609 -46.033  1.00  0.00    -0.180 OA
BRANCH  11  12
HETATM   12  P2  UNL     1      25.997 -16.077 -45.384  1.00  0.00     0.428 P 
HETATM   13  O6  UNL     1      25.127 -16.379 -46.567  1.00  0.00    -0.624 OA
HETATM   14  O7  UNL     1      25.340 -14.921 -44.386  1.00  0.00    -0.624 OA
BRANCH  12  15
HETATM   15  O8  UNL     1      26.267 -17.536 -44.530  1.00  0.00    -0.173 OA
BRANCH  15  16
HETATM   16  P3  UNL     1      24.941 -18.545 -44.713  1.00  0.00     0.431 P 
HETATM   17  O9  UNL     1      24.834 -19.127 -46.079  1.00  0.00    -0.616 OA
HETATM   18  O10 UNL     1      25.107 -19.809 -43.588  1.00  0.00    -0.616 OA
HETATM   19  O11 UNL     1      23.558 -17.625 -44.362  1.00  0.00    -0.616 OA
ENDBRANCH  15  16
ENDBRANCH  12  15
ENDBRANCH  11  12
ENDBRANCH   8  11
ENDBRANCH   7   8
ENDBRANCH   6   7
ENDBRANCH   3   6
BRANCH   4  20
HETATM   20  O12 UNL     1      28.304 -17.207 -40.389  1.00  0.00    -0.390 OA
ATOM     21  H12 UNL     1      27.477 -17.513 -40.739  1.00  0.00     0.210 HD
ENDBRANCH   4  20
BRANCH   1  22
HETATM   22  N5  UNL     1      27.933 -21.031 -40.609  1.00  0.00    -0.273 N 
HETATM   23  C3  UNL     1      26.670 -21.482 -40.543  1.00  0.00     0.146 A 
HETATM   24  N3  UNL     1      25.524 -20.832 -40.678  1.00  0.00    -0.336 N 
HETATM   25  C4  UNL     1      26.646 -22.814 -40.291  1.00  0.00     0.120 A 
HETATM   26  C2  UNL     1      24.364 -21.501 -40.567  1.00  0.00     0.183 A 
ATOM     27  H3  UNL     1      25.521 -19.829 -40.866  1.00  0.00     0.168 HD
HETATM   28  N2  UNL     1      24.320 -22.825 -40.329  1.00  0.00    -0.339 N 
HETATM   29  C1  UNL     1      25.462 -23.496 -40.188  1.00  0.00     0.148 A 
ATOM     30  H2  UNL     1      23.424 -23.308 -40.257  1.00  0.00     0.167 HD
HETATM   31  N1  UNL     1      25.411 -24.904 -40.082  1.00  0.00    -0.080 NA
HETATM   32  N4  UNL     1      27.935 -23.192 -40.182  1.00  0.00    -0.346 N 
HETATM   33  C5  UNL     1      28.709 -22.106 -40.371  1.00  0.00     0.192 A 
ATOM     34  H4  UNL     1      28.267 -24.136 -39.989  1.00  0.00     0.167 HD
ENDBRANCH   1  22
BRANCH   5  35
HETATM   35  O13 UNL     1      29.785 -18.982 -39.231  1.00  0.00    -0.385 OA
ATOM     36  H13 UNL     1      30.670 -19.036 -38.890  1.00  0.00     0.210 HD
ENDBRANCH   5  35
TORSDOF 10
ENDMDL
