MODEL 10
REMARK VINA RESULT: -4.599608946      1.822      2.857
REMARK  0 active torsions:
REMARK  status: ('A' for Active; 'I' for Inactive)
ROOT
HETATM    1  N1  UNL     1     -18.247  14.687  -3.387  1.00  0.00    -0.087 NA
HETATM    2  C1  UNL     1     -17.045  15.468  -3.207  1.00  0.00     0.101 A 
HETATM    3  N2  UNL     1     -16.553  16.162  -4.173  1.00  0.00    -0.300 N 
ATOM      4  H2  UNL     1     -17.036  16.146  -5.071  1.00  0.00     0.171 HD
HETATM    5  C2  UNL     1     -15.383  16.945  -4.059  1.00  0.00     0.324 A 
HETATM    6  O1  UNL     1     -14.924  17.610  -5.007  1.00  0.00    -0.247 OA
HETATM    7  N3  UNL     1     -14.710  16.969  -2.814  1.00  0.00    -0.322 N 
ATOM      8  H3  UNL     1     -13.863  17.526  -2.706  1.00  0.00     0.169 HD
HETATM    9  C3  UNL     1     -15.161  16.294  -1.823  1.00  0.00     0.072 A 
HETATM   10  C4  UNL     1     -16.379  15.462  -1.891  1.00  0.00     0.118 A 
ENDROOT
TORSDOF 0
ENDMDL
