MODEL 18
REMARK VINA RESULT: -4.291912743      5.674      6.753
REMARK  0 active torsions:
REMARK  status: ('A' for Active; 'I' for Inactive)
ROOT
HETATM    1  N1  UNL     1     -19.747  15.435  -5.690  1.00  0.00    -0.087 NA
HETATM    2  C1  UNL     1     -19.831  15.417  -7.132  1.00  0.00     0.101 A 
HETATM    3  N2  UNL     1     -20.891  15.818  -7.741  1.00  0.00    -0.300 N 
ATOM      4  H2  UNL     1     -21.674  16.150  -7.176  1.00  0.00     0.171 HD
HETATM    5  C2  UNL     1     -21.034  15.825  -9.146  1.00  0.00     0.324 A 
HETATM    6  O1  UNL     1     -22.070  16.217  -9.716  1.00  0.00    -0.247 OA
HETATM    7  N3  UNL     1     -19.951  15.364  -9.933  1.00  0.00    -0.322 N 
ATOM      8  H3  UNL     1     -20.028  15.358 -10.949  1.00  0.00     0.169 HD
HETATM    9  C3  UNL     1     -18.874  14.955  -9.372  1.00  0.00     0.072 A 
HETATM   10  C4  UNL     1     -18.676  14.929  -7.909  1.00  0.00     0.118 A 
ENDROOT
TORSDOF 0
ENDMDL
