MODEL 9
REMARK VINA RESULT: -4.607401019      1.933      2.311
REMARK  0 active torsions:
REMARK  status: ('A' for Active; 'I' for Inactive)
ROOT
HETATM    1  N1  UNL     1     -16.686  15.115  -0.666  1.00  0.00    -0.087 NA
HETATM    2  C1  UNL     1     -16.721  15.428  -2.075  1.00  0.00     0.101 A 
HETATM    3  N2  UNL     1     -17.685  15.017  -2.823  1.00  0.00    -0.300 N 
ATOM      4  H2  UNL     1     -18.426  14.463  -2.392  1.00  0.00     0.171 HD
HETATM    5  C2  UNL     1     -17.776  15.290  -4.206  1.00  0.00     0.324 A 
HETATM    6  O1  UNL     1     -18.718  14.883  -4.912  1.00  0.00    -0.247 OA
HETATM    7  N3  UNL     1     -16.750  16.058  -4.807  1.00  0.00    -0.322 N 
ATOM      8  H3  UNL     1     -16.792  16.269  -5.804  1.00  0.00     0.169 HD
HETATM    9  C3  UNL     1     -15.770  16.489  -4.104  1.00  0.00     0.072 A 
HETATM   10  C4  UNL     1     -15.630  16.231  -2.657  1.00  0.00     0.118 A 
ENDROOT
TORSDOF 0
ENDMDL
