MODEL 5
REMARK VINA RESULT: -7.313483504      4.859      9.672
REMARK  5 active torsions:
REMARK  status: ('A' for Active; 'I' for Inactive)
REMARK    1  A    between atoms: C1_2  and  C2_4 
REMARK    2  A    between atoms: C2_4  and  N1_5 
REMARK       I    between atoms: N1_5  and  C3_7 
REMARK    3  A    between atoms: C3_7  and  C4_9 
REMARK    4  A    between atoms: C7_12  and  N2_13 
REMARK       I    between atoms: N2_13  and  C8_15 
REMARK    5  A    between atoms: C8_15  and  C9_17 
ROOT
HETATM    1  C4  UNL     1     -11.273  21.393  23.690  1.00  0.00     0.032 A 
HETATM    2  C5  UNL     1     -12.625  21.164  23.739  1.00  0.00     0.019 A 
HETATM    3  C6  UNL     1     -13.213  20.272  22.881  1.00  0.00     0.030 A 
HETATM    4  C7  UNL     1     -12.486  19.598  21.969  1.00  0.00     0.035 A 
HETATM    5  C13 UNL     1     -11.120  19.828  21.920  1.00  0.00     0.030 A 
HETATM    6  C14 UNL     1     -10.509  20.718  22.771  1.00  0.00     0.019 A 
ENDROOT
BRANCH   4   7
HETATM    7  N2  UNL     1     -13.022  18.666  21.060  1.00  0.00    -0.322 N 
HETATM    8  C8  UNL     1     -14.104  17.781  21.258  1.00  0.00     0.272 C 
HETATM    9  O4  UNL     1     -14.699  17.774  22.351  1.00  0.00    -0.266 OA
ATOM     10  H2  UNL     1     -12.573  18.625  20.145  1.00  0.00     0.169 HD
BRANCH   8  11
HETATM   11  C9  UNL     1     -14.531  16.864  20.173  1.00  0.00     0.103 A 
HETATM   12  C10 UNL     1     -14.293  16.952  18.822  1.00  0.00     0.057 A 
HETATM   13  C11 UNL     1     -14.882  15.871  18.177  1.00  0.00     0.047 A 
HETATM   14 BR1  UNL     1     -14.862  15.493  16.298  1.00  0.00    -0.048 Br
HETATM   15  C12 UNL     1     -15.478  15.136  19.179  1.00  0.00     0.098 A 
HETATM   16 BR2  UNL     1     -16.450  13.524  18.898  1.00  0.00    -0.030 Br
HETATM   17  N3  UNL     1     -15.254  15.749  20.362  1.00  0.00    -0.345 N 
ATOM     18  H3  UNL     1     -15.587  15.414  21.266  1.00  0.00     0.167 HD
ENDBRANCH   8  11
ENDBRANCH   4   7
BRANCH   1  19
HETATM   19  C3  UNL     1     -10.712  22.349  24.627  1.00  0.00     0.252 C 
HETATM   20  N1  UNL     1     -11.461  23.434  25.162  1.00  0.00    -0.347 N 
ATOM     21  H1  UNL     1     -12.435  23.561  24.886  1.00  0.00     0.163 HD
HETATM   22  O3  UNL     1      -9.509  22.266  25.026  1.00  0.00    -0.268 OA
BRANCH  20  23
HETATM   23  C2  UNL     1     -10.852  24.361  26.097  1.00  0.00     0.236 C 
BRANCH  23  24
HETATM   24  C1  UNL     1     -11.867  25.030  26.942  1.00  0.00     0.191 C 
HETATM   25  O1  UNL     1     -11.812  26.269  27.139  1.00  0.00    -0.647 OA
HETATM   26  O2  UNL     1     -12.901  24.328  27.540  1.00  0.00    -0.647 OA
ENDBRANCH  23  24
ENDBRANCH  20  23
ENDBRANCH   1  19
TORSDOF 5
ENDMDL
