MODEL 2
REMARK VINA RESULT: -7.527845937      0.594      1.322
REMARK  5 active torsions:
REMARK  status: ('A' for Active; 'I' for Inactive)
REMARK    1  A    between atoms: C1_2  and  C2_4 
REMARK    2  A    between atoms: C2_4  and  N1_5 
REMARK       I    between atoms: N1_5  and  C3_7 
REMARK    3  A    between atoms: C3_7  and  C4_9 
REMARK    4  A    between atoms: C7_12  and  N2_13 
REMARK       I    between atoms: N2_13  and  C8_15 
REMARK    5  A    between atoms: C8_15  and  C9_17 
ROOT
HETATM    1  C4  UNL     1     -13.784  16.919  20.230  1.00  0.00     0.032 A 
HETATM    2  C5  UNL     1     -13.680  16.726  21.585  1.00  0.00     0.019 A 
HETATM    3  C6  UNL     1     -12.924  17.571  22.353  1.00  0.00     0.030 A 
HETATM    4  C7  UNL     1     -12.266  18.611  21.807  1.00  0.00     0.035 A 
HETATM    5  C13 UNL     1     -12.371  18.808  20.439  1.00  0.00     0.030 A 
HETATM    6  C14 UNL     1     -13.123  17.972  19.648  1.00  0.00     0.019 A 
ENDROOT
BRANCH   4   7
HETATM    7  N2  UNL     1     -11.475  19.520  22.536  1.00  0.00    -0.322 N 
HETATM    8  C8  UNL     1     -11.857  20.769  23.072  1.00  0.00     0.272 C 
HETATM    9  O4  UNL     1     -13.024  21.174  22.914  1.00  0.00    -0.266 OA
ATOM     10  H2  UNL     1     -10.507  19.243  22.696  1.00  0.00     0.169 HD
BRANCH   8  11
HETATM   11  C9  UNL     1     -10.878  21.596  23.819  1.00  0.00     0.103 A 
HETATM   12  C10 UNL     1      -9.533  21.382  24.011  1.00  0.00     0.057 A 
HETATM   13  C11 UNL     1      -9.006  22.415  24.777  1.00  0.00     0.047 A 
HETATM   14 BR1  UNL     1      -7.187  22.623  25.343  1.00  0.00    -0.048 Br
HETATM   15  C12 UNL     1     -10.071  23.251  25.035  1.00  0.00     0.098 A 
HETATM   16 BR2  UNL     1      -9.956  24.855  26.053  1.00  0.00    -0.030 Br
HETATM   17  N3  UNL     1     -11.177  22.740  24.452  1.00  0.00    -0.345 N 
ATOM     18  H3  UNL     1     -12.105  23.163  24.489  1.00  0.00     0.167 HD
ENDBRANCH   8  11
ENDBRANCH   4   7
BRANCH   1  19
HETATM   19  C3  UNL     1     -14.600  15.988  19.472  1.00  0.00     0.252 C 
HETATM   20  N1  UNL     1     -14.762  14.625  19.845  1.00  0.00    -0.347 N 
ATOM     21  H1  UNL     1     -14.291  14.269  20.677  1.00  0.00     0.163 HD
HETATM   22  O3  UNL     1     -15.223  16.346  18.425  1.00  0.00    -0.268 OA
BRANCH  20  23
HETATM   23  C2  UNL     1     -15.592  13.737  19.053  1.00  0.00     0.236 C 
BRANCH  23  24
HETATM   24  C1  UNL     1     -16.954  13.611  19.619  1.00  0.00     0.191 C 
HETATM   25  O1  UNL     1     -17.898  14.301  19.162  1.00  0.00    -0.647 OA
HETATM   26  O2  UNL     1     -17.237  12.741  20.659  1.00  0.00    -0.647 OA
ENDBRANCH  23  24
ENDBRANCH  20  23
ENDBRANCH   1  19
TORSDOF 5
ENDMDL
