MODEL 3
REMARK VINA RESULT: -7.340568428      0.967      1.725
REMARK  5 active torsions:
REMARK  status: ('A' for Active; 'I' for Inactive)
REMARK    1  A    between atoms: C1_2  and  C2_4 
REMARK    2  A    between atoms: C2_4  and  N1_5 
REMARK       I    between atoms: N1_5  and  C3_7 
REMARK    3  A    between atoms: C3_7  and  C4_9 
REMARK    4  A    between atoms: C7_12  and  N2_13 
REMARK       I    between atoms: N2_13  and  C8_15 
REMARK    5  A    between atoms: C8_15  and  C9_17 
ROOT
HETATM    1  C4  UNL     1     -13.966  17.097  20.485  1.00  0.00     0.032 A 
HETATM    2  C5  UNL     1     -12.740  17.534  20.049  1.00  0.00     0.019 A 
HETATM    3  C6  UNL     1     -12.010  18.421  20.797  1.00  0.00     0.030 A 
HETATM    4  C7  UNL     1     -12.470  18.887  21.973  1.00  0.00     0.035 A 
HETATM    5  C13 UNL     1     -13.708  18.444  22.415  1.00  0.00     0.030 A 
HETATM    6  C14 UNL     1     -14.457  17.555  21.682  1.00  0.00     0.019 A 
ENDROOT
BRANCH   4   7
HETATM    7  N2  UNL     1     -11.774  19.795  22.794  1.00  0.00    -0.322 N 
HETATM    8  C8  UNL     1     -11.541  21.169  22.569  1.00  0.00     0.272 C 
HETATM    9  O4  UNL     1     -11.979  21.703  21.533  1.00  0.00    -0.266 OA
ATOM     10  H2  UNL     1     -11.389  19.412  23.658  1.00  0.00     0.169 HD
BRANCH   8  11
HETATM   11  C9  UNL     1     -10.780  21.972  23.556  1.00  0.00     0.103 A 
HETATM   12  C10 UNL     1      -9.468  21.845  23.948  1.00  0.00     0.057 A 
HETATM   13  C11 UNL     1      -9.174  22.814  24.900  1.00  0.00     0.047 A 
HETATM   14 BR1  UNL     1      -7.497  23.095  25.785  1.00  0.00    -0.048 Br
HETATM   15  C12 UNL     1     -10.344  23.522  25.066  1.00  0.00     0.098 A 
HETATM   16 BR2  UNL     1     -10.553  24.990  26.258  1.00  0.00    -0.030 Br
HETATM   17  N3  UNL     1     -11.288  23.000  24.252  1.00  0.00    -0.345 N 
ATOM     18  H3  UNL     1     -12.247  23.339  24.178  1.00  0.00     0.167 HD
ENDBRANCH   8  11
ENDBRANCH   4   7
BRANCH   1  19
HETATM   19  C3  UNL     1     -14.688  16.157  19.647  1.00  0.00     0.252 C 
HETATM   20  N1  UNL     1     -14.827  14.780  19.976  1.00  0.00    -0.347 N 
ATOM     21  H1  UNL     1     -14.406  14.420  20.833  1.00  0.00     0.163 HD
HETATM   22  O3  UNL     1     -15.244  16.519  18.564  1.00  0.00    -0.268 OA
BRANCH  20  23
HETATM   23  C2  UNL     1     -15.561  13.883  19.104  1.00  0.00     0.236 C 
BRANCH  23  24
HETATM   24  C1  UNL     1     -16.936  13.643  19.599  1.00  0.00     0.191 C 
HETATM   25  O1  UNL     1     -17.910  14.247  19.088  1.00  0.00    -0.647 OA
HETATM   26  O2  UNL     1     -17.197  12.755  20.631  1.00  0.00    -0.647 OA
ENDBRANCH  23  24
ENDBRANCH  20  23
ENDBRANCH   1  19
TORSDOF 5
ENDMDL
