MODEL 20
REMARK VINA RESULT: -6.622222679      4.859      9.890
REMARK  5 active torsions:
REMARK  status: ('A' for Active; 'I' for Inactive)
REMARK    1  A    between atoms: C1_2  and  C2_4 
REMARK    2  A    between atoms: C2_4  and  N1_5 
REMARK       I    between atoms: N1_5  and  C3_7 
REMARK    3  A    between atoms: C3_7  and  C4_9 
REMARK    4  A    between atoms: C7_12  and  N2_13 
REMARK       I    between atoms: N2_13  and  C8_15 
REMARK    5  A    between atoms: C8_15  and  C9_17 
ROOT
HETATM    1  C4  UNL     1     -11.080  21.588  23.737  1.00  0.00     0.032 A 
HETATM    2  C5  UNL     1     -10.314  20.910  22.823  1.00  0.00     0.019 A 
HETATM    3  C6  UNL     1     -10.891  20.033  21.943  1.00  0.00     0.030 A 
HETATM    4  C7  UNL     1     -12.219  19.811  21.949  1.00  0.00     0.035 A 
HETATM    5  C13 UNL     1     -12.995  20.497  22.871  1.00  0.00     0.030 A 
HETATM    6  C14 UNL     1     -12.437  21.381  23.763  1.00  0.00     0.019 A 
ENDROOT
BRANCH   4   7
HETATM    7  N2  UNL     1     -12.879  18.928  21.073  1.00  0.00    -0.322 N 
HETATM    8  C8  UNL     1     -13.268  17.592  21.313  1.00  0.00     0.272 C 
HETATM    9  O4  UNL     1     -13.025  17.072  22.418  1.00  0.00    -0.266 OA
ATOM     10  H2  UNL     1     -13.104  19.299  20.150  1.00  0.00     0.169 HD
BRANCH   8  11
HETATM   11  C9  UNL     1     -13.962  16.811  20.261  1.00  0.00     0.103 A 
HETATM   12  C10 UNL     1     -13.933  16.982  18.897  1.00  0.00     0.057 A 
HETATM   13  C11 UNL     1     -14.735  16.020  18.294  1.00  0.00     0.047 A 
HETATM   14 BR1  UNL     1     -15.056  15.792  16.418  1.00  0.00    -0.048 Br
HETATM   15  C12 UNL     1     -15.243  15.272  19.334  1.00  0.00     0.098 A 
HETATM   16 BR2  UNL     1     -16.422  13.793  19.119  1.00  0.00    -0.030 Br
HETATM   17  N3  UNL     1     -14.767  15.764  20.498  1.00  0.00    -0.345 N 
ATOM     18  H3  UNL     1     -14.987  15.394  21.422  1.00  0.00     0.167 HD
ENDBRANCH   8  11
ENDBRANCH   4   7
BRANCH   1  19
HETATM   19  C3  UNL     1     -10.408  22.504  24.641  1.00  0.00     0.252 C 
HETATM   20  N1  UNL     1     -11.015  23.698  25.119  1.00  0.00    -0.347 N 
ATOM     21  H1  UNL     1     -11.962  23.938  24.825  1.00  0.00     0.163 HD
HETATM   22  O3  UNL     1      -9.229  22.284  25.058  1.00  0.00    -0.268 OA
BRANCH  20  23
HETATM   23  C2  UNL     1     -10.298  24.579  26.022  1.00  0.00     0.236 C 
BRANCH  23  24
HETATM   24  C1  UNL     1      -9.811  25.794  25.329  1.00  0.00     0.191 C 
HETATM   25  O1  UNL     1      -9.962  25.921  24.090  1.00  0.00    -0.647 OA
HETATM   26  O2  UNL     1      -9.178  26.821  26.010  1.00  0.00    -0.647 OA
ENDBRANCH  23  24
ENDBRANCH  20  23
ENDBRANCH   1  19
TORSDOF 5
ENDMDL
