MODEL 9
REMARK VINA RESULT: -7.212674415      4.834      9.701
REMARK  5 active torsions:
REMARK  status: ('A' for Active; 'I' for Inactive)
REMARK    1  A    between atoms: C1_2  and  C2_4 
REMARK    2  A    between atoms: C2_4  and  N1_5 
REMARK       I    between atoms: N1_5  and  C3_7 
REMARK    3  A    between atoms: C3_7  and  C4_9 
REMARK    4  A    between atoms: C7_12  and  N2_13 
REMARK       I    between atoms: N2_13  and  C8_15 
REMARK    5  A    between atoms: C8_15  and  C9_17 
ROOT
HETATM    1  C4  UNL     1     -11.265  21.544  23.715  1.00  0.00     0.032 A 
HETATM    2  C5  UNL     1     -10.419  20.795  22.936  1.00  0.00     0.019 A 
HETATM    3  C6  UNL     1     -10.917  19.873  22.054  1.00  0.00     0.030 A 
HETATM    4  C7  UNL     1     -12.243  19.674  21.926  1.00  0.00     0.035 A 
HETATM    5  C13 UNL     1     -13.098  20.432  22.711  1.00  0.00     0.030 A 
HETATM    6  C14 UNL     1     -12.621  21.363  23.602  1.00  0.00     0.019 A 
ENDROOT
BRANCH   4   7
HETATM    7  N2  UNL     1     -12.824  18.748  21.039  1.00  0.00    -0.322 N 
HETATM    8  C8  UNL     1     -13.933  17.903  21.265  1.00  0.00     0.272 C 
HETATM    9  O4  UNL     1     -14.511  17.933  22.368  1.00  0.00    -0.266 OA
ATOM     10  H2  UNL     1     -12.390  18.678  20.118  1.00  0.00     0.169 HD
BRANCH   8  11
HETATM   11  C9  UNL     1     -14.407  16.986  20.202  1.00  0.00     0.103 A 
HETATM   12  C10 UNL     1     -14.194  17.051  18.844  1.00  0.00     0.057 A 
HETATM   13  C11 UNL     1     -14.826  15.979  18.226  1.00  0.00     0.047 A 
HETATM   14 BR1  UNL     1     -14.856  15.579  16.351  1.00  0.00    -0.048 Br
HETATM   15  C12 UNL     1     -15.422  15.273  19.248  1.00  0.00     0.098 A 
HETATM   16 BR2  UNL     1     -16.443  13.686  19.007  1.00  0.00    -0.030 Br
HETATM   17  N3  UNL     1     -15.157  15.894  20.419  1.00  0.00    -0.345 N 
ATOM     18  H3  UNL     1     -15.480  15.579  21.333  1.00  0.00     0.167 HD
ENDBRANCH   8  11
ENDBRANCH   4   7
BRANCH   1  19
HETATM   19  C3  UNL     1     -10.674  22.505  24.628  1.00  0.00     0.252 C 
HETATM   20  N1  UNL     1     -11.343  23.692  25.036  1.00  0.00    -0.347 N 
ATOM     21  H1  UNL     1     -12.278  23.894  24.682  1.00  0.00     0.163 HD
HETATM   22  O3  UNL     1      -9.515  22.334  25.119  1.00  0.00    -0.268 OA
BRANCH  20  23
HETATM   23  C2  UNL     1     -10.706  24.619  25.953  1.00  0.00     0.236 C 
BRANCH  23  24
HETATM   24  C1  UNL     1     -11.505  24.802  27.187  1.00  0.00     0.191 C 
HETATM   25  O1  UNL     1     -12.724  24.503  27.204  1.00  0.00    -0.647 OA
HETATM   26  O2  UNL     1     -10.948  25.303  28.352  1.00  0.00    -0.647 OA
ENDBRANCH  23  24
ENDBRANCH  20  23
ENDBRANCH   1  19
TORSDOF 5
ENDMDL
