MODEL 1
REMARK VINA RESULT: -7.558773396      0.000      0.000
REMARK  5 active torsions:
REMARK  status: ('A' for Active; 'I' for Inactive)
REMARK    1  A    between atoms: C1_2  and  C2_4 
REMARK    2  A    between atoms: C2_4  and  N1_5 
REMARK       I    between atoms: N1_5  and  C3_7 
REMARK    3  A    between atoms: C3_7  and  C4_9 
REMARK    4  A    between atoms: C7_12  and  N2_13 
REMARK       I    between atoms: N2_13  and  C8_15 
REMARK    5  A    between atoms: C8_15  and  C9_17 
ROOT
HETATM    1  C4  UNL     1     -13.806  16.874  20.181  1.00  0.00     0.032 A 
HETATM    2  C5  UNL     1     -13.685  16.675  21.534  1.00  0.00     0.019 A 
HETATM    3  C6  UNL     1     -12.911  17.510  22.295  1.00  0.00     0.030 A 
HETATM    4  C7  UNL     1     -12.249  18.544  21.743  1.00  0.00     0.035 A 
HETATM    5  C13 UNL     1     -12.371  18.748  20.377  1.00  0.00     0.030 A 
HETATM    6  C14 UNL     1     -13.143  17.922  19.594  1.00  0.00     0.019 A 
ENDROOT
BRANCH   4   7
HETATM    7  N2  UNL     1     -11.439  19.444  22.464  1.00  0.00    -0.322 N 
HETATM    8  C8  UNL     1     -11.819  20.658  23.075  1.00  0.00     0.272 C 
HETATM    9  O4  UNL     1     -13.003  21.037  23.003  1.00  0.00    -0.266 OA
ATOM     10  H2  UNL     1     -10.457  19.186  22.555  1.00  0.00     0.169 HD
BRANCH   8  11
HETATM   11  C9  UNL     1     -10.819  21.479  23.799  1.00  0.00     0.103 A 
HETATM   12  C10 UNL     1     -10.973  22.713  24.385  1.00  0.00     0.057 A 
HETATM   13  C11 UNL     1      -9.767  23.108  24.953  1.00  0.00     0.047 A 
HETATM   14 BR1  UNL     1      -9.413  24.739  25.898  1.00  0.00    -0.048 Br
HETATM   15  C12 UNL     1      -8.890  22.078  24.690  1.00  0.00     0.098 A 
HETATM   16 BR2  UNL     1      -7.066  22.055  25.230  1.00  0.00    -0.030 Br
HETATM   17  N3  UNL     1      -9.542  21.117  24.000  1.00  0.00    -0.345 N 
ATOM     18  H3  UNL     1      -9.124  20.244  23.679  1.00  0.00     0.167 HD
ENDBRANCH   8  11
ENDBRANCH   4   7
BRANCH   1  19
HETATM   19  C3  UNL     1     -14.642  15.954  19.432  1.00  0.00     0.252 C 
HETATM   20  N1  UNL     1     -14.803  14.588  19.795  1.00  0.00    -0.347 N 
ATOM     21  H1  UNL     1     -14.316  14.222  20.613  1.00  0.00     0.163 HD
HETATM   22  O3  UNL     1     -15.285  16.325  18.401  1.00  0.00    -0.268 OA
BRANCH  20  23
HETATM   23  C2  UNL     1     -15.652  13.712  19.011  1.00  0.00     0.236 C 
BRANCH  23  24
HETATM   24  C1  UNL     1     -17.005  13.589  19.603  1.00  0.00     0.191 C 
HETATM   25  O1  UNL     1     -17.961  14.260  19.145  1.00  0.00    -0.647 OA
HETATM   26  O2  UNL     1     -17.263  12.742  20.669  1.00  0.00    -0.647 OA
ENDBRANCH  23  24
ENDBRANCH  20  23
ENDBRANCH   1  19
TORSDOF 5
ENDMDL
