MODEL 4
REMARK VINA RESULT: -9.771629357      3.097      7.447
REMARK  7 active torsions:
REMARK  status: ('A' for Active; 'I' for Inactive)
REMARK    1  A    between atoms: C2_2  and  O1_5 
REMARK    2  A    between atoms: O1_5  and  C5_6 
REMARK       I    between atoms: C5_6  and  N1_8 
REMARK    3  A    between atoms: N1_8  and  C6_10 
REMARK    4  A    between atoms: C6_10  and  C7_11 
REMARK    5  A    between atoms: C6_10  and  C8_17 
REMARK       I    between atoms: C7_11  and  N2_13 
REMARK    6  A    between atoms: N2_13  and  O4_15 
REMARK    7  A    between atoms: C11_20  and  C12_21 
ROOT
HETATM    1  C6  UNL     1      13.883  11.375  13.342  1.00  0.00     0.214 C 
ENDROOT
BRANCH   1   2
HETATM    2  N1  UNL     1      13.079  11.573  14.527  1.00  0.00    -0.319 N 
HETATM    3  C5  UNL     1      13.253  12.707  15.328  1.00  0.00     0.362 C 
HETATM    4  O2  UNL     1      14.129  13.547  14.983  1.00  0.00    -0.238 OA
ATOM      5  H1  UNL     1      12.376  10.878  14.782  1.00  0.00     0.166 HD
BRANCH   3   6
HETATM    6  O1  UNL     1      12.529  12.976  16.477  1.00  0.00    -0.294 OA
BRANCH   6   7
HETATM    7  C2  UNL     1      12.568  12.127  17.625  1.00  0.00     0.061 C 
HETATM    8  C1  UNL     1      13.382  10.882  17.326  1.00  0.00     0.046 C 
HETATM    9  C3  UNL     1      13.241  12.882  18.732  1.00  0.00     0.046 C 
HETATM   10  C4  UNL     1      11.193  11.705  18.043  1.00  0.00     0.046 C 
ENDBRANCH   6   7
ENDBRANCH   3   6
ENDBRANCH   1   2
BRANCH   1  11
HETATM   11  C7  UNL     1      13.109  11.743  12.128  1.00  0.00     0.268 C 
HETATM   12  O3  UNL     1      11.861  11.568  12.113  1.00  0.00    -0.269 OA
HETATM   13  N2  UNL     1      13.715  12.288  10.972  1.00  0.00    -0.235 N 
ATOM     14  H2  UNL     1      14.723  12.445  10.944  1.00  0.00     0.197 HD
BRANCH  13  15
HETATM   15  O4  UNL     1      12.941  12.601   9.901  1.00  0.00    -0.287 OA
ATOM     16  H4  UNL     1      12.659  13.500   9.778  1.00  0.00     0.244 HD
ENDBRANCH  13  15
ENDBRANCH   1  11
BRANCH   1  17
HETATM   17  C8  UNL     1      14.340   9.950  13.255  1.00  0.00    -0.026 A 
HETATM   18  C9  UNL     1      14.012   9.056  14.248  1.00  0.00     0.010 A 
HETATM   19  C10 UNL     1      14.426   7.738  14.187  1.00  0.00     0.013 A 
HETATM   20  C11 UNL     1      15.182   7.256  13.139  1.00  0.00    -0.026 A 
HETATM   21  C18 UNL     1      15.507   8.161  12.149  1.00  0.00     0.013 A 
HETATM   22  C19 UNL     1      15.096   9.479  12.204  1.00  0.00     0.010 A 
BRANCH  20  23
HETATM   23  C12 UNL     1      15.625   5.869  13.067  1.00  0.00    -0.026 A 
HETATM   24  C13 UNL     1      14.759   4.795  13.109  1.00  0.00     0.012 A 
HETATM   25  C14 UNL     1      15.196   3.490  13.039  1.00  0.00     0.001 A 
HETATM   26  C15 UNL     1      16.541   3.198  12.923  1.00  0.00     0.000 A 
HETATM   27  C16 UNL     1      17.419   4.259  12.881  1.00  0.00     0.001 A 
HETATM   28  C17 UNL     1      16.972   5.562  12.951  1.00  0.00     0.012 A 
ENDBRANCH  20  23
ENDBRANCH   1  17
TORSDOF 7
ENDMDL
