MODEL 2
REMARK VINA RESULT: -9.838650917      0.073      1.266
REMARK  7 active torsions:
REMARK  status: ('A' for Active; 'I' for Inactive)
REMARK    1  A    between atoms: C2_2  and  O1_5 
REMARK    2  A    between atoms: O1_5  and  C5_6 
REMARK       I    between atoms: C5_6  and  N1_8 
REMARK    3  A    between atoms: N1_8  and  C6_10 
REMARK    4  A    between atoms: C6_10  and  C7_11 
REMARK    5  A    between atoms: C6_10  and  C8_17 
REMARK       I    between atoms: C7_11  and  N2_13 
REMARK    6  A    between atoms: N2_13  and  O4_15 
REMARK    7  A    between atoms: C11_20  and  C12_21 
ROOT
HETATM    1  C6  UNL     1      13.554  10.768  12.711  1.00  0.00     0.214 C 
ENDROOT
BRANCH   1   2
HETATM    2  N1  UNL     1      14.942  10.924  12.338  1.00  0.00    -0.319 N 
HETATM    3  C5  UNL     1      15.788   9.813  12.250  1.00  0.00     0.362 C 
HETATM    4  O2  UNL     1      15.302   8.677  12.504  1.00  0.00    -0.238 OA
ATOM      5  H1  UNL     1      15.308  11.855  12.137  1.00  0.00     0.166 HD
BRANCH   3   6
HETATM    6  O1  UNL     1      17.126   9.871  11.901  1.00  0.00    -0.294 OA
BRANCH   6   7
HETATM    7  C2  UNL     1      17.618   9.361  10.660  1.00  0.00     0.061 C 
HETATM    8  C1  UNL     1      18.505  10.392   9.986  1.00  0.00     0.046 C 
HETATM    9  C3  UNL     1      18.444   8.145  10.958  1.00  0.00     0.046 C 
HETATM   10  C4  UNL     1      16.500   9.015   9.727  1.00  0.00     0.046 C 
ENDBRANCH   6   7
ENDBRANCH   3   6
ENDBRANCH   1   2
BRANCH   1  11
HETATM   11  C7  UNL     1      12.689  11.604  11.838  1.00  0.00     0.268 C 
HETATM   12  O3  UNL     1      13.175  12.116  10.795  1.00  0.00    -0.269 OA
HETATM   13  N2  UNL     1      11.328  11.855  12.128  1.00  0.00    -0.235 N 
ATOM     14  H2  UNL     1      10.896  11.459  12.964  1.00  0.00     0.197 HD
BRANCH  13  15
HETATM   15  O4  UNL     1      10.600  12.629  11.281  1.00  0.00    -0.287 OA
ATOM     16  H4  UNL     1       9.653  12.637  11.357  1.00  0.00     0.244 HD
ENDBRANCH  13  15
ENDBRANCH   1  11
BRANCH   1  17
HETATM   17  C8  UNL     1      13.356  11.140  14.150  1.00  0.00    -0.026 A 
HETATM   18  C9  UNL     1      13.353  10.167  15.123  1.00  0.00     0.010 A 
HETATM   19  C10 UNL     1      13.170  10.489  16.454  1.00  0.00     0.013 A 
HETATM   20  C11 UNL     1      12.982  11.790  16.873  1.00  0.00    -0.026 A 
HETATM   21  C18 UNL     1      12.986  12.758  15.890  1.00  0.00     0.013 A 
HETATM   22  C19 UNL     1      13.168  12.442  14.558  1.00  0.00     0.010 A 
BRANCH  20  23
HETATM   23  C12 UNL     1      12.786  12.140  18.275  1.00  0.00    -0.026 A 
HETATM   24  C13 UNL     1      11.770  11.618  19.049  1.00  0.00     0.012 A 
HETATM   25  C14 UNL     1      11.600  11.960  20.374  1.00  0.00     0.001 A 
HETATM   26  C15 UNL     1      12.453  12.854  20.990  1.00  0.00     0.000 A 
HETATM   27  C16 UNL     1      13.473  13.385  20.230  1.00  0.00     0.001 A 
HETATM   28  C17 UNL     1      13.635  13.036  18.906  1.00  0.00     0.012 A 
ENDBRANCH  20  23
ENDBRANCH   1  17
TORSDOF 7
ENDMDL
