MODEL 1
REMARK VINA RESULT: -9.909115116      0.000      0.000
REMARK  7 active torsions:
REMARK  status: ('A' for Active; 'I' for Inactive)
REMARK    1  A    between atoms: C2_2  and  O1_5 
REMARK    2  A    between atoms: O1_5  and  C5_6 
REMARK       I    between atoms: C5_6  and  N1_8 
REMARK    3  A    between atoms: N1_8  and  C6_10 
REMARK    4  A    between atoms: C6_10  and  C7_11 
REMARK    5  A    between atoms: C6_10  and  C8_17 
REMARK       I    between atoms: C7_11  and  N2_13 
REMARK    6  A    between atoms: N2_13  and  O4_15 
REMARK    7  A    between atoms: C11_20  and  C12_21 
ROOT
HETATM    1  C6  UNL     1      13.560  10.780  12.657  1.00  0.00     0.214 C 
ENDROOT
BRANCH   1   2
HETATM    2  N1  UNL     1      14.948  10.923  12.279  1.00  0.00    -0.319 N 
HETATM    3  C5  UNL     1      15.787   9.806  12.202  1.00  0.00     0.362 C 
HETATM    4  O2  UNL     1      15.295   8.676  12.471  1.00  0.00    -0.238 OA
ATOM      5  H1  UNL     1      15.319  11.850  12.065  1.00  0.00     0.166 HD
BRANCH   3   6
HETATM    6  O1  UNL     1      17.125   9.852  11.849  1.00  0.00    -0.294 OA
BRANCH   6   7
HETATM    7  C2  UNL     1      17.616   9.295  10.629  1.00  0.00     0.061 C 
HETATM    8  C1  UNL     1      16.462   8.977   9.697  1.00  0.00     0.046 C 
HETATM    9  C3  UNL     1      18.488  10.324   9.972  1.00  0.00     0.046 C 
HETATM   10  C4  UNL     1      18.389   8.036  10.872  1.00  0.00     0.046 C 
ENDBRANCH   6   7
ENDBRANCH   3   6
ENDBRANCH   1   2
BRANCH   1  11
HETATM   11  C7  UNL     1      12.699  11.621  11.785  1.00  0.00     0.268 C 
HETATM   12  O3  UNL     1      13.173  12.091  10.716  1.00  0.00    -0.269 OA
HETATM   13  N2  UNL     1      11.354  11.923  12.102  1.00  0.00    -0.235 N 
ATOM     14  H2  UNL     1      10.933  11.563  12.959  1.00  0.00     0.197 HD
BRANCH  13  15
HETATM   15  O4  UNL     1      10.630  12.699  11.255  1.00  0.00    -0.287 OA
ATOM     16  H4  UNL     1      10.413  13.588  11.510  1.00  0.00     0.244 HD
ENDBRANCH  13  15
ENDBRANCH   1  11
BRANCH   1  17
HETATM   17  C8  UNL     1      13.370  11.157  14.095  1.00  0.00    -0.026 A 
HETATM   18  C9  UNL     1      13.339  10.184  15.068  1.00  0.00     0.010 A 
HETATM   19  C10 UNL     1      13.162  10.511  16.399  1.00  0.00     0.013 A 
HETATM   20  C11 UNL     1      13.009  11.817  16.818  1.00  0.00    -0.026 A 
HETATM   21  C18 UNL     1      13.041  12.784  15.835  1.00  0.00     0.013 A 
HETATM   22  C19 UNL     1      13.217  12.464  14.503  1.00  0.00     0.010 A 
BRANCH  20  23
HETATM   23  C12 UNL     1      12.820  12.171  18.220  1.00  0.00    -0.026 A 
HETATM   24  C13 UNL     1      13.648  13.043  18.897  1.00  0.00     0.012 A 
HETATM   25  C14 UNL     1      13.454  13.368  20.222  1.00  0.00     0.001 A 
HETATM   26  C15 UNL     1      12.407  12.824  20.939  1.00  0.00     0.000 A 
HETATM   27  C16 UNL     1      11.571  11.951  20.277  1.00  0.00     0.001 A 
HETATM   28  C17 UNL     1      11.773  11.633  18.951  1.00  0.00     0.012 A 
ENDBRANCH  20  23
ENDBRANCH   1  17
TORSDOF 7
ENDMDL
