MODEL 3
REMARK VINA RESULT: -9.804836011      3.091      7.397
REMARK  7 active torsions:
REMARK  status: ('A' for Active; 'I' for Inactive)
REMARK    1  A    between atoms: C2_2  and  O1_5 
REMARK    2  A    between atoms: O1_5  and  C5_6 
REMARK       I    between atoms: C5_6  and  N1_8 
REMARK    3  A    between atoms: N1_8  and  C6_10 
REMARK    4  A    between atoms: C6_10  and  C7_11 
REMARK    5  A    between atoms: C6_10  and  C8_17 
REMARK       I    between atoms: C7_11  and  N2_13 
REMARK    6  A    between atoms: N2_13  and  O4_15 
REMARK    7  A    between atoms: C11_20  and  C12_21 
ROOT
HETATM    1  C6  UNL     1      13.890  11.370  13.326  1.00  0.00     0.214 C 
ENDROOT
BRANCH   1   2
HETATM    2  N1  UNL     1      13.097  11.560  14.520  1.00  0.00    -0.319 N 
HETATM    3  C5  UNL     1      13.248  12.710  15.303  1.00  0.00     0.362 C 
HETATM    4  O2  UNL     1      14.092  13.571  14.934  1.00  0.00    -0.238 OA
ATOM      5  H1  UNL     1      12.420  10.847  14.795  1.00  0.00     0.166 HD
BRANCH   3   6
HETATM    6  O1  UNL     1      12.531  12.972  16.458  1.00  0.00    -0.294 OA
BRANCH   6   7
HETATM    7  C2  UNL     1      12.628  12.152  17.624  1.00  0.00     0.061 C 
HETATM    8  C1  UNL     1      11.244  11.730  18.082  1.00  0.00     0.046 C 
HETATM    9  C3  UNL     1      13.403  10.921  17.256  1.00  0.00     0.046 C 
HETATM   10  C4  UNL     1      13.300  12.874  18.750  1.00  0.00     0.046 C 
ENDBRANCH   6   7
ENDBRANCH   3   6
ENDBRANCH   1   2
BRANCH   1  11
HETATM   11  C7  UNL     1      13.103  11.742  12.121  1.00  0.00     0.268 C 
HETATM   12  O3  UNL     1      11.857  11.556  12.116  1.00  0.00    -0.269 OA
HETATM   13  N2  UNL     1      13.695  12.301  10.965  1.00  0.00    -0.235 N 
ATOM     14  H2  UNL     1      14.701  12.466  10.929  1.00  0.00     0.197 HD
BRANCH  13  15
HETATM   15  O4  UNL     1      12.909  12.615   9.902  1.00  0.00    -0.287 OA
ATOM     16  H4  UNL     1      13.148  12.300   9.039  1.00  0.00     0.244 HD
ENDBRANCH  13  15
ENDBRANCH   1  11
BRANCH   1  17
HETATM   17  C8  UNL     1      14.352   9.947  13.228  1.00  0.00    -0.026 A 
HETATM   18  C9  UNL     1      14.030   9.046  14.216  1.00  0.00     0.010 A 
HETATM   19  C10 UNL     1      14.448   7.730  14.145  1.00  0.00     0.013 A 
HETATM   20  C11 UNL     1      15.201   7.257  13.091  1.00  0.00    -0.026 A 
HETATM   21  C18 UNL     1      15.519   8.169  12.106  1.00  0.00     0.013 A 
HETATM   22  C19 UNL     1      15.104   9.485  12.171  1.00  0.00     0.010 A 
BRANCH  20  23
HETATM   23  C12 UNL     1      15.649   5.871  13.008  1.00  0.00    -0.026 A 
HETATM   24  C13 UNL     1      16.962   5.513  12.780  1.00  0.00     0.012 A 
HETATM   25  C14 UNL     1      17.366   4.198  12.706  1.00  0.00     0.001 A 
HETATM   26  C15 UNL     1      16.460   3.167  12.857  1.00  0.00     0.000 A 
HETATM   27  C16 UNL     1      15.144   3.509  13.086  1.00  0.00     0.001 A 
HETATM   28  C17 UNL     1      14.749   4.828  13.159  1.00  0.00     0.012 A 
ENDBRANCH  20  23
ENDBRANCH   1  17
TORSDOF 7
ENDMDL
