MODEL 5
REMARK VINA RESULT: -9.746841822      3.084      7.461
REMARK  7 active torsions:
REMARK  status: ('A' for Active; 'I' for Inactive)
REMARK    1  A    between atoms: C2_2  and  O1_5 
REMARK    2  A    between atoms: O1_5  and  C5_6 
REMARK       I    between atoms: C5_6  and  N1_8 
REMARK    3  A    between atoms: N1_8  and  C6_10 
REMARK    4  A    between atoms: C6_10  and  C7_11 
REMARK    5  A    between atoms: C6_10  and  C8_17 
REMARK       I    between atoms: C7_11  and  N2_13 
REMARK    6  A    between atoms: N2_13  and  O4_15 
REMARK    7  A    between atoms: C11_20  and  C12_21 
ROOT
HETATM    1  C6  UNL     1      13.905  11.363  13.379  1.00  0.00     0.214 C 
ENDROOT
BRANCH   1   2
HETATM    2  N1  UNL     1      13.113  11.556  14.573  1.00  0.00    -0.319 N 
HETATM    3  C5  UNL     1      13.257  12.713  15.347  1.00  0.00     0.362 C 
HETATM    4  O2  UNL     1      14.094  13.578  14.969  1.00  0.00    -0.238 OA
ATOM      5  H1  UNL     1      12.443  10.840  14.855  1.00  0.00     0.166 HD
BRANCH   3   6
HETATM    6  O1  UNL     1      12.542  12.979  16.502  1.00  0.00    -0.294 OA
BRANCH   6   7
HETATM    7  C2  UNL     1      12.579  12.120  17.643  1.00  0.00     0.061 C 
HETATM    8  C1  UNL     1      13.385  10.872  17.331  1.00  0.00     0.046 C 
HETATM    9  C3  UNL     1      13.261  12.861  18.754  1.00  0.00     0.046 C 
HETATM   10  C4  UNL     1      11.203  11.703  18.061  1.00  0.00     0.046 C 
ENDBRANCH   6   7
ENDBRANCH   3   6
ENDBRANCH   1   2
BRANCH   1  11
HETATM   11  C7  UNL     1      13.121  11.744  12.175  1.00  0.00     0.268 C 
HETATM   12  O3  UNL     1      11.875  11.557  12.164  1.00  0.00    -0.269 OA
HETATM   13  N2  UNL     1      13.716  12.315  11.026  1.00  0.00    -0.235 N 
ATOM     14  H2  UNL     1      14.722  12.483  10.995  1.00  0.00     0.197 HD
BRANCH  13  15
HETATM   15  O4  UNL     1      12.933  12.638   9.964  1.00  0.00    -0.287 OA
ATOM     16  H4  UNL     1      13.328  13.054   9.206  1.00  0.00     0.244 HD
ENDBRANCH  13  15
ENDBRANCH   1  11
BRANCH   1  17
HETATM   17  C8  UNL     1      14.355   9.936  13.277  1.00  0.00    -0.026 A 
HETATM   18  C9  UNL     1      15.091   9.520  12.192  1.00  0.00     0.010 A 
HETATM   19  C10 UNL     1      15.513   8.209  12.077  1.00  0.00     0.013 A 
HETATM   20  C11 UNL     1      15.222   7.259  13.035  1.00  0.00    -0.026 A 
HETATM   21  C18 UNL     1      14.483   7.687  14.118  1.00  0.00     0.013 A 
HETATM   22  C19 UNL     1      14.058   8.996  14.238  1.00  0.00     0.010 A 
BRANCH  20  23
HETATM   23  C12 UNL     1      15.661   5.873  12.922  1.00  0.00    -0.026 A 
HETATM   24  C13 UNL     1      16.937   5.514  12.538  1.00  0.00     0.012 A 
HETATM   25  C14 UNL     1      17.335   4.198  12.438  1.00  0.00     0.001 A 
HETATM   26  C15 UNL     1      16.459   3.169  12.720  1.00  0.00     0.000 A 
HETATM   27  C16 UNL     1      15.180   3.511  13.105  1.00  0.00     0.001 A 
HETATM   28  C17 UNL     1      14.792   4.831  13.203  1.00  0.00     0.012 A 
ENDBRANCH  20  23
ENDBRANCH   1  17
TORSDOF 7
ENDMDL
