MODEL 6
REMARK VINA RESULT: -9.316084716      3.869      7.433
REMARK  7 active torsions:
REMARK  status: ('A' for Active; 'I' for Inactive)
REMARK    1  A    between atoms: C3_4  and  C4_5 
REMARK    2  A    between atoms: C7_8  and  C8_9 
REMARK    3  A    between atoms: C8_9  and  N2_10 
REMARK    4  A    between atoms: C8_9  and  C14_19 
REMARK       I    between atoms: N2_10  and  C9_12 
REMARK    5  A    between atoms: C9_12  and  O2_14 
REMARK    6  A    between atoms: O2_14  and  C10_15 
REMARK       I    between atoms: C14_19  and  N3_21 
REMARK    7  A    between atoms: N3_21  and  O4_23 
ROOT
HETATM    1  C8  UNL     1      89.582 119.704 130.906  1.00  0.00     0.117 C 
ENDROOT
BRANCH   1   2
HETATM    2  C7  UNL     1      89.832 118.295 130.995  1.00  0.00    -0.004 A 
HETATM    3  C6  UNL     1      89.326 117.622 132.120  1.00  0.00     0.015 A 
HETATM    4  C5  UNL     1      89.525 116.307 132.307  1.00  0.00     0.013 A 
HETATM    5  C4  UNL     1      90.244 115.508 131.415  1.00  0.00    -0.023 A 
HETATM    6  C16 UNL     1      90.739 116.126 130.330  1.00  0.00     0.013 A 
HETATM    7  C15 UNL     1      90.534 117.495 130.122  1.00  0.00     0.015 A 
BRANCH   5   8
HETATM    8  C3  UNL     1      90.363 114.096 131.786  1.00  0.00     0.008 A 
HETATM    9  C2  UNL     1      90.502 113.547 133.055  1.00  0.00     0.123 A 
HETATM   10  N1  UNL     1      90.661 112.232 132.990  1.00  0.00    -0.307 N 
HETATM   11  C1  UNL     1      90.810 111.286 134.072  1.00  0.00     0.177 C 
HETATM   12  N4  UNL     1      90.632 111.900 131.718  1.00  0.00    -0.310 N 
HETATM   13  C17 UNL     1      90.455 112.996 130.924  1.00  0.00     0.120 A 
ATOM     14  H4  UNL     1      90.730 110.946 131.369  1.00  0.00     0.186 HD
ENDBRANCH   5   8
ENDBRANCH   1   2
BRANCH   1  15
HETATM   15  N2  UNL     1      89.338 120.544 132.053  1.00  0.00    -0.297 N 
HETATM   16  C9  UNL     1      88.127 120.834 132.700  1.00  0.00     0.366 C 
HETATM   17  O1  UNL     1      87.039 120.375 132.245  1.00  0.00    -0.238 OA
ATOM     18  H2  UNL     1      90.164 120.991 132.450  1.00  0.00     0.171 HD
BRANCH  16  19
HETATM   19  O2  UNL     1      88.059 121.590 133.827  1.00  0.00    -0.294 OA
BRANCH  19  20
HETATM   20  C10 UNL     1      87.913 121.181 135.148  1.00  0.00     0.061 C 
HETATM   21  C11 UNL     1      86.425 121.411 135.496  1.00  0.00     0.046 C 
HETATM   22  C12 UNL     1      88.087 119.625 135.169  1.00  0.00     0.046 C 
HETATM   23  C13 UNL     1      88.788 121.796 136.152  1.00  0.00     0.046 C 
ENDBRANCH  19  20
ENDBRANCH  16  19
ENDBRANCH   1  15
BRANCH   1  24
HETATM   24  C14 UNL     1      88.826 120.305 129.745  1.00  0.00     0.292 C 
HETATM   25  O3  UNL     1      88.591 119.650 128.727  1.00  0.00    -0.264 OA
HETATM   26  N3  UNL     1      88.395 121.681 129.792  1.00  0.00    -0.232 N 
ATOM     27  H3  UNL     1      88.571 122.235 130.630  1.00  0.00     0.197 HD
BRANCH  26  28
HETATM   28  O4  UNL     1      87.745 122.265 128.714  1.00  0.00    -0.287 OA
ATOM     29  H4  UNL     1      87.334 123.117 128.793  1.00  0.00     0.244 HD
ENDBRANCH  26  28
ENDBRANCH   1  24
TORSDOF 7
ENDMDL
