MODEL 3
REMARK VINA RESULT: -9.408411395      3.692      8.039
REMARK  7 active torsions:
REMARK  status: ('A' for Active; 'I' for Inactive)
REMARK    1  A    between atoms: C3_4  and  C4_5 
REMARK    2  A    between atoms: C7_8  and  C8_9 
REMARK    3  A    between atoms: C8_9  and  N2_10 
REMARK    4  A    between atoms: C8_9  and  C14_19 
REMARK       I    between atoms: N2_10  and  C9_12 
REMARK    5  A    between atoms: C9_12  and  O2_14 
REMARK    6  A    between atoms: O2_14  and  C10_15 
REMARK       I    between atoms: C14_19  and  N3_21 
REMARK    7  A    between atoms: N3_21  and  O4_23 
ROOT
HETATM    1  C8  UNL     1      89.560 119.614 130.866  1.00  0.00     0.117 C 
ENDROOT
BRANCH   1   2
HETATM    2  C7  UNL     1      89.822 118.209 130.973  1.00  0.00    -0.004 A 
HETATM    3  C6  UNL     1      90.528 117.604 129.919  1.00  0.00     0.015 A 
HETATM    4  C5  UNL     1      90.804 116.290 129.914  1.00  0.00     0.013 A 
HETATM    5  C4  UNL     1      90.418 115.423 130.939  1.00  0.00    -0.023 A 
HETATM    6  C16 UNL     1      89.741 115.975 131.960  1.00  0.00     0.013 A 
HETATM    7  C15 UNL     1      89.451 117.345 131.978  1.00  0.00     0.015 A 
BRANCH   5   8
HETATM    8  C3  UNL     1      90.802 114.022 130.760  1.00  0.00     0.008 A 
HETATM    9  C2  UNL     1      92.017 113.510 130.322  1.00  0.00     0.123 A 
HETATM   10  N1  UNL     1      91.966 112.190 130.211  1.00  0.00    -0.307 N 
HETATM   11  C1  UNL     1      93.014 111.275 129.817  1.00  0.00     0.177 C 
HETATM   12  N4  UNL     1      90.754 111.817 130.562  1.00  0.00    -0.310 N 
HETATM   13  C17 UNL     1      89.987 112.892 130.909  1.00  0.00     0.120 A 
ATOM     14  H4  UNL     1      90.430 110.850 130.574  1.00  0.00     0.186 HD
ENDBRANCH   5   8
ENDBRANCH   1   2
BRANCH   1  15
HETATM   15  N2  UNL     1      89.358 120.475 132.005  1.00  0.00    -0.297 N 
HETATM   16  C9  UNL     1      88.166 120.807 132.667  1.00  0.00     0.366 C 
HETATM   17  O1  UNL     1      87.059 120.374 132.236  1.00  0.00    -0.238 OA
ATOM     18  H2  UNL     1      90.202 120.905 132.384  1.00  0.00     0.171 HD
BRANCH  16  19
HETATM   19  O2  UNL     1      88.137 121.580 133.785  1.00  0.00    -0.294 OA
BRANCH  19  20
HETATM   20  C10 UNL     1      87.958 121.196 135.110  1.00  0.00     0.061 C 
HETATM   21  C11 UNL     1      86.468 121.464 135.426  1.00  0.00     0.046 C 
HETATM   22  C12 UNL     1      88.097 119.637 135.159  1.00  0.00     0.046 C 
HETATM   23  C13 UNL     1      88.827 121.808 136.120  1.00  0.00     0.046 C 
ENDBRANCH  19  20
ENDBRANCH  16  19
ENDBRANCH   1  15
BRANCH   1  24
HETATM   24  C14 UNL     1      88.755 120.189 129.725  1.00  0.00     0.292 C 
HETATM   25  O3  UNL     1      88.289 119.464 128.843  1.00  0.00    -0.264 OA
HETATM   26  N3  UNL     1      88.548 121.614 129.626  1.00  0.00    -0.232 N 
ATOM     27  H3  UNL     1      88.917 122.227 130.353  1.00  0.00     0.197 HD
BRANCH  26  28
HETATM   28  O4  UNL     1      87.855 122.163 128.557  1.00  0.00    -0.287 OA
ATOM     29  H4  UNL     1      88.292 122.349 127.734  1.00  0.00     0.244 HD
ENDBRANCH  26  28
ENDBRANCH   1  24
TORSDOF 7
ENDMDL
