MODEL 2
REMARK VINA RESULT: -9.417716593      0.661      1.331
REMARK  7 active torsions:
REMARK  status: ('A' for Active; 'I' for Inactive)
REMARK    1  A    between atoms: C3_4  and  C4_5 
REMARK    2  A    between atoms: C7_8  and  C8_9 
REMARK    3  A    between atoms: C8_9  and  N2_10 
REMARK    4  A    between atoms: C8_9  and  C14_19 
REMARK       I    between atoms: N2_10  and  C9_12 
REMARK    5  A    between atoms: C9_12  and  O2_14 
REMARK    6  A    between atoms: O2_14  and  C10_15 
REMARK       I    between atoms: C14_19  and  N3_21 
REMARK    7  A    between atoms: N3_21  and  O4_23 
ROOT
HETATM    1  C8  UNL     1      88.441 120.221 131.333  1.00  0.00     0.117 C 
ENDROOT
BRANCH   1   2
HETATM    2  C7  UNL     1      88.145 120.279 132.735  1.00  0.00    -0.004 A 
HETATM    3  C6  UNL     1      87.542 121.453 133.217  1.00  0.00     0.015 A 
HETATM    4  C5  UNL     1      87.245 121.614 134.517  1.00  0.00     0.013 A 
HETATM    5  C4  UNL     1      87.509 120.645 135.487  1.00  0.00    -0.023 A 
HETATM    6  C16 UNL     1      88.085 119.512 135.054  1.00  0.00     0.013 A 
HETATM    7  C15 UNL     1      88.395 119.330 133.700  1.00  0.00     0.015 A 
BRANCH   5   8
HETATM    8  C3  UNL     1      87.121 120.998 136.855  1.00  0.00     0.008 A 
HETATM    9  C2  UNL     1      87.803 121.793 137.766  1.00  0.00     0.123 A 
HETATM   10  N1  UNL     1      87.178 121.820 138.936  1.00  0.00    -0.307 N 
HETATM   11  C1  UNL     1      87.537 122.544 140.134  1.00  0.00     0.177 C 
HETATM   12  N4  UNL     1      86.108 121.066 138.822  1.00  0.00    -0.310 N 
HETATM   13  C17 UNL     1      86.012 120.528 137.571  1.00  0.00     0.120 A 
ATOM     14  H4  UNL     1      85.435 120.903 139.571  1.00  0.00     0.186 HD
ENDBRANCH   5   8
ENDBRANCH   1   2
BRANCH   1  15
HETATM   15  N2  UNL     1      89.774 120.059 130.806  1.00  0.00    -0.297 N 
HETATM   16  C9  UNL     1      90.526 118.887 130.639  1.00  0.00     0.366 C 
HETATM   17  O1  UNL     1      90.065 117.775 131.029  1.00  0.00    -0.238 OA
ATOM     18  H2  UNL     1      90.235 120.920 130.513  1.00  0.00     0.171 HD
BRANCH  16  19
HETATM   19  O2  UNL     1      91.752 118.879 130.053  1.00  0.00    -0.294 OA
BRANCH  19  20
HETATM   20  C10 UNL     1      92.078 118.943 128.702  1.00  0.00     0.061 C 
HETATM   21  C11 UNL     1      93.086 117.798 128.457  1.00  0.00     0.046 C 
HETATM   22  C12 UNL     1      90.799 118.520 127.902  1.00  0.00     0.046 C 
HETATM   23  C13 UNL     1      92.592 120.216 128.185  1.00  0.00     0.046 C 
ENDBRANCH  19  20
ENDBRANCH  16  19
ENDBRANCH   1  15
BRANCH   1  24
HETATM   24  C14 UNL     1      87.656 121.020 130.321  1.00  0.00     0.292 C 
HETATM   25  O3  UNL     1      88.201 121.498 129.323  1.00  0.00    -0.264 OA
HETATM   26  N3  UNL     1      86.250 121.275 130.525  1.00  0.00    -0.232 N 
ATOM     27  H3  UNL     1      85.781 120.878 131.339  1.00  0.00     0.197 HD
BRANCH  26  28
HETATM   28  O4  UNL     1      85.527 122.051 129.631  1.00  0.00    -0.287 OA
ATOM     29  H4  UNL     1      84.729 122.492 129.900  1.00  0.00     0.244 HD
ENDBRANCH  26  28
ENDBRANCH   1  24
TORSDOF 7
ENDMDL
