MODEL 9
REMARK VINA RESULT: -9.131845371      1.260      1.885
REMARK  7 active torsions:
REMARK  status: ('A' for Active; 'I' for Inactive)
REMARK    1  A    between atoms: C3_4  and  C4_5 
REMARK    2  A    between atoms: C7_8  and  C8_9 
REMARK    3  A    between atoms: C8_9  and  N2_10 
REMARK    4  A    between atoms: C8_9  and  C14_19 
REMARK       I    between atoms: N2_10  and  C9_12 
REMARK    5  A    between atoms: C9_12  and  O2_14 
REMARK    6  A    between atoms: O2_14  and  C10_15 
REMARK       I    between atoms: C14_19  and  N3_21 
REMARK    7  A    between atoms: N3_21  and  O4_23 
ROOT
HETATM    1  C8  UNL     1      89.094 119.549 131.050  1.00  0.00     0.117 C 
ENDROOT
BRANCH   1   2
HETATM    2  C7  UNL     1      88.698 120.061 132.328  1.00  0.00    -0.004 A 
HETATM    3  C6  UNL     1      88.580 119.139 133.383  1.00  0.00     0.015 A 
HETATM    4  C5  UNL     1      88.195 119.515 134.613  1.00  0.00     0.013 A 
HETATM    5  C4  UNL     1      87.880 120.835 134.946  1.00  0.00    -0.023 A 
HETATM    6  C16 UNL     1      87.984 121.737 133.957  1.00  0.00     0.013 A 
HETATM    7  C15 UNL     1      88.389 121.359 132.671  1.00  0.00     0.015 A 
BRANCH   5   8
HETATM    8  C3  UNL     1      87.474 121.056 136.335  1.00  0.00     0.008 A 
HETATM    9  C2  UNL     1      86.327 120.610 136.979  1.00  0.00     0.123 A 
HETATM   10  N1  UNL     1      86.265 121.077 138.220  1.00  0.00    -0.307 N 
HETATM   11  C1  UNL     1      85.259 120.832 139.228  1.00  0.00     0.177 C 
HETATM   12  N4  UNL     1      87.335 121.818 138.409  1.00  0.00    -0.310 N 
HETATM   13  C17 UNL     1      88.119 121.850 137.292  1.00  0.00     0.120 A 
ATOM     14  H4  UNL     1      87.552 122.305 139.279  1.00  0.00     0.186 HD
ENDBRANCH   5   8
ENDBRANCH   1   2
BRANCH   1  15
HETATM   15  N2  UNL     1      90.389 118.969 130.791  1.00  0.00    -0.297 N 
HETATM   16  C9  UNL     1      90.798 117.630 130.890  1.00  0.00     0.366 C 
HETATM   17  O1  UNL     1      89.992 116.750 131.310  1.00  0.00    -0.238 OA
ATOM     18  H2  UNL     1      91.111 119.625 130.493  1.00  0.00     0.171 HD
BRANCH  16  19
HETATM   19  O2  UNL     1      92.043 117.214 130.538  1.00  0.00    -0.294 OA
BRANCH  19  20
HETATM   20  C10 UNL     1      92.553 116.952 129.270  1.00  0.00     0.061 C 
HETATM   21  C11 UNL     1      93.550 115.785 129.452  1.00  0.00     0.046 C 
HETATM   22  C12 UNL     1      91.384 116.343 128.424  1.00  0.00     0.046 C 
HETATM   23  C13 UNL     1      93.172 118.064 128.541  1.00  0.00     0.046 C 
ENDBRANCH  19  20
ENDBRANCH  16  19
ENDBRANCH   1  15
BRANCH   1  24
HETATM   24  C14 UNL     1      88.623 120.177 129.760  1.00  0.00     0.292 C 
HETATM   25  O3  UNL     1      88.662 119.556 128.696  1.00  0.00    -0.264 OA
HETATM   26  N3  UNL     1      88.150 121.540 129.744  1.00  0.00    -0.232 N 
ATOM     27  H3  UNL     1      88.100 122.065 130.618  1.00  0.00     0.197 HD
BRANCH  26  28
HETATM   28  O4  UNL     1      87.762 122.150 128.560  1.00  0.00    -0.287 OA
ATOM     29  H4  UNL     1      87.374 123.017 128.559  1.00  0.00     0.244 HD
ENDBRANCH  26  28
ENDBRANCH   1  24
TORSDOF 7
ENDMDL
