MODEL 1
REMARK VINA RESULT: -9.519537781      0.000      0.000
REMARK  7 active torsions:
REMARK  status: ('A' for Active; 'I' for Inactive)
REMARK    1  A    between atoms: C3_4  and  C4_5 
REMARK    2  A    between atoms: C7_8  and  C8_9 
REMARK    3  A    between atoms: C8_9  and  N2_10 
REMARK    4  A    between atoms: C8_9  and  C14_19 
REMARK       I    between atoms: N2_10  and  C9_12 
REMARK    5  A    between atoms: C9_12  and  O2_14 
REMARK    6  A    between atoms: O2_14  and  C10_15 
REMARK       I    between atoms: C14_19  and  N3_21 
REMARK    7  A    between atoms: N3_21  and  O4_23 
ROOT
HETATM    1  C8  UNL     1      88.584 120.118 131.182  1.00  0.00     0.117 C 
ENDROOT
BRANCH   1   2
HETATM    2  C7  UNL     1      88.426 120.318 132.592  1.00  0.00    -0.004 A 
HETATM    3  C6  UNL     1      88.328 121.644 133.047  1.00  0.00     0.015 A 
HETATM    4  C5  UNL     1      88.199 121.939 134.351  1.00  0.00     0.013 A 
HETATM    5  C4  UNL     1      88.155 120.967 135.354  1.00  0.00    -0.023 A 
HETATM    6  C16 UNL     1      88.247 119.690 134.947  1.00  0.00     0.013 A 
HETATM    7  C15 UNL     1      88.377 119.370 133.590  1.00  0.00     0.015 A 
BRANCH   5   8
HETATM    8  C3  UNL     1      88.016 121.474 136.720  1.00  0.00     0.008 A 
HETATM    9  C2  UNL     1      87.011 121.207 137.641  1.00  0.00     0.123 A 
HETATM   10  N1  UNL     1      87.183 121.913 138.751  1.00  0.00    -0.307 N 
HETATM   11  C1  UNL     1      86.384 121.909 139.955  1.00  0.00     0.177 C 
HETATM   12  N4  UNL     1      88.268 122.637 138.587  1.00  0.00    -0.310 N 
HETATM   13  C17 UNL     1      88.829 122.418 137.362  1.00  0.00     0.120 A 
ATOM     14  H4  UNL     1      88.643 123.279 139.286  1.00  0.00     0.186 HD
ENDBRANCH   5   8
ENDBRANCH   1   2
BRANCH   1  15
HETATM   15  N2  UNL     1      89.856 119.857 130.552  1.00  0.00    -0.297 N 
HETATM   16  C9  UNL     1      90.570 118.653 130.458  1.00  0.00     0.366 C 
HETATM   17  O1  UNL     1      90.133 117.610 131.024  1.00  0.00    -0.238 OA
ATOM     18  H2  UNL     1      90.299 120.663 130.112  1.00  0.00     0.171 HD
BRANCH  16  19
HETATM   19  O2  UNL     1      91.731 118.541 129.761  1.00  0.00    -0.294 OA
BRANCH  19  20
HETATM   20  C10 UNL     1      91.946 118.663 128.392  1.00  0.00     0.061 C 
HETATM   21  C11 UNL     1      92.562 120.067 128.188  1.00  0.00     0.046 C 
HETATM   22  C12 UNL     1      93.098 117.670 128.018  1.00  0.00     0.046 C 
HETATM   23  C13 UNL     1      90.800 118.458 127.501  1.00  0.00     0.046 C 
ENDBRANCH  19  20
ENDBRANCH  16  19
ENDBRANCH   1  15
BRANCH   1  24
HETATM   24  C14 UNL     1      87.730 120.847 130.174  1.00  0.00     0.292 C 
HETATM   25  O3  UNL     1      88.167 121.140 129.059  1.00  0.00    -0.264 OA
HETATM   26  N3  UNL     1      86.387 121.253 130.515  1.00  0.00    -0.232 N 
ATOM     27  H3  UNL     1      86.006 121.009 131.429  1.00  0.00     0.197 HD
BRANCH  26  28
HETATM   28  O4  UNL     1      85.607 121.969 129.619  1.00  0.00    -0.287 OA
ATOM     29  H4  UNL     1      85.484 122.907 129.716  1.00  0.00     0.244 HD
ENDBRANCH  26  28
ENDBRANCH   1  24
TORSDOF 7
ENDMDL
