MODEL 12
REMARK VINA RESULT: -9.075305847      2.842      8.568
REMARK  7 active torsions:
REMARK  status: ('A' for Active; 'I' for Inactive)
REMARK    1  A    between atoms: C3_4  and  C4_5 
REMARK    2  A    between atoms: C7_8  and  C8_9 
REMARK    3  A    between atoms: C8_9  and  N2_10 
REMARK    4  A    between atoms: C8_9  and  C14_19 
REMARK       I    between atoms: N2_10  and  C9_12 
REMARK    5  A    between atoms: C9_12  and  O2_14 
REMARK    6  A    between atoms: O2_14  and  C10_15 
REMARK       I    between atoms: C14_19  and  N3_21 
REMARK    7  A    between atoms: N3_21  and  O4_23 
ROOT
HETATM    1  C8  UNL     1      89.098 120.481 130.634  1.00  0.00     0.117 C 
ENDROOT
BRANCH   1   2
HETATM    2  C7  UNL     1      89.696 119.313 130.058  1.00  0.00    -0.004 A 
HETATM    3  C6  UNL     1      89.814 119.274 128.658  1.00  0.00     0.015 A 
HETATM    4  C5  UNL     1      90.340 118.216 128.020  1.00  0.00     0.013 A 
HETATM    5  C4  UNL     1      90.806 117.078 128.683  1.00  0.00    -0.023 A 
HETATM    6  C16 UNL     1      90.705 117.088 130.023  1.00  0.00     0.013 A 
HETATM    7  C15 UNL     1      90.162 118.188 130.699  1.00  0.00     0.015 A 
BRANCH   5   8
HETATM    8  C3  UNL     1      91.342 116.021 127.824  1.00  0.00     0.008 A 
HETATM    9  C2  UNL     1      91.150 115.838 126.460  1.00  0.00     0.123 A 
HETATM   10  N1  UNL     1      91.731 114.721 126.043  1.00  0.00    -0.307 N 
HETATM   11  C1  UNL     1      91.792 114.182 124.703  1.00  0.00     0.177 C 
HETATM   12  N4  UNL     1      92.297 114.163 127.090  1.00  0.00    -0.310 N 
HETATM   13  C17 UNL     1      92.095 114.907 128.217  1.00  0.00     0.120 A 
ATOM     14  H4  UNL     1      92.819 113.287 127.064  1.00  0.00     0.186 HD
ENDBRANCH   5   8
ENDBRANCH   1   2
BRANCH   1  15
HETATM   15  N2  UNL     1      89.081 120.751 132.051  1.00  0.00    -0.297 N 
HETATM   16  C9  UNL     1      88.517 119.997 133.091  1.00  0.00     0.366 C 
HETATM   17  O1  UNL     1      87.867 118.944 132.832  1.00  0.00    -0.238 OA
ATOM     18  H2  UNL     1      89.545 121.613 132.338  1.00  0.00     0.171 HD
BRANCH  16  19
HETATM   19  O2  UNL     1      88.645 120.341 134.400  1.00  0.00    -0.294 OA
BRANCH  19  20
HETATM   20  C10 UNL     1      87.796 121.107 135.192  1.00  0.00     0.061 C 
HETATM   21  C11 UNL     1      87.074 120.107 136.122  1.00  0.00     0.046 C 
HETATM   22  C12 UNL     1      88.702 121.953 136.150  1.00  0.00     0.046 C 
HETATM   23  C13 UNL     1      86.835 121.981 134.511  1.00  0.00     0.046 C 
ENDBRANCH  19  20
ENDBRANCH  16  19
ENDBRANCH   1  15
BRANCH   1  24
HETATM   24  C14 UNL     1      87.860 121.114 130.046  1.00  0.00     0.292 C 
HETATM   25  O3  UNL     1      87.853 121.556 128.894  1.00  0.00    -0.264 OA
HETATM   26  N3  UNL     1      86.663 121.249 130.840  1.00  0.00    -0.232 N 
ATOM     27  H3  UNL     1      86.647 120.879 131.791  1.00  0.00     0.197 HD
BRANCH  26  28
HETATM   28  O4  UNL     1      85.533 121.874 130.333  1.00  0.00    -0.287 OA
ATOM     29  H4  UNL     1      84.997 122.436 130.881  1.00  0.00     0.244 HD
ENDBRANCH  26  28
ENDBRANCH   1  24
TORSDOF 7
ENDMDL
