MODEL 4
REMARK VINA RESULT: -10.222581956      5.108      8.237
REMARK  7 active torsions:
REMARK  status: ('A' for Active; 'I' for Inactive)
REMARK    1  A    between atoms: C2_2  and  O1_5 
REMARK    2  A    between atoms: O1_5  and  C5_6 
REMARK       I    between atoms: C5_6  and  N1_8 
REMARK    3  A    between atoms: N1_8  and  C6_10 
REMARK    4  A    between atoms: C6_10  and  C7_11 
REMARK    5  A    between atoms: C6_10  and  C8_17 
REMARK       I    between atoms: C7_11  and  N2_13 
REMARK    6  A    between atoms: N2_13  and  O4_15 
REMARK    7  A    between atoms: C11_20  and  C12_21 
ROOT
HETATM    1  C6  UNL     1      88.751 120.660 131.602  1.00  0.00     0.214 C 
ENDROOT
BRANCH   1   2
HETATM    2  N1  UNL     1      87.935 120.761 132.802  1.00  0.00    -0.319 N 
HETATM    3  C5  UNL     1      88.116 121.805 133.740  1.00  0.00     0.362 C 
HETATM    4  O2  UNL     1      89.020 122.646 133.494  1.00  0.00    -0.238 OA
ATOM      5  H1  UNL     1      87.212 120.061 132.972  1.00  0.00     0.166 HD
BRANCH   3   6
HETATM    6  O1  UNL     1      87.387 121.966 134.889  1.00  0.00    -0.294 OA
BRANCH   6   7
HETATM    7  C2  UNL     1      87.618 121.131 136.035  1.00  0.00     0.061 C 
HETATM    8  C1  UNL     1      88.568 121.857 136.978  1.00  0.00     0.046 C 
HETATM    9  C3  UNL     1      86.343 120.775 136.726  1.00  0.00     0.046 C 
HETATM   10  C4  UNL     1      88.317 119.864 135.604  1.00  0.00     0.046 C 
ENDBRANCH   6   7
ENDBRANCH   3   6
ENDBRANCH   1   2
BRANCH   1  11
HETATM   11  C7  UNL     1      87.957 121.039 130.394  1.00  0.00     0.268 C 
HETATM   12  O3  UNL     1      86.737 120.821 130.401  1.00  0.00    -0.269 OA
HETATM   13  N2  UNL     1      88.530 121.633 129.257  1.00  0.00    -0.235 N 
ATOM     14  H2  UNL     1      89.533 121.820 129.237  1.00  0.00     0.197 HD
BRANCH  13  15
HETATM   15  O4  UNL     1      87.768 121.961 128.185  1.00  0.00    -0.287 OA
ATOM     16  H4  UNL     1      88.086 121.823 127.300  1.00  0.00     0.244 HD
ENDBRANCH  13  15
ENDBRANCH   1  11
BRANCH   1  17
HETATM   17  C8  UNL     1      89.376 119.339 131.457  1.00  0.00    -0.026 A 
HETATM   18  C9  UNL     1      90.185 118.995 130.382  1.00  0.00     0.010 A 
HETATM   19  C10 UNL     1      90.759 117.747 130.271  1.00  0.00     0.013 A 
HETATM   20  C11 UNL     1      90.552 116.779 131.233  1.00  0.00    -0.026 A 
HETATM   21  C18 UNL     1      89.752 117.106 132.306  1.00  0.00     0.013 A 
HETATM   22  C19 UNL     1      89.174 118.366 132.413  1.00  0.00     0.010 A 
BRANCH  20  23
HETATM   23  C12 UNL     1      91.131 115.456 131.164  1.00  0.00    -0.020 A 
HETATM   24  C13 UNL     1      92.462 115.259 131.450  1.00  0.00     0.058 A 
HETATM   25  C14 UNL     1      93.014 113.977 131.382  1.00  0.00     0.158 A 
HETATM   26  F1  UNL     1      94.340 113.816 131.670  1.00  0.00    -0.203 F 
HETATM   27  C15 UNL     1      92.231 112.903 131.030  1.00  0.00     0.193 A 
HETATM   28  F2  UNL     1      92.771 111.650 130.964  1.00  0.00    -0.200 F 
HETATM   29  C16 UNL     1      90.897 113.095 130.744  1.00  0.00     0.158 A 
HETATM   30  F3  UNL     1      90.150 112.020 130.401  1.00  0.00    -0.203 F 
HETATM   31  C17 UNL     1      90.369 114.376 130.818  1.00  0.00     0.058 A 
ENDBRANCH  20  23
ENDBRANCH   1  17
TORSDOF 7
ENDMDL
