MODEL 2
REMARK VINA RESULT: -10.688628138      0.029      1.550
REMARK  7 active torsions:
REMARK  status: ('A' for Active; 'I' for Inactive)
REMARK    1  A    between atoms: C2_2  and  O1_5 
REMARK    2  A    between atoms: O1_5  and  C5_6 
REMARK       I    between atoms: C5_6  and  N1_8 
REMARK    3  A    between atoms: N1_8  and  C6_10 
REMARK    4  A    between atoms: C6_10  and  C7_11 
REMARK    5  A    between atoms: C6_10  and  C8_17 
REMARK       I    between atoms: C7_11  and  N2_13 
REMARK    6  A    between atoms: N2_13  and  O4_15 
REMARK    7  A    between atoms: C11_20  and  C12_21 
ROOT
HETATM    1  C6  UNL     1      88.838 119.842 130.712  1.00  0.00     0.214 C 
ENDROOT
BRANCH   1   2
HETATM    2  N1  UNL     1      90.233 119.998 130.330  1.00  0.00    -0.319 N 
HETATM    3  C5  UNL     1      91.097 118.885 130.194  1.00  0.00     0.362 C 
HETATM    4  O2  UNL     1      90.607 117.748 130.420  1.00  0.00    -0.238 OA
ATOM      5  H1  UNL     1      90.598 120.935 130.155  1.00  0.00     0.166 HD
BRANCH   3   6
HETATM    6  O1  UNL     1      92.418 118.954 129.837  1.00  0.00    -0.294 OA
BRANCH   6   7
HETATM    7  C2  UNL     1      92.852 118.562 128.525  1.00  0.00     0.061 C 
HETATM    8  C1  UNL     1      93.365 117.130 128.595  1.00  0.00     0.046 C 
HETATM    9  C3  UNL     1      91.757 118.692 127.518  1.00  0.00     0.046 C 
HETATM   10  C4  UNL     1      94.018 119.421 128.102  1.00  0.00     0.046 C 
ENDBRANCH   6   7
ENDBRANCH   3   6
ENDBRANCH   1   2
BRANCH   1  11
HETATM   11  C7  UNL     1      87.959 120.676 129.838  1.00  0.00     0.268 C 
HETATM   12  O3  UNL     1      88.424 121.100 128.769  1.00  0.00    -0.269 OA
HETATM   13  N2  UNL     1      86.632 121.000 130.172  1.00  0.00    -0.235 N 
ATOM     14  H2  UNL     1      86.235 120.658 131.047  1.00  0.00     0.197 HD
BRANCH  13  15
HETATM   15  O4  UNL     1      85.873 121.760 129.344  1.00  0.00    -0.287 OA
ATOM     16  H4  UNL     1      85.304 121.357 128.699  1.00  0.00     0.244 HD
ENDBRANCH  13  15
ENDBRANCH   1  11
BRANCH   1  17
HETATM   17  C8  UNL     1      88.612 120.112 132.137  1.00  0.00    -0.026 A 
HETATM   18  C9  UNL     1      88.681 119.129 133.116  1.00  0.00     0.010 A 
HETATM   19  C10 UNL     1      88.464 119.410 134.448  1.00  0.00     0.013 A 
HETATM   20  C11 UNL     1      88.168 120.691 134.868  1.00  0.00    -0.026 A 
HETATM   21  C18 UNL     1      88.097 121.676 133.907  1.00  0.00     0.013 A 
HETATM   22  C19 UNL     1      88.315 121.388 132.565  1.00  0.00     0.010 A 
BRANCH  20  23
HETATM   23  C12 UNL     1      87.932 121.039 136.251  1.00  0.00    -0.020 A 
HETATM   24  C13 UNL     1      86.843 120.535 136.923  1.00  0.00     0.058 A 
HETATM   25  C14 UNL     1      86.622 120.875 138.261  1.00  0.00     0.158 A 
HETATM   26  F1  UNL     1      85.529 120.359 138.898  1.00  0.00    -0.203 F 
HETATM   27  C15 UNL     1      87.492 121.713 138.915  1.00  0.00     0.193 A 
HETATM   28  F2  UNL     1      87.276 122.045 140.223  1.00  0.00    -0.200 F 
HETATM   29  C16 UNL     1      88.585 122.219 138.247  1.00  0.00     0.158 A 
HETATM   30  F3  UNL     1      89.427 123.043 138.916  1.00  0.00    -0.203 F 
HETATM   31  C17 UNL     1      88.786 121.870 136.919  1.00  0.00     0.058 A 
ENDBRANCH  20  23
ENDBRANCH   1  17
TORSDOF 7
ENDMDL
