MODEL 5
REMARK VINA RESULT: -10.096278573      5.284      8.368
REMARK  7 active torsions:
REMARK  status: ('A' for Active; 'I' for Inactive)
REMARK    1  A    between atoms: C2_2  and  O1_5 
REMARK    2  A    between atoms: O1_5  and  C5_6 
REMARK       I    between atoms: C5_6  and  N1_8 
REMARK    3  A    between atoms: N1_8  and  C6_10 
REMARK    4  A    between atoms: C6_10  and  C7_11 
REMARK    5  A    between atoms: C6_10  and  C8_17 
REMARK       I    between atoms: C7_11  and  N2_13 
REMARK    6  A    between atoms: N2_13  and  O4_15 
REMARK    7  A    between atoms: C11_20  and  C12_21 
ROOT
HETATM    1  C6  UNL     1      88.956 120.378 131.611  1.00  0.00     0.214 C 
ENDROOT
BRANCH   1   2
HETATM    2  N1  UNL     1      88.191 120.592 132.830  1.00  0.00    -0.319 N 
HETATM    3  C5  UNL     1      88.326 121.775 133.596  1.00  0.00     0.362 C 
HETATM    4  O2  UNL     1      89.141 122.638 133.178  1.00  0.00    -0.238 OA
ATOM      5  H1  UNL     1      87.540 119.870 133.142  1.00  0.00     0.166 HD
BRANCH   3   6
HETATM    6  O1  UNL     1      87.642 122.046 134.751  1.00  0.00    -0.294 OA
BRANCH   6   7
HETATM    7  C2  UNL     1      87.757 121.190 135.899  1.00  0.00     0.061 C 
HETATM    8  C1  UNL     1      88.584 121.909 136.957  1.00  0.00     0.046 C 
HETATM    9  C3  UNL     1      86.419 120.801 136.436  1.00  0.00     0.046 C 
HETATM   10  C4  UNL     1      88.521 119.943 135.524  1.00  0.00     0.046 C 
ENDBRANCH   6   7
ENDBRANCH   3   6
ENDBRANCH   1   2
BRANCH   1  11
HETATM   11  C7  UNL     1      88.177 120.832 130.419  1.00  0.00     0.268 C 
HETATM   12  O3  UNL     1      86.944 120.702 130.437  1.00  0.00    -0.269 OA
HETATM   13  N2  UNL     1      88.779 121.400 129.283  1.00  0.00    -0.235 N 
ATOM     14  H2  UNL     1      89.792 121.514 129.253  1.00  0.00     0.197 HD
BRANCH  13  15
HETATM   15  O4  UNL     1      88.030 121.798 128.225  1.00  0.00    -0.287 OA
ATOM     16  H4  UNL     1      88.430 122.229 127.479  1.00  0.00     0.244 HD
ENDBRANCH  13  15
ENDBRANCH   1  11
BRANCH   1  17
HETATM   17  C8  UNL     1      89.416 118.991 131.472  1.00  0.00    -0.026 A 
HETATM   18  C9  UNL     1      90.166 118.544 130.392  1.00  0.00     0.010 A 
HETATM   19  C10 UNL     1      90.586 117.236 130.287  1.00  0.00     0.013 A 
HETATM   20  C11 UNL     1      90.275 116.306 131.260  1.00  0.00    -0.026 A 
HETATM   21  C18 UNL     1      89.531 116.736 132.337  1.00  0.00     0.013 A 
HETATM   22  C19 UNL     1      89.110 118.057 132.439  1.00  0.00     0.010 A 
BRANCH  20  23
HETATM   23  C12 UNL     1      90.690 114.924 131.198  1.00  0.00    -0.020 A 
HETATM   24  C13 UNL     1      90.824 114.181 132.347  1.00  0.00     0.058 A 
HETATM   25  C14 UNL     1      91.225 112.844 132.279  1.00  0.00     0.158 A 
HETATM   26  F1  UNL     1      91.351 112.135 133.440  1.00  0.00    -0.203 F 
HETATM   27  C15 UNL     1      91.488 112.261 131.063  1.00  0.00     0.193 A 
HETATM   28  F2  UNL     1      91.879 110.953 130.996  1.00  0.00    -0.200 F 
HETATM   29  C16 UNL     1      91.354 113.000 129.908  1.00  0.00     0.158 A 
HETATM   30  F3  UNL     1      91.618 112.400 128.723  1.00  0.00    -0.203 F 
HETATM   31  C17 UNL     1      90.954 114.325 129.998  1.00  0.00     0.058 A 
ENDBRANCH  20  23
ENDBRANCH   1  17
TORSDOF 7
ENDMDL
