MODEL 3
REMARK VINA RESULT: -10.233344094      5.106      8.362
REMARK  7 active torsions:
REMARK  status: ('A' for Active; 'I' for Inactive)
REMARK    1  A    between atoms: C2_2  and  O1_5 
REMARK    2  A    between atoms: O1_5  and  C5_6 
REMARK       I    between atoms: C5_6  and  N1_8 
REMARK    3  A    between atoms: N1_8  and  C6_10 
REMARK    4  A    between atoms: C6_10  and  C7_11 
REMARK    5  A    between atoms: C6_10  and  C8_17 
REMARK       I    between atoms: C7_11  and  N2_13 
REMARK    6  A    between atoms: N2_13  and  O4_15 
REMARK    7  A    between atoms: C11_20  and  C12_21 
ROOT
HETATM    1  C6  UNL     1      88.753 120.672 131.610  1.00  0.00     0.214 C 
ENDROOT
BRANCH   1   2
HETATM    2  N1  UNL     1      87.940 120.781 132.811  1.00  0.00    -0.319 N 
HETATM    3  C5  UNL     1      88.134 121.822 133.751  1.00  0.00     0.362 C 
HETATM    4  O2  UNL     1      89.045 122.654 133.504  1.00  0.00    -0.238 OA
ATOM      5  H1  UNL     1      87.210 120.088 132.982  1.00  0.00     0.166 HD
BRANCH   3   6
HETATM    6  O1  UNL     1      87.408 121.989 134.901  1.00  0.00    -0.294 OA
BRANCH   6   7
HETATM    7  C2  UNL     1      87.625 121.144 136.042  1.00  0.00     0.061 C 
HETATM    8  C1  UNL     1      88.553 121.868 137.009  1.00  0.00     0.046 C 
HETATM    9  C3  UNL     1      86.341 120.772 136.707  1.00  0.00     0.046 C 
HETATM   10  C4  UNL     1      88.341 119.887 135.611  1.00  0.00     0.046 C 
ENDBRANCH   6   7
ENDBRANCH   3   6
ENDBRANCH   1   2
BRANCH   1  11
HETATM   11  C7  UNL     1      87.958 121.051 130.403  1.00  0.00     0.268 C 
HETATM   12  O3  UNL     1      86.735 120.845 130.416  1.00  0.00    -0.269 OA
HETATM   13  N2  UNL     1      88.532 121.630 129.259  1.00  0.00    -0.235 N 
ATOM     14  H2  UNL     1      89.537 121.807 129.233  1.00  0.00     0.197 HD
BRANCH  13  15
HETATM   15  O4  UNL     1      87.768 121.958 128.188  1.00  0.00    -0.287 OA
ATOM     16  H4  UNL     1      88.166 122.157 127.348  1.00  0.00     0.244 HD
ENDBRANCH  13  15
ENDBRANCH   1  11
BRANCH   1  17
HETATM   17  C8  UNL     1      89.372 119.349 131.469  1.00  0.00    -0.026 A 
HETATM   18  C9  UNL     1      90.188 119.002 130.400  1.00  0.00     0.010 A 
HETATM   19  C10 UNL     1      90.757 117.751 130.291  1.00  0.00     0.013 A 
HETATM   20  C11 UNL     1      90.536 116.782 131.250  1.00  0.00    -0.026 A 
HETATM   21  C18 UNL     1      89.728 117.112 132.316  1.00  0.00     0.013 A 
HETATM   22  C19 UNL     1      89.157 118.375 132.421  1.00  0.00     0.010 A 
BRANCH  20  23
HETATM   23  C12 UNL     1      91.108 115.456 131.183  1.00  0.00    -0.020 A 
HETATM   24  C13 UNL     1      90.338 114.381 130.809  1.00  0.00     0.058 A 
HETATM   25  C14 UNL     1      90.898 113.101 130.746  1.00  0.00     0.158 A 
HETATM   26  F1  UNL     1      90.105 112.054 130.372  1.00  0.00    -0.203 F 
HETATM   27  C15 UNL     1      92.223 112.909 131.058  1.00  0.00     0.193 A 
HETATM   28  F2  UNL     1      92.770 111.659 130.996  1.00  0.00    -0.200 F 
HETATM   29  C16 UNL     1      92.999 113.984 131.433  1.00  0.00     0.158 A 
HETATM   30  F3  UNL     1      94.301 113.766 131.734  1.00  0.00    -0.203 F 
HETATM   31  C17 UNL     1      92.423 115.245 131.489  1.00  0.00     0.058 A 
ENDBRANCH  20  23
ENDBRANCH   1  17
TORSDOF 7
ENDMDL
