MODEL 1
REMARK VINA RESULT: -10.707646730      0.000      0.000
REMARK  7 active torsions:
REMARK  status: ('A' for Active; 'I' for Inactive)
REMARK    1  A    between atoms: C2_2  and  O1_5 
REMARK    2  A    between atoms: O1_5  and  C5_6 
REMARK       I    between atoms: C5_6  and  N1_8 
REMARK    3  A    between atoms: N1_8  and  C6_10 
REMARK    4  A    between atoms: C6_10  and  C7_11 
REMARK    5  A    between atoms: C6_10  and  C8_17 
REMARK       I    between atoms: C7_11  and  N2_13 
REMARK    6  A    between atoms: N2_13  and  O4_15 
REMARK    7  A    between atoms: C11_20  and  C12_21 
ROOT
HETATM    1  C6  UNL     1      88.823 119.854 130.710  1.00  0.00     0.214 C 
ENDROOT
BRANCH   1   2
HETATM    2  N1  UNL     1      90.217 120.009 130.323  1.00  0.00    -0.319 N 
HETATM    3  C5  UNL     1      91.081 118.895 130.190  1.00  0.00     0.362 C 
HETATM    4  O2  UNL     1      90.593 117.759 130.424  1.00  0.00    -0.238 OA
ATOM      5  H1  UNL     1      90.581 120.945 130.142  1.00  0.00     0.166 HD
BRANCH   3   6
HETATM    6  O1  UNL     1      92.401 118.963 129.830  1.00  0.00    -0.294 OA
BRANCH   6   7
HETATM    7  C2  UNL     1      92.828 118.589 128.510  1.00  0.00     0.061 C 
HETATM    8  C1  UNL     1      93.353 117.160 128.560  1.00  0.00     0.046 C 
HETATM    9  C3  UNL     1      91.724 118.721 127.513  1.00  0.00     0.046 C 
HETATM   10  C4  UNL     1      93.984 119.462 128.087  1.00  0.00     0.046 C 
ENDBRANCH   6   7
ENDBRANCH   3   6
ENDBRANCH   1   2
BRANCH   1  11
HETATM   11  C7  UNL     1      87.941 120.689 129.839  1.00  0.00     0.268 C 
HETATM   12  O3  UNL     1      88.406 121.120 128.774  1.00  0.00    -0.269 OA
HETATM   13  N2  UNL     1      86.613 121.004 130.172  1.00  0.00    -0.235 N 
ATOM     14  H2  UNL     1      86.216 120.655 131.045  1.00  0.00     0.197 HD
BRANCH  13  15
HETATM   15  O4  UNL     1      85.852 121.765 129.348  1.00  0.00    -0.287 OA
ATOM     16  H4  UNL     1      85.776 121.556 128.424  1.00  0.00     0.244 HD
ENDBRANCH  13  15
ENDBRANCH   1  11
BRANCH   1  17
HETATM   17  C8  UNL     1      88.603 120.123 132.136  1.00  0.00    -0.026 A 
HETATM   18  C9  UNL     1      88.661 119.138 133.113  1.00  0.00     0.010 A 
HETATM   19  C10 UNL     1      88.450 119.419 134.446  1.00  0.00     0.013 A 
HETATM   20  C11 UNL     1      88.169 120.704 134.869  1.00  0.00    -0.026 A 
HETATM   21  C18 UNL     1      88.109 121.691 133.909  1.00  0.00     0.013 A 
HETATM   22  C19 UNL     1      88.322 121.403 132.567  1.00  0.00     0.010 A 
BRANCH  20  23
HETATM   23  C12 UNL     1      87.940 121.051 136.252  1.00  0.00    -0.020 A 
HETATM   24  C13 UNL     1      88.801 121.897 136.913  1.00  0.00     0.058 A 
HETATM   25  C14 UNL     1      88.572 122.229 138.251  1.00  0.00     0.158 A 
HETATM   26  F1  UNL     1      89.447 123.071 138.878  1.00  0.00    -0.203 F 
HETATM   27  C15 UNL     1      87.486 121.714 138.917  1.00  0.00     0.193 A 
HETATM   28  F2  UNL     1      87.263 122.039 140.225  1.00  0.00    -0.200 F 
HETATM   29  C16 UNL     1      86.621 120.867 138.260  1.00  0.00     0.158 A 
HETATM   30  F3  UNL     1      85.558 120.375 138.940  1.00  0.00    -0.203 F 
HETATM   31  C17 UNL     1      86.866 120.551 136.931  1.00  0.00     0.058 A 
ENDBRANCH  20  23
ENDBRANCH   1  17
TORSDOF 7
ENDMDL
