MODEL 15
REMARK VINA RESULT: -9.264121753      1.223      2.217
REMARK  7 active torsions:
REMARK  status: ('A' for Active; 'I' for Inactive)
REMARK    1  A    between atoms: C2_2  and  O1_5 
REMARK    2  A    between atoms: O1_5  and  C5_6 
REMARK       I    between atoms: C5_6  and  N1_8 
REMARK    3  A    between atoms: N1_8  and  C6_10 
REMARK    4  A    between atoms: C6_10  and  C7_11 
REMARK    5  A    between atoms: C6_10  and  C8_17 
REMARK       I    between atoms: C7_11  and  N2_13 
REMARK    6  A    between atoms: N2_13  and  O4_15 
REMARK    7  A    between atoms: C11_20  and  C12_21 
ROOT
HETATM    1  C6  UNL     1      89.424 118.901 130.934  1.00  0.00     0.214 C 
ENDROOT
BRANCH   1   2
HETATM    2  N1  UNL     1      90.798 118.431 130.856  1.00  0.00    -0.319 N 
HETATM    3  C5  UNL     1      91.113 117.050 130.845  1.00  0.00     0.362 C 
HETATM    4  O2  UNL     1      90.150 116.242 130.908  1.00  0.00    -0.238 OA
ATOM      5  H1  UNL     1      91.556 119.113 130.808  1.00  0.00     0.166 HD
BRANCH   3   6
HETATM    6  O1  UNL     1      92.380 116.533 130.773  1.00  0.00    -0.294 OA
BRANCH   6   7
HETATM    7  C2  UNL     1      92.995 116.254 129.505  1.00  0.00     0.061 C 
HETATM    8  C1  UNL     1      92.031 115.415 128.676  1.00  0.00     0.046 C 
HETATM    9  C3  UNL     1      93.372 117.508 128.785  1.00  0.00     0.046 C 
HETATM   10  C4  UNL     1      94.231 115.415 129.717  1.00  0.00     0.046 C 
ENDBRANCH   6   7
ENDBRANCH   3   6
ENDBRANCH   1   2
BRANCH   1  11
HETATM   11  C7  UNL     1      89.182 119.979 129.927  1.00  0.00     0.268 C 
HETATM   12  O3  UNL     1      90.137 120.363 129.236  1.00  0.00    -0.269 OA
HETATM   13  N2  UNL     1      87.924 120.574 129.729  1.00  0.00    -0.235 N 
ATOM     14  H2  UNL     1      87.129 120.268 130.290  1.00  0.00     0.197 HD
BRANCH  13  15
HETATM   15  O4  UNL     1      87.754 121.549 128.803  1.00  0.00    -0.287 OA
ATOM     16  H4  UNL     1      87.002 122.129 128.838  1.00  0.00     0.244 HD
ENDBRANCH  13  15
ENDBRANCH   1  11
BRANCH   1  17
HETATM   17  C8  UNL     1      89.049 119.320 132.289  1.00  0.00    -0.026 A 
HETATM   18  C9  UNL     1      88.990 118.444 133.366  1.00  0.00     0.010 A 
HETATM   19  C10 UNL     1      88.635 118.864 134.630  1.00  0.00     0.013 A 
HETATM   20  C11 UNL     1      88.320 120.185 134.880  1.00  0.00    -0.026 A 
HETATM   21  C18 UNL     1      88.375 121.065 133.821  1.00  0.00     0.013 A 
HETATM   22  C19 UNL     1      88.733 120.637 132.548  1.00  0.00     0.010 A 
BRANCH  20  23
HETATM   23  C12 UNL     1      87.942 120.676 136.185  1.00  0.00    -0.020 A 
HETATM   24  C13 UNL     1      86.822 120.190 136.818  1.00  0.00     0.058 A 
HETATM   25  C14 UNL     1      86.463 120.669 138.081  1.00  0.00     0.158 A 
HETATM   26  F1  UNL     1      85.344 120.166 138.682  1.00  0.00    -0.203 F 
HETATM   27  C15 UNL     1      87.227 121.630 138.700  1.00  0.00     0.193 A 
HETATM   28  F2  UNL     1      86.875 122.098 139.935  1.00  0.00    -0.200 F 
HETATM   29  C16 UNL     1      88.350 122.120 138.071  1.00  0.00     0.158 A 
HETATM   30  F3  UNL     1      89.084 123.066 138.704  1.00  0.00    -0.203 F 
HETATM   31  C17 UNL     1      88.688 121.630 136.818  1.00  0.00     0.058 A 
ENDBRANCH  20  23
ENDBRANCH   1  17
TORSDOF 7
ENDMDL
