MODEL 4
REMARK VINA RESULT: -9.668006203      3.796      9.191
REMARK  10 active torsions:
REMARK  status: ('A' for Active; 'I' for Inactive)
REMARK    1  A    between atoms: C2_2  and  O1_5 
REMARK    2  A    between atoms: O1_5  and  C5_6 
REMARK       I    between atoms: C5_6  and  N1_8 
REMARK    3  A    between atoms: N1_8  and  C6_10 
REMARK    4  A    between atoms: C6_10  and  C7_11 
REMARK    5  A    between atoms: C6_10  and  C8_17 
REMARK       I    between atoms: C7_11  and  N2_13 
REMARK    6  A    between atoms: N2_13  and  O4_15 
REMARK    7  A    between atoms: C11_20  and  C12_21 
REMARK    8  A    between atoms: C16_25  and  C17_26 
REMARK    9  A    between atoms: C17_26  and  N4_30 
REMARK   10  A    between atoms: N4_30  and  O5_32 
ROOT
HETATM    1  C8  UNL     1      89.657 119.388 131.498  1.00  0.00    -0.026 A 
HETATM    2  C9  UNL     1      90.507 119.087 130.454  1.00  0.00     0.010 A 
HETATM    3  C10 UNL     1      91.085 117.832 130.310  1.00  0.00     0.013 A 
HETATM    4  C11 UNL     1      90.816 116.841 131.226  1.00  0.00    -0.026 A 
HETATM    5  C19 UNL     1      89.968 117.151 132.264  1.00  0.00     0.013 A 
HETATM    6  C20 UNL     1      89.392 118.396 132.409  1.00  0.00     0.010 A 
ENDROOT
BRANCH   1   7
HETATM    7  C6  UNL     1      89.078 120.750 131.586  1.00  0.00     0.214 C 
BRANCH   7   8
HETATM    8  N1  UNL     1      88.303 120.807 132.792  1.00  0.00    -0.319 N 
HETATM    9  C5  UNL     1      88.389 121.894 133.709  1.00  0.00     0.362 C 
HETATM   10  O2  UNL     1      89.171 122.816 133.439  1.00  0.00    -0.238 OA
ATOM     11  H1  UNL     1      87.664 120.039 133.001  1.00  0.00     0.166 HD
BRANCH   9  12
HETATM   12  O1  UNL     1      87.652 121.962 134.870  1.00  0.00    -0.294 OA
BRANCH  12  13
HETATM   13  C2  UNL     1      87.941 121.040 135.921  1.00  0.00     0.061 C 
HETATM   14  C1  UNL     1      86.658 120.649 136.590  1.00  0.00     0.046 C 
HETATM   15  C3  UNL     1      88.729 119.863 135.436  1.00  0.00     0.046 C 
HETATM   16  C4  UNL     1      88.841 121.814 136.894  1.00  0.00     0.046 C 
ENDBRANCH  12  13
ENDBRANCH   9  12
ENDBRANCH   7   8
BRANCH   7  17
HETATM   17  C7  UNL     1      88.294 121.114 130.384  1.00  0.00     0.268 C 
HETATM   18  O3  UNL     1      87.031 121.044 130.335  1.00  0.00    -0.269 OA
HETATM   19  N2  UNL     1      88.942 121.567 129.201  1.00  0.00    -0.235 N 
ATOM     20  H2  UNL     1      89.960 121.637 129.200  1.00  0.00     0.197 HD
BRANCH  19  21
HETATM   21  O4  UNL     1      88.270 121.911 128.079  1.00  0.00    -0.287 OA
ATOM     22  H4  UNL     1      88.249 121.365 127.301  1.00  0.00     0.244 HD
ENDBRANCH  19  21
ENDBRANCH   7  17
ENDBRANCH   1   7
BRANCH   4  23
HETATM   23  C12 UNL     1      91.402 115.486 131.125  1.00  0.00    -0.025 A 
HETATM   24  C13 UNL     1      91.975 114.898 132.233  1.00  0.00     0.012 A 
HETATM   25  C14 UNL     1      92.523 113.646 132.155  1.00  0.00     0.002 A 
HETATM   26  C15 UNL     1      92.495 112.970 130.940  1.00  0.00     0.015 A 
HETATM   27  C16 UNL     1      91.930 113.533 129.822  1.00  0.00     0.010 A 
HETATM   28  C18 UNL     1      91.384 114.814 129.950  1.00  0.00     0.027 A 
BRANCH  27  29
HETATM   29  C17 UNL     1      91.891 112.838 128.547  1.00  0.00     0.129 C 
HETATM   30  N3  UNL     1      92.629 111.830 128.326  1.00  0.00    -0.383 N 
ATOM     31  H32 UNL     1      93.247 111.532 129.080  1.00  0.00     0.157 HD
ATOM     32  H31 UNL     1      92.602 111.343 127.430  1.00  0.00     0.157 HD
BRANCH  29  33
HETATM   33  N4  UNL     1      91.025 113.257 127.488  1.00  0.00    -0.253 N 
ATOM     34  H4  UNL     1      90.053 113.485 127.702  1.00  0.00     0.196 HD
BRANCH  33  35
HETATM   35  O5  UNL     1      91.460 113.360 126.209  1.00  0.00    -0.288 OA
ATOM     36  H5  UNL     1      90.857 113.455 125.482  1.00  0.00     0.244 HD
ENDBRANCH  33  35
ENDBRANCH  29  33
ENDBRANCH  27  29
ENDBRANCH   4  23
TORSDOF 10
ENDMDL
