MODEL 3
REMARK VINA RESULT: -9.710669831      3.968      9.206
REMARK  10 active torsions:
REMARK  status: ('A' for Active; 'I' for Inactive)
REMARK    1  A    between atoms: C2_2  and  O1_5 
REMARK    2  A    between atoms: O1_5  and  C5_6 
REMARK       I    between atoms: C5_6  and  N1_8 
REMARK    3  A    between atoms: N1_8  and  C6_10 
REMARK    4  A    between atoms: C6_10  and  C7_11 
REMARK    5  A    between atoms: C6_10  and  C8_17 
REMARK       I    between atoms: C7_11  and  N2_13 
REMARK    6  A    between atoms: N2_13  and  O4_15 
REMARK    7  A    between atoms: C11_20  and  C12_21 
REMARK    8  A    between atoms: C16_25  and  C17_26 
REMARK    9  A    between atoms: C17_26  and  N4_30 
REMARK   10  A    between atoms: N4_30  and  O5_32 
ROOT
HETATM    1  C8  UNL     1      89.679 119.355 131.524  1.00  0.00    -0.026 A 
HETATM    2  C9  UNL     1      89.343 118.418 132.480  1.00  0.00     0.010 A 
HETATM    3  C10 UNL     1      89.839 117.121 132.448  1.00  0.00     0.013 A 
HETATM    4  C11 UNL     1      90.695 116.734 131.442  1.00  0.00    -0.026 A 
HETATM    5  C19 UNL     1      91.023 117.676 130.495  1.00  0.00     0.013 A 
HETATM    6  C20 UNL     1      90.533 118.965 130.523  1.00  0.00     0.010 A 
ENDROOT
BRANCH   1   7
HETATM    7  C6  UNL     1      89.110 120.721 131.623  1.00  0.00     0.214 C 
BRANCH   7   8
HETATM    8  N1  UNL     1      88.318 120.768 132.818  1.00  0.00    -0.319 N 
HETATM    9  C5  UNL     1      88.389 121.849 133.743  1.00  0.00     0.362 C 
HETATM   10  O2  UNL     1      89.170 122.775 133.488  1.00  0.00    -0.238 OA
ATOM     11  H1  UNL     1      87.679 119.996 133.013  1.00  0.00     0.166 HD
BRANCH   9  12
HETATM   12  O1  UNL     1      87.635 121.908 134.893  1.00  0.00    -0.294 OA
BRANCH  12  13
HETATM   13  C2  UNL     1      87.944 121.013 135.962  1.00  0.00     0.061 C 
HETATM   14  C1  UNL     1      86.675 120.647 136.671  1.00  0.00     0.046 C 
HETATM   15  C3  UNL     1      88.714 119.819 135.489  1.00  0.00     0.046 C 
HETATM   16  C4  UNL     1      88.871 121.807 136.892  1.00  0.00     0.046 C 
ENDBRANCH  12  13
ENDBRANCH   9  12
ENDBRANCH   7   8
BRANCH   7  17
HETATM   17  C7  UNL     1      88.346 121.107 130.414  1.00  0.00     0.268 C 
HETATM   18  O3  UNL     1      87.082 121.072 130.355  1.00  0.00    -0.269 OA
HETATM   19  N2  UNL     1      89.016 121.544 129.237  1.00  0.00    -0.235 N 
ATOM     20  H2  UNL     1      90.035 121.585 129.245  1.00  0.00     0.197 HD
BRANCH  19  21
HETATM   21  O4  UNL     1      88.363 121.906 128.110  1.00  0.00    -0.287 OA
ATOM     22  H4  UNL     1      88.129 121.290 127.426  1.00  0.00     0.244 HD
ENDBRANCH  19  21
ENDBRANCH   7  17
ENDBRANCH   1   7
BRANCH   4  23
HETATM   23  C12 UNL     1      91.254 115.367 131.357  1.00  0.00    -0.025 A 
HETATM   24  C13 UNL     1      91.735 114.747 132.491  1.00  0.00     0.012 A 
HETATM   25  C14 UNL     1      92.257 113.483 132.428  1.00  0.00     0.002 A 
HETATM   26  C15 UNL     1      92.296 112.827 131.202  1.00  0.00     0.015 A 
HETATM   27  C16 UNL     1      91.824 113.423 130.059  1.00  0.00     0.010 A 
HETATM   28  C18 UNL     1      91.300 114.715 130.171  1.00  0.00     0.027 A 
BRANCH  27  29
HETATM   29  C17 UNL     1      91.856 112.751 128.772  1.00  0.00     0.129 C 
HETATM   30  N3  UNL     1      91.104 113.120 127.819  1.00  0.00    -0.383 N 
ATOM     31  H32 UNL     1      90.480 113.906 127.997  1.00  0.00     0.157 HD
ATOM     32  H31 UNL     1      91.127 112.647 126.915  1.00  0.00     0.157 HD
BRANCH  29  33
HETATM   33  N4  UNL     1      92.732 111.646 128.521  1.00  0.00    -0.253 N 
ATOM     34  H4  UNL     1      93.073 111.094 129.309  1.00  0.00     0.196 HD
BRANCH  33  35
HETATM   35  O5  UNL     1      93.119 111.314 127.266  1.00  0.00    -0.288 OA
ATOM     36  H5  UNL     1      93.458 110.451 127.060  1.00  0.00     0.244 HD
ENDBRANCH  33  35
ENDBRANCH  29  33
ENDBRANCH  27  29
ENDBRANCH   4  23
TORSDOF 10
ENDMDL
