MODEL 5
REMARK VINA RESULT: -9.602129429      3.851      9.109
REMARK  10 active torsions:
REMARK  status: ('A' for Active; 'I' for Inactive)
REMARK    1  A    between atoms: C2_2  and  O1_5 
REMARK    2  A    between atoms: O1_5  and  C5_6 
REMARK       I    between atoms: C5_6  and  N1_8 
REMARK    3  A    between atoms: N1_8  and  C6_10 
REMARK    4  A    between atoms: C6_10  and  C7_11 
REMARK    5  A    between atoms: C6_10  and  C8_17 
REMARK       I    between atoms: C7_11  and  N2_13 
REMARK    6  A    between atoms: N2_13  and  O4_15 
REMARK    7  A    between atoms: C11_20  and  C12_21 
REMARK    8  A    between atoms: C16_25  and  C17_26 
REMARK    9  A    between atoms: C17_26  and  N4_30 
REMARK   10  A    between atoms: N4_30  and  O5_32 
ROOT
HETATM    1  C8  UNL     1      89.660 119.364 131.530  1.00  0.00    -0.026 A 
HETATM    2  C9  UNL     1      89.326 118.422 132.481  1.00  0.00     0.010 A 
HETATM    3  C10 UNL     1      89.831 117.128 132.447  1.00  0.00     0.013 A 
HETATM    4  C11 UNL     1      90.695 116.751 131.445  1.00  0.00    -0.026 A 
HETATM    5  C19 UNL     1      91.020 117.698 130.502  1.00  0.00     0.013 A 
HETATM    6  C20 UNL     1      90.521 118.983 130.531  1.00  0.00     0.010 A 
ENDROOT
BRANCH   1   7
HETATM    7  C6  UNL     1      89.080 120.725 131.630  1.00  0.00     0.214 C 
BRANCH   7   8
HETATM    8  N1  UNL     1      88.274 120.760 132.816  1.00  0.00    -0.319 N 
HETATM    9  C5  UNL     1      88.342 121.827 133.758  1.00  0.00     0.362 C 
HETATM   10  O2  UNL     1      89.133 122.751 133.527  1.00  0.00    -0.238 OA
ATOM     11  H1  UNL     1      87.629 119.990 132.993  1.00  0.00     0.166 HD
BRANCH   9  12
HETATM   12  O1  UNL     1      87.575 121.874 134.901  1.00  0.00    -0.294 OA
BRANCH  12  13
HETATM   13  C2  UNL     1      87.946 121.054 136.009  1.00  0.00     0.061 C 
HETATM   14  C1  UNL     1      88.957 121.788 136.839  1.00  0.00     0.046 C 
HETATM   15  C3  UNL     1      86.757 120.606 136.800  1.00  0.00     0.046 C 
HETATM   16  C4  UNL     1      88.572 119.799 135.385  1.00  0.00     0.046 C 
ENDBRANCH  12  13
ENDBRANCH   9  12
ENDBRANCH   7   8
BRANCH   7  17
HETATM   17  C7  UNL     1      88.327 121.113 130.415  1.00  0.00     0.268 C 
HETATM   18  O3  UNL     1      87.063 121.100 130.352  1.00  0.00    -0.269 OA
HETATM   19  N2  UNL     1      89.008 121.527 129.237  1.00  0.00    -0.235 N 
ATOM     20  H2  UNL     1      90.028 121.552 129.247  1.00  0.00     0.197 HD
BRANCH  19  21
HETATM   21  O4  UNL     1      88.366 121.891 128.104  1.00  0.00    -0.287 OA
ATOM     22  H4  UNL     1      88.692 121.688 127.235  1.00  0.00     0.244 HD
ENDBRANCH  19  21
ENDBRANCH   7  17
ENDBRANCH   1   7
BRANCH   4  23
HETATM   23  C12 UNL     1      91.264 115.388 131.358  1.00  0.00    -0.025 A 
HETATM   24  C13 UNL     1      91.770 114.779 132.486  1.00  0.00     0.012 A 
HETATM   25  C14 UNL     1      92.301 113.519 132.422  1.00  0.00     0.002 A 
HETATM   26  C15 UNL     1      92.325 112.856 131.200  1.00  0.00     0.015 A 
HETATM   27  C16 UNL     1      91.827 113.441 130.061  1.00  0.00     0.010 A 
HETATM   28  C18 UNL     1      91.295 114.729 130.175  1.00  0.00     0.027 A 
BRANCH  27  29
HETATM   29  C17 UNL     1      91.843 112.761 128.778  1.00  0.00     0.129 C 
HETATM   30  N3  UNL     1      92.554 111.727 128.591  1.00  0.00    -0.383 N 
ATOM     31  H32 UNL     1      93.111 111.398 129.379  1.00  0.00     0.157 HD
ATOM     32  H31 UNL     1      92.565 111.250 127.690  1.00  0.00     0.157 HD
BRANCH  29  33
HETATM   33  N4  UNL     1      91.062 113.224 127.671  1.00  0.00    -0.253 N 
ATOM     34  H4  UNL     1      90.088 113.489 127.826  1.00  0.00     0.196 HD
BRANCH  33  35
HETATM   35  O5  UNL     1      91.581 113.319 126.423  1.00  0.00    -0.288 OA
ATOM     36  H5  UNL     1      91.802 114.158 126.038  1.00  0.00     0.244 HD
ENDBRANCH  33  35
ENDBRANCH  29  33
ENDBRANCH  27  29
ENDBRANCH   4  23
TORSDOF 10
ENDMDL
