MODEL 2
REMARK VINA RESULT: -6.691800993      3.020      7.169
REMARK  19 active torsions:
REMARK  status: ('A' for Active; 'I' for Inactive)
REMARK    1  A    between atoms: C2_2  and  O2_4 
REMARK    2  A    between atoms: O2_4  and  C3_5 
REMARK    3  A    between atoms: C3_5  and  C4_6 
REMARK    4  A    between atoms: C5_8  and  S1_9 
REMARK    5  A    between atoms: S1_9  and  N1_12 
REMARK    6  A    between atoms: N1_12  and  C6_14 
REMARK    7  A    between atoms: C6_14  and  C7_15 
REMARK    8  A    between atoms: C7_15  and  C8_16 
REMARK    9  A    between atoms: C8_16  and  C9_17 
REMARK   10  A    between atoms: C9_17  and  C10_18 
REMARK   11  A    between atoms: C10_18  and  O6_19 
REMARK   12  A    between atoms: O6_19  and  S2_20 
REMARK   13  A    between atoms: S2_20  and  N2_21 
REMARK   14  A    between atoms: C11_26  and  O9_27 
REMARK   15  A    between atoms: O9_27  and  C12_28 
REMARK   16  A    between atoms: C14_31  and  O11_32 
REMARK   17  A    between atoms: O11_32  and  C15_33 
REMARK   18  A    between atoms: C17_36  and  O13_37 
REMARK   19  A    between atoms: O13_37  and  C18_38 
ROOT
HETATM    1  C4  UNL     1       1.003   8.535  79.639  1.00  0.00     0.180 C 
HETATM    2  O3  UNL     1       2.018   8.022  80.445  1.00  0.00    -0.356 OA
HETATM    3  C5  UNL     1       2.665   6.949  79.870  1.00  0.00     0.296 C 
HETATM    4  C11 UNL     1       1.665   5.999  79.193  1.00  0.00     0.209 C 
HETATM    5  C14 UNL     1       0.369   6.149  79.942  1.00  0.00     0.197 C 
HETATM    6  C17 UNL     1      -0.147   7.557  79.704  1.00  0.00     0.195 C 
ENDROOT
BRANCH   3   7
HETATM    7  S1  UNL     1       3.549   6.076  81.112  1.00  0.00     0.256 S 
HETATM    8  O4  UNL     1       4.262   4.889  80.505  1.00  0.00    -0.203 OA
HETATM    9  O5  UNL     1       4.641   6.959  81.697  1.00  0.00    -0.203 OA
BRANCH   7  10
HETATM   10  N1  UNL     1       2.596   5.514  82.405  1.00  0.00    -0.317 N 
ATOM     11  H1  UNL     1       2.021   4.674  82.340  1.00  0.00     0.172 HD
BRANCH  10  12
HETATM   12  C6  UNL     1       2.663   6.302  83.579  1.00  0.00     0.132 C 
BRANCH  12  13
HETATM   13  C7  UNL     1       1.436   7.011  84.006  1.00  0.00     0.020 C 
BRANCH  13  14
HETATM   14  C8  UNL     1       0.140   6.423  83.579  1.00  0.00     0.004 C 
BRANCH  14  15
HETATM   15  C9  UNL     1      -0.725   5.885  84.670  1.00  0.00     0.028 C 
BRANCH  15  16
HETATM   16  C10 UNL     1      -0.209   4.577  85.229  1.00  0.00     0.192 C 
BRANCH  16  17
HETATM   17  O6  UNL     1      -1.077   4.101  86.242  1.00  0.00    -0.260 OA
BRANCH  17  18
HETATM   18  S2  UNL     1      -1.033   2.434  86.280  1.00  0.00     0.355 S 
HETATM   19  O7  UNL     1      -0.754   1.902  87.665  1.00  0.00    -0.176 OA
HETATM   20  O8  UNL     1      -2.344   1.867  85.817  1.00  0.00    -0.176 OA
BRANCH  18  21
HETATM   21  N2  UNL     1       0.206   1.862  85.229  1.00  0.00    -0.306 N 
ATOM     22  H22 UNL     1       1.193   2.106  85.316  1.00  0.00     0.171 HD
ATOM     23  H21 UNL     1      -0.199   1.251  84.519  1.00  0.00     0.171 HD
ENDBRANCH  18  21
ENDBRANCH  17  18
ENDBRANCH  16  17
ENDBRANCH  15  16
ENDBRANCH  14  15
ENDBRANCH  13  14
ENDBRANCH  12  13
ENDBRANCH  10  12
ENDBRANCH   7  10
ENDBRANCH   3   7
BRANCH   4  24
HETATM   24  O9  UNL     1       1.578   6.384  77.847  1.00  0.00    -0.310 OA
BRANCH  24  25
HETATM   25  C12 UNL     1       2.629   6.398  76.959  1.00  0.00     0.255 C 
HETATM   26  C13 UNL     1       2.983   7.575  76.115  1.00  0.00     0.126 C 
HETATM   27  O10 UNL     1       3.331   5.374  76.847  1.00  0.00    -0.266 OA
ENDBRANCH  24  25
ENDBRANCH   4  24
BRANCH   1  28
HETATM   28  C3  UNL     1       0.635   9.889  80.194  1.00  0.00     0.213 C 
BRANCH  28  29
HETATM   29  O2  UNL     1       0.996   9.938  81.551  1.00  0.00    -0.319 OA
BRANCH  29  30
HETATM   30  C2  UNL     1       0.156  10.144  82.609  1.00  0.00     0.254 C 
HETATM   31  C1  UNL     1      -1.254   9.637  82.643  1.00  0.00     0.126 C 
HETATM   32  O1  UNL     1       0.546  10.778  83.607  1.00  0.00    -0.266 OA
ENDBRANCH  29  30
ENDBRANCH  28  29
ENDBRANCH   1  28
BRANCH   5  33
HETATM   33  O11 UNL     1      -0.604   5.205  79.548  1.00  0.00    -0.311 OA
BRANCH  33  34
HETATM   34  C15 UNL     1      -0.634   3.904  79.984  1.00  0.00     0.255 C 
HETATM   35  C16 UNL     1      -0.210   3.581  81.356  1.00  0.00     0.126 C 
HETATM   36  O12 UNL     1      -1.016   2.998  79.222  1.00  0.00    -0.266 OA
ENDBRANCH  33  34
ENDBRANCH   5  33
BRANCH   6  37
HETATM   37  O13 UNL     1      -0.856   7.562  78.500  1.00  0.00    -0.311 OA
BRANCH  37  38
HETATM   38  C18 UNL     1      -1.708   8.607  78.172  1.00  0.00     0.255 C 
HETATM   39  C19 UNL     1      -2.905   8.860  78.981  1.00  0.00     0.126 C 
HETATM   40  O14 UNL     1      -1.450   9.331  77.179  1.00  0.00    -0.266 OA
ENDBRANCH  37  38
ENDBRANCH   6  37
TORSDOF 19
ENDMDL
