MODEL 3
REMARK VINA RESULT: -6.663972163      1.556      2.220
REMARK  19 active torsions:
REMARK  status: ('A' for Active; 'I' for Inactive)
REMARK    1  A    between atoms: C2_2  and  O2_4 
REMARK    2  A    between atoms: O2_4  and  C3_5 
REMARK    3  A    between atoms: C3_5  and  C4_6 
REMARK    4  A    between atoms: C5_8  and  S1_9 
REMARK    5  A    between atoms: S1_9  and  N1_12 
REMARK    6  A    between atoms: N1_12  and  C6_14 
REMARK    7  A    between atoms: C6_14  and  C7_15 
REMARK    8  A    between atoms: C7_15  and  C8_16 
REMARK    9  A    between atoms: C8_16  and  C9_17 
REMARK   10  A    between atoms: C9_17  and  C10_18 
REMARK   11  A    between atoms: C10_18  and  O6_19 
REMARK   12  A    between atoms: O6_19  and  S2_20 
REMARK   13  A    between atoms: S2_20  and  N2_21 
REMARK   14  A    between atoms: C11_26  and  O9_27 
REMARK   15  A    between atoms: O9_27  and  C12_28 
REMARK   16  A    between atoms: C14_31  and  O11_32 
REMARK   17  A    between atoms: O11_32  and  C15_33 
REMARK   18  A    between atoms: C17_36  and  O13_37 
REMARK   19  A    between atoms: O13_37  and  C18_38 
ROOT
HETATM    1  C4  UNL     1       0.608   5.696  84.111  1.00  0.00     0.180 C 
HETATM    2  O3  UNL     1       1.445   6.808  84.192  1.00  0.00    -0.356 OA
HETATM    3  C5  UNL     1       0.931   7.909  83.540  1.00  0.00     0.296 C 
HETATM    4  C11 UNL     1       0.306   7.512  82.194  1.00  0.00     0.209 C 
HETATM    5  C14 UNL     1       1.042   6.283  81.733  1.00  0.00     0.197 C 
HETATM    6  C17 UNL     1       0.725   5.159  82.702  1.00  0.00     0.195 C 
ENDROOT
BRANCH   3   7
HETATM    7  S1  UNL     1       2.223   9.068  83.264  1.00  0.00     0.256 S 
HETATM    8  O4  UNL     1       2.398   9.949  84.480  1.00  0.00    -0.203 OA
HETATM    9  O5  UNL     1       3.548   8.343  83.085  1.00  0.00    -0.203 OA
BRANCH   7  10
HETATM   10  N1  UNL     1       2.002  10.075  81.910  1.00  0.00    -0.317 N 
ATOM     11  H1  UNL     1       2.430   9.881  81.005  1.00  0.00     0.172 HD
BRANCH  10  12
HETATM   12  C6  UNL     1       1.177  11.203  82.137  1.00  0.00     0.132 C 
BRANCH  12  13
HETATM   13  C7  UNL     1      -0.134  11.249  81.454  1.00  0.00     0.020 C 
BRANCH  13  14
HETATM   14  C8  UNL     1      -0.243  10.522  80.163  1.00  0.00     0.004 C 
BRANCH  14  15
HETATM   15  C9  UNL     1      -0.003  11.333  78.933  1.00  0.00     0.028 C 
BRANCH  15  16
HETATM   16  C10 UNL     1      -1.121  11.201  77.923  1.00  0.00     0.192 C 
BRANCH  16  17
HETATM   17  O6  UNL     1      -1.177   9.876  77.425  1.00  0.00    -0.260 OA
BRANCH  17  18
HETATM   18  S2  UNL     1      -2.770   9.411  77.246  1.00  0.00     0.355 S 
HETATM   19  O7  UNL     1      -3.695  10.595  77.097  1.00  0.00    -0.176 OA
HETATM   20  O8  UNL     1      -2.925   8.541  76.031  1.00  0.00    -0.176 OA
BRANCH  18  21
HETATM   21  N2  UNL     1      -3.271   8.510  78.625  1.00  0.00    -0.306 N 
ATOM     22  H22 UNL     1      -2.747   7.732  79.027  1.00  0.00     0.171 HD
ATOM     23  H21 UNL     1      -4.161   8.874  78.969  1.00  0.00     0.171 HD
ENDBRANCH  18  21
ENDBRANCH  17  18
ENDBRANCH  16  17
ENDBRANCH  15  16
ENDBRANCH  14  15
ENDBRANCH  13  14
ENDBRANCH  12  13
ENDBRANCH  10  12
ENDBRANCH   7  10
ENDBRANCH   3   7
BRANCH   4  24
HETATM   24  O9  UNL     1      -1.059   7.290  82.423  1.00  0.00    -0.310 OA
BRANCH  24  25
HETATM   25  C12 UNL     1      -2.017   8.274  82.511  1.00  0.00     0.255 C 
HETATM   26  C13 UNL     1      -2.255   9.090  83.735  1.00  0.00     0.126 C 
HETATM   27  O10 UNL     1      -2.732   8.502  81.515  1.00  0.00    -0.266 OA
ENDBRANCH  24  25
ENDBRANCH   4  24
BRANCH   1  28
HETATM   28  C3  UNL     1       1.086   4.703  85.142  1.00  0.00     0.213 C 
BRANCH  28  29
HETATM   29  O2  UNL     1      -0.029   4.049  85.695  1.00  0.00    -0.319 OA
BRANCH  29  30
HETATM   30  C2  UNL     1      -0.152   2.708  85.925  1.00  0.00     0.254 C 
HETATM   31  C1  UNL     1      -1.366   2.094  86.554  1.00  0.00     0.126 C 
HETATM   32  O1  UNL     1       0.768   1.930  85.609  1.00  0.00    -0.266 OA
ENDBRANCH  29  30
ENDBRANCH  28  29
ENDBRANCH   1  28
BRANCH   5  33
HETATM   33  O11 UNL     1       0.700   5.899  80.419  1.00  0.00    -0.311 OA
BRANCH  33  34
HETATM   34  C15 UNL     1       0.359   6.782  79.424  1.00  0.00     0.255 C 
HETATM   35  C16 UNL     1       1.410   7.533  78.719  1.00  0.00     0.126 C 
HETATM   36  O12 UNL     1      -0.835   6.947  79.118  1.00  0.00    -0.266 OA
ENDBRANCH  33  34
ENDBRANCH   5  33
BRANCH   6  37
HETATM   37  O13 UNL     1      -0.479   4.572  82.307  1.00  0.00    -0.311 OA
BRANCH  37  38
HETATM   38  C18 UNL     1      -0.500   3.368  81.618  1.00  0.00     0.255 C 
HETATM   39  C19 UNL     1       0.274   2.225  82.113  1.00  0.00     0.126 C 
HETATM   40  O14 UNL     1      -1.183   3.263  80.570  1.00  0.00    -0.266 OA
ENDBRANCH  37  38
ENDBRANCH   6  37
TORSDOF 19
ENDMDL
