MODEL 1
REMARK VINA RESULT: -6.762175957      0.000      0.000
REMARK  19 active torsions:
REMARK  status: ('A' for Active; 'I' for Inactive)
REMARK    1  A    between atoms: C2_2  and  O2_4 
REMARK    2  A    between atoms: O2_4  and  C3_5 
REMARK    3  A    between atoms: C3_5  and  C4_6 
REMARK    4  A    between atoms: C5_8  and  S1_9 
REMARK    5  A    between atoms: S1_9  and  N1_12 
REMARK    6  A    between atoms: N1_12  and  C6_14 
REMARK    7  A    between atoms: C6_14  and  C7_15 
REMARK    8  A    between atoms: C7_15  and  C8_16 
REMARK    9  A    between atoms: C8_16  and  C9_17 
REMARK   10  A    between atoms: C9_17  and  C10_18 
REMARK   11  A    between atoms: C10_18  and  O6_19 
REMARK   12  A    between atoms: O6_19  and  S2_20 
REMARK   13  A    between atoms: S2_20  and  N2_21 
REMARK   14  A    between atoms: C11_26  and  O9_27 
REMARK   15  A    between atoms: O9_27  and  C12_28 
REMARK   16  A    between atoms: C14_31  and  O11_32 
REMARK   17  A    between atoms: O11_32  and  C15_33 
REMARK   18  A    between atoms: C17_36  and  O13_37 
REMARK   19  A    between atoms: O13_37  and  C18_38 
ROOT
HETATM    1  C4  UNL     1      -0.761   5.610  83.472  1.00  0.00     0.180 C 
HETATM    2  O3  UNL     1      -0.185   6.719  84.089  1.00  0.00    -0.356 OA
HETATM    3  C5  UNL     1       0.107   7.732  83.200  1.00  0.00     0.296 C 
HETATM    4  C11 UNL     1       0.712   7.171  81.904  1.00  0.00     0.209 C 
HETATM    5  C14 UNL     1       1.405   5.890  82.281  1.00  0.00     0.197 C 
HETATM    6  C17 UNL     1       0.344   4.900  82.725  1.00  0.00     0.195 C 
ENDROOT
BRANCH   3   7
HETATM    7  S1  UNL     1       1.250   8.839  83.946  1.00  0.00     0.256 S 
HETATM    8  O4  UNL     1       0.905   9.037  85.404  1.00  0.00    -0.203 OA
HETATM    9  O5  UNL     1       2.648   8.240  83.929  1.00  0.00    -0.203 OA
BRANCH   7  10
HETATM   10  N1  UNL     1       1.340  10.372  83.212  1.00  0.00    -0.317 N 
ATOM     11  H1  UNL     1       2.182  10.947  83.241  1.00  0.00     0.172 HD
BRANCH  10  12
HETATM   12  C6  UNL     1       0.155  10.789  82.560  1.00  0.00     0.132 C 
BRANCH  12  13
HETATM   13  C7  UNL     1       0.177  10.890  81.085  1.00  0.00     0.020 C 
BRANCH  13  14
HETATM   14  C8  UNL     1      -1.139  10.939  80.396  1.00  0.00     0.004 C 
BRANCH  14  15
HETATM   15  C9  UNL     1      -1.096  11.082  78.911  1.00  0.00     0.028 C 
BRANCH  15  16
HETATM   16  C10 UNL     1      -2.440  10.829  78.264  1.00  0.00     0.192 C 
BRANCH  16  17
HETATM   17  O6  UNL     1      -2.322  10.881  76.853  1.00  0.00    -0.260 OA
BRANCH  17  18
HETATM   18  S2  UNL     1      -2.670   9.383  76.207  1.00  0.00     0.355 S 
HETATM   19  O7  UNL     1      -3.349   9.485  74.863  1.00  0.00    -0.176 OA
HETATM   20  O8  UNL     1      -1.409   8.585  76.035  1.00  0.00    -0.176 OA
BRANCH  18  21
HETATM   21  N2  UNL     1      -3.716   8.520  77.270  1.00  0.00    -0.306 N 
ATOM     22  H22 UNL     1      -4.464   7.898  76.962  1.00  0.00     0.171 HD
ATOM     23  H21 UNL     1      -3.472   8.729  78.238  1.00  0.00     0.171 HD
ENDBRANCH  18  21
ENDBRANCH  17  18
ENDBRANCH  16  17
ENDBRANCH  15  16
ENDBRANCH  14  15
ENDBRANCH  13  14
ENDBRANCH  12  13
ENDBRANCH  10  12
ENDBRANCH   7  10
ENDBRANCH   3   7
BRANCH   4  24
HETATM   24  O9  UNL     1      -0.346   6.987  81.002  1.00  0.00    -0.310 OA
BRANCH  24  25
HETATM   25  C12 UNL     1      -0.354   7.414  79.694  1.00  0.00     0.255 C 
HETATM   26  C13 UNL     1       0.877   7.767  78.931  1.00  0.00     0.126 C 
HETATM   27  O10 UNL     1      -1.448   7.514  79.105  1.00  0.00    -0.266 OA
ENDBRANCH  24  25
ENDBRANCH   4  24
BRANCH   1  28
HETATM   28  C3  UNL     1      -1.358   4.753  84.562  1.00  0.00     0.213 C 
BRANCH  28  29
HETATM   29  O2  UNL     1      -0.316   4.186  85.316  1.00  0.00    -0.319 OA
BRANCH  29  30
HETATM   30  C2  UNL     1      -0.284   2.923  85.836  1.00  0.00     0.254 C 
HETATM   31  C1  UNL     1      -1.479   2.263  86.453  1.00  0.00     0.126 C 
HETATM   32  O1  UNL     1       0.771   2.262  85.813  1.00  0.00    -0.266 OA
ENDBRANCH  29  30
ENDBRANCH  28  29
ENDBRANCH   1  28
BRANCH   5  33
HETATM   33  O11 UNL     1       2.164   5.345  81.224  1.00  0.00    -0.311 OA
BRANCH  33  34
HETATM   34  C15 UNL     1       3.536   5.303  81.203  1.00  0.00     0.255 C 
HETATM   35  C16 UNL     1       4.301   6.529  80.925  1.00  0.00     0.126 C 
HETATM   36  O12 UNL     1       4.131   4.233  81.418  1.00  0.00    -0.266 OA
ENDBRANCH  33  34
ENDBRANCH   5  33
BRANCH   6  37
HETATM   37  O13 UNL     1      -0.168   4.273  81.586  1.00  0.00    -0.311 OA
BRANCH  37  38
HETATM   38  C18 UNL     1      -0.218   2.890  81.485  1.00  0.00     0.255 C 
HETATM   39  C19 UNL     1      -0.609   2.259  80.221  1.00  0.00     0.126 C 
HETATM   40  O14 UNL     1       0.073   2.184  82.482  1.00  0.00    -0.266 OA
ENDBRANCH  37  38
ENDBRANCH   6  37
TORSDOF 19
ENDMDL
