MODEL 6
REMARK VINA RESULT: -6.928450249      2.086      2.799
REMARK  12 active torsions:
REMARK  status: ('A' for Active; 'I' for Inactive)
REMARK    1  A    between atoms: O1_2  and  C2_3 
REMARK    2  A    between atoms: C2_3  and  C3_5 
REMARK    3  A    between atoms: C5_7  and  O3_8 
REMARK    4  A    between atoms: O3_8  and  S1_9 
REMARK    5  A    between atoms: S1_9  and  N1_10 
REMARK    6  A    between atoms: N2_16  and  S2_17 
REMARK    7  A    between atoms: S2_17  and  C7_20 
REMARK    8  A    between atoms: C8_22  and  C9_23 
REMARK    9  A    between atoms: C9_23  and  O9_24 
REMARK   10  A    between atoms: C10_26  and  O10_27 
REMARK   11  A    between atoms: C11_29  and  O11_30 
REMARK   12  A    between atoms: C12_32  and  O12_33 
ROOT
HETATM    1  S2  UNL     1      18.173   3.963  12.568  1.00  0.00     0.242 S 
HETATM    2  O6  UNL     1      17.164   4.407  11.512  1.00  0.00    -0.208 OA
HETATM    3  O7  UNL     1      18.347   2.473  12.305  1.00  0.00    -0.208 OA
ENDROOT
BRANCH   1   4
HETATM    4  N2  UNL     1      17.464   4.226  14.084  1.00  0.00    -0.192 NA
HETATM    5  C3  UNL     1      16.206   4.882  14.000  1.00  0.00     0.176 C 
HETATM    6  C4  UNL     1      15.206   3.952  14.604  1.00  0.00     0.065 C 
HETATM    7  C5  UNL     1      15.978   3.051  15.540  1.00  0.00     0.160 C 
HETATM    8  C6  UNL     1      17.376   3.103  14.951  1.00  0.00     0.141 C 
BRANCH   5   9
HETATM    9  C2  UNL     1      16.209   6.233  14.627  1.00  0.00     0.277 C 
HETATM   10  O2  UNL     1      17.309   6.774  14.924  1.00  0.00    -0.263 OA
BRANCH   9  11
HETATM   11  O1  UNL     1      15.057   6.919  14.899  1.00  0.00    -0.325 OA
HETATM   12  C1  UNL     1      14.568   7.900  13.977  1.00  0.00     0.213 C 
ENDBRANCH   9  11
ENDBRANCH   5   9
BRANCH   7  13
HETATM   13  O3  UNL     1      15.498   1.738  15.480  1.00  0.00    -0.253 OA
BRANCH  13  14
HETATM   14  S1  UNL     1      14.829   1.265  16.945  1.00  0.00     0.356 S 
HETATM   15  O4  UNL     1      13.330   1.236  16.888  1.00  0.00    -0.176 OA
HETATM   16  O5  UNL     1      15.404  -0.063  17.362  1.00  0.00    -0.176 OA
BRANCH  14  17
HETATM   17  N1  UNL     1      15.284   2.431  18.156  1.00  0.00    -0.306 N 
ATOM     18  H12 UNL     1      16.085   3.060  18.092  1.00  0.00     0.171 HD
ATOM     19  H11 UNL     1      14.618   2.370  18.926  1.00  0.00     0.171 HD
ENDBRANCH  14  17
ENDBRANCH  13  14
ENDBRANCH   7  13
ENDBRANCH   1   4
BRANCH   1  20
HETATM   20  C7  UNL     1      19.650   4.837  12.246  1.00  0.00     0.290 C 
HETATM   21  O8  UNL     1      19.289   6.078  11.692  1.00  0.00    -0.357 OA
HETATM   22  C8  UNL     1      20.279   7.013  11.797  1.00  0.00     0.178 C 
HETATM   23  C10 UNL     1      21.595   6.489  11.346  1.00  0.00     0.180 C 
HETATM   24  C11 UNL     1      21.509   5.172  10.614  1.00  0.00     0.181 C 
HETATM   25  C12 UNL     1      20.640   4.174  11.355  1.00  0.00     0.194 C 
BRANCH  22  26
HETATM   26  C9  UNL     1      20.361   7.643  13.189  1.00  0.00     0.198 C 
BRANCH  26  27
HETATM   27  O9  UNL     1      19.269   8.478  13.416  1.00  0.00    -0.398 OA
ATOM     28  H9  UNL     1      19.234   8.745  14.326  1.00  0.00     0.209 HD
ENDBRANCH  26  27
ENDBRANCH  22  26
BRANCH  23  29
HETATM   29  O10 UNL     1      22.491   6.409  12.415  1.00  0.00    -0.390 OA
ATOM     30  H10 UNL     1      23.269   6.927  12.245  1.00  0.00     0.210 HD
ENDBRANCH  23  29
BRANCH  24  31
HETATM   31  O11 UNL     1      22.797   4.657  10.518  1.00  0.00    -0.390 OA
ATOM     32  H11 UNL     1      23.247   4.853  11.331  1.00  0.00     0.210 HD
ENDBRANCH  24  31
BRANCH  25  33
HETATM   33  O12 UNL     1      21.497   3.345  12.077  1.00  0.00    -0.389 OA
ATOM     34  H12 UNL     1      21.363   2.432  11.855  1.00  0.00     0.210 HD
ENDBRANCH  25  33
ENDBRANCH   1  20
TORSDOF 12
ENDMDL
