MODEL 13
REMARK VINA RESULT: -6.780613464      2.784      4.135
REMARK  12 active torsions:
REMARK  status: ('A' for Active; 'I' for Inactive)
REMARK    1  A    between atoms: O1_2  and  C2_3 
REMARK    2  A    between atoms: C2_3  and  C3_5 
REMARK    3  A    between atoms: C5_7  and  O3_8 
REMARK    4  A    between atoms: O3_8  and  S1_9 
REMARK    5  A    between atoms: S1_9  and  N1_10 
REMARK    6  A    between atoms: N2_16  and  S2_17 
REMARK    7  A    between atoms: S2_17  and  C7_20 
REMARK    8  A    between atoms: C8_22  and  C9_23 
REMARK    9  A    between atoms: C9_23  and  O9_24 
REMARK   10  A    between atoms: C10_26  and  O10_27 
REMARK   11  A    between atoms: C11_29  and  O11_30 
REMARK   12  A    between atoms: C12_32  and  O12_33 
ROOT
HETATM    1  S2  UNL     1      15.910   6.605  13.577  1.00  0.00     0.242 S 
HETATM    2  O6  UNL     1      17.154   7.011  14.362  1.00  0.00    -0.208 OA
HETATM    3  O7  UNL     1      14.755   7.053  14.463  1.00  0.00    -0.208 OA
ENDROOT
BRANCH   1   4
HETATM    4  N2  UNL     1      15.935   4.917  13.433  1.00  0.00    -0.192 NA
HETATM    5  C3  UNL     1      17.251   4.382  13.429  1.00  0.00     0.176 C 
HETATM    6  C4  UNL     1      17.334   3.464  14.605  1.00  0.00     0.065 C 
HETATM    7  C5  UNL     1      15.918   3.041  14.912  1.00  0.00     0.160 C 
HETATM    8  C6  UNL     1      15.109   4.187  14.330  1.00  0.00     0.141 C 
BRANCH   5   9
HETATM    9  C2  UNL     1      17.611   3.725  12.142  1.00  0.00     0.277 C 
HETATM   10  O2  UNL     1      16.728   3.581  11.253  1.00  0.00    -0.263 OA
BRANCH   9  11
HETATM   11  O1  UNL     1      18.872   3.264  11.880  1.00  0.00    -0.325 OA
HETATM   12  C1  UNL     1      19.979   4.173  11.842  1.00  0.00     0.213 C 
ENDBRANCH   9  11
ENDBRANCH   5   9
BRANCH   7  13
HETATM   13  O3  UNL     1      15.703   2.977  16.293  1.00  0.00    -0.253 OA
BRANCH  13  14
HETATM   14  S1  UNL     1      15.553   1.388  16.814  1.00  0.00     0.356 S 
HETATM   15  O4  UNL     1      15.861   1.251  18.277  1.00  0.00    -0.176 OA
HETATM   16  O5  UNL     1      14.181   0.868  16.474  1.00  0.00    -0.176 OA
BRANCH  14  17
HETATM   17  N1  UNL     1      16.707   0.415  15.944  1.00  0.00    -0.306 N 
ATOM     18  H12 UNL     1      17.552   0.770  15.496  1.00  0.00     0.171 HD
ATOM     19  H11 UNL     1      16.389  -0.553  15.964  1.00  0.00     0.171 HD
ENDBRANCH  14  17
ENDBRANCH  13  14
ENDBRANCH   7  13
ENDBRANCH   1   4
BRANCH   1  20
HETATM   20  C7  UNL     1      15.946   7.507  12.082  1.00  0.00     0.290 C 
HETATM   21  O8  UNL     1      15.555   8.824  12.379  1.00  0.00    -0.357 OA
HETATM   22  C8  UNL     1      15.948   9.721  11.427  1.00  0.00     0.178 C 
HETATM   23  C10 UNL     1      15.608   9.266  10.054  1.00  0.00     0.180 C 
HETATM   24  C11 UNL     1      14.668   8.086  10.017  1.00  0.00     0.181 C 
HETATM   25  C12 UNL     1      15.108   6.989  10.967  1.00  0.00     0.194 C 
BRANCH  22  26
HETATM   26  C9  UNL     1      17.421  10.116  11.551  1.00  0.00     0.198 C 
BRANCH  26  27
HETATM   27  O9  UNL     1      17.666  11.316  10.886  1.00  0.00    -0.398 OA
ATOM     28  H9  UNL     1      17.396  11.257   9.978  1.00  0.00     0.209 HD
ENDBRANCH  26  27
ENDBRANCH  22  26
BRANCH  23  29
HETATM   29  O10 UNL     1      16.767   9.004   9.316  1.00  0.00    -0.390 OA
ATOM     30  H10 UNL     1      16.745   8.127   8.951  1.00  0.00     0.210 HD
ENDBRANCH  23  29
BRANCH  24  31
HETATM   31  O11 UNL     1      14.673   7.582   8.722  1.00  0.00    -0.390 OA
ATOM     32  H11 UNL     1      13.777   7.581   8.408  1.00  0.00     0.210 HD
ENDBRANCH  24  31
BRANCH  25  33
HETATM   33  O12 UNL     1      15.800   6.046  10.209  1.00  0.00    -0.389 OA
ATOM     34  H12 UNL     1      15.209   5.404   9.832  1.00  0.00     0.210 HD
ENDBRANCH  25  33
ENDBRANCH   1  20
TORSDOF 12
ENDMDL
