MODEL 2
REMARK VINA RESULT: -7.053856153      2.941      4.287
REMARK  12 active torsions:
REMARK  status: ('A' for Active; 'I' for Inactive)
REMARK    1  A    between atoms: O1_2  and  C2_3 
REMARK    2  A    between atoms: C2_3  and  C3_5 
REMARK    3  A    between atoms: C5_7  and  O3_8 
REMARK    4  A    between atoms: O3_8  and  S1_9 
REMARK    5  A    between atoms: S1_9  and  N1_10 
REMARK    6  A    between atoms: N2_16  and  S2_17 
REMARK    7  A    between atoms: S2_17  and  C7_20 
REMARK    8  A    between atoms: C8_22  and  C9_23 
REMARK    9  A    between atoms: C9_23  and  O9_24 
REMARK   10  A    between atoms: C10_26  and  O10_27 
REMARK   11  A    between atoms: C11_29  and  O11_30 
REMARK   12  A    between atoms: C12_32  and  O12_33 
ROOT
HETATM    1  S2  UNL     1      15.990   6.541  13.551  1.00  0.00     0.242 S 
HETATM    2  O6  UNL     1      17.271   6.913  14.292  1.00  0.00    -0.208 OA
HETATM    3  O7  UNL     1      14.879   7.031  14.469  1.00  0.00    -0.208 OA
ENDROOT
BRANCH   1   4
HETATM    4  N2  UNL     1      15.959   4.852  13.419  1.00  0.00    -0.192 NA
HETATM    5  C3  UNL     1      17.256   4.272  13.419  1.00  0.00     0.176 C 
HETATM    6  C4  UNL     1      17.309   3.361  14.601  1.00  0.00     0.065 C 
HETATM    7  C5  UNL     1      15.879   2.988  14.913  1.00  0.00     0.160 C 
HETATM    8  C6  UNL     1      15.109   4.157  14.322  1.00  0.00     0.141 C 
BRANCH   5   9
HETATM    9  C2  UNL     1      17.593   3.594  12.137  1.00  0.00     0.277 C 
HETATM   10  O2  UNL     1      18.778   3.219  11.928  1.00  0.00    -0.263 OA
BRANCH   9  11
HETATM   11  O1  UNL     1      16.660   3.359  11.163  1.00  0.00    -0.325 OA
HETATM   12  C1  UNL     1      16.039   2.073  11.055  1.00  0.00     0.213 C 
ENDBRANCH   9  11
ENDBRANCH   5   9
BRANCH   7  13
HETATM   13  O3  UNL     1      15.663   2.942  16.294  1.00  0.00    -0.253 OA
BRANCH  13  14
HETATM   14  S1  UNL     1      15.522   1.360  16.837  1.00  0.00     0.356 S 
HETATM   15  O4  UNL     1      15.840   1.242  18.299  1.00  0.00    -0.176 OA
HETATM   16  O5  UNL     1      14.149   0.831  16.514  1.00  0.00    -0.176 OA
BRANCH  14  17
HETATM   17  N1  UNL     1      16.672   0.379  15.971  1.00  0.00    -0.306 N 
ATOM     18  H12 UNL     1      16.618   0.152  14.978  1.00  0.00     0.171 HD
ATOM     19  H11 UNL     1      17.395   0.080  16.626  1.00  0.00     0.171 HD
ENDBRANCH  14  17
ENDBRANCH  13  14
ENDBRANCH   7  13
ENDBRANCH   1   4
BRANCH   1  20
HETATM   20  C7  UNL     1      16.006   7.431  12.048  1.00  0.00     0.290 C 
HETATM   21  O8  UNL     1      15.631   8.753  12.342  1.00  0.00    -0.357 OA
HETATM   22  C8  UNL     1      16.014   9.640  11.375  1.00  0.00     0.178 C 
HETATM   23  C10 UNL     1      15.646   9.176  10.012  1.00  0.00     0.180 C 
HETATM   24  C11 UNL     1      14.696   8.003  10.002  1.00  0.00     0.181 C 
HETATM   25  C12 UNL     1      15.144   6.910  10.953  1.00  0.00     0.194 C 
BRANCH  22  26
HETATM   26  C9  UNL     1      17.492  10.024  11.469  1.00  0.00     0.198 C 
BRANCH  26  27
HETATM   27  O9  UNL     1      17.739  11.203  10.769  1.00  0.00    -0.398 OA
ATOM     28  H9  UNL     1      17.109  11.314  10.066  1.00  0.00     0.209 HD
ENDBRANCH  26  27
ENDBRANCH  22  26
BRANCH  23  29
HETATM   29  O10 UNL     1      16.789   8.900   9.256  1.00  0.00    -0.390 OA
ATOM     30  H10 UNL     1      16.571   8.808   8.335  1.00  0.00     0.210 HD
ENDBRANCH  23  29
BRANCH  24  31
HETATM   31  O11 UNL     1      14.674   7.489   8.710  1.00  0.00    -0.390 OA
ATOM     32  H11 UNL     1      14.339   6.602   8.759  1.00  0.00     0.210 HD
ENDBRANCH  24  31
BRANCH  25  33
HETATM   33  O12 UNL     1      15.815   5.956  10.189  1.00  0.00    -0.389 OA
ATOM     34  H12 UNL     1      15.270   5.195  10.030  1.00  0.00     0.210 HD
ENDBRANCH  25  33
ENDBRANCH   1  20
TORSDOF 12
ENDMDL
