MODEL 3
REMARK VINA RESULT: -7.011340133      0.899      2.295
REMARK  12 active torsions:
REMARK  status: ('A' for Active; 'I' for Inactive)
REMARK    1  A    between atoms: O1_2  and  C2_3 
REMARK    2  A    between atoms: C2_3  and  C3_5 
REMARK    3  A    between atoms: C5_7  and  O3_8 
REMARK    4  A    between atoms: O3_8  and  S1_9 
REMARK    5  A    between atoms: S1_9  and  N1_10 
REMARK    6  A    between atoms: N2_16  and  S2_17 
REMARK    7  A    between atoms: S2_17  and  C7_20 
REMARK    8  A    between atoms: C8_22  and  C9_23 
REMARK    9  A    between atoms: C9_23  and  O9_24 
REMARK   10  A    between atoms: C10_26  and  O10_27 
REMARK   11  A    between atoms: C11_29  and  O11_30 
REMARK   12  A    between atoms: C12_32  and  O12_33 
ROOT
HETATM    1  S2  UNL     1      16.967   4.910  11.384  1.00  0.00     0.242 S 
HETATM    2  O6  UNL     1      15.866   5.951  11.202  1.00  0.00    -0.208 OA
HETATM    3  O7  UNL     1      16.328   3.614  10.904  1.00  0.00    -0.208 OA
ENDROOT
BRANCH   1   4
HETATM    4  N2  UNL     1      17.315   4.831  13.040  1.00  0.00    -0.192 NA
HETATM    5  C3  UNL     1      16.482   5.676  13.822  1.00  0.00     0.176 C 
HETATM    6  C4  UNL     1      15.748   4.783  14.768  1.00  0.00     0.065 C 
HETATM    7  C5  UNL     1      16.589   3.538  14.914  1.00  0.00     0.160 C 
HETATM    8  C6  UNL     1      17.380   3.534  13.617  1.00  0.00     0.141 C 
BRANCH   5   9
HETATM    9  C2  UNL     1      17.233   6.767  14.503  1.00  0.00     0.277 C 
HETATM   10  O2  UNL     1      16.639   7.493  15.346  1.00  0.00    -0.263 OA
BRANCH   9  11
HETATM   11  O1  UNL     1      18.553   7.019  14.250  1.00  0.00    -0.325 OA
HETATM   12  C1  UNL     1      19.147   8.250  14.679  1.00  0.00     0.213 C 
ENDBRANCH   9  11
ENDBRANCH   5   9
BRANCH   7  13
HETATM   13  O3  UNL     1      15.786   2.394  14.970  1.00  0.00    -0.253 OA
BRANCH  13  14
HETATM   14  S1  UNL     1      16.551   1.150  15.797  1.00  0.00     0.356 S 
HETATM   15  O4  UNL     1      16.649  -0.094  14.964  1.00  0.00    -0.176 OA
HETATM   16  O5  UNL     1      17.900   1.615  16.280  1.00  0.00    -0.176 OA
BRANCH  14  17
HETATM   17  N1  UNL     1      15.601   0.763  17.205  1.00  0.00    -0.306 N 
ATOM     18  H12 UNL     1      15.724   1.180  18.128  1.00  0.00     0.171 HD
ATOM     19  H11 UNL     1      14.914   0.056  16.943  1.00  0.00     0.171 HD
ENDBRANCH  14  17
ENDBRANCH  13  14
ENDBRANCH   7  13
ENDBRANCH   1   4
BRANCH   1  20
HETATM   20  C7  UNL     1      18.284   5.388  10.341  1.00  0.00     0.290 C 
HETATM   21  O8  UNL     1      18.372   4.432   9.315  1.00  0.00    -0.357 OA
HETATM   22  C8  UNL     1      19.042   4.893   8.217  1.00  0.00     0.178 C 
HETATM   23  C10 UNL     1      20.330   5.540   8.578  1.00  0.00     0.180 C 
HETATM   24  C11 UNL     1      20.755   5.299  10.005  1.00  0.00     0.181 C 
HETATM   25  C12 UNL     1      19.619   5.545  10.979  1.00  0.00     0.194 C 
BRANCH  22  26
HETATM   26  C9  UNL     1      18.181   5.791   7.325  1.00  0.00     0.198 C 
BRANCH  26  27
HETATM   27  O9  UNL     1      17.202   5.043   6.675  1.00  0.00    -0.398 OA
ATOM     28  H9  UNL     1      16.695   5.592   6.089  1.00  0.00     0.209 HD
ENDBRANCH  26  27
ENDBRANCH  22  26
BRANCH  23  29
HETATM   29  O10 UNL     1      20.297   6.908   8.291  1.00  0.00    -0.390 OA
ATOM     30  H10 UNL     1      20.653   7.081   7.427  1.00  0.00     0.210 HD
ENDBRANCH  23  29
BRANCH  24  31
HETATM   31  O11 UNL     1      21.788   6.184  10.294  1.00  0.00    -0.390 OA
ATOM     32  H11 UNL     1      22.567   5.671  10.475  1.00  0.00     0.210 HD
ENDBRANCH  24  31
BRANCH  25  33
HETATM   33  O12 UNL     1      19.790   6.831  11.488  1.00  0.00    -0.389 OA
ATOM     34  H12 UNL     1      19.085   7.407  11.216  1.00  0.00     0.210 HD
ENDBRANCH  25  33
ENDBRANCH   1  20
TORSDOF 12
ENDMDL
