MODEL 5
REMARK VINA RESULT: -6.947029867      0.791      1.175
REMARK  12 active torsions:
REMARK  status: ('A' for Active; 'I' for Inactive)
REMARK    1  A    between atoms: O1_2  and  C2_3 
REMARK    2  A    between atoms: C2_3  and  C3_5 
REMARK    3  A    between atoms: C5_7  and  O3_8 
REMARK    4  A    between atoms: O3_8  and  S1_9 
REMARK    5  A    between atoms: S1_9  and  N1_10 
REMARK    6  A    between atoms: N2_16  and  S2_17 
REMARK    7  A    between atoms: S2_17  and  C7_20 
REMARK    8  A    between atoms: C8_22  and  C9_23 
REMARK    9  A    between atoms: C9_23  and  O9_24 
REMARK   10  A    between atoms: C10_26  and  O10_27 
REMARK   11  A    between atoms: C11_29  and  O11_30 
REMARK   12  A    between atoms: C12_32  and  O12_33 
ROOT
HETATM    1  S2  UNL     1      16.971   4.667  11.278  1.00  0.00     0.242 S 
HETATM    2  O6  UNL     1      15.952   5.751  10.936  1.00  0.00    -0.208 OA
HETATM    3  O7  UNL     1      16.299   3.377  10.829  1.00  0.00    -0.208 OA
ENDROOT
BRANCH   1   4
HETATM    4  N2  UNL     1      17.176   4.683  12.960  1.00  0.00    -0.192 NA
HETATM    5  C3  UNL     1      16.194   5.462  13.630  1.00  0.00     0.176 C 
HETATM    6  C4  UNL     1      15.474   4.529  14.548  1.00  0.00     0.065 C 
HETATM    7  C5  UNL     1      16.422   3.386  14.819  1.00  0.00     0.160 C 
HETATM    8  C6  UNL     1      17.322   3.421  13.597  1.00  0.00     0.141 C 
BRANCH   5   9
HETATM    9  C2  UNL     1      16.765   6.649  14.324  1.00  0.00     0.277 C 
HETATM   10  O2  UNL     1      18.006   6.701  14.541  1.00  0.00    -0.263 OA
BRANCH   9  11
HETATM   11  O1  UNL     1      15.991   7.696  14.744  1.00  0.00    -0.325 OA
HETATM   12  C1  UNL     1      14.762   8.000  14.073  1.00  0.00     0.213 C 
ENDBRANCH   9  11
ENDBRANCH   5   9
BRANCH   7  13
HETATM   13  O3  UNL     1      15.738   2.166  14.857  1.00  0.00    -0.253 OA
BRANCH  13  14
HETATM   14  S1  UNL     1      16.556   1.036  15.792  1.00  0.00     0.356 S 
HETATM   15  O4  UNL     1      16.737  -0.263  15.063  1.00  0.00    -0.176 OA
HETATM   16  O5  UNL     1      17.868   1.613  16.254  1.00  0.00    -0.176 OA
BRANCH  14  17
HETATM   17  N1  UNL     1      15.603   0.709  17.213  1.00  0.00    -0.306 N 
ATOM     18  H12 UNL     1      14.832   1.288  17.547  1.00  0.00     0.171 HD
ATOM     19  H11 UNL     1      15.950  -0.149  17.641  1.00  0.00     0.171 HD
ENDBRANCH  14  17
ENDBRANCH  13  14
ENDBRANCH   7  13
ENDBRANCH   1   4
BRANCH   1  20
HETATM   20  C7  UNL     1      18.396   5.002  10.325  1.00  0.00     0.290 C 
HETATM   21  O8  UNL     1      19.238   5.814  11.104  1.00  0.00    -0.357 OA
HETATM   22  C8  UNL     1      20.536   5.792  10.679  1.00  0.00     0.178 C 
HETATM   23  C10 UNL     1      20.649   6.004   9.212  1.00  0.00     0.180 C 
HETATM   24  C11 UNL     1      19.372   6.477   8.564  1.00  0.00     0.181 C 
HETATM   25  C12 UNL     1      18.179   5.649   9.003  1.00  0.00     0.194 C 
BRANCH  22  26
HETATM   26  C9  UNL     1      21.294   4.544  11.137  1.00  0.00     0.198 C 
BRANCH  26  27
HETATM   27  O9  UNL     1      20.739   4.034  12.309  1.00  0.00    -0.398 OA
ATOM     28  H9  UNL     1      19.966   3.517  12.117  1.00  0.00     0.209 HD
ENDBRANCH  26  27
ENDBRANCH  22  26
BRANCH  23  29
HETATM   29  O10 UNL     1      21.135   4.855   8.580  1.00  0.00    -0.390 OA
ATOM     30  H10 UNL     1      20.997   4.902   7.641  1.00  0.00     0.210 HD
ENDBRANCH  23  29
BRANCH  24  31
HETATM   31  O11 UNL     1      19.523   6.346   7.188  1.00  0.00    -0.390 OA
ATOM     32  H11 UNL     1      18.656   6.266   6.809  1.00  0.00     0.210 HD
ENDBRANCH  24  31
BRANCH  25  33
HETATM   33  O12 UNL     1      17.952   4.702   8.006  1.00  0.00    -0.389 OA
ATOM     34  H12 UNL     1      17.230   4.958   7.444  1.00  0.00     0.210 HD
ENDBRANCH  25  33
ENDBRANCH   1  20
TORSDOF 12
ENDMDL
