MODEL 12
REMARK VINA RESULT: -6.787572626      2.633      3.975
REMARK  12 active torsions:
REMARK  status: ('A' for Active; 'I' for Inactive)
REMARK    1  A    between atoms: O1_2  and  C2_3 
REMARK    2  A    between atoms: C2_3  and  C3_5 
REMARK    3  A    between atoms: C5_7  and  O3_8 
REMARK    4  A    between atoms: O3_8  and  S1_9 
REMARK    5  A    between atoms: S1_9  and  N1_10 
REMARK    6  A    between atoms: N2_16  and  S2_17 
REMARK    7  A    between atoms: S2_17  and  C7_20 
REMARK    8  A    between atoms: C8_22  and  C9_23 
REMARK    9  A    between atoms: C9_23  and  O9_24 
REMARK   10  A    between atoms: C10_26  and  O10_27 
REMARK   11  A    between atoms: C11_29  and  O11_30 
REMARK   12  A    between atoms: C12_32  and  O12_33 
ROOT
HETATM    1  S2  UNL     1      15.568   6.389  13.702  1.00  0.00     0.242 S 
HETATM    2  O6  UNL     1      15.387   6.668  15.191  1.00  0.00    -0.208 OA
HETATM    3  O7  UNL     1      14.274   6.889  13.075  1.00  0.00    -0.208 OA
ENDROOT
BRANCH   1   4
HETATM    4  N2  UNL     1      15.715   4.711  13.519  1.00  0.00    -0.192 NA
HETATM    5  C3  UNL     1      17.047   4.299  13.245  1.00  0.00     0.176 C 
HETATM    6  C4  UNL     1      17.443   3.389  14.361  1.00  0.00     0.065 C 
HETATM    7  C5  UNL     1      16.159   2.836  14.933  1.00  0.00     0.160 C 
HETATM    8  C6  UNL     1      15.152   3.905  14.546  1.00  0.00     0.141 C 
BRANCH   5   9
HETATM    9  C2  UNL     1      17.202   3.682  11.899  1.00  0.00     0.277 C 
HETATM   10  O2  UNL     1      18.316   3.751  11.311  1.00  0.00    -0.263 OA
BRANCH   9  11
HETATM   11  O1  UNL     1      16.176   3.036  11.264  1.00  0.00    -0.325 OA
HETATM   12  C1  UNL     1      16.179   1.608  11.157  1.00  0.00     0.213 C 
ENDBRANCH   9  11
ENDBRANCH   5   9
BRANCH   7  13
HETATM   13  O3  UNL     1      16.228   2.748  16.328  1.00  0.00    -0.253 OA
BRANCH  13  14
HETATM   14  S1  UNL     1      15.469   1.361  16.890  1.00  0.00     0.356 S 
HETATM   15  O4  UNL     1      15.811   0.162  16.054  1.00  0.00    -0.176 OA
HETATM   16  O5  UNL     1      15.804   1.150  18.343  1.00  0.00    -0.176 OA
BRANCH  14  17
HETATM   17  N1  UNL     1      13.747   1.597  16.784  1.00  0.00    -0.306 N 
ATOM     18  H12 UNL     1      13.259   2.464  17.009  1.00  0.00     0.171 HD
ATOM     19  H11 UNL     1      13.323   0.727  16.462  1.00  0.00     0.171 HD
ENDBRANCH  14  17
ENDBRANCH  13  14
ENDBRANCH   7  13
ENDBRANCH   1   4
BRANCH   1  20
HETATM   20  C7  UNL     1      16.933   7.344  13.178  1.00  0.00     0.290 C 
HETATM   21  O8  UNL     1      16.998   8.473  14.011  1.00  0.00    -0.357 OA
HETATM   22  C8  UNL     1      18.230   9.064  14.009  1.00  0.00     0.178 C 
HETATM   23  C10 UNL     1      18.746   9.276  12.632  1.00  0.00     0.180 C 
HETATM   24  C11 UNL     1      17.711   9.072  11.553  1.00  0.00     0.181 C 
HETATM   25  C12 UNL     1      16.935   7.785  11.757  1.00  0.00     0.194 C 
BRANCH  22  26
HETATM   26  C9  UNL     1      19.244   8.336  14.894  1.00  0.00     0.198 C 
BRANCH  26  27
HETATM   27  O9  UNL     1      20.277   9.193  15.266  1.00  0.00    -0.398 OA
ATOM     28  H9  UNL     1      21.119   8.832  15.016  1.00  0.00     0.209 HD
ENDBRANCH  26  27
ENDBRANCH  22  26
BRANCH  23  29
HETATM   29  O10 UNL     1      19.875   8.486  12.397  1.00  0.00    -0.390 OA
ATOM     30  H10 UNL     1      19.754   7.942  11.627  1.00  0.00     0.210 HD
ENDBRANCH  23  29
BRANCH  24  31
HETATM   31  O11 UNL     1      18.378   9.002  10.335  1.00  0.00    -0.390 OA
ATOM     32  H11 UNL     1      17.884   8.421   9.769  1.00  0.00     0.210 HD
ENDBRANCH  24  31
BRANCH  25  33
HETATM   33  O12 UNL     1      17.515   6.825  10.929  1.00  0.00    -0.389 OA
ATOM     34  H12 UNL     1      18.433   7.012  10.771  1.00  0.00     0.210 HD
ENDBRANCH  25  33
ENDBRANCH   1  20
TORSDOF 12
ENDMDL
