MODEL 3
REMARK VINA RESULT: -7.602635804      2.841      4.275
REMARK  12 active torsions:
REMARK  status: ('A' for Active; 'I' for Inactive)
REMARK    1  A    between atoms: O1_2  and  C2_3 
REMARK    2  A    between atoms: C2_3  and  C3_5 
REMARK    3  A    between atoms: C5_7  and  O3_8 
REMARK    4  A    between atoms: O3_8  and  S1_9 
REMARK    5  A    between atoms: S1_9  and  N1_10 
REMARK    6  A    between atoms: N2_16  and  S2_17 
REMARK    7  A    between atoms: S2_17  and  C7_20 
REMARK    8  A    between atoms: C9_23  and  O9_24 
REMARK    9  A    between atoms: O9_24  and  C10_25 
REMARK   10  A    between atoms: C12_28  and  O11_29 
REMARK   11  A    between atoms: C13_31  and  O12_32 
REMARK   12  A    between atoms: C14_34  and  O13_35 
ROOT
HETATM    1  S2  UNL     1      -1.509   3.593  11.196  1.00  0.00     0.243 S 
HETATM    2  O6  UNL     1      -1.925   2.816   9.999  1.00  0.00    -0.208 OA
HETATM    3  O7  UNL     1      -0.613   2.768  12.113  1.00  0.00    -0.208 OA
ENDROOT
BRANCH   1   4
HETATM    4  N2  UNL     1      -0.899   5.128  10.885  1.00  0.00    -0.192 NA
HETATM    5  C3  UNL     1      -0.117   5.360   9.745  1.00  0.00     0.176 C 
HETATM    6  C4  UNL     1       1.034   6.293  10.197  1.00  0.00     0.065 C 
HETATM    7  C5  UNL     1       1.182   5.807  11.618  1.00  0.00     0.160 C 
HETATM    8  C6  UNL     1      -0.227   5.645  12.056  1.00  0.00     0.141 C 
BRANCH   5   9
HETATM    9  C2  UNL     1       0.400   4.217   9.003  1.00  0.00     0.277 C 
HETATM   10  O2  UNL     1      -0.170   3.936   7.895  1.00  0.00    -0.263 OA
BRANCH   9  11
HETATM   11  O1  UNL     1       1.443   3.390   9.354  1.00  0.00    -0.325 OA
HETATM   12  C1  UNL     1       2.781   3.570   8.973  1.00  0.00     0.213 C 
ENDBRANCH   9  11
ENDBRANCH   5   9
BRANCH   7  13
HETATM   13  O3  UNL     1       1.968   6.590  12.409  1.00  0.00    -0.253 OA
BRANCH  13  14
HETATM   14  S1  UNL     1       3.541   6.153  12.544  1.00  0.00     0.356 S 
HETATM   15  O4  UNL     1       4.156   6.511  13.870  1.00  0.00    -0.176 OA
HETATM   16  O5  UNL     1       3.787   4.687  12.334  1.00  0.00    -0.176 OA
BRANCH  14  17
HETATM   17  N1  UNL     1       4.446   6.989  11.329  1.00  0.00    -0.306 N 
ATOM     18  H12 UNL     1       4.046   7.426  10.498  1.00  0.00     0.171 HD
ATOM     19  H11 UNL     1       5.431   6.966  11.590  1.00  0.00     0.171 HD
ENDBRANCH  14  17
ENDBRANCH  13  14
ENDBRANCH   7  13
ENDBRANCH   1   4
BRANCH   1  20
HETATM   20  C7  UNL     1      -3.016   3.819  12.169  1.00  0.00     0.297 C 
HETATM   21  O8  UNL     1      -2.919   3.096  13.372  1.00  0.00    -0.326 OA
HETATM   22  C8  UNL     1      -4.085   2.910  14.103  1.00  0.00     0.102 C 
HETATM   23  C9  UNL     1      -4.117   2.815  15.415  1.00  0.00     0.180 C 
HETATM   24  C12 UNL     1      -5.346   2.819  13.326  1.00  0.00     0.208 C 
HETATM   25  C13 UNL     1      -4.933   2.324  11.933  1.00  0.00     0.185 C 
HETATM   26  C14 UNL     1      -4.156   3.425  11.292  1.00  0.00     0.195 C 
BRANCH  23  27
HETATM   27  O9  UNL     1      -5.337   2.629  16.040  1.00  0.00    -0.289 OA
BRANCH  27  28
HETATM   28  C10 UNL     1      -5.616   1.471  16.766  1.00  0.00     0.259 C 
HETATM   29  C11 UNL     1      -6.979   1.127  17.241  1.00  0.00     0.126 C 
HETATM   30  O10 UNL     1      -4.612   0.721  16.996  1.00  0.00    -0.265 OA
ENDBRANCH  27  28
ENDBRANCH  23  27
BRANCH  24  31
HETATM   31  O11 UNL     1      -5.818   4.142  13.186  1.00  0.00    -0.386 OA
ATOM     32  H11 UNL     1      -6.324   4.159  12.382  1.00  0.00     0.210 HD
ENDBRANCH  24  31
BRANCH  25  33
HETATM   33  O12 UNL     1      -6.022   1.908  11.199  1.00  0.00    -0.390 OA
ATOM     34  H12 UNL     1      -5.772   1.291  10.521  1.00  0.00     0.210 HD
ENDBRANCH  25  33
BRANCH  26  35
HETATM   35  O13 UNL     1      -4.983   4.547  11.094  1.00  0.00    -0.389 OA
ATOM     36  H13 UNL     1      -5.090   4.686  10.161  1.00  0.00     0.210 HD
ENDBRANCH  26  35
ENDBRANCH   1  20
TORSDOF 12
ENDMDL
