MODEL 2
REMARK VINA RESULT: -7.625001859      2.120      4.199
REMARK  12 active torsions:
REMARK  status: ('A' for Active; 'I' for Inactive)
REMARK    1  A    between atoms: O1_2  and  C2_3 
REMARK    2  A    between atoms: C2_3  and  C3_5 
REMARK    3  A    between atoms: C5_7  and  O3_8 
REMARK    4  A    between atoms: O3_8  and  S1_9 
REMARK    5  A    between atoms: S1_9  and  N1_10 
REMARK    6  A    between atoms: N2_16  and  S2_17 
REMARK    7  A    between atoms: S2_17  and  C7_20 
REMARK    8  A    between atoms: C9_23  and  O9_24 
REMARK    9  A    between atoms: O9_24  and  C10_25 
REMARK   10  A    between atoms: C12_28  and  O11_29 
REMARK   11  A    between atoms: C13_31  and  O12_32 
REMARK   12  A    between atoms: C14_34  and  O13_35 
ROOT
HETATM    1  S2  UNL     1      -1.337   3.426  10.926  1.00  0.00     0.243 S 
HETATM    2  O6  UNL     1      -1.133   2.293   9.986  1.00  0.00    -0.208 OA
HETATM    3  O7  UNL     1      -0.434   3.306  12.149  1.00  0.00    -0.208 OA
ENDROOT
BRANCH   1   4
HETATM    4  N2  UNL     1      -1.307   4.957  10.232  1.00  0.00    -0.192 NA
HETATM    5  C3  UNL     1      -1.638   6.085  10.994  1.00  0.00     0.176 C 
HETATM    6  C4  UNL     1      -2.497   6.987  10.073  1.00  0.00     0.065 C 
HETATM    7  C5  UNL     1      -3.165   5.911   9.253  1.00  0.00     0.160 C 
HETATM    8  C6  UNL     1      -2.057   4.959   8.996  1.00  0.00     0.141 C 
BRANCH   5   9
HETATM    9  C2  UNL     1      -2.286   5.894  12.286  1.00  0.00     0.277 C 
HETATM   10  O2  UNL     1      -1.528   5.816  13.311  1.00  0.00    -0.263 OA
BRANCH   9  11
HETATM   11  O1  UNL     1      -3.634   5.787  12.543  1.00  0.00    -0.325 OA
HETATM   12  C1  UNL     1      -4.232   5.937  13.803  1.00  0.00     0.213 C 
ENDBRANCH   9  11
ENDBRANCH   5   9
BRANCH   7  13
HETATM   13  O3  UNL     1      -3.831   6.365   8.153  1.00  0.00    -0.253 OA
BRANCH  13  14
HETATM   14  S1  UNL     1      -5.141   5.503   7.681  1.00  0.00     0.356 S 
HETATM   15  O4  UNL     1      -4.805   4.139   7.140  1.00  0.00    -0.176 OA
HETATM   16  O5  UNL     1      -6.163   5.302   8.763  1.00  0.00    -0.176 OA
BRANCH  14  17
HETATM   17  N1  UNL     1      -5.931   6.367   6.406  1.00  0.00    -0.306 N 
ATOM     18  H12 UNL     1      -5.455   6.872   5.659  1.00  0.00     0.171 HD
ATOM     19  H11 UNL     1      -6.939   6.280   6.535  1.00  0.00     0.171 HD
ENDBRANCH  14  17
ENDBRANCH  13  14
ENDBRANCH   7  13
ENDBRANCH   1   4
BRANCH   1  20
HETATM   20  C7  UNL     1      -2.997   3.195  11.604  1.00  0.00     0.297 C 
HETATM   21  O8  UNL     1      -2.912   2.676  12.909  1.00  0.00    -0.326 OA
HETATM   22  C8  UNL     1      -4.072   2.160  13.470  1.00  0.00     0.102 C 
HETATM   23  C9  UNL     1      -4.336   2.188  14.759  1.00  0.00     0.180 C 
HETATM   24  C12 UNL     1      -5.046   1.549  12.531  1.00  0.00     0.208 C 
HETATM   25  C13 UNL     1      -4.220   1.099  11.319  1.00  0.00     0.185 C 
HETATM   26  C14 UNL     1      -3.740   2.336  10.636  1.00  0.00     0.195 C 
BRANCH  23  27
HETATM   27  O9  UNL     1      -5.524   1.642  15.208  1.00  0.00    -0.289 OA
BRANCH  27  28
HETATM   28  C10 UNL     1      -5.635   1.083  16.482  1.00  0.00     0.259 C 
HETATM   29  C11 UNL     1      -6.917   1.024  17.226  1.00  0.00     0.126 C 
HETATM   30  O10 UNL     1      -4.551   0.622  16.967  1.00  0.00    -0.265 OA
ENDBRANCH  27  28
ENDBRANCH  23  27
BRANCH  24  31
HETATM   31  O11 UNL     1      -5.892   2.597  12.107  1.00  0.00    -0.386 OA
ATOM     32  H11 UNL     1      -6.733   2.197  11.917  1.00  0.00     0.210 HD
ENDBRANCH  24  31
BRANCH  25  33
HETATM   33  O12 UNL     1      -4.937   0.252  10.502  1.00  0.00    -0.390 OA
ATOM     34  H12 UNL     1      -4.882   0.515   9.590  1.00  0.00     0.210 HD
ENDBRANCH  25  33
BRANCH  26  35
HETATM   35  O13 UNL     1      -4.834   3.065  10.132  1.00  0.00    -0.389 OA
ATOM     36  H13 UNL     1      -5.517   3.085  10.792  1.00  0.00     0.210 HD
ENDBRANCH  26  35
ENDBRANCH   1  20
TORSDOF 12
ENDMDL
