MODEL 1
REMARK VINA RESULT: -7.629828717      0.000      0.000
REMARK  12 active torsions:
REMARK  status: ('A' for Active; 'I' for Inactive)
REMARK    1  A    between atoms: O1_2  and  C2_3 
REMARK    2  A    between atoms: C2_3  and  C3_5 
REMARK    3  A    between atoms: C5_7  and  O3_8 
REMARK    4  A    between atoms: O3_8  and  S1_9 
REMARK    5  A    between atoms: S1_9  and  N1_10 
REMARK    6  A    between atoms: N2_16  and  S2_17 
REMARK    7  A    between atoms: S2_17  and  C7_20 
REMARK    8  A    between atoms: C9_23  and  O9_24 
REMARK    9  A    between atoms: O9_24  and  C10_25 
REMARK   10  A    between atoms: C12_28  and  O11_29 
REMARK   11  A    between atoms: C13_31  and  O12_32 
REMARK   12  A    between atoms: C14_34  and  O13_35 
ROOT
HETATM    1  S2  UNL     1      -4.017   3.508  11.055  1.00  0.00     0.243 S 
HETATM    2  O6  UNL     1      -5.496   3.364  11.006  1.00  0.00    -0.208 OA
HETATM    3  O7  UNL     1      -3.320   2.357  10.337  1.00  0.00    -0.208 OA
ENDROOT
BRANCH   1   4
HETATM    4  N2  UNL     1      -3.422   5.017  10.613  1.00  0.00    -0.192 NA
HETATM    5  C3  UNL     1      -3.994   5.715   9.541  1.00  0.00     0.176 C 
HETATM    6  C4  UNL     1      -2.812   6.342   8.760  1.00  0.00     0.065 C 
HETATM    7  C5  UNL     1      -1.772   5.281   9.022  1.00  0.00     0.160 C 
HETATM    8  C6  UNL     1      -1.986   4.960  10.455  1.00  0.00     0.141 C 
BRANCH   5   9
HETATM    9  C2  UNL     1      -4.895   5.006   8.642  1.00  0.00     0.277 C 
HETATM   10  O2  UNL     1      -4.374   4.146   7.854  1.00  0.00    -0.263 OA
BRANCH   9  11
HETATM   11  O1  UNL     1      -6.260   5.150   8.534  1.00  0.00    -0.325 OA
HETATM   12  C1  UNL     1      -6.922   5.850   7.514  1.00  0.00     0.213 C 
ENDBRANCH   9  11
ENDBRANCH   5   9
BRANCH   7  13
HETATM   13  O3  UNL     1      -0.502   5.630   8.671  1.00  0.00    -0.253 OA
BRANCH  13  14
HETATM   14  S1  UNL     1       0.497   4.412   8.222  1.00  0.00     0.356 S 
HETATM   15  O4  UNL     1       1.069   3.640   9.381  1.00  0.00    -0.176 OA
HETATM   16  O5  UNL     1      -0.139   3.408   7.304  1.00  0.00    -0.176 OA
BRANCH  14  17
HETATM   17  N1  UNL     1       1.836   5.093   7.363  1.00  0.00    -0.306 N 
ATOM     18  H12 UNL     1       1.808   5.413   6.395  1.00  0.00     0.171 HD
ATOM     19  H11 UNL     1       2.641   5.115   7.988  1.00  0.00     0.171 HD
ENDBRANCH  14  17
ENDBRANCH  13  14
ENDBRANCH   7  13
ENDBRANCH   1   4
BRANCH   1  20
HETATM   20  C7  UNL     1      -3.568   3.258  12.788  1.00  0.00     0.297 C 
HETATM   21  O8  UNL     1      -4.327   2.205  13.331  1.00  0.00    -0.326 OA
HETATM   22  C8  UNL     1      -4.334   2.066  14.712  1.00  0.00     0.102 C 
HETATM   23  C9  UNL     1      -4.456   0.910  15.329  1.00  0.00     0.180 C 
HETATM   24  C12 UNL     1      -4.193   3.313  15.503  1.00  0.00     0.208 C 
HETATM   25  C13 UNL     1      -4.715   4.435  14.595  1.00  0.00     0.185 C 
HETATM   26  C14 UNL     1      -3.743   4.572  13.471  1.00  0.00     0.195 C 
BRANCH  23  27
HETATM   27  O9  UNL     1      -4.451   0.889  16.712  1.00  0.00    -0.289 OA
BRANCH  27  28
HETATM   28  C10 UNL     1      -5.631   0.755  17.444  1.00  0.00     0.259 C 
HETATM   29  C11 UNL     1      -6.306   1.901  18.101  1.00  0.00     0.126 C 
HETATM   30  O10 UNL     1      -6.095  -0.430  17.511  1.00  0.00    -0.265 OA
ENDBRANCH  27  28
ENDBRANCH  23  27
BRANCH  24  31
HETATM   31  O11 UNL     1      -2.806   3.514  15.677  1.00  0.00    -0.386 OA
ATOM     32  H11 UNL     1      -2.611   4.360  15.291  1.00  0.00     0.210 HD
ENDBRANCH  24  31
BRANCH  25  33
HETATM   33  O12 UNL     1      -4.924   5.602  15.298  1.00  0.00    -0.390 OA
ATOM     34  H12 UNL     1      -4.453   6.332  14.913  1.00  0.00     0.210 HD
ENDBRANCH  25  33
BRANCH  26  35
HETATM   35  O13 UNL     1      -2.494   4.997  13.962  1.00  0.00    -0.389 OA
ATOM     36  H13 UNL     1      -2.239   5.788  13.504  1.00  0.00     0.210 HD
ENDBRANCH  26  35
ENDBRANCH   1  20
TORSDOF 12
ENDMDL
