MODEL 5
REMARK VINA RESULT: -6.578136571      3.289      7.602
REMARK  11 active torsions:
REMARK  status: ('A' for Active; 'I' for Inactive)
REMARK    1  A    between atoms: C2_2  and  O2_4 
REMARK    2  A    between atoms: O2_4  and  C3_5 
REMARK    3  A    between atoms: C4_6  and  O3_7 
REMARK    4  A    between atoms: C5_9  and  O4_10 
REMARK    5  A    between atoms: C6_12  and  C7_13 
REMARK    6  A    between atoms: C7_13  and  O5_14 
REMARK    7  A    between atoms: C8_17  and  S1_18 
REMARK    8  A    between atoms: S1_18  and  N1_21 
REMARK    9  A    between atoms: C11_24  and  O9_25 
REMARK   10  A    between atoms: O9_25  and  S2_26 
REMARK   11  A    between atoms: S2_26  and  N2_27 
ROOT
HETATM    1  C3  UNL     1       0.066   2.123  84.676  1.00  0.00     0.208 C 
HETATM    2  C4  UNL     1      -0.443   1.120  85.724  1.00  0.00     0.182 C 
HETATM    3  C5  UNL     1      -1.890   1.434  85.919  1.00  0.00     0.180 C 
HETATM    4  C6  UNL     1      -2.229   2.878  86.060  1.00  0.00     0.178 C 
HETATM    5  O6  UNL     1      -1.473   3.760  85.344  1.00  0.00    -0.356 OA
HETATM    6  C8  UNL     1      -0.138   3.481  85.342  1.00  0.00     0.296 C 
ENDROOT
BRANCH   6   7
HETATM    7  S1  UNL     1       0.833   4.730  84.539  1.00  0.00     0.258 S 
HETATM    8  O7  UNL     1       0.381   6.089  84.989  1.00  0.00    -0.203 OA
HETATM    9  O8  UNL     1       2.291   4.602  84.929  1.00  0.00    -0.203 OA
BRANCH   7  10
HETATM   10  N1  UNL     1       0.708   4.653  82.844  1.00  0.00    -0.308 N 
HETATM   11  C9  UNL     1       0.060   5.777  82.241  1.00  0.00     0.137 C 
HETATM   12  C10 UNL     1      -0.189   5.436  80.787  1.00  0.00     0.054 C 
HETATM   13  C11 UNL     1       1.138   5.409  80.111  1.00  0.00     0.147 C 
HETATM   14  C12 UNL     1       2.246   4.838  80.917  1.00  0.00     0.054 C 
HETATM   15  C13 UNL     1       1.860   4.169  82.184  1.00  0.00     0.137 C 
BRANCH  13  16
HETATM   16  O9  UNL     1       0.972   4.679  78.912  1.00  0.00    -0.254 OA
BRANCH  16  17
HETATM   17  S2  UNL     1       1.783   5.364  77.635  1.00  0.00     0.355 S 
HETATM   18  O10 UNL     1       2.877   4.389  77.226  1.00  0.00    -0.176 OA
HETATM   19  O11 UNL     1       2.439   6.655  77.953  1.00  0.00    -0.176 OA
BRANCH  17  20
HETATM   20  N2  UNL     1       0.766   5.564  76.253  1.00  0.00    -0.306 N 
ATOM     21  H22 UNL     1       0.003   4.927  76.025  1.00  0.00     0.171 HD
ATOM     22  H21 UNL     1       1.022   6.386  75.705  1.00  0.00     0.171 HD
ENDBRANCH  17  20
ENDBRANCH  16  17
ENDBRANCH  13  16
ENDBRANCH   7  10
ENDBRANCH   6   7
BRANCH   1  23
HETATM   23  O2  UNL     1      -0.802   1.967  83.560  1.00  0.00    -0.310 OA
BRANCH  23  24
HETATM   24  C2  UNL     1      -0.378   1.403  82.356  1.00  0.00     0.255 C 
HETATM   25  C1  UNL     1      -0.839   1.882  81.040  1.00  0.00     0.126 C 
HETATM   26  O1  UNL     1       0.436   0.445  82.444  1.00  0.00    -0.266 OA
ENDBRANCH  23  24
ENDBRANCH   1  23
BRANCH   2  27
HETATM   27  O3  UNL     1      -0.327  -0.146  85.145  1.00  0.00    -0.390 OA
ATOM     28  H3  UNL     1      -0.458  -0.773  85.846  1.00  0.00     0.210 HD
ENDBRANCH   2  27
BRANCH   4  29
HETATM   29  C7  UNL     1      -2.385   3.279  87.533  1.00  0.00     0.198 C 
BRANCH  29  30
HETATM   30  O5  UNL     1      -1.427   2.728  88.345  1.00  0.00    -0.398 OA
ATOM     31  H5  UNL     1      -1.217   3.271  89.095  1.00  0.00     0.209 HD
ENDBRANCH  29  30
ENDBRANCH   4  29
BRANCH   3  32
HETATM   32  O4  UNL     1      -2.380   0.773  87.051  1.00  0.00    -0.390 OA
ATOM     33  H4  UNL     1      -2.525  -0.146  86.857  1.00  0.00     0.210 HD
ENDBRANCH   3  32
TORSDOF 11
ENDMDL
