MODEL 14
REMARK VINA RESULT: -6.302747521      2.218      3.400
REMARK  11 active torsions:
REMARK  status: ('A' for Active; 'I' for Inactive)
REMARK    1  A    between atoms: C2_2  and  O2_4 
REMARK    2  A    between atoms: O2_4  and  C3_5 
REMARK    3  A    between atoms: C4_6  and  O3_7 
REMARK    4  A    between atoms: C5_9  and  O4_10 
REMARK    5  A    between atoms: C6_12  and  C7_13 
REMARK    6  A    between atoms: C7_13  and  O5_14 
REMARK    7  A    between atoms: C8_17  and  S1_18 
REMARK    8  A    between atoms: S1_18  and  N1_21 
REMARK    9  A    between atoms: C11_24  and  O9_25 
REMARK   10  A    between atoms: O9_25  and  S2_26 
REMARK   11  A    between atoms: S2_26  and  N2_27 
ROOT
HETATM    1  C3  UNL     1       1.351   7.294  80.925  1.00  0.00     0.208 C 
HETATM    2  C4  UNL     1       2.480   8.329  81.052  1.00  0.00     0.182 C 
HETATM    3  C5  UNL     1       3.162   8.031  82.348  1.00  0.00     0.180 C 
HETATM    4  C6  UNL     1       2.265   7.776  83.510  1.00  0.00     0.178 C 
HETATM    5  O6  UNL     1       1.083   7.147  83.249  1.00  0.00    -0.356 OA
HETATM    6  C8  UNL     1       0.452   7.587  82.122  1.00  0.00     0.296 C 
ENDROOT
BRANCH   6   7
HETATM    7  S1  UNL     1      -1.153   6.865  81.897  1.00  0.00     0.258 S 
HETATM    8  O7  UNL     1      -2.211   7.846  82.312  1.00  0.00    -0.203 OA
HETATM    9  O8  UNL     1      -1.395   6.553  80.434  1.00  0.00    -0.203 OA
BRANCH   7  10
HETATM   10  N1  UNL     1      -1.353   5.440  82.803  1.00  0.00    -0.308 N 
HETATM   11  C9  UNL     1      -0.445   4.386  82.469  1.00  0.00     0.137 C 
HETATM   12  C10 UNL     1      -0.916   3.132  83.176  1.00  0.00     0.054 C 
HETATM   13  C11 UNL     1      -0.676   3.336  84.632  1.00  0.00     0.147 C 
HETATM   14  C12 UNL     1      -0.930   4.712  85.128  1.00  0.00     0.054 C 
HETATM   15  C13 UNL     1      -1.596   5.640  84.181  1.00  0.00     0.137 C 
BRANCH  13  16
HETATM   16  O9  UNL     1      -1.492   2.406  85.316  1.00  0.00    -0.254 OA
BRANCH  16  17
HETATM   17  S2  UNL     1      -0.619   1.149  85.959  1.00  0.00     0.355 S 
HETATM   18  O10 UNL     1       0.742   1.704  86.352  1.00  0.00    -0.176 OA
HETATM   19  O11 UNL     1      -0.384   0.027  85.019  1.00  0.00    -0.176 OA
BRANCH  17  20
HETATM   20  N2  UNL     1      -1.333   0.539  87.410  1.00  0.00    -0.306 N 
ATOM     21  H22 UNL     1      -1.347   1.059  88.286  1.00  0.00     0.171 HD
ATOM     22  H21 UNL     1      -1.731  -0.391  87.278  1.00  0.00     0.171 HD
ENDBRANCH  17  20
ENDBRANCH  16  17
ENDBRANCH  13  16
ENDBRANCH   7  10
ENDBRANCH   6   7
BRANCH   1  23
HETATM   23  O2  UNL     1       1.989   6.030  81.062  1.00  0.00    -0.310 OA
BRANCH  23  24
HETATM   24  C2  UNL     1       2.209   5.181  79.977  1.00  0.00     0.255 C 
HETATM   25  C1  UNL     1       1.128   4.724  79.085  1.00  0.00     0.126 C 
HETATM   26  O1  UNL     1       3.399   4.815  79.787  1.00  0.00    -0.266 OA
ENDBRANCH  23  24
ENDBRANCH   1  23
BRANCH   2  27
HETATM   27  O3  UNL     1       3.368   8.074  80.003  1.00  0.00    -0.390 OA
ATOM     28  H3  UNL     1       4.155   7.719  80.400  1.00  0.00     0.210 HD
ENDBRANCH   2  27
BRANCH   4  29
HETATM   29  C7  UNL     1       2.099   9.029  84.380  1.00  0.00     0.198 C 
BRANCH  29  30
HETATM   30  O5  UNL     1       2.955   9.058  85.450  1.00  0.00    -0.398 OA
ATOM     31  H5  UNL     1       3.500   8.282  85.512  1.00  0.00     0.209 HD
ENDBRANCH  29  30
ENDBRANCH   4  29
BRANCH   3  32
HETATM   32  O4  UNL     1       4.017   9.081  82.697  1.00  0.00    -0.390 OA
ATOM     33  H4  UNL     1       4.696   8.771  83.284  1.00  0.00     0.210 HD
ENDBRANCH   3  32
TORSDOF 11
ENDMDL
