MODEL 3
REMARK VINA RESULT: -6.675423607      2.756      7.642
REMARK  11 active torsions:
REMARK  status: ('A' for Active; 'I' for Inactive)
REMARK    1  A    between atoms: C2_2  and  O2_4 
REMARK    2  A    between atoms: O2_4  and  C3_5 
REMARK    3  A    between atoms: C4_6  and  O3_7 
REMARK    4  A    between atoms: C5_9  and  O4_10 
REMARK    5  A    between atoms: C6_12  and  C7_13 
REMARK    6  A    between atoms: C7_13  and  O5_14 
REMARK    7  A    between atoms: C8_17  and  S1_18 
REMARK    8  A    between atoms: S1_18  and  N1_21 
REMARK    9  A    between atoms: C11_24  and  O9_25 
REMARK   10  A    between atoms: O9_25  and  S2_26 
REMARK   11  A    between atoms: S2_26  and  N2_27 
ROOT
HETATM    1  C3  UNL     1       0.080   2.061  84.436  1.00  0.00     0.208 C 
HETATM    2  C4  UNL     1      -0.216   1.145  85.635  1.00  0.00     0.182 C 
HETATM    3  C5  UNL     1      -1.673   1.305  85.921  1.00  0.00     0.180 C 
HETATM    4  C6  UNL     1      -2.185   2.705  85.923  1.00  0.00     0.178 C 
HETATM    5  O6  UNL     1      -1.605   3.573  85.044  1.00  0.00    -0.356 OA
HETATM    6  C8  UNL     1      -0.249   3.457  84.955  1.00  0.00     0.296 C 
ENDROOT
BRANCH   6   7
HETATM    7  S1  UNL     1       0.490   4.701  83.928  1.00  0.00     0.258 S 
HETATM    8  O7  UNL     1       1.006   5.822  84.784  1.00  0.00    -0.203 OA
HETATM    9  O8  UNL     1       1.681   4.136  83.182  1.00  0.00    -0.203 OA
BRANCH   7  10
HETATM   10  N1  UNL     1      -0.610   5.345  82.802  1.00  0.00    -0.308 N 
HETATM   11  C9  UNL     1      -1.276   6.537  83.229  1.00  0.00     0.137 C 
HETATM   12  C10 UNL     1      -2.381   6.826  82.236  1.00  0.00     0.054 C 
HETATM   13  C11 UNL     1      -1.728   7.242  80.964  1.00  0.00     0.147 C 
HETATM   14  C12 UNL     1      -0.481   6.510  80.626  1.00  0.00     0.054 C 
HETATM   15  C13 UNL     1      -0.168   5.324  81.460  1.00  0.00     0.137 C 
BRANCH  13  16
HETATM   16  O9  UNL     1      -2.688   7.083  79.938  1.00  0.00    -0.254 OA
BRANCH  16  17
HETATM   17  S2  UNL     1      -2.561   8.249  78.764  1.00  0.00     0.355 S 
HETATM   18  O10 UNL     1      -3.959   8.480  78.210  1.00  0.00    -0.176 OA
HETATM   19  O11 UNL     1      -1.691   7.871  77.623  1.00  0.00    -0.176 OA
BRANCH  17  20
HETATM   20  N2  UNL     1      -2.034   9.764  79.407  1.00  0.00    -0.306 N 
ATOM     21  H22 UNL     1      -1.764   9.891  80.382  1.00  0.00     0.171 HD
ATOM     22  H21 UNL     1      -2.028  10.498  78.700  1.00  0.00     0.171 HD
ENDBRANCH  17  20
ENDBRANCH  16  17
ENDBRANCH  13  16
ENDBRANCH   7  10
ENDBRANCH   6   7
BRANCH   1  23
HETATM   23  O2  UNL     1      -0.842   1.661  83.428  1.00  0.00    -0.310 OA
BRANCH  23  24
HETATM   24  C2  UNL     1      -0.429   1.195  82.179  1.00  0.00     0.255 C 
HETATM   25  C1  UNL     1      -0.829   1.834  80.912  1.00  0.00     0.126 C 
HETATM   26  O1  UNL     1       0.320   0.182  82.181  1.00  0.00    -0.266 OA
ENDBRANCH  23  24
ENDBRANCH   1  23
BRANCH   2  27
HETATM   27  O3  UNL     1       0.019  -0.162  85.198  1.00  0.00    -0.390 OA
ATOM     28  H3  UNL     1       0.785  -0.467  85.671  1.00  0.00     0.210 HD
ENDBRANCH   2  27
BRANCH   4  29
HETATM   29  C7  UNL     1      -2.281   3.268  87.347  1.00  0.00     0.198 C 
BRANCH  29  30
HETATM   30  O5  UNL     1      -2.675   4.581  87.381  1.00  0.00    -0.398 OA
ATOM     31  H5  UNL     1      -3.602   4.696  87.208  1.00  0.00     0.209 HD
ENDBRANCH  29  30
ENDBRANCH   4  29
BRANCH   3  32
HETATM   32  O4  UNL     1      -1.987   0.739  87.161  1.00  0.00    -0.390 OA
ATOM     33  H4  UNL     1      -2.926   0.763  87.304  1.00  0.00     0.210 HD
ENDBRANCH   3  32
TORSDOF 11
ENDMDL
