MODEL 13
REMARK VINA RESULT: -6.355796700      3.709      7.564
REMARK  11 active torsions:
REMARK  status: ('A' for Active; 'I' for Inactive)
REMARK    1  A    between atoms: C2_2  and  O2_4 
REMARK    2  A    between atoms: O2_4  and  C3_5 
REMARK    3  A    between atoms: C4_6  and  O3_7 
REMARK    4  A    between atoms: C5_9  and  O4_10 
REMARK    5  A    between atoms: C6_12  and  C7_13 
REMARK    6  A    between atoms: C7_13  and  O5_14 
REMARK    7  A    between atoms: C8_17  and  S1_18 
REMARK    8  A    between atoms: S1_18  and  N1_21 
REMARK    9  A    between atoms: C11_24  and  O9_25 
REMARK   10  A    between atoms: O9_25  and  S2_26 
REMARK   11  A    between atoms: S2_26  and  N2_27 
ROOT
HETATM    1  C3  UNL     1      -0.049   2.434  84.870  1.00  0.00     0.208 C 
HETATM    2  C4  UNL     1      -0.011   1.441  86.043  1.00  0.00     0.182 C 
HETATM    3  C5  UNL     1      -1.434   1.073  86.311  1.00  0.00     0.180 C 
HETATM    4  C6  UNL     1      -2.403   2.205  86.339  1.00  0.00     0.178 C 
HETATM    5  O6  UNL     1      -2.160   3.245  85.490  1.00  0.00    -0.356 OA
HETATM    6  C8  UNL     1      -0.848   3.613  85.418  1.00  0.00     0.296 C 
ENDROOT
BRANCH   6   7
HETATM    7  S1  UNL     1      -0.587   5.065  84.431  1.00  0.00     0.258 S 
HETATM    8  O7  UNL     1      -1.754   5.265  83.508  1.00  0.00    -0.203 OA
HETATM    9  O8  UNL     1      -0.507   6.296  85.310  1.00  0.00    -0.203 OA
BRANCH   7  10
HETATM   10  N1  UNL     1       0.830   4.963  83.496  1.00  0.00    -0.308 N 
HETATM   11  C9  UNL     1       0.656   5.273  82.110  1.00  0.00     0.137 C 
HETATM   12  C10 UNL     1       1.933   4.894  81.391  1.00  0.00     0.054 C 
HETATM   13  C11 UNL     1       2.981   5.860  81.825  1.00  0.00     0.147 C 
HETATM   14  C12 UNL     1       2.923   6.256  83.254  1.00  0.00     0.054 C 
HETATM   15  C13 UNL     1       1.989   5.487  84.112  1.00  0.00     0.137 C 
BRANCH  13  16
HETATM   16  O9  UNL     1       4.231   5.269  81.527  1.00  0.00    -0.254 OA
BRANCH  16  17
HETATM   17  S2  UNL     1       4.789   5.689  80.022  1.00  0.00     0.355 S 
HETATM   18  O10 UNL     1       4.504   4.516  79.096  1.00  0.00    -0.176 OA
HETATM   19  O11 UNL     1       6.248   5.951  79.965  1.00  0.00    -0.176 OA
BRANCH  17  20
HETATM   20  N2  UNL     1       3.939   7.044  79.369  1.00  0.00    -0.306 N 
ATOM     21  H22 UNL     1       4.337   7.982  79.321  1.00  0.00     0.171 HD
ATOM     22  H21 UNL     1       3.006   6.791  79.044  1.00  0.00     0.171 HD
ENDBRANCH  17  20
ENDBRANCH  16  17
ENDBRANCH  13  16
ENDBRANCH   7  10
ENDBRANCH   6   7
BRANCH   1  23
HETATM   23  O2  UNL     1      -0.767   1.766  83.840  1.00  0.00    -0.310 OA
BRANCH  23  24
HETATM   24  C2  UNL     1      -0.235   1.568  82.565  1.00  0.00     0.255 C 
HETATM   25  C1  UNL     1      -0.849   2.122  81.345  1.00  0.00     0.126 C 
HETATM   26  O1  UNL     1       0.819   0.879  82.500  1.00  0.00    -0.266 OA
ENDBRANCH  23  24
ENDBRANCH   1  23
BRANCH   2  27
HETATM   27  O3  UNL     1       0.669   0.311  85.578  1.00  0.00    -0.390 OA
ATOM     28  H3  UNL     1       0.004  -0.289  85.262  1.00  0.00     0.210 HD
ENDBRANCH   2  27
BRANCH   4  29
HETATM   29  C7  UNL     1      -2.698   2.659  87.775  1.00  0.00     0.198 C 
BRANCH  29  30
HETATM   30  O5  UNL     1      -1.564   2.914  88.502  1.00  0.00    -0.398 OA
ATOM     31  H5  UNL     1      -0.856   3.267  87.975  1.00  0.00     0.209 HD
ENDBRANCH  29  30
ENDBRANCH   4  29
BRANCH   3  32
HETATM   32  O4  UNL     1      -1.536   0.399  87.533  1.00  0.00    -0.390 OA
ATOM     33  H4  UNL     1      -0.677   0.300  87.926  1.00  0.00     0.210 HD
ENDBRANCH   3  32
TORSDOF 11
ENDMDL
