MODEL 2
REMARK VINA RESULT: -9.251852860      0.151      1.469
REMARK  5 active torsions:
REMARK  status: ('A' for Active; 'I' for Inactive)
REMARK    1  A    between atoms: C2_2  and  C5_5 
REMARK       I    between atoms: C5_5  and  N1_7 
REMARK    2  A    between atoms: N1_7  and  C6_9 
REMARK    3  A    between atoms: C6_9  and  C7_10 
REMARK    4  A    between atoms: C6_9  and  C8_16 
REMARK       I    between atoms: C7_10  and  N2_12 
REMARK    5  A    between atoms: N2_12  and  O3_14 
ROOT
HETATM    1  C6  UNL     1      88.772 120.504  13.103  1.00  0.00     0.212 C 
ENDROOT
BRANCH   1   2
HETATM    2  N1  UNL     1      89.222 119.162  12.776  1.00  0.00    -0.343 N 
HETATM    3  C5  UNL     1      90.499 118.972  12.150  1.00  0.00     0.226 C 
HETATM    4  O1  UNL     1      91.190 119.996  11.905  1.00  0.00    -0.273 OA
ATOM      5  H1  UNL     1      88.633 118.358  12.990  1.00  0.00     0.163 HD
BRANCH   3   6
HETATM    6  C2  UNL     1      90.913 117.594  11.836  1.00  0.00     0.030 C 
HETATM    7  C1  UNL     1      92.380 117.406  12.159  1.00  0.00     0.024 C 
HETATM    8  C3  UNL     1      90.042 116.638  12.618  1.00  0.00     0.024 C 
HETATM    9  C4  UNL     1      90.713 117.297  10.365  1.00  0.00     0.024 C 
ENDBRANCH   3   6
ENDBRANCH   1   2
BRANCH   1  10
HETATM   10  C7  UNL     1      87.802 120.967  12.055  1.00  0.00     0.268 C 
HETATM   11  O2  UNL     1      86.564 120.809  12.222  1.00  0.00    -0.269 OA
HETATM   12  N2  UNL     1      88.273 121.582  10.880  1.00  0.00    -0.235 N 
ATOM     13  H2  UNL     1      89.280 121.700  10.769  1.00  0.00     0.197 HD
BRANCH  12  14
HETATM   14  O3  UNL     1      87.466 122.026   9.892  1.00  0.00    -0.287 OA
ATOM     15  H3  UNL     1      87.393 121.605   9.043  1.00  0.00     0.244 HD
ENDBRANCH  12  14
ENDBRANCH   1  10
BRANCH   1  16
HETATM   16  C8  UNL     1      88.096 120.462  14.432  1.00  0.00    -0.026 A 
HETATM   17  C9  UNL     1      88.149 119.357  15.224  1.00  0.00     0.011 A 
HETATM   18  C10 UNL     1      87.535 119.285  16.461  1.00  0.00     0.019 A 
HETATM   19  C11 UNL     1      86.847 120.393  16.885  1.00  0.00     0.011 A 
HETATM   20 BR1  UNL     1      85.976 120.386  18.564  1.00  0.00    -0.051 Br
HETATM   21  C12 UNL     1      86.775 121.528  16.109  1.00  0.00     0.019 A 
HETATM   22  C13 UNL     1      87.394 121.578  14.879  1.00  0.00     0.011 A 
ENDBRANCH   1  16
TORSDOF 5
ENDMDL
