MODEL 1
REMARK VINA RESULT: -9.327014772      0.000      0.000
REMARK  5 active torsions:
REMARK  status: ('A' for Active; 'I' for Inactive)
REMARK    1  A    between atoms: C2_2  and  C5_5 
REMARK       I    between atoms: C5_5  and  N1_7 
REMARK    2  A    between atoms: N1_7  and  C6_9 
REMARK    3  A    between atoms: C6_9  and  C7_10 
REMARK    4  A    between atoms: C6_9  and  C8_16 
REMARK       I    between atoms: C7_10  and  N2_12 
REMARK    5  A    between atoms: N2_12  and  O3_14 
ROOT
HETATM    1  C6  UNL     1      88.733 120.482  13.178  1.00  0.00     0.212 C 
ENDROOT
BRANCH   1   2
HETATM    2  N1  UNL     1      89.162 119.130  12.865  1.00  0.00    -0.343 N 
HETATM    3  C5  UNL     1      90.471 118.904  12.322  1.00  0.00     0.226 C 
HETATM    4  O1  UNL     1      91.209 119.908  12.137  1.00  0.00    -0.273 OA
ATOM      5  H1  UNL     1      88.534 118.343  13.029  1.00  0.00     0.163 HD
BRANCH   3   6
HETATM    6  C2  UNL     1      90.861 117.517  12.019  1.00  0.00     0.030 C 
HETATM    7  C1  UNL     1      90.679 117.237  10.542  1.00  0.00     0.024 C 
HETATM    8  C3  UNL     1      92.293 117.312  12.455  1.00  0.00     0.024 C 
HETATM    9  C4  UNL     1      90.003 116.539  12.794  1.00  0.00     0.024 C 
ENDBRANCH   3   6
ENDBRANCH   1   2
BRANCH   1  10
HETATM   10  C7  UNL     1      87.774 120.952  12.125  1.00  0.00     0.268 C 
HETATM   11  O2  UNL     1      86.533 120.811  12.288  1.00  0.00    -0.269 OA
HETATM   12  N2  UNL     1      88.258 121.553  10.947  1.00  0.00    -0.235 N 
ATOM     13  H2  UNL     1      89.266 121.656  10.839  1.00  0.00     0.197 HD
BRANCH  12  14
HETATM   14  O3  UNL     1      87.459 122.001   9.953  1.00  0.00    -0.287 OA
ATOM     15  H3  UNL     1      87.350 122.920   9.740  1.00  0.00     0.244 HD
ENDBRANCH  12  14
ENDBRANCH   1  10
BRANCH   1  16
HETATM   16  C8  UNL     1      88.055 120.464  14.507  1.00  0.00    -0.026 A 
HETATM   17  C9  UNL     1      87.321 121.522  14.946  1.00  0.00     0.011 A 
HETATM   18  C10 UNL     1      86.680 121.537  16.172  1.00  0.00     0.019 A 
HETATM   19  C11 UNL     1      86.805 120.422  16.960  1.00  0.00     0.011 A 
HETATM   20 BR1  UNL     1      85.962 120.355  18.651  1.00  0.00    -0.051 Br
HETATM   21  C12 UNL     1      87.540 119.335  16.545  1.00  0.00     0.019 A 
HETATM   22  C13 UNL     1      88.171 119.340  15.320  1.00  0.00     0.011 A 
ENDBRANCH   1  16
TORSDOF 5
ENDMDL
