MODEL 3
REMARK VINA RESULT: -9.092439638      0.813      1.430
REMARK  5 active torsions:
REMARK  status: ('A' for Active; 'I' for Inactive)
REMARK    1  A    between atoms: C2_2  and  C5_5 
REMARK       I    between atoms: C5_5  and  N1_7 
REMARK    2  A    between atoms: N1_7  and  C6_9 
REMARK    3  A    between atoms: C6_9  and  C7_10 
REMARK    4  A    between atoms: C6_9  and  C8_16 
REMARK       I    between atoms: C7_10  and  N2_12 
REMARK    5  A    between atoms: N2_12  and  O3_14 
ROOT
HETATM    1  C6  UNL     1      88.581 120.610  12.824  1.00  0.00     0.212 C 
ENDROOT
BRANCH   1   2
HETATM    2  N1  UNL     1      89.022 119.277  12.454  1.00  0.00    -0.343 N 
HETATM    3  C5  UNL     1      90.398 119.048  12.119  1.00  0.00     0.226 C 
HETATM    4  O1  UNL     1      91.183 120.033  12.161  1.00  0.00    -0.273 OA
ATOM      5  H1  UNL     1      88.356 118.505  12.433  1.00  0.00     0.163 HD
BRANCH   3   6
HETATM    6  C2  UNL     1      90.799 117.680  11.750  1.00  0.00     0.030 C 
HETATM    7  C1  UNL     1      90.034 116.672  12.581  1.00  0.00     0.024 C 
HETATM    8  C3  UNL     1      90.554 117.488  10.272  1.00  0.00     0.024 C 
HETATM    9  C4  UNL     1      92.278 117.470  11.999  1.00  0.00     0.024 C 
ENDBRANCH   3   6
ENDBRANCH   1   2
BRANCH   1  10
HETATM   10  C7  UNL     1      87.510 121.057  11.872  1.00  0.00     0.268 C 
HETATM   11  O2  UNL     1      87.746 121.119  10.637  1.00  0.00    -0.269 OA
HETATM   12  N2  UNL     1      86.237 121.409  12.357  1.00  0.00    -0.235 N 
ATOM     13  H2  UNL     1      86.070 121.349  13.361  1.00  0.00     0.197 HD
BRANCH  12  14
HETATM   14  O3  UNL     1      85.222 121.821  11.565  1.00  0.00    -0.287 OA
ATOM     15  H3  UNL     1      84.800 122.668  11.649  1.00  0.00     0.244 HD
ENDBRANCH  12  14
ENDBRANCH   1  10
BRANCH   1  16
HETATM   16  C8  UNL     1      88.033 120.557  14.210  1.00  0.00    -0.026 A 
HETATM   17  C9  UNL     1      87.430 121.635  14.780  1.00  0.00     0.011 A 
HETATM   18  C10 UNL     1      86.911 121.618  16.062  1.00  0.00     0.019 A 
HETATM   19  C11 UNL     1      87.023 120.449  16.770  1.00  0.00     0.011 A 
HETATM   20 BR1  UNL     1      86.342 120.335  18.530  1.00  0.00    -0.051 Br
HETATM   21  C12 UNL     1      87.627 119.340  16.223  1.00  0.00     0.019 A 
HETATM   22  C13 UNL     1      88.137 119.377  14.943  1.00  0.00     0.011 A 
ENDBRANCH   1  16
TORSDOF 5
ENDMDL
