MODEL 7
REMARK VINA RESULT: -7.403411758      2.814      5.586
REMARK  5 active torsions:
REMARK  status: ('A' for Active; 'I' for Inactive)
REMARK    1  A    between atoms: C2_2  and  C5_5 
REMARK       I    between atoms: C5_5  and  N1_7 
REMARK    2  A    between atoms: N1_7  and  C6_9 
REMARK    3  A    between atoms: C6_9  and  C7_10 
REMARK    4  A    between atoms: C6_9  and  C8_16 
REMARK       I    between atoms: C7_10  and  N2_12 
REMARK    5  A    between atoms: N2_12  and  O3_14 
ROOT
HETATM    1  C6  UNL     1      89.221 118.815  12.699  1.00  0.00     0.212 C 
ENDROOT
BRANCH   1   2
HETATM    2  N1  UNL     1      88.998 119.380  14.018  1.00  0.00    -0.343 N 
HETATM    3  C5  UNL     1      87.843 120.197  14.259  1.00  0.00     0.226 C 
HETATM    4  O1  UNL     1      87.055 120.394  13.296  1.00  0.00    -0.273 OA
ATOM      5  H1  UNL     1      89.660 119.196  14.772  1.00  0.00     0.163 HD
BRANCH   3   6
HETATM    6  C2  UNL     1      87.660 120.748  15.612  1.00  0.00     0.030 C 
HETATM    7  C1  UNL     1      86.263 121.314  15.757  1.00  0.00     0.024 C 
HETATM    8  C3  UNL     1      87.928 119.654  16.619  1.00  0.00     0.024 C 
HETATM    9  C4  UNL     1      88.650 121.863  15.874  1.00  0.00     0.024 C 
ENDBRANCH   3   6
ENDBRANCH   1   2
BRANCH   1  10
HETATM   10  C7  UNL     1      90.443 119.442  12.094  1.00  0.00     0.268 C 
HETATM   11  O2  UNL     1      91.579 119.220  12.587  1.00  0.00    -0.269 OA
HETATM   12  N2  UNL     1      90.322 120.282  10.971  1.00  0.00    -0.235 N 
ATOM     13  H2  UNL     1      89.391 120.445  10.589  1.00  0.00     0.197 HD
BRANCH  12  14
HETATM   14  O3  UNL     1      91.373 120.883  10.370  1.00  0.00    -0.287 OA
ATOM     15  H3  UNL     1      91.674 121.757  10.589  1.00  0.00     0.244 HD
ENDBRANCH  12  14
ENDBRANCH   1  10
BRANCH   1  16
HETATM   16  C8  UNL     1      89.427 117.345  12.845  1.00  0.00    -0.026 A 
HETATM   17  C9  UNL     1      89.986 116.602  11.852  1.00  0.00     0.011 A 
HETATM   18  C10 UNL     1      90.192 115.238  11.956  1.00  0.00     0.019 A 
HETATM   19  C11 UNL     1      89.807 114.632  13.124  1.00  0.00     0.011 A 
HETATM   20 BR1  UNL     1      90.050 112.771  13.354  1.00  0.00    -0.051 Br
HETATM   21  C12 UNL     1      89.239 115.355  14.149  1.00  0.00     0.019 A 
HETATM   22  C13 UNL     1      89.043 116.714  14.025  1.00  0.00     0.011 A 
ENDBRANCH   1  16
TORSDOF 5
ENDMDL
