MODEL 8
REMARK VINA RESULT: -7.352123123      2.764      5.584
REMARK  5 active torsions:
REMARK  status: ('A' for Active; 'I' for Inactive)
REMARK    1  A    between atoms: C2_2  and  C5_5 
REMARK       I    between atoms: C5_5  and  N1_7 
REMARK    2  A    between atoms: N1_7  and  C6_9 
REMARK    3  A    between atoms: C6_9  and  C7_10 
REMARK    4  A    between atoms: C6_9  and  C8_16 
REMARK       I    between atoms: C7_10  and  N2_12 
REMARK    5  A    between atoms: N2_12  and  O3_14 
ROOT
HETATM    1  C6  UNL     1      89.433 118.841  12.276  1.00  0.00     0.212 C 
ENDROOT
BRANCH   1   2
HETATM    2  N1  UNL     1      89.142 119.472  13.552  1.00  0.00    -0.343 N 
HETATM    3  C5  UNL     1      88.036 120.379  13.662  1.00  0.00     0.226 C 
HETATM    4  O1  UNL     1      87.349 120.595  12.628  1.00  0.00    -0.273 OA
ATOM      5  H1  UNL     1      89.722 119.272  14.366  1.00  0.00     0.163 HD
BRANCH   3   6
HETATM    6  C2  UNL     1      87.780 120.996  14.975  1.00  0.00     0.030 C 
HETATM    7  C1  UNL     1      88.166 120.039  16.083  1.00  0.00     0.024 C 
HETATM    8  C3  UNL     1      88.555 122.291  15.059  1.00  0.00     0.024 C 
HETATM    9  C4  UNL     1      86.312 121.331  15.131  1.00  0.00     0.024 C 
ENDBRANCH   3   6
ENDBRANCH   1   2
BRANCH   1  10
HETATM   10  C7  UNL     1      90.708 119.407  11.725  1.00  0.00     0.268 C 
HETATM   11  O2  UNL     1      91.811 119.133  12.267  1.00  0.00    -0.269 OA
HETATM   12  N2  UNL     1      90.677 120.250  10.598  1.00  0.00    -0.235 N 
ATOM     13  H2  UNL     1      89.772 120.457  10.176  1.00  0.00     0.197 HD
BRANCH  12  14
HETATM   14  O3  UNL     1      91.780 120.799  10.043  1.00  0.00    -0.287 OA
ATOM     15  H3  UNL     1      92.477 121.202  10.547  1.00  0.00     0.244 HD
ENDBRANCH  12  14
ENDBRANCH   1  10
BRANCH   1  16
HETATM   16  C8  UNL     1      89.588 117.374  12.502  1.00  0.00    -0.026 A 
HETATM   17  C9  UNL     1      89.182 116.785  13.659  1.00  0.00     0.011 A 
HETATM   18  C10 UNL     1      89.311 115.429  13.900  1.00  0.00     0.019 A 
HETATM   19  C11 UNL     1      89.877 114.667  12.911  1.00  0.00     0.011 A 
HETATM   20 BR1  UNL     1      90.094 112.804  13.153  1.00  0.00    -0.051 Br
HETATM   21  C12 UNL     1      90.298 115.232  11.728  1.00  0.00     0.019 A 
HETATM   22  C13 UNL     1      90.160 116.585  11.508  1.00  0.00     0.011 A 
ENDBRANCH   1  16
TORSDOF 5
ENDMDL
