MODEL 6
REMARK VINA RESULT: -7.473207827      2.783      5.546
REMARK  5 active torsions:
REMARK  status: ('A' for Active; 'I' for Inactive)
REMARK    1  A    between atoms: C2_2  and  C5_5 
REMARK       I    between atoms: C5_5  and  N1_7 
REMARK    2  A    between atoms: N1_7  and  C6_9 
REMARK    3  A    between atoms: C6_9  and  C7_10 
REMARK    4  A    between atoms: C6_9  and  C8_16 
REMARK       I    between atoms: C7_10  and  N2_12 
REMARK    5  A    between atoms: N2_12  and  O3_14 
ROOT
HETATM    1  C6  UNL     1      89.240 118.860  12.674  1.00  0.00     0.212 C 
ENDROOT
BRANCH   1   2
HETATM    2  N1  UNL     1      89.024 119.460  13.979  1.00  0.00    -0.343 N 
HETATM    3  C5  UNL     1      87.852 120.255  14.213  1.00  0.00     0.226 C 
HETATM    4  O1  UNL     1      87.043 120.401  13.258  1.00  0.00    -0.273 OA
ATOM      5  H1  UNL     1      89.703 119.318  14.726  1.00  0.00     0.163 HD
BRANCH   3   6
HETATM    6  C2  UNL     1      87.676 120.844  15.551  1.00  0.00     0.030 C 
HETATM    7  C1  UNL     1      88.005 119.821  16.617  1.00  0.00     0.024 C 
HETATM    8  C3  UNL     1      88.557 122.067  15.659  1.00  0.00     0.024 C 
HETATM    9  C4  UNL     1      86.244 121.293  15.754  1.00  0.00     0.024 C 
ENDBRANCH   3   6
ENDBRANCH   1   2
BRANCH   1  10
HETATM   10  C7  UNL     1      90.473 119.452  12.056  1.00  0.00     0.268 C 
HETATM   11  O2  UNL     1      91.608 119.193  12.534  1.00  0.00    -0.269 OA
HETATM   12  N2  UNL     1      90.364 120.301  10.939  1.00  0.00    -0.235 N 
ATOM     13  H2  UNL     1      89.434 120.495  10.570  1.00  0.00     0.197 HD
BRANCH  12  14
HETATM   14  O3  UNL     1      91.425 120.873  10.328  1.00  0.00    -0.287 OA
ATOM     15  H3  UNL     1      91.616 120.773   9.403  1.00  0.00     0.244 HD
ENDBRANCH  12  14
ENDBRANCH   1  10
BRANCH   1  16
HETATM   16  C8  UNL     1      89.423 117.391  12.857  1.00  0.00    -0.026 A 
HETATM   17  C9  UNL     1      89.963 116.613  11.881  1.00  0.00     0.011 A 
HETATM   18  C10 UNL     1      90.147 115.249  12.018  1.00  0.00     0.019 A 
HETATM   19  C11 UNL     1      89.758 114.680  13.204  1.00  0.00     0.011 A 
HETATM   20 BR1  UNL     1      89.972 112.821  13.481  1.00  0.00    -0.051 Br
HETATM   21  C12 UNL     1      89.209 115.438  14.212  1.00  0.00     0.019 A 
HETATM   22  C13 UNL     1      89.034 116.796  14.055  1.00  0.00     0.011 A 
ENDBRANCH   1  16
TORSDOF 5
ENDMDL
