MODEL 5
REMARK VINA RESULT: -9.389284734      4.185      5.589
REMARK  6 active torsions:
REMARK  status: ('A' for Active; 'I' for Inactive)
REMARK    1  A    between atoms: C2_2  and  C5_5 
REMARK       I    between atoms: C5_5  and  N1_7 
REMARK    2  A    between atoms: N1_7  and  C6_9 
REMARK    3  A    between atoms: C6_9  and  C7_10 
REMARK    4  A    between atoms: C6_9  and  C8_16 
REMARK       I    between atoms: C7_10  and  N2_12 
REMARK    5  A    between atoms: N2_12  and  O3_14 
REMARK    6  A    between atoms: C11_19  and  C12_20 
ROOT
HETATM    1  C8  UNL     1      15.139 118.551 131.958  1.00  0.00    -0.026 A 
HETATM    2  C9  UNL     1      16.228 117.682 132.003  1.00  0.00     0.010 A 
HETATM    3  C10 UNL     1      16.372 116.739 132.993  1.00  0.00     0.013 A 
HETATM    4  C11 UNL     1      15.403 116.658 133.969  1.00  0.00    -0.026 A 
HETATM    5  C18 UNL     1      14.321 117.511 133.934  1.00  0.00     0.013 A 
HETATM    6  C19 UNL     1      14.191 118.464 132.919  1.00  0.00     0.010 A 
ENDROOT
BRANCH   1   7
HETATM    7  C6  UNL     1      15.146 119.497 130.805  1.00  0.00     0.212 C 
BRANCH   7   8
HETATM    8  N1  UNL     1      15.523 118.795 129.588  1.00  0.00    -0.343 N 
HETATM    9  C5  UNL     1      16.683 119.223 128.891  1.00  0.00     0.226 C 
HETATM   10  O1  UNL     1      17.376 120.192 129.309  1.00  0.00    -0.273 OA
ATOM     11  H1  UNL     1      14.967 118.013 129.244  1.00  0.00     0.163 HD
BRANCH   9  12
HETATM   12  C2  UNL     1      17.106 118.542 127.653  1.00  0.00     0.030 C 
HETATM   13  C1  UNL     1      15.995 117.553 127.298  1.00  0.00     0.024 C 
HETATM   14  C3  UNL     1      18.373 117.737 127.845  1.00  0.00     0.024 C 
HETATM   15  C4  UNL     1      17.278 119.557 126.564  1.00  0.00     0.024 C 
ENDBRANCH   9  12
ENDBRANCH   7   8
BRANCH   7  16
HETATM   16  C7  UNL     1      13.868 120.176 130.583  1.00  0.00     0.268 C 
HETATM   17  O2  UNL     1      13.108 119.807 129.630  1.00  0.00    -0.269 OA
HETATM   18  N2  UNL     1      13.372 121.255 131.360  1.00  0.00    -0.235 N 
ATOM     19  H2  UNL     1      13.929 121.609 132.139  1.00  0.00     0.197 HD
BRANCH  18  20
HETATM   20  O3  UNL     1      12.159 121.833 131.086  1.00  0.00    -0.287 OA
ATOM     21  H3  UNL     1      11.354 121.330 131.125  1.00  0.00     0.244 HD
ENDBRANCH  18  20
ENDBRANCH   7  16
ENDBRANCH   1   7
BRANCH   4  22
HETATM   22  C12 UNL     1      15.557 115.655 135.017  1.00  0.00    -0.020 A 
HETATM   23  C13 UNL     1      15.028 115.922 136.261  1.00  0.00     0.058 A 
HETATM   24  C14 UNL     1      15.157 114.984 137.287  1.00  0.00     0.158 A 
HETATM   25  F1  UNL     1      14.625 115.285 138.494  1.00  0.00    -0.203 F 
HETATM   26  C15 UNL     1      15.816 113.797 137.032  1.00  0.00     0.193 A 
HETATM   27  F2  UNL     1      15.915 112.923 138.056  1.00  0.00    -0.200 F 
HETATM   28  C16 UNL     1      16.327 113.571 135.784  1.00  0.00     0.158 A 
HETATM   29  F3  UNL     1      16.977 112.394 135.539  1.00  0.00    -0.203 F 
HETATM   30  C17 UNL     1      16.210 114.493 134.744  1.00  0.00     0.058 A 
ENDBRANCH   4  22
TORSDOF 6
ENDMDL
