MODEL 1
REMARK VINA RESULT: -11.545043393      0.000      0.000
REMARK  6 active torsions:
REMARK  status: ('A' for Active; 'I' for Inactive)
REMARK    1  A    between atoms: C2_2  and  C5_5 
REMARK       I    between atoms: C5_5  and  N1_7 
REMARK    2  A    between atoms: N1_7  and  C6_9 
REMARK    3  A    between atoms: C6_9  and  C7_10 
REMARK    4  A    between atoms: C6_9  and  C8_16 
REMARK       I    between atoms: C7_10  and  N2_12 
REMARK    5  A    between atoms: N2_12  and  O3_14 
REMARK    6  A    between atoms: C11_19  and  C12_20 
ROOT
HETATM    1  C8  UNL     1      13.703 120.578 132.716  1.00  0.00    -0.026 A 
HETATM    2  C9  UNL     1      13.496 121.847 133.254  1.00  0.00     0.010 A 
HETATM    3  C10 UNL     1      13.182 122.039 134.579  1.00  0.00     0.013 A 
HETATM    4  C11 UNL     1      13.068 120.934 135.394  1.00  0.00    -0.026 A 
HETATM    5  C18 UNL     1      13.271 119.674 134.874  1.00  0.00     0.013 A 
HETATM    6  C19 UNL     1      13.591 119.498 133.523  1.00  0.00     0.010 A 
ENDROOT
BRANCH   1   7
HETATM    7  C6  UNL     1      14.048 120.566 131.265  1.00  0.00     0.212 C 
BRANCH   7   8
HETATM    8  N1  UNL     1      14.424 119.222 130.855  1.00  0.00    -0.343 N 
HETATM    9  C5  UNL     1      15.803 118.921 130.706  1.00  0.00     0.226 C 
HETATM   10  O1  UNL     1      16.690 119.794 130.921  1.00  0.00    -0.273 OA
ATOM     11  H1  UNL     1      13.714 118.513 130.678  1.00  0.00     0.163 HD
BRANCH   9  12
HETATM   12  C2  UNL     1      16.234 117.572 130.293  1.00  0.00     0.030 C 
HETATM   13  C1  UNL     1      17.754 117.533 130.448  1.00  0.00     0.024 C 
HETATM   14  C3  UNL     1      15.928 117.293 128.838  1.00  0.00     0.024 C 
HETATM   15  C4  UNL     1      15.585 116.553 131.180  1.00  0.00     0.024 C 
ENDBRANCH   9  12
ENDBRANCH   7   8
BRANCH   7  16
HETATM   16  C7  UNL     1      12.973 121.043 130.393  1.00  0.00     0.268 C 
HETATM   17  O2  UNL     1      13.205 121.267 129.161  1.00  0.00    -0.269 OA
HETATM   18  N2  UNL     1      11.638 121.294 130.807  1.00  0.00    -0.235 N 
ATOM     19  H2  UNL     1      11.379 121.141 131.781  1.00  0.00     0.197 HD
BRANCH  18  20
HETATM   20  O3  UNL     1      10.689 121.736 129.921  1.00  0.00    -0.287 OA
ATOM     21  H3  UNL     1      10.348 122.622 129.965  1.00  0.00     0.244 HD
ENDBRANCH  18  20
ENDBRANCH   7  16
ENDBRANCH   1   7
BRANCH   4  22
HETATM   22  C12 UNL     1      12.736 121.141 136.799  1.00  0.00    -0.020 A 
HETATM   23  C13 UNL     1      13.549 121.962 137.550  1.00  0.00     0.058 A 
HETATM   24  C14 UNL     1      13.260 122.182 138.898  1.00  0.00     0.158 A 
HETATM   25  F1  UNL     1      14.082 122.994 139.600  1.00  0.00    -0.203 F 
HETATM   26  C15 UNL     1      12.155 121.567 139.456  1.00  0.00     0.193 A 
HETATM   27  F2  UNL     1      11.918 121.811 140.762  1.00  0.00    -0.200 F 
HETATM   28  C16 UNL     1      11.375 120.759 138.677  1.00  0.00     0.158 A 
HETATM   29  F3  UNL     1      10.284 120.155 139.236  1.00  0.00    -0.203 F 
HETATM   30  C17 UNL     1      11.644 120.525 137.329  1.00  0.00     0.058 A 
ENDBRANCH   4  22
TORSDOF 6
ENDMDL
