MODEL 4
REMARK VINA RESULT: -9.420351928      4.297      5.647
REMARK  6 active torsions:
REMARK  status: ('A' for Active; 'I' for Inactive)
REMARK    1  A    between atoms: C2_2  and  C5_5 
REMARK       I    between atoms: C5_5  and  N1_7 
REMARK    2  A    between atoms: N1_7  and  C6_9 
REMARK    3  A    between atoms: C6_9  and  C7_10 
REMARK    4  A    between atoms: C6_9  and  C8_16 
REMARK       I    between atoms: C7_10  and  N2_12 
REMARK    5  A    between atoms: N2_12  and  O3_14 
REMARK    6  A    between atoms: C11_19  and  C12_20 
ROOT
HETATM    1  C8  UNL     1      15.545 118.266 131.118  1.00  0.00    -0.026 A 
HETATM    2  C9  UNL     1      16.496 117.264 131.299  1.00  0.00     0.010 A 
HETATM    3  C10 UNL     1      16.571 116.526 132.457  1.00  0.00     0.013 A 
HETATM    4  C11 UNL     1      15.673 116.794 133.467  1.00  0.00    -0.026 A 
HETATM    5  C18 UNL     1      14.728 117.782 133.299  1.00  0.00     0.013 A 
HETATM    6  C19 UNL     1      14.665 118.523 132.113  1.00  0.00     0.010 A 
ENDROOT
BRANCH   1   7
HETATM    7  C6  UNL     1      15.606 118.950 129.794  1.00  0.00     0.212 C 
BRANCH   7   8
HETATM    8  N1  UNL     1      15.753 117.967 128.733  1.00  0.00    -0.343 N 
HETATM    9  C5  UNL     1      16.894 118.045 127.891  1.00  0.00     0.226 C 
HETATM   10  O1  UNL     1      17.764 118.945 128.052  1.00  0.00    -0.273 OA
ATOM     11  H1  UNL     1      15.053 117.238 128.596  1.00  0.00     0.163 HD
BRANCH   9  12
HETATM   12  C2  UNL     1      17.087 117.069 126.801  1.00  0.00     0.030 C 
HETATM   13  C1  UNL     1      15.771 116.306 126.661  1.00  0.00     0.024 C 
HETATM   14  C3  UNL     1      18.159 116.052 127.127  1.00  0.00     0.024 C 
HETATM   15  C4  UNL     1      17.413 117.801 125.535  1.00  0.00     0.024 C 
ENDBRANCH   9  12
ENDBRANCH   7   8
BRANCH   7  16
HETATM   16  C7  UNL     1      14.443 119.791 129.503  1.00  0.00     0.268 C 
HETATM   17  O2  UNL     1      13.335 119.255 129.179  1.00  0.00    -0.269 OA
HETATM   18  N2  UNL     1      14.432 121.210 129.546  1.00  0.00    -0.235 N 
ATOM     19  H2  UNL     1      15.286 121.710 129.794  1.00  0.00     0.197 HD
BRANCH  18  20
HETATM   20  O3  UNL     1      13.295 121.922 129.262  1.00  0.00    -0.287 OA
ATOM     21  H3  UNL     1      13.334 122.746 128.791  1.00  0.00     0.244 HD
ENDBRANCH  18  20
ENDBRANCH   7  16
ENDBRANCH   1   7
BRANCH   4  22
HETATM   22  C12 UNL     1      15.754 116.009 134.693  1.00  0.00    -0.020 A 
HETATM   23  C13 UNL     1      14.777 116.184 135.648  1.00  0.00     0.058 A 
HETATM   24  C14 UNL     1      14.824 115.448 136.834  1.00  0.00     0.158 A 
HETATM   25  F1  UNL     1      13.846 115.650 137.746  1.00  0.00    -0.203 F 
HETATM   26  C15 UNL     1      15.857 114.551 137.026  1.00  0.00     0.193 A 
HETATM   27  F2  UNL     1      15.858 113.864 138.188  1.00  0.00    -0.200 F 
HETATM   28  C16 UNL     1      16.807 114.407 136.054  1.00  0.00     0.158 A 
HETATM   29  F3  UNL     1      17.826 113.518 136.251  1.00  0.00    -0.203 F 
HETATM   30  C17 UNL     1      16.780 115.131 134.862  1.00  0.00     0.058 A 
ENDBRANCH   4  22
TORSDOF 6
ENDMDL
