MODEL 2
REMARK VINA RESULT: -11.422547282      0.069      1.588
REMARK  6 active torsions:
REMARK  status: ('A' for Active; 'I' for Inactive)
REMARK    1  A    between atoms: C2_2  and  C5_5 
REMARK       I    between atoms: C5_5  and  N1_7 
REMARK    2  A    between atoms: N1_7  and  C6_9 
REMARK    3  A    between atoms: C6_9  and  C7_10 
REMARK    4  A    between atoms: C6_9  and  C8_16 
REMARK       I    between atoms: C7_10  and  N2_12 
REMARK    5  A    between atoms: N2_12  and  O3_14 
REMARK    6  A    between atoms: C11_19  and  C12_20 
ROOT
HETATM    1  C8  UNL     1      13.719 120.584 132.703  1.00  0.00    -0.026 A 
HETATM    2  C9  UNL     1      13.523 121.856 133.238  1.00  0.00     0.010 A 
HETATM    3  C10 UNL     1      13.213 122.054 134.563  1.00  0.00     0.013 A 
HETATM    4  C11 UNL     1      13.094 120.952 135.381  1.00  0.00    -0.026 A 
HETATM    5  C18 UNL     1      13.286 119.689 134.864  1.00  0.00     0.013 A 
HETATM    6  C19 UNL     1      13.602 119.507 133.513  1.00  0.00     0.010 A 
ENDROOT
BRANCH   1   7
HETATM    7  C6  UNL     1      14.061 120.566 131.251  1.00  0.00     0.212 C 
BRANCH   7   8
HETATM    8  N1  UNL     1      14.430 119.219 130.845  1.00  0.00    -0.343 N 
HETATM    9  C5  UNL     1      15.808 118.909 130.702  1.00  0.00     0.226 C 
HETATM   10  O1  UNL     1      16.699 119.777 130.918  1.00  0.00    -0.273 OA
ATOM     11  H1  UNL     1      13.716 118.514 130.666  1.00  0.00     0.163 HD
BRANCH   9  12
HETATM   12  C2  UNL     1      16.232 117.557 130.292  1.00  0.00     0.030 C 
HETATM   13  C1  UNL     1      17.752 117.510 130.451  1.00  0.00     0.024 C 
HETATM   14  C3  UNL     1      15.928 117.277 128.836  1.00  0.00     0.024 C 
HETATM   15  C4  UNL     1      15.575 116.543 131.180  1.00  0.00     0.024 C 
ENDBRANCH   9  12
ENDBRANCH   7   8
BRANCH   7  16
HETATM   16  C7  UNL     1      12.985 121.045 130.380  1.00  0.00     0.268 C 
HETATM   17  O2  UNL     1      13.217 121.271 129.149  1.00  0.00    -0.269 OA
HETATM   18  N2  UNL     1      11.650 121.293 130.794  1.00  0.00    -0.235 N 
ATOM     19  H2  UNL     1      11.391 121.138 131.768  1.00  0.00     0.197 HD
BRANCH  18  20
HETATM   20  O3  UNL     1      10.702 121.738 129.909  1.00  0.00    -0.287 OA
ATOM     21  H3  UNL     1      10.914 121.896 128.997  1.00  0.00     0.244 HD
ENDBRANCH  18  20
ENDBRANCH   7  16
ENDBRANCH   1   7
BRANCH   4  22
HETATM   22  C12 UNL     1      12.767 121.164 136.786  1.00  0.00    -0.020 A 
HETATM   23  C13 UNL     1      11.659 120.529 137.304  1.00  0.00     0.058 A 
HETATM   24  C14 UNL     1      11.317 120.710 138.646  1.00  0.00     0.158 A 
HETATM   25  F1  UNL     1      10.223 120.068 139.115  1.00  0.00    -0.203 F 
HETATM   26  C15 UNL     1      12.104 121.529 139.433  1.00  0.00     0.193 A 
HETATM   27  F2  UNL     1      11.732 121.671 140.723  1.00  0.00    -0.200 F 
HETATM   28  C16 UNL     1      13.194 122.141 138.882  1.00  0.00     0.158 A 
HETATM   29  F3  UNL     1      13.967 122.950 139.667  1.00  0.00    -0.203 F 
HETATM   30  C17 UNL     1      13.554 121.975 137.544  1.00  0.00     0.058 A 
ENDBRANCH   4  22
TORSDOF 6
ENDMDL
