MODEL 3
REMARK VINA RESULT: -9.426916972      4.316      5.592
REMARK  6 active torsions:
REMARK  status: ('A' for Active; 'I' for Inactive)
REMARK    1  A    between atoms: C2_2  and  C5_5 
REMARK       I    between atoms: C5_5  and  N1_7 
REMARK    2  A    between atoms: N1_7  and  C6_9 
REMARK    3  A    between atoms: C6_9  and  C7_10 
REMARK    4  A    between atoms: C6_9  and  C8_16 
REMARK       I    between atoms: C7_10  and  N2_12 
REMARK    5  A    between atoms: N2_12  and  O3_14 
REMARK    6  A    between atoms: C11_19  and  C12_20 
ROOT
HETATM    1  C8  UNL     1      15.525 118.255 131.095  1.00  0.00    -0.026 A 
HETATM    2  C9  UNL     1      16.442 117.217 131.255  1.00  0.00     0.010 A 
HETATM    3  C10 UNL     1      16.504 116.465 132.405  1.00  0.00     0.013 A 
HETATM    4  C11 UNL     1      15.627 116.755 133.427  1.00  0.00    -0.026 A 
HETATM    5  C18 UNL     1      14.716 117.778 133.281  1.00  0.00     0.013 A 
HETATM    6  C19 UNL     1      14.667 118.533 132.103  1.00  0.00     0.010 A 
ENDROOT
BRANCH   1   7
HETATM    7  C6  UNL     1      15.596 118.950 129.778  1.00  0.00     0.212 C 
BRANCH   7   8
HETATM    8  N1  UNL     1      15.745 117.975 128.709  1.00  0.00    -0.343 N 
HETATM    9  C5  UNL     1      16.855 118.095 127.833  1.00  0.00     0.226 C 
HETATM   10  O1  UNL     1      17.699 119.024 127.970  1.00  0.00    -0.273 OA
ATOM     11  H1  UNL     1      15.066 117.223 128.591  1.00  0.00     0.163 HD
BRANCH   9  12
HETATM   12  C2  UNL     1      17.049 117.129 126.734  1.00  0.00     0.030 C 
HETATM   13  C1  UNL     1      18.203 116.218 127.153  1.00  0.00     0.024 C 
HETATM   14  C3  UNL     1      17.461 117.804 125.444  1.00  0.00     0.024 C 
HETATM   15  C4  UNL     1      15.791 116.337 126.545  1.00  0.00     0.024 C 
ENDBRANCH   9  12
ENDBRANCH   7   8
BRANCH   7  16
HETATM   16  C7  UNL     1      14.438 119.798 129.487  1.00  0.00     0.268 C 
HETATM   17  O2  UNL     1      13.324 119.268 129.175  1.00  0.00    -0.269 OA
HETATM   18  N2  UNL     1      14.439 121.218 129.520  1.00  0.00    -0.235 N 
ATOM     19  H2  UNL     1      15.298 121.712 129.758  1.00  0.00     0.197 HD
BRANCH  18  20
HETATM   20  O3  UNL     1      13.305 121.936 129.237  1.00  0.00    -0.287 OA
ATOM     21  H3  UNL     1      12.865 122.446 129.907  1.00  0.00     0.244 HD
ENDBRANCH  18  20
ENDBRANCH   7  16
ENDBRANCH   1   7
BRANCH   4  22
HETATM   22  C12 UNL     1      15.694 115.955 134.645  1.00  0.00    -0.020 A 
HETATM   23  C13 UNL     1      16.666 114.983 134.737  1.00  0.00     0.058 A 
HETATM   24  C14 UNL     1      16.759 114.200 135.889  1.00  0.00     0.158 A 
HETATM   25  F1  UNL     1      17.727 113.256 135.940  1.00  0.00    -0.203 F 
HETATM   26  C15 UNL     1      15.867 114.418 136.922  1.00  0.00     0.193 A 
HETATM   27  F2  UNL     1      15.997 113.634 138.013  1.00  0.00    -0.200 F 
HETATM   28  C16 UNL     1      14.917 115.391 136.791  1.00  0.00     0.158 A 
HETATM   29  F3  UNL     1      14.038 115.601 137.816  1.00  0.00    -0.203 F 
HETATM   30  C17 UNL     1      14.806 116.186 135.650  1.00  0.00     0.058 A 
ENDBRANCH   4  22
TORSDOF 6
ENDMDL
