MODEL 2
REMARK VINA RESULT: -8.831939660      0.245      1.336
REMARK  6 active torsions:
REMARK  status: ('A' for Active; 'I' for Inactive)
REMARK    1  A    between atoms: C3_4  and  C4_5 
REMARK    2  A    between atoms: C7_8  and  C8_9 
REMARK    3  A    between atoms: C8_9  and  N2_10 
REMARK    4  A    between atoms: C8_9  and  C14_18 
REMARK       I    between atoms: N2_10  and  C9_12 
REMARK    5  A    between atoms: C9_12  and  C10_14 
REMARK       I    between atoms: C14_18  and  N3_20 
REMARK    6  A    between atoms: N3_20  and  O3_22 
ROOT
HETATM    1  C8  UNL     1      98.928 239.886  -9.321  1.00  0.00     0.212 C 
ENDROOT
BRANCH   1   2
HETATM    2  C7  UNL     1      98.294 238.897  -8.433  1.00  0.00    -0.026 A 
HETATM    3  C6  UNL     1      97.186 238.213  -8.873  1.00  0.00     0.010 A 
HETATM    4  C5  UNL     1      96.542 237.272  -8.090  1.00  0.00     0.013 A 
HETATM    5  C4  UNL     1      96.996 236.983  -6.823  1.00  0.00    -0.023 A 
HETATM    6  C16 UNL     1      98.109 237.672  -6.389  1.00  0.00     0.013 A 
HETATM    7  C15 UNL     1      98.753 238.611  -7.165  1.00  0.00     0.010 A 
BRANCH   5   8
HETATM    8  C3  UNL     1      96.298 235.987  -6.023  1.00  0.00     0.008 A 
HETATM    9  C2  UNL     1      95.088 236.118  -5.381  1.00  0.00     0.123 A 
HETATM   10  N1  UNL     1      94.782 234.960  -4.741  1.00  0.00    -0.307 N 
HETATM   11  C1  UNL     1      93.587 234.674  -3.940  1.00  0.00     0.177 C 
HETATM   12  N4  UNL     1      95.775 234.126  -4.978  1.00  0.00    -0.310 N 
HETATM   13  C17 UNL     1      96.723 234.704  -5.754  1.00  0.00     0.120 A 
ATOM     14  H4  UNL     1      95.823 233.171  -4.624  1.00  0.00     0.186 HD
ENDBRANCH   5   8
ENDBRANCH   1   2
BRANCH   1  15
HETATM   15  N2  UNL     1      98.386 239.892 -10.644  1.00  0.00    -0.343 N 
HETATM   16  C9  UNL     1      99.159 240.467 -11.710  1.00  0.00     0.226 C 
HETATM   17  O1  UNL     1     100.298 240.958 -11.478  1.00  0.00    -0.273 OA
ATOM     18  H2  UNL     1      97.465 239.494 -10.828  1.00  0.00     0.163 HD
BRANCH  16  19
HETATM   19  C10 UNL     1      98.655 240.504 -13.099  1.00  0.00     0.030 C 
HETATM   20  C11 UNL     1      98.734 241.891 -13.700  1.00  0.00     0.024 C 
HETATM   21  C12 UNL     1      99.459 239.588 -14.000  1.00  0.00     0.024 C 
HETATM   22  C13 UNL     1      97.234 240.012 -13.129  1.00  0.00     0.024 C 
ENDBRANCH  16  19
ENDBRANCH   1  15
BRANCH   1  23
HETATM   23  C14 UNL     1      98.696 241.237  -8.692  1.00  0.00     0.268 C 
HETATM   24  O2  UNL     1      97.536 241.593  -8.381  1.00  0.00    -0.269 OA
HETATM   25  N3  UNL     1      99.821 242.069  -8.470  1.00  0.00    -0.235 N 
ATOM     26  H3  UNL     1     100.752 241.747  -8.735  1.00  0.00     0.197 HD
BRANCH  25  27
HETATM   27  O3  UNL     1      99.665 243.283  -7.912  1.00  0.00    -0.287 OA
ATOM     28  H3  UNL     1      99.534 243.365  -6.974  1.00  0.00     0.244 HD
ENDBRANCH  25  27
ENDBRANCH   1  23
TORSDOF 6
ENDMDL
