MODEL 7
REMARK VINA RESULT: -7.518808944      2.428      7.716
REMARK  6 active torsions:
REMARK  status: ('A' for Active; 'I' for Inactive)
REMARK    1  A    between atoms: C3_4  and  C4_5 
REMARK    2  A    between atoms: C7_8  and  C8_9 
REMARK    3  A    between atoms: C8_9  and  N2_10 
REMARK    4  A    between atoms: C8_9  and  C14_18 
REMARK       I    between atoms: N2_10  and  C9_12 
REMARK    5  A    between atoms: C9_12  and  C10_14 
REMARK       I    between atoms: C14_18  and  N3_20 
REMARK    6  A    between atoms: N3_20  and  O3_22 
ROOT
HETATM    1  C8  UNL     1      97.782 240.158  -8.608  1.00  0.00     0.212 C 
ENDROOT
BRANCH   1   2
HETATM    2  C7  UNL     1      98.462 240.021  -9.907  1.00  0.00    -0.026 A 
HETATM    3  C6  UNL     1      99.586 239.235  -9.997  1.00  0.00     0.010 A 
HETATM    4  C5  UNL     1     100.273 239.064 -11.186  1.00  0.00     0.013 A 
HETATM    5  C4  UNL     1      99.846 239.683 -12.339  1.00  0.00    -0.023 A 
HETATM    6  C16 UNL     1      98.716 240.469 -12.241  1.00  0.00     0.013 A 
HETATM    7  C15 UNL     1      98.030 240.643 -11.059  1.00  0.00     0.010 A 
BRANCH   5   8
HETATM    8  C3  UNL     1     100.588 239.483 -13.575  1.00  0.00     0.008 A 
HETATM    9  C2  UNL     1     101.703 240.163 -14.009  1.00  0.00     0.123 A 
HETATM   10  N1  UNL     1     102.095 239.677 -15.214  1.00  0.00    -0.307 N 
HETATM   11  C1  UNL     1     103.234 240.119 -16.025  1.00  0.00     0.177 C 
HETATM   12  N4  UNL     1     101.248 238.716 -15.526  1.00  0.00    -0.310 N 
HETATM   13  C17 UNL     1     100.311 238.560 -14.559  1.00  0.00     0.120 A 
ATOM     14  H4  UNL     1     101.292 238.164 -16.381  1.00  0.00     0.186 HD
ENDBRANCH   5   8
ENDBRANCH   1   2
BRANCH   1  15
HETATM   15  N2  UNL     1      97.773 238.951  -7.842  1.00  0.00    -0.343 N 
HETATM   16  C9  UNL     1      96.590 238.134  -7.845  1.00  0.00     0.226 C 
HETATM   17  O1  UNL     1      95.578 238.482  -8.514  1.00  0.00    -0.273 OA
ATOM     18  H2  UNL     1      98.592 238.674  -7.302  1.00  0.00     0.163 HD
BRANCH  16  19
HETATM   19  C10 UNL     1      96.516 236.876  -7.074  1.00  0.00     0.030 C 
HETATM   20  C11 UNL     1      97.787 236.603  -6.297  1.00  0.00     0.024 C 
HETATM   21  C12 UNL     1      95.385 236.913  -6.067  1.00  0.00     0.024 C 
HETATM   22  C13 UNL     1      96.232 235.733  -8.009  1.00  0.00     0.024 C 
ENDBRANCH  16  19
ENDBRANCH   1  15
BRANCH   1  23
HETATM   23  C14 UNL     1      98.534 241.217  -7.842  1.00  0.00     0.268 C 
HETATM   24  O2  UNL     1      98.546 241.196  -6.589  1.00  0.00    -0.269 OA
HETATM   25  N3  UNL     1      99.213 242.216  -8.581  1.00  0.00    -0.235 N 
ATOM     26  H3  UNL     1      99.182 242.203  -9.601  1.00  0.00     0.197 HD
BRANCH  25  27
HETATM   27  O3  UNL     1      99.898 243.183  -7.944  1.00  0.00    -0.287 OA
ATOM     28  H3  UNL     1      99.542 244.063  -7.886  1.00  0.00     0.244 HD
ENDBRANCH  25  27
ENDBRANCH   1  23
TORSDOF 6
ENDMDL
