MODEL 6
REMARK VINA RESULT: -7.570871609      1.362      1.742
REMARK  6 active torsions:
REMARK  status: ('A' for Active; 'I' for Inactive)
REMARK    1  A    between atoms: C3_4  and  C4_5 
REMARK    2  A    between atoms: C7_8  and  C8_9 
REMARK    3  A    between atoms: C8_9  and  N2_10 
REMARK    4  A    between atoms: C8_9  and  C14_18 
REMARK       I    between atoms: N2_10  and  C9_12 
REMARK    5  A    between atoms: C9_12  and  C10_14 
REMARK       I    between atoms: C14_18  and  N3_20 
REMARK    6  A    between atoms: N3_20  and  O3_22 
ROOT
HETATM    1  C8  UNL     1      98.119 239.587 -10.099  1.00  0.00     0.212 C 
ENDROOT
BRANCH   1   2
HETATM    2  C7  UNL     1      97.547 238.710  -9.062  1.00  0.00    -0.026 A 
HETATM    3  C6  UNL     1      98.220 238.549  -7.874  1.00  0.00     0.010 A 
HETATM    4  C5  UNL     1      97.739 237.741  -6.859  1.00  0.00     0.013 A 
HETATM    5  C4  UNL     1      96.552 237.060  -7.006  1.00  0.00    -0.023 A 
HETATM    6  C16 UNL     1      95.883 237.227  -8.201  1.00  0.00     0.013 A 
HETATM    7  C15 UNL     1      96.357 238.030  -9.214  1.00  0.00     0.010 A 
BRANCH   5   8
HETATM    8  C3  UNL     1      96.072 236.218  -5.920  1.00  0.00     0.008 A 
HETATM    9  C2  UNL     1      94.811 236.187  -5.370  1.00  0.00     0.123 A 
HETATM   10  N1  UNL     1      94.769 235.263  -4.376  1.00  0.00    -0.307 N 
HETATM   11  C1  UNL     1      93.619 234.913  -3.534  1.00  0.00     0.177 C 
HETATM   12  N4  UNL     1      95.971 234.729  -4.307  1.00  0.00    -0.310 N 
HETATM   13  C17 UNL     1      96.802 235.277  -5.227  1.00  0.00     0.120 A 
ATOM     14  H4  UNL     1      96.241 233.999  -3.648  1.00  0.00     0.186 HD
ENDBRANCH   5   8
ENDBRANCH   1   2
BRANCH   1  15
HETATM   15  N2  UNL     1      97.221 239.849 -11.179  1.00  0.00    -0.343 N 
HETATM   16  C9  UNL     1      97.559 239.380 -12.495  1.00  0.00     0.226 C 
HETATM   17  O1  UNL     1      98.633 238.747 -12.688  1.00  0.00    -0.273 OA
ATOM     18  H2  UNL     1      96.354 240.362 -11.019  1.00  0.00     0.163 HD
BRANCH  16  19
HETATM   19  C10 UNL     1      96.674 239.619 -13.654  1.00  0.00     0.030 C 
HETATM   20  C11 UNL     1      95.210 239.472 -13.297  1.00  0.00     0.024 C 
HETATM   21  C12 UNL     1      96.854 241.019 -14.203  1.00  0.00     0.024 C 
HETATM   22  C13 UNL     1      97.030 238.665 -14.761  1.00  0.00     0.024 C 
ENDBRANCH  16  19
ENDBRANCH   1  15
BRANCH   1  23
HETATM   23  C14 UNL     1      98.459 240.888  -9.418  1.00  0.00     0.268 C 
HETATM   24  O2  UNL     1      97.565 241.541  -8.831  1.00  0.00    -0.269 OA
HETATM   25  N3  UNL     1      99.803 241.333  -9.467  1.00  0.00    -0.235 N 
ATOM     26  H3  UNL     1     100.506 240.776  -9.953  1.00  0.00     0.197 HD
BRANCH  25  27
HETATM   27  O3  UNL     1     100.156 242.488  -8.874  1.00  0.00    -0.287 OA
ATOM     28  H3  UNL     1     100.806 242.491  -8.181  1.00  0.00     0.244 HD
ENDBRANCH  25  27
ENDBRANCH   1  23
TORSDOF 6
ENDMDL
