MODEL 4
REMARK VINA RESULT: -7.858464065      1.223      1.708
REMARK  6 active torsions:
REMARK  status: ('A' for Active; 'I' for Inactive)
REMARK    1  A    between atoms: C3_4  and  C4_5 
REMARK    2  A    between atoms: C7_8  and  C8_9 
REMARK    3  A    between atoms: C8_9  and  N2_10 
REMARK    4  A    between atoms: C8_9  and  C14_18 
REMARK       I    between atoms: N2_10  and  C9_12 
REMARK    5  A    between atoms: C9_12  and  C10_14 
REMARK       I    between atoms: C14_18  and  N3_20 
REMARK    6  A    between atoms: N3_20  and  O3_22 
ROOT
HETATM    1  C8  UNL     1      98.525 239.514  -9.025  1.00  0.00     0.212 C 
ENDROOT
BRANCH   1   2
HETATM    2  C7  UNL     1      97.635 238.564  -8.336  1.00  0.00    -0.026 A 
HETATM    3  C6  UNL     1      98.029 238.027  -7.133  1.00  0.00     0.010 A 
HETATM    4  C5  UNL     1      97.241 237.129  -6.434  1.00  0.00     0.013 A 
HETATM    5  C4  UNL     1      96.017 236.737  -6.926  1.00  0.00    -0.023 A 
HETATM    6  C16 UNL     1      95.628 237.281  -8.133  1.00  0.00     0.013 A 
HETATM    7  C15 UNL     1      96.409 238.175  -8.833  1.00  0.00     0.010 A 
BRANCH   5   8
HETATM    8  C3  UNL     1      95.211 235.792  -6.168  1.00  0.00     0.008 A 
HETATM    9  C2  UNL     1      94.861 234.508  -6.519  1.00  0.00     0.123 A 
HETATM   10  N1  UNL     1      94.101 233.956  -5.539  1.00  0.00    -0.307 N 
HETATM   11  C1  UNL     1      93.522 232.609  -5.514  1.00  0.00     0.177 C 
HETATM   12  N4  UNL     1      93.979 234.871  -4.598  1.00  0.00    -0.310 N 
HETATM   13  C17 UNL     1      94.637 236.007  -4.934  1.00  0.00     0.120 A 
ATOM     14  H4  UNL     1      93.458 234.740  -3.731  1.00  0.00     0.186 HD
ENDBRANCH   5   8
ENDBRANCH   1   2
BRANCH   1  15
HETATM   15  N2  UNL     1      98.219 239.676 -10.411  1.00  0.00    -0.343 N 
HETATM   16  C9  UNL     1      99.168 239.223 -11.391  1.00  0.00     0.226 C 
HETATM   17  O1  UNL     1     100.254 238.692 -11.027  1.00  0.00    -0.273 OA
ATOM     18  H2  UNL     1      97.341 240.106 -10.701  1.00  0.00     0.163 HD
BRANCH  16  19
HETATM   19  C10 UNL     1      98.912 239.361 -12.840  1.00  0.00     0.030 C 
HETATM   20  C11 UNL     1      98.953 240.805 -13.294  1.00  0.00     0.024 C 
HETATM   21  C12 UNL     1      99.948 238.614 -13.655  1.00  0.00     0.024 C 
HETATM   22  C13 UNL     1      97.575 238.757 -13.171  1.00  0.00     0.024 C 
ENDBRANCH  16  19
ENDBRANCH   1  15
BRANCH   1  23
HETATM   23  C14 UNL     1      98.355 240.841  -8.328  1.00  0.00     0.268 C 
HETATM   24  O2  UNL     1      97.331 241.061  -7.640  1.00  0.00    -0.269 OA
HETATM   25  N3  UNL     1      99.378 241.807  -8.480  1.00  0.00    -0.235 N 
ATOM     26  H3  UNL     1     100.199 241.595  -9.048  1.00  0.00     0.197 HD
BRANCH  25  27
HETATM   27  O3  UNL     1      99.273 243.006  -7.878  1.00  0.00    -0.287 OA
ATOM     28  H3  UNL     1      99.996 243.349  -7.366  1.00  0.00     0.244 HD
ENDBRANCH  25  27
ENDBRANCH   1  23
TORSDOF 6
ENDMDL
