MODEL 5
REMARK VINA RESULT: -7.670406436      3.416      8.666
REMARK  6 active torsions:
REMARK  status: ('A' for Active; 'I' for Inactive)
REMARK    1  A    between atoms: C3_4  and  C4_5 
REMARK    2  A    between atoms: C7_8  and  C8_9 
REMARK    3  A    between atoms: C8_9  and  N2_10 
REMARK    4  A    between atoms: C8_9  and  C14_18 
REMARK       I    between atoms: N2_10  and  C9_12 
REMARK    5  A    between atoms: C9_12  and  C10_14 
REMARK       I    between atoms: C14_18  and  N3_20 
REMARK    6  A    between atoms: N3_20  and  O3_22 
ROOT
HETATM    1  C8  UNL     1      99.853 241.217 -10.587  1.00  0.00     0.212 C 
ENDROOT
BRANCH   1   2
HETATM    2  C7  UNL     1     100.427 240.753 -11.862  1.00  0.00    -0.026 A 
HETATM    3  C6  UNL     1     100.318 241.551 -12.976  1.00  0.00     0.010 A 
HETATM    4  C5  UNL     1     100.834 241.177 -14.204  1.00  0.00     0.013 A 
HETATM    5  C4  UNL     1     101.485 239.973 -14.354  1.00  0.00    -0.023 A 
HETATM    6  C16 UNL     1     101.591 239.179 -13.232  1.00  0.00     0.013 A 
HETATM    7  C15 UNL     1     101.079 239.547 -12.008  1.00  0.00     0.010 A 
BRANCH   5   8
HETATM    8  C3  UNL     1     102.018 239.607 -15.659  1.00  0.00     0.008 A 
HETATM    9  C2  UNL     1     101.398 238.881 -16.650  1.00  0.00     0.123 A 
HETATM   10  N1  UNL     1     102.232 238.756 -17.714  1.00  0.00    -0.307 N 
HETATM   11  C1  UNL     1     101.964 238.059 -18.977  1.00  0.00     0.177 C 
HETATM   12  N4  UNL     1     103.343 239.389 -17.398  1.00  0.00    -0.310 N 
HETATM   13  C17 UNL     1     103.263 239.925 -16.156  1.00  0.00     0.120 A 
ATOM     14  H4  UNL     1     104.157 239.466 -18.008  1.00  0.00     0.186 HD
ENDBRANCH   5   8
ENDBRANCH   1   2
BRANCH   1  15
HETATM   15  N2  UNL     1      99.435 240.151  -9.732  1.00  0.00    -0.343 N 
HETATM   16  C9  UNL     1      98.299 240.352  -8.874  1.00  0.00     0.226 C 
HETATM   17  O1  UNL     1      97.685 241.455  -8.879  1.00  0.00    -0.273 OA
ATOM     18  H2  UNL     1      99.934 239.262  -9.730  1.00  0.00     0.163 HD
BRANCH  16  19
HETATM   19  C10 UNL     1      97.816 239.290  -7.967  1.00  0.00     0.030 C 
HETATM   20  C11 UNL     1      97.158 238.151  -8.716  1.00  0.00     0.024 C 
HETATM   21  C12 UNL     1      98.954 238.691  -7.166  1.00  0.00     0.024 C 
HETATM   22  C13 UNL     1      96.847 239.880  -6.978  1.00  0.00     0.024 C 
ENDBRANCH  16  19
ENDBRANCH   1  15
BRANCH   1  23
HETATM   23  C14 UNL     1     100.936 242.004  -9.892  1.00  0.00     0.268 C 
HETATM   24  O2  UNL     1     102.068 242.114 -10.419  1.00  0.00    -0.269 OA
HETATM   25  N3  UNL     1     100.627 242.603  -8.647  1.00  0.00    -0.235 N 
ATOM     26  H3  UNL     1      99.695 242.494  -8.247  1.00  0.00     0.197 HD
BRANCH  25  27
HETATM   27  O3  UNL     1     101.559 243.315  -7.988  1.00  0.00    -0.287 OA
ATOM     28  H3  UNL     1     101.571 243.326  -7.038  1.00  0.00     0.244 HD
ENDBRANCH  25  27
ENDBRANCH   1  23
TORSDOF 6
ENDMDL
