MODEL 1
REMARK VINA RESULT: -8.888777471      0.000      0.000
REMARK  6 active torsions:
REMARK  status: ('A' for Active; 'I' for Inactive)
REMARK    1  A    between atoms: C3_4  and  C4_5 
REMARK    2  A    between atoms: C7_8  and  C8_9 
REMARK    3  A    between atoms: C8_9  and  N2_10 
REMARK    4  A    between atoms: C8_9  and  C14_18 
REMARK       I    between atoms: N2_10  and  C9_12 
REMARK    5  A    between atoms: C9_12  and  C10_14 
REMARK       I    between atoms: C14_18  and  N3_20 
REMARK    6  A    between atoms: N3_20  and  O3_22 
ROOT
HETATM    1  C8  UNL     1      98.989 239.934  -9.403  1.00  0.00     0.212 C 
ENDROOT
BRANCH   1   2
HETATM    2  C7  UNL     1      98.285 238.936  -8.578  1.00  0.00    -0.026 A 
HETATM    3  C6  UNL     1      98.753 238.660  -7.315  1.00  0.00     0.010 A 
HETATM    4  C5  UNL     1      98.140 237.735  -6.489  1.00  0.00     0.013 A 
HETATM    5  C4  UNL     1      97.023 237.048  -6.910  1.00  0.00    -0.023 A 
HETATM    6  C16 UNL     1      96.560 237.332  -8.178  1.00  0.00     0.013 A 
HETATM    7  C15 UNL     1      97.167 238.251  -9.004  1.00  0.00     0.010 A 
BRANCH   5   8
HETATM    8  C3  UNL     1      96.401 236.081  -6.017  1.00  0.00     0.008 A 
HETATM    9  C2  UNL     1      95.138 236.126  -5.473  1.00  0.00     0.123 A 
HETATM   10  N1  UNL     1      94.937 235.034  -4.692  1.00  0.00    -0.307 N 
HETATM   11  C1  UNL     1      93.731 234.694  -3.930  1.00  0.00     0.177 C 
HETATM   12  N4  UNL     1      96.046 234.324  -4.747  1.00  0.00    -0.310 N 
HETATM   13  C17 UNL     1      96.968 234.920  -5.541  1.00  0.00     0.120 A 
ATOM     14  H4  UNL     1      96.190 233.442  -4.256  1.00  0.00     0.186 HD
ENDBRANCH   5   8
ENDBRANCH   1   2
BRANCH   1  15
HETATM   15  N2  UNL     1      98.532 239.975 -10.756  1.00  0.00    -0.343 N 
HETATM   16  C9  UNL     1      99.380 240.561 -11.759  1.00  0.00     0.226 C 
HETATM   17  O1  UNL     1     100.507 241.032 -11.443  1.00  0.00    -0.273 OA
ATOM     18  H2  UNL     1      97.620 239.595 -11.008  1.00  0.00     0.163 HD
BRANCH  16  19
HETATM   19  C10 UNL     1      98.967 240.635 -13.176  1.00  0.00     0.030 C 
HETATM   20  C11 UNL     1      99.633 239.572 -14.023  1.00  0.00     0.024 C 
HETATM   21  C12 UNL     1      97.471 240.443 -13.323  1.00  0.00     0.024 C 
HETATM   22  C13 UNL     1      99.288 242.001 -13.720  1.00  0.00     0.024 C 
ENDBRANCH  16  19
ENDBRANCH   1  15
BRANCH   1  23
HETATM   23  C14 UNL     1      98.735 241.274  -8.760  1.00  0.00     0.268 C 
HETATM   24  O2  UNL     1      97.564 241.627  -8.486  1.00  0.00    -0.269 OA
HETATM   25  N3  UNL     1      99.852 242.101  -8.484  1.00  0.00    -0.235 N 
ATOM     26  H3  UNL     1     100.792 241.782  -8.721  1.00  0.00     0.197 HD
BRANCH  25  27
HETATM   27  O3  UNL     1      99.678 243.306  -7.912  1.00  0.00    -0.287 OA
ATOM     28  H3  UNL     1     100.429 243.849  -7.702  1.00  0.00     0.244 HD
ENDBRANCH  25  27
ENDBRANCH   1  23
TORSDOF 6
ENDMDL
