MODEL 8
REMARK VINA RESULT: -7.402741809      2.606      7.779
REMARK  6 active torsions:
REMARK  status: ('A' for Active; 'I' for Inactive)
REMARK    1  A    between atoms: C3_4  and  C4_5 
REMARK    2  A    between atoms: C7_8  and  C8_9 
REMARK    3  A    between atoms: C8_9  and  N2_10 
REMARK    4  A    between atoms: C8_9  and  C14_18 
REMARK       I    between atoms: N2_10  and  C9_12 
REMARK    5  A    between atoms: C9_12  and  C10_14 
REMARK       I    between atoms: C14_18  and  N3_20 
REMARK    6  A    between atoms: N3_20  and  O3_22 
ROOT
HETATM    1  C8  UNL     1      97.224 239.265  -8.703  1.00  0.00     0.212 C 
ENDROOT
BRANCH   1   2
HETATM    2  C7  UNL     1      97.960 239.171  -9.975  1.00  0.00    -0.026 A 
HETATM    3  C6  UNL     1      99.318 239.388  -9.982  1.00  0.00     0.010 A 
HETATM    4  C5  UNL     1     100.069 239.316 -11.142  1.00  0.00     0.013 A 
HETATM    5  C4  UNL     1      99.473 239.019 -12.347  1.00  0.00    -0.023 A 
HETATM    6  C16 UNL     1      98.112 238.802 -12.331  1.00  0.00     0.013 A 
HETATM    7  C15 UNL     1      97.359 238.873 -11.180  1.00  0.00     0.010 A 
BRANCH   5   8
HETATM    8  C3  UNL     1     100.291 238.950 -13.550  1.00  0.00     0.008 A 
HETATM    9  C2  UNL     1     101.385 239.720 -13.872  1.00  0.00     0.123 A 
HETATM   10  N1  UNL     1     101.867 239.344 -15.084  1.00  0.00    -0.307 N 
HETATM   11  C1  UNL     1     103.020 239.906 -15.797  1.00  0.00     0.177 C 
HETATM   12  N4  UNL     1     101.096 238.363 -15.509  1.00  0.00    -0.310 N 
HETATM   13  C17 UNL     1     100.121 238.086 -14.610  1.00  0.00     0.120 A 
ATOM     14  H4  UNL     1     101.218 237.877 -16.396  1.00  0.00     0.186 HD
ENDBRANCH   5   8
ENDBRANCH   1   2
BRANCH   1  15
HETATM   15  N2  UNL     1      97.380 238.113  -7.871  1.00  0.00    -0.343 N 
HETATM   16  C9  UNL     1      96.235 237.285  -7.607  1.00  0.00     0.226 C 
HETATM   17  O1  UNL     1      95.112 237.575  -8.105  1.00  0.00    -0.273 OA
ATOM     18  H2  UNL     1      98.289 237.883  -7.470  1.00  0.00     0.163 HD
BRANCH  16  19
HETATM   19  C10 UNL     1      96.329 236.081  -6.755  1.00  0.00     0.030 C 
HETATM   20  C11 UNL     1      97.672 235.971  -6.065  1.00  0.00     0.024 C 
HETATM   21  C12 UNL     1      95.275 236.094  -5.667  1.00  0.00     0.024 C 
HETATM   22  C13 UNL     1      96.080 234.856  -7.592  1.00  0.00     0.024 C 
ENDBRANCH  16  19
ENDBRANCH   1  15
BRANCH   1  23
HETATM   23  C14 UNL     1      97.773 240.469  -7.979  1.00  0.00     0.268 C 
HETATM   24  O2  UNL     1      97.674 241.608  -8.493  1.00  0.00    -0.269 OA
HETATM   25  N3  UNL     1      98.391 240.264  -6.722  1.00  0.00    -0.235 N 
ATOM     26  H3  UNL     1      98.455 239.323  -6.333  1.00  0.00     0.197 HD
BRANCH  25  27
HETATM   27  O3  UNL     1      98.896 241.306  -6.038  1.00  0.00    -0.287 OA
ATOM     28  H3  UNL     1      98.639 241.456  -5.135  1.00  0.00     0.244 HD
ENDBRANCH  25  27
ENDBRANCH   1  23
TORSDOF 6
ENDMDL
