MODEL 3
REMARK VINA RESULT: -8.740473618      0.586      1.282
REMARK  6 active torsions:
REMARK  status: ('A' for Active; 'I' for Inactive)
REMARK    1  A    between atoms: C3_4  and  C4_5 
REMARK    2  A    between atoms: C7_8  and  C8_9 
REMARK    3  A    between atoms: C8_9  and  N2_10 
REMARK    4  A    between atoms: C8_9  and  C14_18 
REMARK       I    between atoms: N2_10  and  C9_12 
REMARK    5  A    between atoms: C9_12  and  C10_14 
REMARK       I    between atoms: C14_18  and  N3_20 
REMARK    6  A    between atoms: N3_20  and  O3_22 
ROOT
HETATM    1  C8  UNL     1      98.882 239.856  -9.416  1.00  0.00     0.212 C 
ENDROOT
BRANCH   1   2
HETATM    2  C7  UNL     1      98.133 238.861  -8.630  1.00  0.00    -0.026 A 
HETATM    3  C6  UNL     1      98.550 238.564  -7.354  1.00  0.00     0.010 A 
HETATM    4  C5  UNL     1      97.893 237.639  -6.561  1.00  0.00     0.013 A 
HETATM    5  C4  UNL     1      96.782 236.976  -7.030  1.00  0.00    -0.023 A 
HETATM    6  C16 UNL     1      96.370 237.280  -8.311  1.00  0.00     0.013 A 
HETATM    7  C15 UNL     1      97.020 238.199  -9.104  1.00  0.00     0.010 A 
BRANCH   5   8
HETATM    8  C3  UNL     1      96.112 236.009  -6.172  1.00  0.00     0.008 A 
HETATM    9  C2  UNL     1      96.649 234.885  -5.588  1.00  0.00     0.123 A 
HETATM   10  N1  UNL     1      95.695 234.247  -4.862  1.00  0.00    -0.307 N 
HETATM   11  C1  UNL     1      95.846 233.013  -4.083  1.00  0.00     0.177 C 
HETATM   12  N4  UNL     1      94.591 234.954  -4.988  1.00  0.00    -0.310 N 
HETATM   13  C17 UNL     1      94.792 236.038  -5.777  1.00  0.00     0.120 A 
ATOM     14  H4  UNL     1      93.701 234.717  -4.550  1.00  0.00     0.186 HD
ENDBRANCH   5   8
ENDBRANCH   1   2
BRANCH   1  15
HETATM   15  N2  UNL     1      98.461 239.936 -10.780  1.00  0.00    -0.343 N 
HETATM   16  C9  UNL     1      99.345 240.524 -11.748  1.00  0.00     0.226 C 
HETATM   17  O1  UNL     1     100.474 240.963 -11.395  1.00  0.00    -0.273 OA
ATOM     18  H2  UNL     1      97.547 239.581 -11.061  1.00  0.00     0.163 HD
BRANCH  16  19
HETATM   19  C10 UNL     1      98.969 240.636 -13.173  1.00  0.00     0.030 C 
HETATM   20  C11 UNL     1      99.347 241.979 -13.761  1.00  0.00     0.024 C 
HETATM   21  C12 UNL     1      99.662 239.579 -14.009  1.00  0.00     0.024 C 
HETATM   22  C13 UNL     1      97.489 240.410 -13.319  1.00  0.00     0.024 C 
ENDBRANCH  16  19
ENDBRANCH   1  15
BRANCH   1  23
HETATM   23  C14 UNL     1      98.646 241.190  -8.753  1.00  0.00     0.268 C 
HETATM   24  O2  UNL     1      97.480 241.553  -8.471  1.00  0.00    -0.269 OA
HETATM   25  N3  UNL     1      99.773 241.999  -8.468  1.00  0.00    -0.235 N 
ATOM     26  H3  UNL     1     100.708 241.673  -8.712  1.00  0.00     0.197 HD
BRANCH  25  27
HETATM   27  O3  UNL     1      99.615 243.197  -7.878  1.00  0.00    -0.287 OA
ATOM     28  H3  UNL     1      99.114 243.881  -8.308  1.00  0.00     0.244 HD
ENDBRANCH  25  27
ENDBRANCH   1  23
TORSDOF 6
ENDMDL
