MODEL 2
REMARK VINA RESULT: -7.846699593      4.565     10.705
REMARK  9 active torsions:
REMARK  status: ('A' for Active; 'I' for Inactive)
REMARK    1  A    between atoms: O1_2  and  C2_3 
REMARK    2  A    between atoms: C7_8  and  O2_9 
REMARK    3  A    between atoms: O2_9  and  C8_10 
REMARK    4  A    between atoms: C11_13  and  C12_14 
REMARK    5  A    between atoms: N1_21  and  C18_22 
REMARK    6  A    between atoms: C21_25  and  N2_26 
REMARK    7  A    between atoms: N2_26  and  C23_28 
REMARK    8  A    between atoms: C23_28  and  C24_29 
REMARK    9  A    between atoms: C27_32  and  N3_33 
ROOT
HETATM    1  C2  UNL     1     -10.886  -9.631  -2.845  1.00  0.00     0.102 A 
HETATM    2  C3  UNL     1      -9.909  -8.967  -3.578  1.00  0.00     0.047 A 
HETATM    3  C4  UNL     1      -8.587  -9.330  -3.541  1.00  0.00    -0.038 A 
HETATM    4  C5  UNL     1      -8.207 -10.411  -2.737  1.00  0.00    -0.021 A 
HETATM    5  C6  UNL     1      -9.129 -11.063  -2.020  1.00  0.00     0.049 A 
HETATM    6  C7  UNL     1     -10.497 -10.688  -2.058  1.00  0.00     0.103 A 
HETATM    7  C11 UNL     1      -6.734 -10.684  -2.801  1.00  0.00     0.159 C 
HETATM    8  N1  UNL     1      -6.174  -9.441  -2.354  1.00  0.00    -0.304 N 
HETATM    9  C37 UNL     1      -6.447  -8.338  -3.280  1.00  0.00     0.229 C 
HETATM   10  O4  UNL     1      -5.844  -7.269  -3.261  1.00  0.00    -0.273 OA
HETATM   11  C38 UNL     1      -7.535  -8.548  -4.305  1.00  0.00     0.142 C 
ENDROOT
BRANCH   8  12
HETATM   12  C18 UNL     1      -5.473  -9.142  -1.180  1.00  0.00     0.038 A 
HETATM   13  C19 UNL     1      -4.088  -9.250  -1.073  1.00  0.00     0.032 A 
HETATM   14  C20 UNL     1      -3.460  -8.964   0.121  1.00  0.00     0.031 A 
HETATM   15  C21 UNL     1      -4.144  -8.563   1.263  1.00  0.00     0.029 A 
HETATM   16  C35 UNL     1      -5.513  -8.462   1.137  1.00  0.00     0.031 A 
HETATM   17  C36 UNL     1      -6.163  -8.745  -0.056  1.00  0.00     0.032 A 
BRANCH  15  18
HETATM   18  N2  UNL     1      -3.449  -8.277   2.496  1.00  0.00    -0.385 N 
HETATM   19  C22 UNL     1      -2.597  -9.320   3.021  1.00  0.00     0.149 C 
BRANCH  18  20
HETATM   20  C23 UNL     1      -3.599  -7.013   3.142  1.00  0.00     0.127 C 
BRANCH  20  21
HETATM   21  C24 UNL     1      -3.025  -5.815   2.486  1.00  0.00     0.004 C 
HETATM   22  C25 UNL     1      -2.149  -6.262   1.317  1.00  0.00     0.008 C 
HETATM   23  C26 UNL     1      -2.318  -5.370   0.107  1.00  0.00     0.036 C 
HETATM   24  C27 UNL     1      -3.763  -5.342  -0.351  1.00  0.00     0.223 C 
HETATM   25  C33 UNL     1      -4.700  -5.028   0.771  1.00  0.00     0.036 C 
HETATM   26  C34 UNL     1      -3.961  -4.738   2.062  1.00  0.00     0.008 C 
BRANCH  24  27
HETATM   27  N3  UNL     1      -3.867  -4.489  -1.493  1.00  0.00     0.103 N 
HETATM   28  C28 UNL     1      -4.378  -3.209  -1.091  1.00  0.00     0.293 C 
HETATM   29  C29 UNL     1      -4.825  -2.396  -2.317  1.00  0.00     0.155 C 
HETATM   30  N4  UNL     1      -3.658  -2.205  -3.133  1.00  0.00    -0.353 N 
HETATM   31  C30 UNL     1      -3.514  -1.010  -3.917  1.00  0.00     0.152 C 
HETATM   32  C31 UNL     1      -2.658  -3.197  -3.155  1.00  0.00     0.247 C 
HETATM   33  O3  UNL     1      -1.703  -3.085  -3.957  1.00  0.00    -0.271 OA
HETATM   34  C32 UNL     1      -2.660  -4.397  -2.273  1.00  0.00     0.375 C 
ENDBRANCH  24  27
ENDBRANCH  20  21
ENDBRANCH  18  20
ENDBRANCH  15  18
ENDBRANCH   8  12
BRANCH   7  35
HETATM   35  C12 UNL     1      -6.275 -11.930  -2.287  1.00  0.00    -0.030 A 
HETATM   36  C13 UNL     1      -6.901 -12.512  -1.205  1.00  0.00     0.011 A 
HETATM   37  C14 UNL     1      -6.456 -13.722  -0.688  1.00  0.00     0.024 A 
HETATM   38  C15 UNL     1      -5.384 -14.389  -1.229  1.00  0.00     0.034 A 
HETATM   39 CL1  UNL     1      -4.820 -15.924  -0.574  1.00  0.00    -0.084 Cl
HETATM   40  C16 UNL     1      -4.754 -13.829  -2.303  1.00  0.00     0.024 A 
HETATM   41  C17 UNL     1      -5.208 -12.605  -2.820  1.00  0.00     0.011 A 
ENDBRANCH   7  35
BRANCH   6  42
HETATM   42  O2  UNL     1     -11.376 -11.390  -1.310  1.00  0.00    -0.344 OA
BRANCH  42  43
HETATM   43  C8  UNL     1     -12.584 -11.988  -1.541  1.00  0.00     0.121 C 
HETATM   44  C9  UNL     1     -12.519 -13.462  -1.922  1.00  0.00     0.040 C 
HETATM   45  C10 UNL     1     -13.629 -11.836  -0.474  1.00  0.00     0.040 C 
ENDBRANCH  42  43
ENDBRANCH   6  42
BRANCH   1  46
HETATM   46  O1  UNL     1     -12.223  -9.199  -2.935  1.00  0.00    -0.353 OA
HETATM   47  C1  UNL     1     -12.503  -7.829  -3.047  1.00  0.00     0.210 C 
ENDBRANCH   1  46
TORSDOF 9
ENDMDL
