MODEL 10
REMARK VINA RESULT: -7.604914642      5.122     10.900
REMARK  9 active torsions:
REMARK  status: ('A' for Active; 'I' for Inactive)
REMARK    1  A    between atoms: O1_2  and  C2_3 
REMARK    2  A    between atoms: C7_8  and  O2_9 
REMARK    3  A    between atoms: O2_9  and  C8_10 
REMARK    4  A    between atoms: C11_13  and  C12_14 
REMARK    5  A    between atoms: N1_21  and  C18_22 
REMARK    6  A    between atoms: C21_25  and  N2_26 
REMARK    7  A    between atoms: N2_26  and  C23_28 
REMARK    8  A    between atoms: C23_28  and  C24_29 
REMARK    9  A    between atoms: C27_32  and  N3_33 
ROOT
HETATM    1  C2  UNL     1      -6.237 -13.174  -1.317  1.00  0.00     0.102 A 
HETATM    2  C3  UNL     1      -5.598 -12.504  -0.281  1.00  0.00     0.047 A 
HETATM    3  C4  UNL     1      -6.161 -11.428   0.357  1.00  0.00    -0.038 A 
HETATM    4  C5  UNL     1      -7.426 -10.989  -0.049  1.00  0.00    -0.021 A 
HETATM    5  C6  UNL     1      -8.060 -11.617  -1.047  1.00  0.00     0.049 A 
HETATM    6  C7  UNL     1      -7.478 -12.730  -1.706  1.00  0.00     0.103 A 
HETATM    7  C11 UNL     1      -7.904  -9.806   0.740  1.00  0.00     0.159 C 
HETATM    8  N1  UNL     1      -6.878  -8.836   0.486  1.00  0.00    -0.304 N 
HETATM    9  C37 UNL     1      -5.583  -9.232   1.047  1.00  0.00     0.229 C 
HETATM   10  O4  UNL     1      -4.646  -8.456   1.207  1.00  0.00    -0.273 OA
HETATM   11  C38 UNL     1      -5.413 -10.678   1.444  1.00  0.00     0.142 C 
ENDROOT
BRANCH   8  12
HETATM   12  C18 UNL     1      -6.932  -7.638  -0.234  1.00  0.00     0.038 A 
HETATM   13  C19 UNL     1      -7.308  -6.424   0.337  1.00  0.00     0.032 A 
HETATM   14  C20 UNL     1      -7.365  -5.282  -0.434  1.00  0.00     0.031 A 
HETATM   15  C21 UNL     1      -7.064  -5.266  -1.791  1.00  0.00     0.029 A 
HETATM   16  C35 UNL     1      -6.696  -6.476  -2.338  1.00  0.00     0.031 A 
HETATM   17  C36 UNL     1      -6.631  -7.635  -1.579  1.00  0.00     0.032 A 
BRANCH  15  18
HETATM   18  N2  UNL     1      -7.140  -4.049  -2.565  1.00  0.00    -0.385 N 
HETATM   19  C22 UNL     1      -8.349  -3.266  -2.431  1.00  0.00     0.149 C 
BRANCH  18  20
HETATM   20  C23 UNL     1      -6.059  -3.649  -3.406  1.00  0.00     0.127 C 
BRANCH  20  21
HETATM   21  C24 UNL     1      -4.868  -3.034  -2.775  1.00  0.00     0.004 C 
HETATM   22  C25 UNL     1      -5.275  -2.427  -1.434  1.00  0.00     0.008 C 
HETATM   23  C26 UNL     1      -4.236  -2.670  -0.361  1.00  0.00     0.036 C 
HETATM   24  C27 UNL     1      -3.987  -4.153  -0.170  1.00  0.00     0.223 C 
HETATM   25  C33 UNL     1      -3.698  -4.844  -1.464  1.00  0.00     0.036 C 
HETATM   26  C34 UNL     1      -3.648  -3.874  -2.626  1.00  0.00     0.008 C 
BRANCH  24  27
HETATM   27  N3  UNL     1      -3.001  -4.326   0.851  1.00  0.00     0.103 N 
HETATM   28  C28 UNL     1      -2.162  -5.444   0.524  1.00  0.00     0.293 C 
HETATM   29  C29 UNL     1      -1.329  -5.870   1.744  1.00  0.00     0.155 C 
HETATM   30  N4  UNL     1      -0.504  -4.746   2.091  1.00  0.00    -0.353 N 
HETATM   31  C30 UNL     1       0.798  -4.955   2.660  1.00  0.00     0.152 C 
HETATM   32  C31 UNL     1      -0.984  -3.439   1.869  1.00  0.00     0.247 C 
HETATM   33  O3  UNL     1      -0.316  -2.464   2.283  1.00  0.00    -0.271 OA
HETATM   34  C32 UNL     1      -2.258  -3.132   1.161  1.00  0.00     0.375 C 
ENDBRANCH  24  27
ENDBRANCH  20  21
ENDBRANCH  18  20
ENDBRANCH  15  18
ENDBRANCH   8  12
BRANCH   7  35
HETATM   35  C12 UNL     1      -9.284  -9.467   0.641  1.00  0.00    -0.030 A 
HETATM   36  C13 UNL     1      -9.920  -8.820   1.680  1.00  0.00     0.011 A 
HETATM   37  C14 UNL     1     -11.267  -8.493   1.600  1.00  0.00     0.024 A 
HETATM   38  C15 UNL     1     -12.020  -8.794   0.490  1.00  0.00     0.034 A 
HETATM   39 CL1  UNL     1     -13.728  -8.379   0.389  1.00  0.00    -0.084 Cl
HETATM   40  C16 UNL     1     -11.406  -9.432  -0.549  1.00  0.00     0.024 A 
HETATM   41  C17 UNL     1     -10.043  -9.761  -0.461  1.00  0.00     0.011 A 
ENDBRANCH   7  35
BRANCH   6  42
HETATM   42  O2  UNL     1      -8.172 -13.318  -2.705  1.00  0.00    -0.344 OA
BRANCH  42  43
HETATM   43  C8  UNL     1      -9.326 -13.035  -3.382  1.00  0.00     0.121 C 
HETATM   44  C9  UNL     1     -10.614 -13.304  -2.613  1.00  0.00     0.040 C 
HETATM   45  C10 UNL     1      -9.433 -11.669  -3.993  1.00  0.00     0.040 C 
ENDBRANCH  42  43
ENDBRANCH   6  42
BRANCH   1  46
HETATM   46  O1  UNL     1      -5.595 -14.272  -1.922  1.00  0.00    -0.353 OA
HETATM   47  C1  UNL     1      -4.211 -14.227  -2.148  1.00  0.00     0.210 C 
ENDBRANCH   1  46
TORSDOF 9
ENDMDL
