MODEL 9
REMARK VINA RESULT: -7.652691010      3.268      6.077
REMARK  9 active torsions:
REMARK  status: ('A' for Active; 'I' for Inactive)
REMARK    1  A    between atoms: O1_2  and  C2_3 
REMARK    2  A    between atoms: C7_8  and  O2_9 
REMARK    3  A    between atoms: O2_9  and  C8_10 
REMARK    4  A    between atoms: C11_13  and  C12_14 
REMARK    5  A    between atoms: N1_21  and  C18_22 
REMARK    6  A    between atoms: C21_25  and  N2_26 
REMARK    7  A    between atoms: N2_26  and  C23_28 
REMARK    8  A    between atoms: C23_28  and  C24_29 
REMARK    9  A    between atoms: C27_32  and  N3_33 
ROOT
HETATM    1  C2  UNL     1      -5.782  -5.381   3.500  1.00  0.00     0.102 A 
HETATM    2  C3  UNL     1      -4.508  -5.766   3.099  1.00  0.00     0.047 A 
HETATM    3  C4  UNL     1      -4.227  -6.156   1.815  1.00  0.00    -0.038 A 
HETATM    4  C5  UNL     1      -5.261  -6.167   0.872  1.00  0.00    -0.021 A 
HETATM    5  C6  UNL     1      -6.497  -5.803   1.235  1.00  0.00     0.049 A 
HETATM    6  C7  UNL     1      -6.788  -5.400   2.563  1.00  0.00     0.103 A 
HETATM    7  C11 UNL     1      -4.799  -6.616  -0.482  1.00  0.00     0.159 C 
HETATM    8  N1  UNL     1      -4.290  -7.930  -0.209  1.00  0.00    -0.304 N 
HETATM    9  C37 UNL     1      -3.111  -7.904   0.661  1.00  0.00     0.229 C 
HETATM   10  O4  UNL     1      -2.346  -8.854   0.799  1.00  0.00    -0.273 OA
HETATM   11  C38 UNL     1      -2.840  -6.629   1.422  1.00  0.00     0.142 C 
ENDROOT
BRANCH   8  12
HETATM   12  C18 UNL     1      -4.774  -9.182  -0.605  1.00  0.00     0.038 A 
HETATM   13  C19 UNL     1      -5.561  -9.987   0.215  1.00  0.00     0.032 A 
HETATM   14  C20 UNL     1      -5.986 -11.222  -0.227  1.00  0.00     0.031 A 
HETATM   15  C21 UNL     1      -5.665 -11.733  -1.479  1.00  0.00     0.029 A 
HETATM   16  C35 UNL     1      -4.885 -10.922  -2.276  1.00  0.00     0.031 A 
HETATM   17  C36 UNL     1      -4.449  -9.676  -1.850  1.00  0.00     0.032 A 
BRANCH  15  18
HETATM   18  N2  UNL     1      -6.126 -13.034  -1.903  1.00  0.00    -0.385 N 
HETATM   19  C22 UNL     1      -5.130 -13.936  -2.439  1.00  0.00     0.149 C 
BRANCH  18  20
HETATM   20  C23 UNL     1      -7.501 -13.399  -1.779  1.00  0.00     0.127 C 
BRANCH  20  21
HETATM   21  C24 UNL     1      -8.482 -12.761  -2.687  1.00  0.00     0.004 C 
HETATM   22  C25 UNL     1      -9.775 -13.575  -2.669  1.00  0.00     0.008 C 
HETATM   23  C26 UNL     1     -11.003 -12.692  -2.664  1.00  0.00     0.036 C 
HETATM   24  C27 UNL     1     -10.999 -11.760  -1.469  1.00  0.00     0.223 C 
HETATM   25  C33 UNL     1      -9.711 -11.011  -1.348  1.00  0.00     0.036 C 
HETATM   26  C34 UNL     1      -8.769 -11.313  -2.495  1.00  0.00     0.008 C 
BRANCH  24  27
HETATM   27  N3  UNL     1     -12.177 -10.952  -1.512  1.00  0.00     0.103 N 
HETATM   28  C28 UNL     1     -13.339 -11.794  -1.463  1.00  0.00     0.293 C 
HETATM   29  C29 UNL     1     -14.597 -11.002  -1.853  1.00  0.00     0.155 C 
HETATM   30  N4  UNL     1     -14.736  -9.947  -0.888  1.00  0.00    -0.353 N 
HETATM   31  C30 UNL     1     -16.042  -9.478  -0.515  1.00  0.00     0.152 C 
HETATM   32  C31 UNL     1     -13.582  -9.378  -0.313  1.00  0.00     0.247 C 
HETATM   33  O3  UNL     1     -13.700  -8.379   0.434  1.00  0.00    -0.271 OA
HETATM   34  C32 UNL     1     -12.203  -9.892  -0.538  1.00  0.00     0.375 C 
ENDBRANCH  24  27
ENDBRANCH  20  21
ENDBRANCH  18  20
ENDBRANCH  15  18
ENDBRANCH   8  12
BRANCH   7  35
HETATM   35  C12 UNL     1      -5.666  -6.373  -1.585  1.00  0.00    -0.030 A 
HETATM   36  C13 UNL     1      -5.477  -5.272  -2.392  1.00  0.00     0.011 A 
HETATM   37  C14 UNL     1      -6.322  -5.018  -3.465  1.00  0.00     0.024 A 
HETATM   38  C15 UNL     1      -7.373  -5.849  -3.770  1.00  0.00     0.034 A 
HETATM   39 CL1  UNL     1      -8.444  -5.528  -5.130  1.00  0.00    -0.084 Cl
HETATM   40  C16 UNL     1      -7.573  -6.947  -2.983  1.00  0.00     0.024 A 
HETATM   41  C17 UNL     1      -6.716  -7.196  -1.899  1.00  0.00     0.011 A 
ENDBRANCH   7  35
BRANCH   6  42
HETATM   42  O2  UNL     1      -8.056  -5.044   2.863  1.00  0.00    -0.344 OA
BRANCH  42  43
HETATM   43  C8  UNL     1      -9.161  -5.699   3.333  1.00  0.00     0.121 C 
HETATM   44  C9  UNL     1      -9.320  -7.136   2.852  1.00  0.00     0.040 C 
HETATM   45  C10 UNL     1      -9.373  -5.687   4.819  1.00  0.00     0.040 C 
ENDBRANCH  42  43
ENDBRANCH   6  42
BRANCH   1  46
HETATM   46  O1  UNL     1      -5.993  -4.992   4.837  1.00  0.00    -0.353 OA
HETATM   47  C1  UNL     1      -6.289  -3.653   5.132  1.00  0.00     0.210 C 
ENDBRANCH   1  46
TORSDOF 9
ENDMDL
