MODEL 5
REMARK VINA RESULT: -8.617361228      1.936      3.044
REMARK  9 active torsions:
REMARK  status: ('A' for Active; 'I' for Inactive)
REMARK    1  A    between atoms: N4_17  and  C9_18 
REMARK    2  A    between atoms: C9_18  and  C10_19 
REMARK    3  A    between atoms: C10_19  and  O3_20 
REMARK    4  A    between atoms: C10_19  and  C11_22 
REMARK    5  A    between atoms: C11_22  and  O4_23 
REMARK    6  A    between atoms: C11_22  and  C12_25 
REMARK    7  A    between atoms: C12_25  and  O5_26 
REMARK    8  A    between atoms: C12_25  and  C13_28 
REMARK    9  A    between atoms: C13_28  and  O6_29 
ROOT
HETATM    1  C1  UNL     1       3.495   2.753  90.263  1.00  0.00     0.049 C 
HETATM    2  C2  UNL     1       3.195   3.982  89.469  1.00  0.00    -0.054 A 
HETATM    3  C3  UNL     1       2.098   4.034  88.660  1.00  0.00     0.039 A 
HETATM    4  C4  UNL     1       1.813   5.166  87.922  1.00  0.00     0.060 A 
HETATM    5  N1  UNL     1       0.729   5.200  87.133  1.00  0.00    -0.347 N 
ATOM      6  H1  UNL     1       0.108   4.394  87.067  1.00  0.00     0.166 HD
HETATM    7  C5  UNL     1       0.480   6.319  86.431  1.00  0.00     0.146 A 
HETATM    8  C6  UNL     1      -0.611   6.451  85.592  1.00  0.00     0.280 A 
HETATM    9  O1  UNL     1      -1.423   5.486  85.465  1.00  0.00    -0.265 OA
HETATM   10  N2  UNL     1      -0.759   7.616  84.940  1.00  0.00    -0.273 N 
ATOM     11  H2  UNL     1      -1.560   7.727  84.319  1.00  0.00     0.173 HD
HETATM   12  C7  UNL     1       0.098   8.645  85.069  1.00  0.00     0.328 A 
HETATM   13  O2  UNL     1      -0.148   9.685  84.407  1.00  0.00    -0.247 OA
HETATM   14  N3  UNL     1       1.191   8.589  85.875  1.00  0.00    -0.292 N 
ATOM     15  H3  UNL     1       1.830   9.380  85.962  1.00  0.00     0.172 HD
HETATM   16  C8  UNL     1       1.394   7.448  86.554  1.00  0.00     0.145 A 
HETATM   17  N4  UNL     1       2.488   7.394  87.359  1.00  0.00    -0.327 N 
HETATM   18  C14 UNL     1       2.692   6.255  88.039  1.00  0.00     0.063 A 
HETATM   19  C15 UNL     1       3.795   6.186  88.862  1.00  0.00     0.039 A 
HETATM   20  C16 UNL     1       4.066   5.038  89.597  1.00  0.00    -0.054 A 
HETATM   21  C17 UNL     1       5.246   4.968  90.475  1.00  0.00     0.049 C 
ENDROOT
BRANCH  17  22
HETATM   22  C9  UNL     1       3.368   8.493  87.474  1.00  0.00     0.165 C 
BRANCH  22  23
HETATM   23  C10 UNL     1       4.329   8.696  86.348  1.00  0.00     0.167 C 
BRANCH  23  24
HETATM   24  O3  UNL     1       4.891   7.598  85.790  1.00  0.00    -0.391 OA
ATOM     25  H3  UNL     1       4.534   7.286  84.967  1.00  0.00     0.210 HD
ENDBRANCH  23  24
BRANCH  23  26
HETATM   26  C11 UNL     1       5.361   9.720  86.826  1.00  0.00     0.179 C 
BRANCH  26  27
HETATM   27  O4  UNL     1       6.585   9.517  86.194  1.00  0.00    -0.390 OA
ATOM     28  H4  UNL     1       7.262  10.049  86.595  1.00  0.00     0.210 HD
ENDBRANCH  26  27
BRANCH  26  29
HETATM   29  C12 UNL     1       5.487   9.736  88.317  1.00  0.00     0.173 C 
BRANCH  29  30
HETATM   30  O5  UNL     1       5.236  11.041  88.741  1.00  0.00    -0.391 OA
ATOM     31  H5  UNL     1       5.386  11.067  89.679  1.00  0.00     0.210 HD
ENDBRANCH  29  30
BRANCH  29  32
HETATM   32  C13 UNL     1       6.871   9.336  88.781  1.00  0.00     0.198 C 
BRANCH  32  33
HETATM   33  O6  UNL     1       6.833   7.980  89.134  1.00  0.00    -0.398 OA
ATOM     34  H6  UNL     1       7.728   7.677  89.229  1.00  0.00     0.209 HD
ENDBRANCH  32  33
ENDBRANCH  29  32
ENDBRANCH  26  29
ENDBRANCH  23  26
ENDBRANCH  22  23
ENDBRANCH  17  22
TORSDOF 9
ENDMDL
