MODEL 2
REMARK VINA RESULT: -8.845371192      3.580      6.275
REMARK  9 active torsions:
REMARK  status: ('A' for Active; 'I' for Inactive)
REMARK    1  A    between atoms: N4_17  and  C9_18 
REMARK    2  A    between atoms: C9_18  and  C10_19 
REMARK    3  A    between atoms: C10_19  and  O3_20 
REMARK    4  A    between atoms: C10_19  and  C11_22 
REMARK    5  A    between atoms: C11_22  and  O4_23 
REMARK    6  A    between atoms: C11_22  and  C12_25 
REMARK    7  A    between atoms: C12_25  and  O5_26 
REMARK    8  A    between atoms: C12_25  and  C13_28 
REMARK    9  A    between atoms: C13_28  and  O6_29 
ROOT
HETATM    1  C1  UNL     1       1.515   5.420  87.272  1.00  0.00     0.049 C 
HETATM    2  C2  UNL     1       2.543   5.096  88.305  1.00  0.00    -0.054 A 
HETATM    3  C3  UNL     1       2.542   3.883  88.927  1.00  0.00     0.039 A 
HETATM    4  C4  UNL     1       3.489   3.575  89.884  1.00  0.00     0.060 A 
HETATM    5  N1  UNL     1       3.474   2.376  90.485  1.00  0.00    -0.347 N 
ATOM      6  H1  UNL     1       2.765   1.682  90.246  1.00  0.00     0.166 HD
HETATM    7  C5  UNL     1       4.413   2.107  91.409  1.00  0.00     0.146 A 
HETATM    8  C6  UNL     1       4.481   0.902  92.083  1.00  0.00     0.280 A 
HETATM    9  O1  UNL     1       3.629  -0.004  91.832  1.00  0.00    -0.265 OA
HETATM   10  N2  UNL     1       5.463   0.746  92.985  1.00  0.00    -0.273 N 
ATOM     11  H2  UNL     1       5.524  -0.139  93.488  1.00  0.00     0.173 HD
HETATM   12  C7  UNL     1       6.370   1.701  93.258  1.00  0.00     0.328 A 
HETATM   13  O2  UNL     1       7.241   1.437  94.124  1.00  0.00    -0.247 OA
HETATM   14  N3  UNL     1       6.366   2.910  92.636  1.00  0.00    -0.292 N 
ATOM     15  H3  UNL     1       7.063   3.622  92.855  1.00  0.00     0.172 HD
HETATM   16  C8  UNL     1       5.407   3.127  91.722  1.00  0.00     0.145 A 
HETATM   17  N4  UNL     1       5.406   4.336  91.102  1.00  0.00    -0.327 N 
HETATM   18  C14 UNL     1       4.449   4.554  90.187  1.00  0.00     0.063 A 
HETATM   19  C15 UNL     1       4.436   5.775  89.547  1.00  0.00     0.039 A 
HETATM   20  C16 UNL     1       3.475   6.068  88.588  1.00  0.00    -0.054 A 
HETATM   21  C17 UNL     1       3.464   7.373  87.906  1.00  0.00     0.049 C 
ENDROOT
BRANCH  17  22
HETATM   22  C9  UNL     1       6.374   5.318  91.409  1.00  0.00     0.165 C 
BRANCH  22  23
HETATM   23  C10 UNL     1       7.643   5.271  90.621  1.00  0.00     0.167 C 
BRANCH  23  24
HETATM   24  O3  UNL     1       7.649   4.553  89.474  1.00  0.00    -0.391 OA
ATOM     25  H3  UNL     1       7.070   4.829  88.774  1.00  0.00     0.210 HD
ENDBRANCH  23  24
BRANCH  23  26
HETATM   26  C11 UNL     1       8.753   4.859  91.592  1.00  0.00     0.179 C 
BRANCH  26  27
HETATM   27  O4  UNL     1       8.341   5.031  92.910  1.00  0.00    -0.390 OA
ATOM     28  H4  UNL     1       9.090   5.110  93.488  1.00  0.00     0.210 HD
ENDBRANCH  26  27
BRANCH  26  29
HETATM   29  C12 UNL     1      10.041   5.563  91.302  1.00  0.00     0.173 C 
BRANCH  29  30
HETATM   30  O5  UNL     1       9.736   6.694  90.546  1.00  0.00    -0.391 OA
ATOM     31  H5  UNL     1      10.044   7.450  91.032  1.00  0.00     0.210 HD
ENDBRANCH  29  30
BRANCH  29  32
HETATM   32  C13 UNL     1      11.002   4.700  90.512  1.00  0.00     0.198 C 
BRANCH  32  33
HETATM   33  O6  UNL     1      10.437   3.422  90.396  1.00  0.00    -0.398 OA
ATOM     34  H6  UNL     1      10.043   3.199  91.232  1.00  0.00     0.209 HD
ENDBRANCH  32  33
ENDBRANCH  29  32
ENDBRANCH  26  29
ENDBRANCH  23  26
ENDBRANCH  22  23
ENDBRANCH  17  22
TORSDOF 9
ENDMDL
