MODEL 4
REMARK VINA RESULT: -8.731646473      4.225      6.862
REMARK  9 active torsions:
REMARK  status: ('A' for Active; 'I' for Inactive)
REMARK    1  A    between atoms: N4_17  and  C9_18 
REMARK    2  A    between atoms: C9_18  and  C10_19 
REMARK    3  A    between atoms: C10_19  and  O3_20 
REMARK    4  A    between atoms: C10_19  and  C11_22 
REMARK    5  A    between atoms: C11_22  and  O4_23 
REMARK    6  A    between atoms: C11_22  and  C12_25 
REMARK    7  A    between atoms: C12_25  and  O5_26 
REMARK    8  A    between atoms: C12_25  and  C13_28 
REMARK    9  A    between atoms: C13_28  and  O6_29 
ROOT
HETATM    1  C1  UNL     1       2.366   4.943  88.360  1.00  0.00     0.049 C 
HETATM    2  C2  UNL     1       3.302   4.340  89.355  1.00  0.00    -0.054 A 
HETATM    3  C3  UNL     1       3.068   3.096  89.861  1.00  0.00     0.039 A 
HETATM    4  C4  UNL     1       3.929   2.531  90.782  1.00  0.00     0.060 A 
HETATM    5  N1  UNL     1       3.684   1.305  91.268  1.00  0.00    -0.347 N 
ATOM      6  H1  UNL     1       2.863   0.780  90.968  1.00  0.00     0.166 HD
HETATM    7  C5  UNL     1       4.544   0.783  92.160  1.00  0.00     0.146 A 
HETATM    8  C6  UNL     1       4.379  -0.471  92.718  1.00  0.00     0.280 A 
HETATM    9  O1  UNL     1       3.379  -1.176  92.387  1.00  0.00    -0.265 OA
HETATM   10  N2  UNL     1       5.303  -0.888  93.599  1.00  0.00    -0.273 N 
ATOM     11  H2  UNL     1       5.193  -1.812  94.017  1.00  0.00     0.173 HD
HETATM   12  C7  UNL     1       6.366  -0.147  93.957  1.00  0.00     0.328 A 
HETATM   13  O2  UNL     1       7.162  -0.647  94.791  1.00  0.00    -0.247 OA
HETATM   14  N3  UNL     1       6.595   1.094  93.450  1.00  0.00    -0.292 N 
ATOM     15  H3  UNL     1       7.409   1.642  93.732  1.00  0.00     0.172 HD
HETATM   16  C8  UNL     1       5.705   1.568  92.563  1.00  0.00     0.145 A 
HETATM   17  N4  UNL     1       5.936   2.809  92.059  1.00  0.00    -0.327 N 
HETATM   18  C14 UNL     1       5.049   3.284  91.171  1.00  0.00     0.063 A 
HETATM   19  C15 UNL     1       5.270   4.539  90.649  1.00  0.00     0.039 A 
HETATM   20  C16 UNL     1       4.393   5.092  89.724  1.00  0.00    -0.054 A 
HETATM   21  C17 UNL     1       4.633   6.434  89.167  1.00  0.00     0.049 C 
ENDROOT
BRANCH  17  22
HETATM   22  C9  UNL     1       7.064   3.562  92.453  1.00  0.00     0.165 C 
BRANCH  22  23
HETATM   23  C10 UNL     1       8.367   3.190  91.822  1.00  0.00     0.167 C 
BRANCH  23  24
HETATM   24  O3  UNL     1       9.055   2.153  92.355  1.00  0.00    -0.391 OA
ATOM     25  H3  UNL     1       8.584   1.345  92.518  1.00  0.00     0.210 HD
ENDBRANCH  23  24
BRANCH  23  26
HETATM   26  C11 UNL     1       9.196   4.473  91.726  1.00  0.00     0.179 C 
BRANCH  26  27
HETATM   27  O4  UNL     1       8.372   5.594  91.772  1.00  0.00    -0.390 OA
ATOM     28  H4  UNL     1       7.804   5.626  91.012  1.00  0.00     0.210 HD
ENDBRANCH  26  27
BRANCH  26  29
HETATM   29  C12 UNL     1      10.091   4.474  90.527  1.00  0.00     0.173 C 
BRANCH  29  30
HETATM   30  O5  UNL     1      10.637   3.196  90.415  1.00  0.00    -0.391 OA
ATOM     31  H5  UNL     1      11.370   3.253  89.812  1.00  0.00     0.210 HD
ENDBRANCH  29  30
BRANCH  29  32
HETATM   32  C13 UNL     1      11.222   5.472  90.655  1.00  0.00     0.198 C 
BRANCH  32  33
HETATM   33  O6  UNL     1      10.739   6.725  90.252  1.00  0.00    -0.398 OA
ATOM     34  H6  UNL     1      11.408   7.372  90.445  1.00  0.00     0.209 HD
ENDBRANCH  32  33
ENDBRANCH  29  32
ENDBRANCH  26  29
ENDBRANCH  23  26
ENDBRANCH  22  23
ENDBRANCH  17  22
TORSDOF 9
ENDMDL
