MODEL 12
REMARK VINA RESULT: -7.455148322      2.095      6.120
REMARK  6 active torsions:
REMARK  status: ('A' for Active; 'I' for Inactive)
REMARK    1  A    between atoms: O1_2  and  C2_3 
REMARK    2  A    between atoms: C2_3  and  C3_4 
REMARK    3  A    between atoms: C3_4  and  C4_5 
REMARK    4  A    between atoms: C4_5  and  N1_6 
REMARK    5  A    between atoms: C10_12  and  C11_13 
REMARK    6  A    between atoms: C11_13  and  O2_15 
ROOT
HETATM    1  N1  UNL     1       7.376  15.271  58.356  1.00  0.00    -0.344 N 
HETATM    2  C5  UNL     1       8.091  14.410  59.235  1.00  0.00     0.165 A 
HETATM    3  C6  UNL     1       7.116  13.973  60.243  1.00  0.00    -0.024 A 
HETATM    4  C7  UNL     1       7.305  13.114  61.341  1.00  0.00     0.010 A 
HETATM    5  C8  UNL     1       6.245  12.841  62.161  1.00  0.00     0.002 A 
HETATM    6  C9  UNL     1       5.013  13.399  61.914  1.00  0.00     0.016 A 
HETATM    7  C10 UNL     1       4.822  14.262  60.813  1.00  0.00     0.028 A 
HETATM    8  C12 UNL     1       5.886  14.544  59.978  1.00  0.00     0.054 A 
HETATM    9  C13 UNL     1       6.018  15.381  58.776  1.00  0.00     0.255 A 
HETATM   10  O3  UNL     1       5.151  16.057  58.216  1.00  0.00    -0.267 OA
ENDROOT
BRANCH   1  11
HETATM   11  C4  UNL     1       7.966  15.932  57.201  1.00  0.00     0.128 C 
BRANCH  11  12
HETATM   12  C3  UNL     1       8.840  17.101  57.639  1.00  0.00     0.046 C 
BRANCH  12  13
HETATM   13  C2  UNL     1      10.134  17.000  56.906  1.00  0.00     0.168 C 
BRANCH  13  14
HETATM   14  O1  UNL     1      11.238  17.400  57.619  1.00  0.00    -0.396 OA
HETATM   15  C1  UNL     1      12.030  16.354  58.068  1.00  0.00     0.201 C 
ENDBRANCH  13  14
ENDBRANCH  12  13
ENDBRANCH  11  12
ENDBRANCH   1  11
BRANCH   7  16
HETATM   16  C11 UNL     1       3.514  14.798  60.629  1.00  0.00     0.161 C 
HETATM   17  N2  UNL     1       2.802  15.657  61.484  1.00  0.00    -0.074 NA
BRANCH  16  18
HETATM   18  O2  UNL     1       2.836  14.493  59.555  1.00  0.00    -0.348 OA
ATOM     19  H2  UNL     1       2.329  15.164  59.113  1.00  0.00     0.219 HD
ENDBRANCH  16  18
ENDBRANCH   7  16
TORSDOF 6
ENDMDL
