MODEL 7
REMARK VINA RESULT: -7.783561710      1.129      1.253
REMARK  6 active torsions:
REMARK  status: ('A' for Active; 'I' for Inactive)
REMARK    1  A    between atoms: O1_2  and  C2_3 
REMARK    2  A    between atoms: C2_3  and  C3_4 
REMARK    3  A    between atoms: C3_4  and  C4_5 
REMARK    4  A    between atoms: C4_5  and  N1_6 
REMARK    5  A    between atoms: C10_12  and  C11_13 
REMARK    6  A    between atoms: C11_13  and  O2_15 
ROOT
HETATM    1  N1  UNL     1       8.050  13.818  59.930  1.00  0.00    -0.344 N 
HETATM    2  C5  UNL     1       9.256  13.905  60.683  1.00  0.00     0.165 A 
HETATM    3  C6  UNL     1      10.055  14.950  60.029  1.00  0.00    -0.024 A 
HETATM    4  C7  UNL     1      11.332  15.430  60.374  1.00  0.00     0.010 A 
HETATM    5  C8  UNL     1      11.896  16.420  59.617  1.00  0.00     0.002 A 
HETATM    6  C9  UNL     1      11.224  16.937  58.536  1.00  0.00     0.016 A 
HETATM    7  C10 UNL     1       9.942  16.456  58.189  1.00  0.00     0.028 A 
HETATM    8  C12 UNL     1       9.363  15.457  58.946  1.00  0.00     0.054 A 
HETATM    9  C13 UNL     1       8.075  14.753  58.854  1.00  0.00     0.255 A 
HETATM   10  O3  UNL     1       7.174  14.913  58.028  1.00  0.00    -0.267 OA
ENDROOT
BRANCH   1  11
HETATM   11  C4  UNL     1       6.963  12.898  60.234  1.00  0.00     0.128 C 
BRANCH  11  12
HETATM   12  C3  UNL     1       6.350  13.221  61.591  1.00  0.00     0.046 C 
BRANCH  12  13
HETATM   13  C2  UNL     1       6.350  11.968  62.399  1.00  0.00     0.168 C 
BRANCH  13  14
HETATM   14  O1  UNL     1       7.074  12.031  63.565  1.00  0.00    -0.396 OA
HETATM   15  C1  UNL     1       8.431  11.800  63.401  1.00  0.00     0.201 C 
ENDBRANCH  13  14
ENDBRANCH  12  13
ENDBRANCH  11  12
ENDBRANCH   1  11
BRANCH   7  16
HETATM   16  C11 UNL     1       9.315  17.047  57.053  1.00  0.00     0.161 C 
HETATM   17  N2  UNL     1       9.802  17.124  55.737  1.00  0.00    -0.074 NA
BRANCH  16  18
HETATM   18  O2  UNL     1       8.139  17.604  57.182  1.00  0.00    -0.348 OA
ATOM     19  H2  UNL     1       8.078  18.536  57.354  1.00  0.00     0.219 HD
ENDBRANCH  16  18
ENDBRANCH   7  16
TORSDOF 6
ENDMDL
