MODEL 11
REMARK VINA RESULT: -7.523215124      3.277      5.470
REMARK  6 active torsions:
REMARK  status: ('A' for Active; 'I' for Inactive)
REMARK    1  A    between atoms: O1_2  and  C2_3 
REMARK    2  A    between atoms: C2_3  and  C3_4 
REMARK    3  A    between atoms: C3_4  and  C4_5 
REMARK    4  A    between atoms: C4_5  and  N1_6 
REMARK    5  A    between atoms: C10_12  and  C11_13 
REMARK    6  A    between atoms: C11_13  and  O2_15 
ROOT
HETATM    1  N1  UNL     1       5.645  14.589  57.018  1.00  0.00    -0.344 N 
HETATM    2  C5  UNL     1       6.639  15.540  56.651  1.00  0.00     0.165 A 
HETATM    3  C6  UNL     1       7.688  15.430  57.674  1.00  0.00    -0.024 A 
HETATM    4  C7  UNL     1       8.894  16.147  57.782  1.00  0.00     0.010 A 
HETATM    5  C8  UNL     1       9.734  15.879  58.828  1.00  0.00     0.002 A 
HETATM    6  C9  UNL     1       9.403  14.923  59.759  1.00  0.00     0.016 A 
HETATM    7  C10 UNL     1       8.193  14.204  59.651  1.00  0.00     0.028 A 
HETATM    8  C12 UNL     1       7.338  14.466  58.599  1.00  0.00     0.054 A 
HETATM    9  C13 UNL     1       6.034  13.908  58.208  1.00  0.00     0.255 A 
HETATM   10  O3  UNL     1       5.379  13.028  58.772  1.00  0.00    -0.267 OA
ENDROOT
BRANCH   1  11
HETATM   11  C4  UNL     1       4.416  14.363  56.270  1.00  0.00     0.128 C 
BRANCH  11  12
HETATM   12  C3  UNL     1       4.645  13.350  55.155  1.00  0.00     0.046 C 
BRANCH  12  13
HETATM   13  C2  UNL     1       4.695  14.097  53.866  1.00  0.00     0.168 C 
BRANCH  13  14
HETATM   14  O1  UNL     1       3.651  13.847  53.009  1.00  0.00    -0.396 OA
HETATM   15  C1  UNL     1       2.908  12.724  53.337  1.00  0.00     0.201 C 
ENDBRANCH  13  14
ENDBRANCH  12  13
ENDBRANCH  11  12
ENDBRANCH   1  11
BRANCH   7  16
HETATM   16  C11 UNL     1       7.926  13.231  60.659  1.00  0.00     0.161 C 
HETATM   17  N2  UNL     1       8.623  12.038  60.917  1.00  0.00    -0.074 NA
BRANCH  16  18
HETATM   18  O2  UNL     1       6.924  13.408  61.478  1.00  0.00    -0.348 OA
ATOM     19  H2  UNL     1       6.528  12.658  61.906  1.00  0.00     0.219 HD
ENDBRANCH  16  18
ENDBRANCH   7  16
TORSDOF 6
ENDMDL
