MODEL 1
REMARK VINA RESULT: -8.163924005      0.000      0.000
REMARK  6 active torsions:
REMARK  status: ('A' for Active; 'I' for Inactive)
REMARK    1  A    between atoms: O1_2  and  C2_3 
REMARK    2  A    between atoms: C2_3  and  C3_4 
REMARK    3  A    between atoms: C3_4  and  C4_5 
REMARK    4  A    between atoms: C4_5  and  N1_6 
REMARK    5  A    between atoms: C10_12  and  C11_13 
REMARK    6  A    between atoms: C11_13  and  O2_15 
ROOT
HETATM    1  N1  UNL     1       7.564  14.345  59.239  1.00  0.00    -0.344 N 
HETATM    2  C5  UNL     1       8.620  14.088  60.160  1.00  0.00     0.165 A 
HETATM    3  C6  UNL     1       9.711  14.993  59.772  1.00  0.00    -0.024 A 
HETATM    4  C7  UNL     1      10.982  15.142  60.355  1.00  0.00     0.010 A 
HETATM    5  C8  UNL     1      11.852  16.056  59.826  1.00  0.00     0.002 A 
HETATM    6  C9  UNL     1      11.487  16.815  58.740  1.00  0.00     0.016 A 
HETATM    7  C10 UNL     1      10.211  16.665  58.154  1.00  0.00     0.028 A 
HETATM    8  C12 UNL     1       9.325  15.747  58.681  1.00  0.00     0.054 A 
HETATM    9  C13 UNL     1       7.955  15.356  58.314  1.00  0.00     0.255 A 
HETATM   10  O3  UNL     1       7.256  15.793  57.397  1.00  0.00    -0.267 OA
ENDROOT
BRANCH   1  11
HETATM   11  C4  UNL     1       6.279  13.661  59.260  1.00  0.00     0.128 C 
BRANCH  11  12
HETATM   12  C3  UNL     1       5.422  14.160  60.417  1.00  0.00     0.046 C 
BRANCH  12  13
HETATM   13  C2  UNL     1       4.989  12.973  61.208  1.00  0.00     0.168 C 
BRANCH  13  14
HETATM   14  O1  UNL     1       5.342  13.000  62.535  1.00  0.00    -0.396 OA
HETATM   15  C1  UNL     1       6.452  12.226  62.841  1.00  0.00     0.201 C 
ENDBRANCH  13  14
ENDBRANCH  12  13
ENDBRANCH  11  12
ENDBRANCH   1  11
BRANCH   7  16
HETATM   16  C11 UNL     1       9.914  17.492  57.031  1.00  0.00     0.161 C 
HETATM   17  N2  UNL     1       9.665  17.095  55.706  1.00  0.00    -0.074 NA
BRANCH  16  18
HETATM   18  O2  UNL     1       9.850  18.788  57.183  1.00  0.00    -0.348 OA
ATOM     19  H2  UNL     1       9.048  19.248  56.963  1.00  0.00     0.219 HD
ENDBRANCH  16  18
ENDBRANCH   7  16
TORSDOF 6
ENDMDL
