MODEL 4
REMARK VINA RESULT: -8.068006054      1.620      1.711
REMARK  6 active torsions:
REMARK  status: ('A' for Active; 'I' for Inactive)
REMARK    1  A    between atoms: O1_2  and  C2_3 
REMARK    2  A    between atoms: C2_3  and  C3_4 
REMARK    3  A    between atoms: C3_4  and  C4_5 
REMARK    4  A    between atoms: C4_5  and  N1_6 
REMARK    5  A    between atoms: C10_12  and  C11_13 
REMARK    6  A    between atoms: C11_13  and  O2_15 
ROOT
HETATM    1  N1  UNL     1       6.972  14.452  58.864  1.00  0.00    -0.344 N 
HETATM    2  C5  UNL     1       7.901  14.032  59.858  1.00  0.00     0.165 A 
HETATM    3  C6  UNL     1       9.120  14.816  59.617  1.00  0.00    -0.024 A 
HETATM    4  C7  UNL     1      10.340  14.789  60.315  1.00  0.00     0.010 A 
HETATM    5  C8  UNL     1      11.354  15.614  59.914  1.00  0.00     0.002 A 
HETATM    6  C9  UNL     1      11.181  16.458  58.843  1.00  0.00     0.016 A 
HETATM    7  C10 UNL     1       9.957  16.486  58.140  1.00  0.00     0.028 A 
HETATM    8  C12 UNL     1       8.926  15.657  58.538  1.00  0.00     0.054 A 
HETATM    9  C13 UNL     1       7.560  15.448  58.032  1.00  0.00     0.255 A 
HETATM   10  O3  UNL     1       7.004  16.005  57.083  1.00  0.00    -0.267 OA
ENDROOT
BRANCH   1  11
HETATM   11  C4  UNL     1       5.621  13.925  58.736  1.00  0.00     0.128 C 
BRANCH  11  12
HETATM   12  C3  UNL     1       5.630  12.596  57.990  1.00  0.00     0.046 C 
BRANCH  12  13
HETATM   13  C2  UNL     1       5.270  11.526  58.963  1.00  0.00     0.168 C 
BRANCH  13  14
HETATM   14  O1  UNL     1       6.082  10.418  58.935  1.00  0.00    -0.396 OA
HETATM   15  C1  UNL     1       7.140  10.470  59.829  1.00  0.00     0.201 C 
ENDBRANCH  13  14
ENDBRANCH  12  13
ENDBRANCH  11  12
ENDBRANCH   1  11
BRANCH   7  16
HETATM   16  C11 UNL     1       9.861  17.390  57.042  1.00  0.00     0.161 C 
HETATM   17  N2  UNL     1       9.702  17.084  55.679  1.00  0.00    -0.074 NA
BRANCH  16  18
HETATM   18  O2  UNL     1       9.923  18.677  57.258  1.00  0.00    -0.348 OA
ATOM     19  H2  UNL     1       9.178  19.226  57.041  1.00  0.00     0.219 HD
ENDBRANCH  16  18
ENDBRANCH   7  16
TORSDOF 6
ENDMDL
