MODEL 13
REMARK VINA RESULT: -7.286350607      3.122      5.195
REMARK  6 active torsions:
REMARK  status: ('A' for Active; 'I' for Inactive)
REMARK    1  A    between atoms: O1_2  and  C2_3 
REMARK    2  A    between atoms: C2_3  and  C3_4 
REMARK    3  A    between atoms: C3_4  and  C4_5 
REMARK    4  A    between atoms: C4_5  and  N1_6 
REMARK    5  A    between atoms: C10_12  and  C11_13 
REMARK    6  A    between atoms: C11_13  and  O2_15 
ROOT
HETATM    1  N1  UNL     1       6.398  15.239  57.066  1.00  0.00    -0.344 N 
HETATM    2  C5  UNL     1       7.545  16.068  56.908  1.00  0.00     0.165 A 
HETATM    3  C6  UNL     1       8.451  15.702  58.005  1.00  0.00    -0.024 A 
HETATM    4  C7  UNL     1       9.723  16.221  58.309  1.00  0.00     0.010 A 
HETATM    5  C8  UNL     1      10.399  15.729  59.391  1.00  0.00     0.002 A 
HETATM    6  C9  UNL     1       9.843  14.741  60.169  1.00  0.00     0.016 A 
HETATM    7  C10 UNL     1       8.567  14.220  59.864  1.00  0.00     0.028 A 
HETATM    8  C12 UNL     1       7.875  14.709  58.774  1.00  0.00     0.054 A 
HETATM    9  C13 UNL     1       6.559  14.390  58.200  1.00  0.00     0.255 A 
HETATM   10  O3  UNL     1       5.735  13.561  58.593  1.00  0.00    -0.267 OA
ENDROOT
BRANCH   1  11
HETATM   11  C4  UNL     1       5.240  15.271  56.184  1.00  0.00     0.128 C 
BRANCH  11  12
HETATM   12  C3  UNL     1       4.109  16.078  56.811  1.00  0.00     0.046 C 
BRANCH  12  13
HETATM   13  C2  UNL     1       3.066  16.286  55.766  1.00  0.00     0.168 C 
BRANCH  13  14
HETATM   14  O1  UNL     1       3.046  17.541  55.208  1.00  0.00    -0.396 OA
HETATM   15  C1  UNL     1       1.874  18.244  55.439  1.00  0.00     0.201 C 
ENDBRANCH  13  14
ENDBRANCH  12  13
ENDBRANCH  11  12
ENDBRANCH   1  11
BRANCH   7  16
HETATM   16  C11 UNL     1       8.064  13.198  60.722  1.00  0.00     0.161 C 
HETATM   17  N2  UNL     1       8.582  11.908  60.929  1.00  0.00    -0.074 NA
BRANCH  16  18
HETATM   18  O2  UNL     1       6.990  13.422  61.432  1.00  0.00    -0.348 OA
ATOM     19  H2  UNL     1       7.027  14.036  62.157  1.00  0.00     0.219 HD
ENDBRANCH  16  18
ENDBRANCH   7  16
TORSDOF 6
ENDMDL
