MODEL 1
REMARK VINA RESULT: -10.877704120      0.000      0.000
REMARK  3 active torsions:
REMARK  status: ('A' for Active; 'I' for Inactive)
REMARK    1  A    between atoms: C1_2  and  C2_4 
REMARK    2  A    between atoms: N2_13  and  C9_14 
REMARK    3  A    between atoms: N3_17  and  C12_18 
ROOT
HETATM    1  C2  UNL     1      26.788 -22.425   3.499  1.00  0.00     0.048 A 
HETATM    2  C3  UNL     1      28.099 -22.146   3.909  1.00  0.00     0.060 A 
HETATM    3  C4  UNL     1      28.649 -22.685   5.041  1.00  0.00     0.117 A 
HETATM    4  F1  UNL     1      29.934 -22.389   5.409  1.00  0.00    -0.206 F 
HETATM    5  C5  UNL     1      27.920 -23.540   5.836  1.00  0.00     0.052 A 
HETATM    6  C6  UNL     1      26.634 -23.828   5.457  1.00  0.00    -0.021 A 
HETATM    7  C7  UNL     1      26.068 -23.284   4.310  1.00  0.00     0.055 A 
HETATM    8  C8  UNL     1      24.713 -23.776   4.177  1.00  0.00     0.256 A 
HETATM    9  O2  UNL     1      23.847 -23.549   3.303  1.00  0.00    -0.267 OA
HETATM   10  N2  UNL     1      24.466 -24.641   5.283  1.00  0.00    -0.339 N 
HETATM   11  C20 UNL     1      25.634 -24.705   6.123  1.00  0.00     0.166 A 
ENDROOT
BRANCH  10  12
HETATM   12  C9  UNL     1      23.249 -25.368   5.557  1.00  0.00     0.091 C 
HETATM   13  C10 UNL     1      23.502 -26.805   5.913  1.00  0.00     0.055 C 
HETATM   14  C11 UNL     1      23.228 -27.149   7.330  1.00  0.00     0.275 C 
HETATM   15  N3  UNL     1      21.966 -26.754   7.843  1.00  0.00     0.093 N 
HETATM   16  C18 UNL     1      21.439 -25.538   7.264  1.00  0.00     0.275 C 
HETATM   17  C19 UNL     1      22.527 -24.663   6.684  1.00  0.00     0.055 C 
BRANCH  15  18
HETATM   18  C12 UNL     1      20.947 -27.766   7.811  1.00  0.00     0.223 C 
HETATM   19  C13 UNL     1      19.947 -27.617   6.724  1.00  0.00     0.041 C 
HETATM   20  C14 UNL     1      18.812 -28.562   6.972  1.00  0.00     0.081 C 
HETATM   21  C15 UNL     1      19.084 -29.607   7.995  1.00  0.00     0.243 C 
HETATM   22  F2  UNL     1      18.724 -29.189   9.284  1.00  0.00    -0.206 F 
HETATM   23  F3  UNL     1      18.221 -30.680   7.724  1.00  0.00    -0.206 F 
HETATM   24  C16 UNL     1      20.464 -30.142   8.020  1.00  0.00     0.081 C 
HETATM   25  C17 UNL     1      21.537 -29.168   7.663  1.00  0.00     0.041 C 
ENDBRANCH  15  18
ENDBRANCH  10  12
BRANCH   1  26
HETATM   26  C1  UNL     1      26.295 -21.808   2.292  1.00  0.00     0.266 C 
HETATM   27  N1  UNL     1      27.027 -21.918   1.082  1.00  0.00    -0.057 NA
HETATM   28  O1  UNL     1      25.236 -21.173   2.262  1.00  0.00    -0.271 OA
ENDBRANCH   1  26
TORSDOF 3
ENDMDL
