MODEL 6
REMARK VINA RESULT: -9.703786230      5.268      6.407
REMARK  3 active torsions:
REMARK  status: ('A' for Active; 'I' for Inactive)
REMARK    1  A    between atoms: C1_2  and  C2_4 
REMARK    2  A    between atoms: N2_13  and  C9_14 
REMARK    3  A    between atoms: N3_17  and  C12_18 
ROOT
HETATM    1  C2  UNL     1      26.103 -23.789   4.952  1.00  0.00     0.048 A 
HETATM    2  C3  UNL     1      27.166 -22.917   4.676  1.00  0.00     0.060 A 
HETATM    3  C4  UNL     1      27.167 -22.073   3.598  1.00  0.00     0.117 A 
HETATM    4  F1  UNL     1      28.224 -21.235   3.361  1.00  0.00    -0.206 F 
HETATM    5  C5  UNL     1      26.103 -22.049   2.726  1.00  0.00     0.052 A 
HETATM    6  C6  UNL     1      25.051 -22.893   2.974  1.00  0.00    -0.021 A 
HETATM    7  C7  UNL     1      25.042 -23.752   4.066  1.00  0.00     0.055 A 
HETATM    8  C8  UNL     1      23.806 -24.506   4.060  1.00  0.00     0.256 A 
HETATM    9  O2  UNL     1      23.382 -25.382   4.847  1.00  0.00    -0.267 OA
HETATM   10  N2  UNL     1      23.055 -24.078   2.925  1.00  0.00    -0.339 N 
HETATM   11  C20 UNL     1      23.792 -23.073   2.203  1.00  0.00     0.166 A 
ENDROOT
BRANCH  10  12
HETATM   12  C9  UNL     1      21.750 -24.548   2.526  1.00  0.00     0.091 C 
HETATM   13  C10 UNL     1      20.702 -23.475   2.602  1.00  0.00     0.055 C 
HETATM   14  C11 UNL     1      20.193 -23.013   1.287  1.00  0.00     0.275 C 
HETATM   15  N3  UNL     1      19.769 -24.020   0.383  1.00  0.00     0.093 N 
HETATM   16  C18 UNL     1      20.490 -25.269   0.497  1.00  0.00     0.275 C 
HETATM   17  C19 UNL     1      21.859 -25.084   1.115  1.00  0.00     0.055 C 
BRANCH  15  18
HETATM   18  C12 UNL     1      18.358 -24.295   0.389  1.00  0.00     0.223 C 
HETATM   19  C13 UNL     1      17.890 -25.155   1.506  1.00  0.00     0.041 C 
HETATM   20  C14 UNL     1      16.478 -25.575   1.238  1.00  0.00     0.081 C 
HETATM   21  C15 UNL     1      15.795 -24.813   0.158  1.00  0.00     0.243 C 
HETATM   22  F2  UNL     1      15.974 -25.404  -1.100  1.00  0.00    -0.206 F 
HETATM   23  F3  UNL     1      14.416 -24.912   0.396  1.00  0.00    -0.206 F 
HETATM   24  C16 UNL     1      16.129 -23.372   0.075  1.00  0.00     0.081 C 
HETATM   25  C17 UNL     1      17.527 -23.014   0.455  1.00  0.00     0.041 C 
ENDBRANCH  15  18
ENDBRANCH  10  12
BRANCH   1  26
HETATM   26  C1  UNL     1      26.192 -24.642   6.113  1.00  0.00     0.266 C 
HETATM   27  N1  UNL     1      27.412 -25.292   6.431  1.00  0.00    -0.057 NA
HETATM   28  O1  UNL     1      25.230 -24.837   6.861  1.00  0.00    -0.271 OA
ENDBRANCH   1  26
TORSDOF 3
ENDMDL
