MODEL 7
REMARK VINA RESULT: -9.685728334      5.099      5.782
REMARK  3 active torsions:
REMARK  status: ('A' for Active; 'I' for Inactive)
REMARK    1  A    between atoms: C1_2  and  C2_4 
REMARK    2  A    between atoms: N2_13  and  C9_14 
REMARK    3  A    between atoms: N3_17  and  C12_18 
ROOT
HETATM    1  C2  UNL     1      26.636 -22.593   3.574  1.00  0.00     0.048 A 
HETATM    2  C3  UNL     1      27.338 -23.106   4.673  1.00  0.00     0.060 A 
HETATM    3  C4  UNL     1      26.767 -23.956   5.581  1.00  0.00     0.117 A 
HETATM    4  F1  UNL     1      27.486 -24.437   6.644  1.00  0.00    -0.206 F 
HETATM    5  C5  UNL     1      25.455 -24.348   5.447  1.00  0.00     0.052 A 
HETATM    6  C6  UNL     1      24.746 -23.860   4.379  1.00  0.00    -0.021 A 
HETATM    7  C7  UNL     1      25.318 -22.996   3.453  1.00  0.00     0.055 A 
HETATM    8  C8  UNL     1      24.328 -22.662   2.450  1.00  0.00     0.256 A 
HETATM    9  O2  UNL     1      24.408 -21.925   1.442  1.00  0.00    -0.267 OA
HETATM   10  N2  UNL     1      23.128 -23.352   2.793  1.00  0.00    -0.339 N 
HETATM   11  C20 UNL     1      23.331 -24.112   3.999  1.00  0.00     0.166 A 
ENDROOT
BRANCH  10  12
HETATM   12  C9  UNL     1      21.880 -23.326   2.068  1.00  0.00     0.091 C 
HETATM   13  C10 UNL     1      21.282 -24.694   1.900  1.00  0.00     0.055 C 
HETATM   14  C11 UNL     1      20.044 -24.929   2.684  1.00  0.00     0.275 C 
HETATM   15  N3  UNL     1      19.023 -23.952   2.560  1.00  0.00     0.093 N 
HETATM   16  C18 UNL     1      19.506 -22.608   2.329  1.00  0.00     0.275 C 
HETATM   17  C19 UNL     1      20.926 -22.419   2.814  1.00  0.00     0.055 C 
BRANCH  15  18
HETATM   18  C12 UNL     1      18.000 -24.252   1.598  1.00  0.00     0.223 C 
HETATM   19  C13 UNL     1      17.575 -23.106   0.754  1.00  0.00     0.041 C 
HETATM   20  C14 UNL     1      16.338 -23.487   0.001  1.00  0.00     0.081 C 
HETATM   21  C15 UNL     1      16.029 -24.942   0.007  1.00  0.00     0.243 C 
HETATM   22  F2  UNL     1      15.213 -25.304   1.089  1.00  0.00    -0.206 F 
HETATM   23  F3  UNL     1      15.239 -25.198  -1.124  1.00  0.00    -0.206 F 
HETATM   24  C16 UNL     1      17.196 -25.851  -0.051  1.00  0.00     0.081 C 
HETATM   25  C17 UNL     1      18.427 -25.360   0.635  1.00  0.00     0.041 C 
ENDBRANCH  15  18
ENDBRANCH  10  12
BRANCH   1  26
HETATM   26  C1  UNL     1      27.322 -21.702   2.669  1.00  0.00     0.266 C 
HETATM   27  N1  UNL     1      28.231 -20.735   3.170  1.00  0.00    -0.057 NA
HETATM   28  O1  UNL     1      27.149 -21.744   1.447  1.00  0.00    -0.271 OA
ENDBRANCH   1  26
TORSDOF 3
ENDMDL
