MODEL 3
REMARK VINA RESULT: -10.370836542      5.053      5.911
REMARK  3 active torsions:
REMARK  status: ('A' for Active; 'I' for Inactive)
REMARK    1  A    between atoms: C1_2  and  C2_4 
REMARK    2  A    between atoms: N2_13  and  C9_14 
REMARK    3  A    between atoms: N3_17  and  C12_18 
ROOT
HETATM    1  C2  UNL     1      26.380 -22.522   3.195  1.00  0.00     0.048 A 
HETATM    2  C3  UNL     1      27.363 -22.624   4.189  1.00  0.00     0.060 A 
HETATM    3  C4  UNL     1      27.203 -23.398   5.307  1.00  0.00     0.117 A 
HETATM    4  F1  UNL     1      28.187 -23.473   6.257  1.00  0.00    -0.206 F 
HETATM    5  C5  UNL     1      26.048 -24.119   5.501  1.00  0.00     0.052 A 
HETATM    6  C6  UNL     1      25.071 -24.036   4.543  1.00  0.00    -0.021 A 
HETATM    7  C7  UNL     1      25.225 -23.253   3.405  1.00  0.00     0.055 A 
HETATM    8  C8  UNL     1      24.034 -23.373   2.589  1.00  0.00     0.256 A 
HETATM    9  O2  UNL     1      23.744 -22.847   1.491  1.00  0.00    -0.267 OA
HETATM   10  N2  UNL     1      23.144 -24.258   3.266  1.00  0.00    -0.339 N 
HETATM   11  C20 UNL     1      23.739 -24.698   4.501  1.00  0.00     0.166 A 
ENDROOT
BRANCH  10  12
HETATM   12  C9  UNL     1      21.840 -24.681   2.816  1.00  0.00     0.091 C 
HETATM   13  C10 UNL     1      20.825 -23.574   2.865  1.00  0.00     0.055 C 
HETATM   14  C11 UNL     1      20.380 -23.085   1.537  1.00  0.00     0.275 C 
HETATM   15  N3  UNL     1      19.954 -24.071   0.610  1.00  0.00     0.093 N 
HETATM   16  C18 UNL     1      20.630 -25.343   0.738  1.00  0.00     0.275 C 
HETATM   17  C19 UNL     1      21.981 -25.209   1.406  1.00  0.00     0.055 C 
BRANCH  15  18
HETATM   18  C12 UNL     1      18.537 -24.297   0.563  1.00  0.00     0.223 C 
HETATM   19  C13 UNL     1      17.993 -25.112   1.680  1.00  0.00     0.041 C 
HETATM   20  C14 UNL     1      16.580 -25.492   1.363  1.00  0.00     0.081 C 
HETATM   21  C15 UNL     1      15.969 -24.735   0.238  1.00  0.00     0.243 C 
HETATM   22  F2  UNL     1      16.179 -25.365  -0.997  1.00  0.00    -0.206 F 
HETATM   23  F3  UNL     1      14.578 -24.782   0.419  1.00  0.00    -0.206 F 
HETATM   24  C16 UNL     1      16.355 -23.310   0.133  1.00  0.00     0.081 C 
HETATM   25  C17 UNL     1      17.747 -22.988   0.562  1.00  0.00     0.041 C 
ENDBRANCH  15  18
ENDBRANCH  10  12
BRANCH   1  26
HETATM   26  C1  UNL     1      26.638 -21.681   2.051  1.00  0.00     0.266 C 
HETATM   27  N1  UNL     1      26.849 -20.288   2.220  1.00  0.00    -0.057 NA
HETATM   28  O1  UNL     1      26.685 -22.130   0.901  1.00  0.00    -0.271 OA
ENDBRANCH   1  26
TORSDOF 3
ENDMDL
