MODEL 4
REMARK VINA RESULT: -10.309958155      1.081      1.740
REMARK  3 active torsions:
REMARK  status: ('A' for Active; 'I' for Inactive)
REMARK    1  A    between atoms: C1_2  and  C2_4 
REMARK    2  A    between atoms: N2_13  and  C9_14 
REMARK    3  A    between atoms: N3_17  and  C12_18 
ROOT
HETATM    1  C2  UNL     1      26.801 -22.451   3.886  1.00  0.00     0.048 A 
HETATM    2  C3  UNL     1      28.081 -21.913   4.077  1.00  0.00     0.060 A 
HETATM    3  C4  UNL     1      28.908 -22.320   5.090  1.00  0.00     0.117 A 
HETATM    4  F1  UNL     1      30.153 -21.771   5.245  1.00  0.00    -0.206 F 
HETATM    5  C5  UNL     1      28.505 -23.293   5.976  1.00  0.00     0.052 A 
HETATM    6  C6  UNL     1      27.256 -23.834   5.810  1.00  0.00    -0.021 A 
HETATM    7  C7  UNL     1      26.411 -23.426   4.785  1.00  0.00     0.055 A 
HETATM    8  C8  UNL     1      25.176 -24.178   4.869  1.00  0.00     0.256 A 
HETATM    9  O2  UNL     1      24.148 -24.136   4.157  1.00  0.00    -0.267 OA
HETATM   10  N2  UNL     1      25.293 -25.062   5.982  1.00  0.00    -0.339 N 
HETATM   11  C20 UNL     1      26.574 -24.883   6.614  1.00  0.00     0.166 A 
ENDROOT
BRANCH  10  12
HETATM   12  C9  UNL     1      24.306 -26.012   6.438  1.00  0.00     0.091 C 
HETATM   13  C10 UNL     1      23.023 -25.354   6.858  1.00  0.00     0.055 C 
HETATM   14  C11 UNL     1      21.871 -25.613   5.959  1.00  0.00     0.275 C 
HETATM   15  N3  UNL     1      21.618 -26.969   5.630  1.00  0.00     0.093 N 
HETATM   16  C18 UNL     1      22.800 -27.802   5.574  1.00  0.00     0.275 C 
HETATM   17  C19 UNL     1      24.054 -26.997   5.318  1.00  0.00     0.055 C 
BRANCH  15  18
HETATM   18  C12 UNL     1      20.626 -27.621   6.439  1.00  0.00     0.223 C 
HETATM   19  C13 UNL     1      20.873 -27.564   7.903  1.00  0.00     0.041 C 
HETATM   20  C14 UNL     1      19.927 -28.498   8.593  1.00  0.00     0.081 C 
HETATM   21  C15 UNL     1      18.804 -28.984   7.748  1.00  0.00     0.243 C 
HETATM   22  F2  UNL     1      19.127 -30.168   7.070  1.00  0.00    -0.206 F 
HETATM   23  F3  UNL     1      17.767 -29.354   8.618  1.00  0.00    -0.206 F 
HETATM   24  C16 UNL     1      18.248 -28.005   6.787  1.00  0.00     0.081 C 
HETATM   25  C17 UNL     1      19.231 -27.038   6.215  1.00  0.00     0.041 C 
ENDBRANCH  15  18
ENDBRANCH  10  12
BRANCH   1  26
HETATM   26  C1  UNL     1      26.001 -21.958   2.790  1.00  0.00     0.266 C 
HETATM   27  N1  UNL     1      26.529 -21.928   1.475  1.00  0.00    -0.057 NA
HETATM   28  O1  UNL     1      24.846 -21.550   2.951  1.00  0.00    -0.271 OA
ENDBRANCH   1  26
TORSDOF 3
ENDMDL
