MODEL 6
REMARK VINA RESULT: -7.680967131      1.408      1.840
REMARK  6 active torsions:
REMARK  status: ('A' for Active; 'I' for Inactive)
REMARK    1  A    between atoms: O1_2  and  C2_3 
REMARK    2  A    between atoms: C2_3  and  C3_4 
REMARK    3  A    between atoms: C3_4  and  C4_5 
REMARK    4  A    between atoms: C4_5  and  N1_6 
REMARK    5  A    between atoms: C10_12  and  C11_13 
REMARK    6  A    between atoms: C11_13  and  O2_15 
ROOT
HETATM    1  N1  UNL     1      62.266   6.771  10.179  1.00  0.00    -0.344 N 
HETATM    2  C5  UNL     1      62.158   5.418  10.608  1.00  0.00     0.165 A 
HETATM    3  C6  UNL     1      63.262   4.705   9.950  1.00  0.00    -0.024 A 
HETATM    4  C7  UNL     1      63.609   3.345  10.035  1.00  0.00     0.010 A 
HETATM    5  C8  UNL     1      64.689   2.890   9.330  1.00  0.00     0.002 A 
HETATM    6  C9  UNL     1      65.424   3.751   8.550  1.00  0.00     0.016 A 
HETATM    7  C10 UNL     1      65.076   5.117   8.464  1.00  0.00     0.028 A 
HETATM    8  C12 UNL     1      63.988   5.587   9.172  1.00  0.00     0.054 A 
HETATM    9  C13 UNL     1      63.375   6.919   9.296  1.00  0.00     0.255 A 
HETATM   10  O3  UNL     1      63.724   7.973   8.760  1.00  0.00    -0.267 OA
ENDROOT
BRANCH   1  11
HETATM   11  C4  UNL     1      61.361   7.834  10.595  1.00  0.00     0.128 C 
BRANCH  11  12
HETATM   12  C3  UNL     1      61.113   7.771  12.097  1.00  0.00     0.046 C 
BRANCH  12  13
HETATM   13  C2  UNL     1      59.660   8.016  12.328  1.00  0.00     0.168 C 
BRANCH  13  14
HETATM   14  O1  UNL     1      59.019   8.692  11.319  1.00  0.00    -0.396 OA
HETATM   15  C1  UNL     1      58.419   9.875  11.724  1.00  0.00     0.201 C 
ENDBRANCH  13  14
ENDBRANCH  12  13
ENDBRANCH  11  12
ENDBRANCH   1  11
BRANCH   7  16
HETATM   16  C11 UNL     1      65.890   5.941   7.633  1.00  0.00     0.161 C 
HETATM   17  N2  UNL     1      65.546   6.548   6.412  1.00  0.00    -0.074 NA
BRANCH  16  18
HETATM   18  O2  UNL     1      67.118   6.206   7.991  1.00  0.00    -0.348 OA
ATOM     19  H2  UNL     1      67.832   5.683   7.642  1.00  0.00     0.219 HD
ENDBRANCH  16  18
ENDBRANCH   7  16
TORSDOF 6
ENDMDL
