MODEL 1
REMARK VINA RESULT: -7.880657720      0.000      0.000
REMARK  6 active torsions:
REMARK  status: ('A' for Active; 'I' for Inactive)
REMARK    1  A    between atoms: O1_2  and  C2_3 
REMARK    2  A    between atoms: C2_3  and  C3_4 
REMARK    3  A    between atoms: C3_4  and  C4_5 
REMARK    4  A    between atoms: C4_5  and  N1_6 
REMARK    5  A    between atoms: C10_12  and  C11_13 
REMARK    6  A    between atoms: C11_13  and  O2_15 
ROOT
HETATM    1  N1  UNL     1      62.305   6.754  10.233  1.00  0.00    -0.344 N 
HETATM    2  C5  UNL     1      62.193   5.393  10.636  1.00  0.00     0.165 A 
HETATM    3  C6  UNL     1      63.279   4.685   9.945  1.00  0.00    -0.024 A 
HETATM    4  C7  UNL     1      63.615   3.320   9.995  1.00  0.00     0.010 A 
HETATM    5  C8  UNL     1      64.678   2.870   9.262  1.00  0.00     0.002 A 
HETATM    6  C9  UNL     1      65.406   3.741   8.486  1.00  0.00     0.016 A 
HETATM    7  C10 UNL     1      65.069   5.111   8.434  1.00  0.00     0.028 A 
HETATM    8  C12 UNL     1      63.998   5.576   9.172  1.00  0.00     0.054 A 
HETATM    9  C13 UNL     1      63.400   6.910   9.334  1.00  0.00     0.255 A 
HETATM   10  O3  UNL     1      63.748   7.972   8.813  1.00  0.00    -0.267 OA
ENDROOT
BRANCH   1  11
HETATM   11  C4  UNL     1      61.418   7.815  10.687  1.00  0.00     0.128 C 
BRANCH  11  12
HETATM   12  C3  UNL     1      61.654   8.120  12.161  1.00  0.00     0.046 C 
BRANCH  12  13
HETATM   13  C2  UNL     1      62.048   9.553  12.272  1.00  0.00     0.168 C 
BRANCH  13  14
HETATM   14  O1  UNL     1      63.024   9.956  11.393  1.00  0.00    -0.396 OA
HETATM   15  C1  UNL     1      64.314   9.828  11.884  1.00  0.00     0.201 C 
ENDBRANCH  13  14
ENDBRANCH  12  13
ENDBRANCH  11  12
ENDBRANCH   1  11
BRANCH   7  16
HETATM   16  C11 UNL     1      65.875   5.945   7.606  1.00  0.00     0.161 C 
HETATM   17  N2  UNL     1      65.531   6.541   6.380  1.00  0.00    -0.074 NA
BRANCH  16  18
HETATM   18  O2  UNL     1      67.097   6.232   7.972  1.00  0.00    -0.348 OA
ATOM     19  H2  UNL     1      67.372   7.140   8.020  1.00  0.00     0.219 HD
ENDBRANCH  16  18
ENDBRANCH   7  16
TORSDOF 6
ENDMDL
