MODEL 14
REMARK VINA RESULT: -7.379108468      1.796      5.697
REMARK  6 active torsions:
REMARK  status: ('A' for Active; 'I' for Inactive)
REMARK    1  A    between atoms: O1_2  and  C2_3 
REMARK    2  A    between atoms: C2_3  and  C3_4 
REMARK    3  A    between atoms: C3_4  and  C4_5 
REMARK    4  A    between atoms: C4_5  and  N1_6 
REMARK    5  A    between atoms: C10_12  and  C11_13 
REMARK    6  A    between atoms: C11_13  and  O2_15 
ROOT
HETATM    1  N1  UNL     1      63.627   7.603   9.235  1.00  0.00    -0.344 N 
HETATM    2  C5  UNL     1      62.940   6.397   9.554  1.00  0.00     0.165 A 
HETATM    3  C6  UNL     1      62.221   6.670  10.805  1.00  0.00    -0.024 A 
HETATM    4  C7  UNL     1      61.391   5.814  11.551  1.00  0.00     0.010 A 
HETATM    5  C8  UNL     1      60.816   6.281  12.700  1.00  0.00     0.002 A 
HETATM    6  C9  UNL     1      61.047   7.569  13.120  1.00  0.00     0.016 A 
HETATM    7  C10 UNL     1      61.881   8.430  12.372  1.00  0.00     0.028 A 
HETATM    8  C12 UNL     1      62.466   7.968  11.210  1.00  0.00     0.054 A 
HETATM    9  C13 UNL     1      63.363   8.594  10.226  1.00  0.00     0.255 A 
HETATM   10  O3  UNL     1      63.816   9.741  10.226  1.00  0.00    -0.267 OA
ENDROOT
BRANCH   1  11
HETATM   11  C4  UNL     1      64.470   7.777   8.061  1.00  0.00     0.128 C 
BRANCH  11  12
HETATM   12  C3  UNL     1      64.811   6.428   7.440  1.00  0.00     0.046 C 
BRANCH  12  13
HETATM   13  C2  UNL     1      66.260   6.172   7.677  1.00  0.00     0.168 C 
BRANCH  13  14
HETATM   14  O1  UNL     1      66.599   4.849   7.823  1.00  0.00    -0.396 OA
HETATM   15  C1  UNL     1      65.540   4.031   8.189  1.00  0.00     0.201 C 
ENDBRANCH  13  14
ENDBRANCH  12  13
ENDBRANCH  11  12
ENDBRANCH   1  11
BRANCH   7  16
HETATM   16  C11 UNL     1      62.068   9.750  12.878  1.00  0.00     0.161 C 
HETATM   17  N2  UNL     1      62.721  10.140  14.060  1.00  0.00    -0.074 NA
BRANCH  16  18
HETATM   18  O2  UNL     1      61.599  10.770  12.209  1.00  0.00    -0.348 OA
ATOM     19  H2  UNL     1      62.118  11.562  12.135  1.00  0.00     0.219 HD
ENDBRANCH  16  18
ENDBRANCH   7  16
TORSDOF 6
ENDMDL
