MODEL 16
REMARK VINA RESULT: -7.282960432      3.208      4.623
REMARK  6 active torsions:
REMARK  status: ('A' for Active; 'I' for Inactive)
REMARK    1  A    between atoms: O1_2  and  C2_3 
REMARK    2  A    between atoms: C2_3  and  C3_4 
REMARK    3  A    between atoms: C3_4  and  C4_5 
REMARK    4  A    between atoms: C4_5  and  N1_6 
REMARK    5  A    between atoms: C10_12  and  C11_13 
REMARK    6  A    between atoms: C11_13  and  O2_15 
ROOT
HETATM    1  N1  UNL     1      63.233   9.281   8.495  1.00  0.00    -0.344 N 
HETATM    2  C5  UNL     1      64.165   8.340   7.975  1.00  0.00     0.165 A 
HETATM    3  C6  UNL     1      63.860   7.068   8.645  1.00  0.00    -0.024 A 
HETATM    4  C7  UNL     1      64.485   5.818   8.493  1.00  0.00     0.010 A 
HETATM    5  C8  UNL     1      64.033   4.756   9.226  1.00  0.00     0.002 A 
HETATM    6  C9  UNL     1      62.983   4.910  10.100  1.00  0.00     0.016 A 
HETATM    7  C10 UNL     1      62.355   6.165  10.254  1.00  0.00     0.028 A 
HETATM    8  C12 UNL     1      62.803   7.244   9.518  1.00  0.00     0.054 A 
HETATM    9  C13 UNL     1      62.378   8.651   9.446  1.00  0.00     0.255 A 
HETATM   10  O3  UNL     1      61.470   9.207  10.067  1.00  0.00    -0.267 OA
ENDROOT
BRANCH   1  11
HETATM   11  C4  UNL     1      63.178  10.681   8.098  1.00  0.00     0.128 C 
BRANCH  11  12
HETATM   12  C3  UNL     1      62.308  10.856   6.860  1.00  0.00     0.046 C 
BRANCH  12  13
HETATM   13  C2  UNL     1      61.399  12.012   7.103  1.00  0.00     0.168 C 
BRANCH  13  14
HETATM   14  O1  UNL     1      62.011  13.242   7.100  1.00  0.00    -0.396 OA
HETATM   15  C1  UNL     1      61.612  14.075   8.134  1.00  0.00     0.201 C 
ENDBRANCH  13  14
ENDBRANCH  12  13
ENDBRANCH  11  12
ENDBRANCH   1  11
BRANCH   7  16
HETATM   16  C11 UNL     1      61.274   6.239  11.180  1.00  0.00     0.161 C 
HETATM   17  N2  UNL     1      59.988   5.685  11.056  1.00  0.00    -0.074 NA
BRANCH  16  18
HETATM   18  O2  UNL     1      61.430   6.886  12.304  1.00  0.00    -0.348 OA
ATOM     19  H2  UNL     1      60.731   6.885  12.948  1.00  0.00     0.219 HD
ENDBRANCH  16  18
ENDBRANCH   7  16
TORSDOF 6
ENDMDL
