MODEL 13
REMARK VINA RESULT: -7.388143186      5.490      7.205
REMARK  6 active torsions:
REMARK  status: ('A' for Active; 'I' for Inactive)
REMARK    1  A    between atoms: O1_2  and  C2_3 
REMARK    2  A    between atoms: C2_3  and  C3_4 
REMARK    3  A    between atoms: C3_4  and  C4_5 
REMARK    4  A    between atoms: C4_5  and  N1_6 
REMARK    5  A    between atoms: C10_12  and  C11_13 
REMARK    6  A    between atoms: C11_13  and  O2_15 
ROOT
HETATM    1  N1  UNL     1      62.836  13.839  10.398  1.00  0.00    -0.344 N 
HETATM    2  C5  UNL     1      63.413  12.609  10.824  1.00  0.00     0.165 A 
HETATM    3  C6  UNL     1      63.118  11.643   9.757  1.00  0.00    -0.024 A 
HETATM    4  C7  UNL     1      63.463  10.282   9.679  1.00  0.00     0.010 A 
HETATM    5  C8  UNL     1      63.080   9.562   8.581  1.00  0.00     0.002 A 
HETATM    6  C9  UNL     1      62.368  10.161   7.570  1.00  0.00     0.016 A 
HETATM    7  C10 UNL     1      62.021  11.528   7.647  1.00  0.00     0.028 A 
HETATM    8  C12 UNL     1      62.403  12.264   8.751  1.00  0.00     0.054 A 
HETATM    9  C13 UNL     1      62.205  13.672   9.130  1.00  0.00     0.255 A 
HETATM   10  O3  UNL     1      61.618  14.557   8.504  1.00  0.00    -0.267 OA
ENDROOT
BRANCH   1  11
HETATM   11  C4  UNL     1      62.894  15.077  11.163  1.00  0.00     0.128 C 
BRANCH  11  12
HETATM   12  C3  UNL     1      64.100  15.077  12.094  1.00  0.00     0.046 C 
BRANCH  12  13
HETATM   13  C2  UNL     1      64.949  16.249  11.739  1.00  0.00     0.168 C 
BRANCH  13  14
HETATM   14  O1  UNL     1      66.291  15.981  11.625  1.00  0.00    -0.396 OA
HETATM   15  C1  UNL     1      66.582  14.871  10.846  1.00  0.00     0.201 C 
ENDBRANCH  13  14
ENDBRANCH  12  13
ENDBRANCH  11  12
ENDBRANCH   1  11
BRANCH   7  16
HETATM   16  C11 UNL     1      61.282  12.071   6.555  1.00  0.00     0.161 C 
HETATM   17  N2  UNL     1      61.775  12.760   5.434  1.00  0.00    -0.074 NA
BRANCH  16  18
HETATM   18  O2  UNL     1      59.982  11.948   6.532  1.00  0.00    -0.348 OA
ATOM     19  H2  UNL     1      59.471  12.477   5.930  1.00  0.00     0.219 HD
ENDBRANCH  16  18
ENDBRANCH   7  16
TORSDOF 6
ENDMDL
