MODEL 3
REMARK VINA RESULT: -7.288620221      1.965      2.771
REMARK  2 active torsions:
REMARK  status: ('A' for Active; 'I' for Inactive)
REMARK    1  A    between atoms: C7_9  and  N2_10 
REMARK    2  A    between atoms: N2_10  and  C8_12 
ROOT
HETATM    1  C1  UNL     1     -23.153  42.940  11.704  1.00  0.00     0.054 C 
HETATM    2  C2  UNL     1     -24.104  44.032  11.366  1.00  0.00     0.007 A 
HETATM    3  C3  UNL     1     -24.921  44.553  12.347  1.00  0.00     0.026 A 
HETATM    4  C4  UNL     1     -25.792  45.561  12.014  1.00  0.00    -0.004 A 
HETATM    5  C5  UNL     1     -26.598  46.072  12.991  1.00  0.00     0.031 A 
HETATM    6  C6  UNL     1     -27.468  47.075  12.671  1.00  0.00     0.090 A 
HETATM    7  N1  UNL     1     -27.528  47.547  11.419  1.00  0.00    -0.351 N 
ATOM      8  H1  UNL     1     -28.190  48.296  11.215  1.00  0.00     0.166 HD
HETATM    9  C7  UNL     1     -26.761  47.085  10.419  1.00  0.00     0.129 A 
HETATM   10  C13 UNL     1     -25.882  46.077  10.726  1.00  0.00     0.089 A 
HETATM   11  N4  UNL     1     -25.077  45.549   9.801  1.00  0.00    -0.319 N 
ATOM     12  H4  UNL     1     -25.116  45.903   8.846  1.00  0.00     0.169 HD
HETATM   13  C14 UNL     1     -24.212  44.559  10.104  1.00  0.00     0.252 A 
HETATM   14  O1  UNL     1     -23.477  44.105   9.175  1.00  0.00    -0.268 OA
ENDROOT
BRANCH   9  15
HETATM   15  N2  UNL     1     -26.898  47.642   9.151  1.00  0.00    -0.370 N 
ATOM     16  H2  UNL     1     -27.691  47.345   8.581  1.00  0.00     0.161 HD
BRANCH  15  17
HETATM   17  C8  UNL     1     -25.990  48.614   8.592  1.00  0.00     0.086 C 
HETATM   18  C9  UNL     1     -26.603  49.940   8.321  1.00  0.00     0.044 C 
HETATM   19  C10 UNL     1     -25.466  50.885   7.983  1.00  0.00     0.115 C 
HETATM   20  N3  UNL     1     -24.685  50.440   6.869  1.00  0.00    -0.421 N 
HETATM   21  C11 UNL     1     -24.307  49.068   6.904  1.00  0.00     0.115 C 
ATOM     22  H3  UNL     1     -24.419  51.061   6.105  1.00  0.00     0.153 HD
HETATM   23  C12 UNL     1     -25.395  48.118   7.270  1.00  0.00     0.044 C 
ENDBRANCH  15  17
ENDBRANCH   9  15
TORSDOF 2
ENDMDL
