MODEL 1
REMARK VINA RESULT: -7.332992536      0.000      0.000
REMARK  2 active torsions:
REMARK  status: ('A' for Active; 'I' for Inactive)
REMARK    1  A    between atoms: C7_9  and  N2_10 
REMARK    2  A    between atoms: N2_10  and  C8_12 
ROOT
HETATM    1  C1  UNL     1     -20.356  42.625  10.038  1.00  0.00     0.054 C 
HETATM    2  C2  UNL     1     -21.503  43.555   9.861  1.00  0.00     0.007 A 
HETATM    3  C3  UNL     1     -22.604  43.444  10.684  1.00  0.00     0.026 A 
HETATM    4  C4  UNL     1     -23.652  44.313  10.505  1.00  0.00    -0.004 A 
HETATM    5  C5  UNL     1     -24.739  44.196  11.324  1.00  0.00     0.031 A 
HETATM    6  C6  UNL     1     -25.788  45.055  11.153  1.00  0.00     0.090 A 
HETATM    7  N1  UNL     1     -25.749  45.994  10.200  1.00  0.00    -0.351 N 
ATOM      8  H1  UNL     1     -26.549  46.618  10.100  1.00  0.00     0.166 HD
HETATM    9  C7  UNL     1     -24.708  46.155   9.367  1.00  0.00     0.129 A 
HETATM   10  C13 UNL     1     -23.648  45.299   9.525  1.00  0.00     0.089 A 
HETATM   11  N4  UNL     1     -22.566  45.378   8.746  1.00  0.00    -0.319 N 
ATOM     12  H4  UNL     1     -22.528  46.090   8.017  1.00  0.00     0.169 HD
HETATM   13  C14 UNL     1     -21.523  44.537   8.904  1.00  0.00     0.252 A 
HETATM   14  O1  UNL     1     -20.529  44.670   8.127  1.00  0.00    -0.268 OA
ENDROOT
BRANCH   9  15
HETATM   15  N2  UNL     1     -24.763  47.162   8.406  1.00  0.00    -0.370 N 
ATOM     16  H2  UNL     1     -23.987  47.237   7.747  1.00  0.00     0.161 HD
BRANCH  15  17
HETATM   17  C8  UNL     1     -25.848  48.104   8.284  1.00  0.00     0.086 C 
HETATM   18  C9  UNL     1     -26.685  47.921   7.070  1.00  0.00     0.044 C 
HETATM   19  C10 UNL     1     -27.897  48.816   7.237  1.00  0.00     0.115 C 
HETATM   20  N3  UNL     1     -27.552  50.192   7.421  1.00  0.00    -0.421 N 
HETATM   21  C11 UNL     1     -26.518  50.434   8.370  1.00  0.00     0.115 C 
ATOM     22  H3  UNL     1     -28.013  50.944   6.911  1.00  0.00     0.153 HD
HETATM   23  C12 UNL     1     -25.329  49.545   8.255  1.00  0.00     0.044 C 
ENDBRANCH  15  17
ENDBRANCH   9  15
TORSDOF 2
ENDMDL
