MODEL 12
REMARK VINA RESULT: -6.632322308      4.290      6.532
REMARK  2 active torsions:
REMARK  status: ('A' for Active; 'I' for Inactive)
REMARK    1  A    between atoms: C7_9  and  N2_10 
REMARK    2  A    between atoms: N2_10  and  C8_12 
ROOT
HETATM    1  C1  UNL     1     -22.693  44.142  10.455  1.00  0.00     0.054 C 
HETATM    2  C2  UNL     1     -24.107  44.304  10.885  1.00  0.00     0.007 A 
HETATM    3  C3  UNL     1     -24.927  45.186  10.214  1.00  0.00     0.026 A 
HETATM    4  C4  UNL     1     -26.230  45.320  10.627  1.00  0.00    -0.004 A 
HETATM    5  C5  UNL     1     -27.036  46.196   9.957  1.00  0.00     0.031 A 
HETATM    6  C6  UNL     1     -28.334  46.338  10.360  1.00  0.00     0.090 A 
HETATM    7  N1  UNL     1     -28.805  45.630  11.394  1.00  0.00    -0.351 N 
ATOM      8  H1  UNL     1     -29.779  45.761  11.668  1.00  0.00     0.166 HD
HETATM    9  C7  UNL     1     -28.060  44.755  12.088  1.00  0.00     0.129 A 
HETATM   10  C13 UNL     1     -26.754  44.603  11.696  1.00  0.00     0.089 A 
HETATM   11  N4  UNL     1     -25.932  43.758  12.323  1.00  0.00    -0.319 N 
ATOM     12  H4  UNL     1     -26.282  43.215  13.112  1.00  0.00     0.169 HD
HETATM   13  C14 UNL     1     -24.648  43.607  11.935  1.00  0.00     0.252 A 
HETATM   14  O1  UNL     1     -23.925  42.787  12.578  1.00  0.00    -0.268 OA
ENDROOT
BRANCH   9  15
HETATM   15  N2  UNL     1     -28.642  44.066  13.149  1.00  0.00    -0.370 N 
ATOM     16  H2  UNL     1     -28.112  43.988  14.018  1.00  0.00     0.161 HD
BRANCH  15  17
HETATM   17  C8  UNL     1     -29.949  43.456  13.097  1.00  0.00     0.086 C 
HETATM   18  C9  UNL     1     -30.417  42.899  14.393  1.00  0.00     0.044 C 
HETATM   19  C10 UNL     1     -31.877  42.536  14.210  1.00  0.00     0.115 C 
HETATM   20  N3  UNL     1     -32.090  41.607  13.143  1.00  0.00    -0.421 N 
HETATM   21  C11 UNL     1     -31.413  41.915  11.928  1.00  0.00     0.115 C 
ATOM     22  H3  UNL     1     -32.684  40.785  13.244  1.00  0.00     0.153 HD
HETATM   23  C12 UNL     1     -29.984  42.312  12.080  1.00  0.00     0.044 C 
ENDBRANCH  15  17
ENDBRANCH   9  15
TORSDOF 2
ENDMDL
