MODEL 2
REMARK VINA RESULT: -7.293102492      2.063      6.174
REMARK  2 active torsions:
REMARK  status: ('A' for Active; 'I' for Inactive)
REMARK    1  A    between atoms: C7_9  and  N2_10 
REMARK    2  A    between atoms: N2_10  and  C8_12 
ROOT
HETATM    1  C1  UNL     1     -26.179  50.490   8.261  1.00  0.00     0.054 C 
HETATM    2  C2  UNL     1     -25.778  49.117   8.668  1.00  0.00     0.007 A 
HETATM    3  C3  UNL     1     -26.391  48.519   9.747  1.00  0.00     0.026 A 
HETATM    4  C4  UNL     1     -26.006  47.250  10.106  1.00  0.00    -0.004 A 
HETATM    5  C5  UNL     1     -26.618  46.664  11.177  1.00  0.00     0.031 A 
HETATM    6  C6  UNL     1     -26.242  45.403  11.543  1.00  0.00     0.090 A 
HETATM    7  N1  UNL     1     -25.289  44.754  10.861  1.00  0.00    -0.351 N 
ATOM      8  H1  UNL     1     -25.033  43.814  11.162  1.00  0.00     0.166 HD
HETATM    9  C7  UNL     1     -24.654  45.280   9.801  1.00  0.00     0.129 A 
HETATM   10  C13 UNL     1     -25.021  46.546   9.423  1.00  0.00     0.089 A 
HETATM   11  N4  UNL     1     -24.448  47.156   8.382  1.00  0.00    -0.319 N 
ATOM     12  H4  UNL     1     -23.721  46.669   7.858  1.00  0.00     0.169 HD
HETATM   13  C14 UNL     1     -24.810  48.401   8.010  1.00  0.00     0.252 A 
HETATM   14  O1  UNL     1     -24.222  48.918   7.012  1.00  0.00    -0.268 OA
ENDROOT
BRANCH   9  15
HETATM   15  N2  UNL     1     -23.676  44.524   9.159  1.00  0.00    -0.370 N 
ATOM     16  H2  UNL     1     -23.911  44.105   8.258  1.00  0.00     0.161 HD
BRANCH  15  17
HETATM   17  C8  UNL     1     -22.353  44.298   9.687  1.00  0.00     0.086 C 
HETATM   18  C9  UNL     1     -21.255  44.815   8.830  1.00  0.00     0.044 C 
HETATM   19  C10 UNL     1     -19.981  44.716   9.646  1.00  0.00     0.115 C 
HETATM   20  N3  UNL     1     -19.706  43.384  10.089  1.00  0.00    -0.421 N 
HETATM   21  C11 UNL     1     -20.814  42.694  10.658  1.00  0.00     0.115 C 
ATOM     22  H3  UNL     1     -18.783  42.959  10.002  1.00  0.00     0.153 HD
HETATM   23  C12 UNL     1     -22.090  42.804   9.898  1.00  0.00     0.044 C 
ENDBRANCH  15  17
ENDBRANCH   9  15
TORSDOF 2
ENDMDL
