MODEL 1
REMARK VINA RESULT: -8.431049463      0.000      0.000
REMARK  8 active torsions:
REMARK  status: ('A' for Active; 'I' for Inactive)
REMARK       I    between atoms: C2_2  and  N1_4 
REMARK    1  A    between atoms: N1_4  and  C3_6 
REMARK    2  A    between atoms: N2_8  and  O2_10 
REMARK    3  A    between atoms: O2_10  and  C5_11 
REMARK       I    between atoms: C5_11  and  N3_13 
REMARK    4  A    between atoms: N3_13  and  C6_15 
REMARK    5  A    between atoms: C12_22  and  C13_23 
REMARK    6  A    between atoms: C13_23  and  O5_24 
REMARK    7  A    between atoms: C14_26  and  O6_27 
REMARK    8  A    between atoms: C15_29  and  O7_30 
ROOT
HETATM    1  C3  UNL     1      -9.488 -27.492 -21.382  1.00  0.00     0.192 C 
HETATM    2  C4  UNL     1      -9.677 -27.581 -19.911  1.00  0.00     0.165 C 
HETATM    3  N2  UNL     1      -8.847 -28.284 -19.218  1.00  0.00    -0.236 N 
ATOM      4  H2  UNL     1      -8.087 -28.755 -19.708  1.00  0.00     0.197 HD
HETATM    5  O4  UNL     1     -10.699 -26.942 -19.269  1.00  0.00    -0.326 OA
HETATM    6  C12 UNL     1     -11.652 -26.110 -19.874  1.00  0.00     0.185 C 
HETATM    7  C14 UNL     1     -11.476 -25.954 -21.344  1.00  0.00     0.180 C 
HETATM    8  C15 UNL     1     -10.871 -27.192 -21.963  1.00  0.00     0.180 C 
ENDROOT
BRANCH   1   9
HETATM    9  N1  UNL     1      -8.533 -26.485 -21.754  1.00  0.00    -0.347 N 
HETATM   10  C2  UNL     1      -7.724 -26.573 -22.920  1.00  0.00     0.214 C 
HETATM   11  C1  UNL     1      -6.740 -25.525 -23.293  1.00  0.00     0.117 C 
HETATM   12  O1  UNL     1      -7.879 -27.598 -23.638  1.00  0.00    -0.274 OA
ATOM     13  H1  UNL     1      -8.430 -25.668 -21.153  1.00  0.00     0.163 HD
ENDBRANCH   1   9
BRANCH   3  14
HETATM   14  O2  UNL     1      -8.930 -28.431 -17.865  1.00  0.00    -0.179 OA
BRANCH  14  15
HETATM   15  C5  UNL     1      -7.798 -28.983 -17.218  1.00  0.00     0.387 C 
HETATM   16  O3  UNL     1      -7.553 -28.615 -16.060  1.00  0.00    -0.236 OA
HETATM   17  N3  UNL     1      -7.006 -29.907 -17.891  1.00  0.00    -0.301 N 
ATOM     18  H3  UNL     1      -7.278 -30.150 -18.844  1.00  0.00     0.171 HD
BRANCH  17  19
HETATM   19  C6  UNL     1      -5.869 -30.529 -17.369  1.00  0.00     0.036 A 
HETATM   20  C7  UNL     1      -4.646 -29.893 -17.619  1.00  0.00     0.029 A 
HETATM   21  C8  UNL     1      -3.495 -30.452 -17.151  1.00  0.00     0.002 A 
HETATM   22  C9  UNL     1      -3.530 -31.632 -16.437  1.00  0.00     0.000 A 
HETATM   23  C10 UNL     1      -4.706 -32.269 -16.181  1.00  0.00     0.002 A 
HETATM   24  C11 UNL     1      -5.896 -31.690 -16.666  1.00  0.00     0.029 A 
ENDBRANCH  17  19
ENDBRANCH  14  15
ENDBRANCH   3  14
BRANCH   8  25
HETATM   25  O7  UNL     1     -11.684 -28.271 -21.614  1.00  0.00    -0.390 OA
ATOM     26  H7  UNL     1     -12.489 -27.899 -21.277  1.00  0.00     0.210 HD
ENDBRANCH   8  25
BRANCH   6  27
HETATM   27  C13 UNL     1     -13.072 -26.602 -19.609  1.00  0.00     0.199 C 
BRANCH  27  28
HETATM   28  O5  UNL     1     -13.023 -27.915 -19.135  1.00  0.00    -0.398 OA
ATOM     29  H5  UNL     1     -13.735 -28.053 -18.522  1.00  0.00     0.209 HD
ENDBRANCH  27  28
ENDBRANCH   6  27
BRANCH   7  30
HETATM   30  O6  UNL     1     -12.683 -25.725 -22.003  1.00  0.00    -0.390 OA
ATOM     31  H6  UNL     1     -13.168 -24.999 -21.627  1.00  0.00     0.210 HD
ENDBRANCH   7  30
TORSDOF 8
ENDMDL
