MODEL 2
REMARK VINA RESULT: -8.043336792      2.138      2.908
REMARK  8 active torsions:
REMARK  status: ('A' for Active; 'I' for Inactive)
REMARK       I    between atoms: C2_2  and  N1_4 
REMARK    1  A    between atoms: N1_4  and  C3_6 
REMARK    2  A    between atoms: N2_8  and  O2_10 
REMARK    3  A    between atoms: O2_10  and  C5_11 
REMARK       I    between atoms: C5_11  and  N3_13 
REMARK    4  A    between atoms: N3_13  and  C6_15 
REMARK    5  A    between atoms: C12_22  and  C13_23 
REMARK    6  A    between atoms: C13_23  and  O5_24 
REMARK    7  A    between atoms: C14_26  and  O6_27 
REMARK    8  A    between atoms: C15_29  and  O7_30 
ROOT
HETATM    1  C3  UNL     1     -11.720 -29.395 -19.995  1.00  0.00     0.192 C 
HETATM    2  C4  UNL     1     -10.684 -28.460 -19.487  1.00  0.00     0.165 C 
HETATM    3  N2  UNL     1      -9.775 -28.911 -18.691  1.00  0.00    -0.236 N 
ATOM      4  H2  UNL     1      -9.801 -29.899 -18.438  1.00  0.00     0.197 HD
HETATM    5  O4  UNL     1     -10.661 -27.140 -19.836  1.00  0.00    -0.326 OA
HETATM    6  C12 UNL     1     -11.550 -26.513 -20.721  1.00  0.00     0.185 C 
HETATM    7  C14 UNL     1     -12.582 -27.423 -21.292  1.00  0.00     0.180 C 
HETATM    8  C15 UNL     1     -12.937 -28.529 -20.329  1.00  0.00     0.180 C 
ENDROOT
BRANCH   1   9
HETATM    9  N1  UNL     1     -11.276 -30.140 -21.141  1.00  0.00    -0.347 N 
HETATM   10  C2  UNL     1     -10.635 -31.406 -21.046  1.00  0.00     0.214 C 
HETATM   11  C1  UNL     1     -10.181 -32.165 -22.239  1.00  0.00     0.117 C 
HETATM   12  O1  UNL     1     -10.466 -31.866 -19.884  1.00  0.00    -0.274 OA
ATOM     13  H1  UNL     1     -11.426 -29.740 -22.067  1.00  0.00     0.163 HD
ENDBRANCH   1   9
BRANCH   3  14
HETATM   14  O2  UNL     1      -8.780 -28.138 -18.169  1.00  0.00    -0.179 OA
BRANCH  14  15
HETATM   15  C5  UNL     1      -7.768 -28.814 -17.444  1.00  0.00     0.387 C 
HETATM   16  O3  UNL     1      -7.655 -28.567 -16.235  1.00  0.00    -0.236 OA
HETATM   17  N3  UNL     1      -6.945 -29.722 -18.102  1.00  0.00    -0.301 N 
ATOM     18  H3  UNL     1      -7.105 -29.863 -19.099  1.00  0.00     0.171 HD
BRANCH  17  19
HETATM   19  C6  UNL     1      -5.916 -30.457 -17.506  1.00  0.00     0.036 A 
HETATM   20  C7  UNL     1      -4.639 -29.885 -17.553  1.00  0.00     0.029 A 
HETATM   21  C8  UNL     1      -3.587 -30.554 -17.004  1.00  0.00     0.002 A 
HETATM   22  C9  UNL     1      -3.774 -31.783 -16.407  1.00  0.00     0.000 A 
HETATM   23  C10 UNL     1      -5.005 -32.361 -16.349  1.00  0.00     0.002 A 
HETATM   24  C11 UNL     1      -6.093 -31.668 -16.917  1.00  0.00     0.029 A 
ENDBRANCH  17  19
ENDBRANCH  14  15
ENDBRANCH   3  14
BRANCH   8  25
HETATM   25  O7  UNL     1     -13.329 -27.929 -19.132  1.00  0.00    -0.390 OA
ATOM     26  H7  UNL     1     -12.630 -27.333 -18.893  1.00  0.00     0.210 HD
ENDBRANCH   8  25
BRANCH   6  27
HETATM   27  C13 UNL     1     -12.260 -25.335 -20.059  1.00  0.00     0.199 C 
BRANCH  27  28
HETATM   28  O5  UNL     1     -12.424 -24.312 -20.995  1.00  0.00    -0.398 OA
ATOM     29  H5  UNL     1     -12.792 -24.674 -21.794  1.00  0.00     0.209 HD
ENDBRANCH  27  28
ENDBRANCH   6  27
BRANCH   7  30
HETATM   30  O6  UNL     1     -13.769 -26.756 -21.595  1.00  0.00    -0.390 OA
ATOM     31  H6  UNL     1     -14.529 -27.186 -21.223  1.00  0.00     0.210 HD
ENDBRANCH   7  30
TORSDOF 8
ENDMDL
