MODEL 3
REMARK VINA RESULT: -7.798023810      2.151      3.057
REMARK  8 active torsions:
REMARK  status: ('A' for Active; 'I' for Inactive)
REMARK       I    between atoms: C2_2  and  N1_4 
REMARK    1  A    between atoms: N1_4  and  C3_6 
REMARK    2  A    between atoms: N2_8  and  O2_10 
REMARK    3  A    between atoms: O2_10  and  C5_11 
REMARK       I    between atoms: C5_11  and  N3_13 
REMARK    4  A    between atoms: N3_13  and  C6_15 
REMARK    5  A    between atoms: C12_22  and  C13_23 
REMARK    6  A    between atoms: C13_23  and  O5_24 
REMARK    7  A    between atoms: C14_26  and  O6_27 
REMARK    8  A    between atoms: C15_29  and  O7_30 
ROOT
HETATM    1  C3  UNL     1     -10.631 -27.868 -21.245  1.00  0.00     0.192 C 
HETATM    2  C4  UNL     1     -10.343 -28.507 -19.935  1.00  0.00     0.165 C 
HETATM    3  N2  UNL     1      -9.468 -27.966 -19.157  1.00  0.00    -0.236 N 
ATOM      4  H2  UNL     1      -9.003 -27.114 -19.473  1.00  0.00     0.197 HD
HETATM    5  O4  UNL     1     -10.975 -29.647 -19.527  1.00  0.00    -0.326 OA
HETATM    6  C12 UNL     1     -11.976 -30.326 -20.236  1.00  0.00     0.185 C 
HETATM    7  C14 UNL     1     -12.331 -29.696 -21.538  1.00  0.00     0.180 C 
HETATM    8  C15 UNL     1     -11.146 -28.989 -22.151  1.00  0.00     0.180 C 
ENDROOT
BRANCH   1   9
HETATM    9  N1  UNL     1     -11.584 -26.799 -21.138  1.00  0.00    -0.347 N 
HETATM   10  C2  UNL     1     -11.243 -25.494 -20.687  1.00  0.00     0.214 C 
HETATM   11  C1  UNL     1     -12.240 -24.398 -20.581  1.00  0.00     0.117 C 
HETATM   12  O1  UNL     1     -10.037 -25.304 -20.373  1.00  0.00    -0.274 OA
ATOM     13  H1  UNL     1     -12.553 -26.984 -21.398  1.00  0.00     0.163 HD
ENDBRANCH   1   9
BRANCH   3  14
HETATM   14  O2  UNL     1      -9.130 -28.471 -17.936  1.00  0.00    -0.179 OA
BRANCH  14  15
HETATM   15  C5  UNL     1      -8.009 -29.335 -17.898  1.00  0.00     0.387 C 
HETATM   16  O3  UNL     1      -7.995 -30.305 -18.670  1.00  0.00    -0.236 OA
HETATM   17  N3  UNL     1      -6.972 -29.074 -17.008  1.00  0.00    -0.301 N 
ATOM     18  H3  UNL     1      -7.066 -28.256 -16.406  1.00  0.00     0.171 HD
BRANCH  17  19
HETATM   19  C6  UNL     1      -5.812 -29.841 -16.873  1.00  0.00     0.036 A 
HETATM   20  C7  UNL     1      -4.644 -29.301 -17.428  1.00  0.00     0.029 A 
HETATM   21  C8  UNL     1      -3.479 -30.002 -17.345  1.00  0.00     0.002 A 
HETATM   22  C9  UNL     1      -3.446 -31.232 -16.722  1.00  0.00     0.000 A 
HETATM   23  C10 UNL     1      -4.567 -31.779 -16.176  1.00  0.00     0.002 A 
HETATM   24  C11 UNL     1      -5.772 -31.053 -16.262  1.00  0.00     0.029 A 
ENDBRANCH  17  19
ENDBRANCH  14  15
ENDBRANCH   3  14
BRANCH   8  25
HETATM   25  O7  UNL     1     -10.111 -29.918 -22.250  1.00  0.00    -0.390 OA
ATOM     26  H7  UNL     1      -9.961 -30.243 -21.370  1.00  0.00     0.210 HD
ENDBRANCH   8  25
BRANCH   6  27
HETATM   27  C13 UNL     1     -11.590 -31.779 -20.494  1.00  0.00     0.199 C 
BRANCH  27  28
HETATM   28  O5  UNL     1     -10.307 -32.010 -19.993  1.00  0.00    -0.398 OA
ATOM     29  H5  UNL     1      -9.948 -32.791 -20.399  1.00  0.00     0.209 HD
ENDBRANCH  27  28
ENDBRANCH   6  27
BRANCH   7  30
HETATM   30  O6  UNL     1     -12.772 -30.629 -22.477  1.00  0.00    -0.390 OA
ATOM     31  H6  UNL     1     -13.285 -30.230 -23.169  1.00  0.00     0.210 HD
ENDBRANCH   7  30
TORSDOF 8
ENDMDL
