MODEL 3
REMARK VINA RESULT: -7.830506659      1.753      3.942
REMARK  8 active torsions:
REMARK  status: ('A' for Active; 'I' for Inactive)
REMARK       I    between atoms: C2_2  and  N1_4 
REMARK    1  A    between atoms: N1_4  and  C3_6 
REMARK    2  A    between atoms: N2_8  and  O2_10 
REMARK    3  A    between atoms: O2_10  and  C5_11 
REMARK       I    between atoms: C5_11  and  N3_13 
REMARK    4  A    between atoms: N3_13  and  C6_15 
REMARK    5  A    between atoms: C12_22  and  C13_23 
REMARK    6  A    between atoms: C13_23  and  O5_24 
REMARK    7  A    between atoms: C14_26  and  O6_27 
REMARK    8  A    between atoms: C15_29  and  O7_30 
ROOT
HETATM    1  C3  UNL     1      61.324  11.965  51.898  1.00  0.00     0.192 C 
HETATM    2  C4  UNL     1      61.438  13.439  51.782  1.00  0.00     0.165 C 
HETATM    3  N2  UNL     1      62.294  14.051  52.519  1.00  0.00    -0.236 N 
ATOM      4  H2  UNL     1      62.862  13.492  53.156  1.00  0.00     0.197 HD
HETATM    5  O4  UNL     1      60.623  14.073  50.893  1.00  0.00    -0.326 OA
HETATM    6  C12 UNL     1      59.556  13.491  50.195  1.00  0.00     0.185 C 
HETATM    7  C14 UNL     1      59.129  12.162  50.688  1.00  0.00     0.180 C 
HETATM    8  C15 UNL     1      59.846  11.640  51.875  1.00  0.00     0.180 C 
ENDROOT
BRANCH   1   9
HETATM    9  N1  UNL     1      61.906  11.298  50.733  1.00  0.00    -0.347 N 
HETATM   10  C2  UNL     1      62.783  10.194  50.838  1.00  0.00     0.214 C 
HETATM   11  C1  UNL     1      63.387   9.498  49.683  1.00  0.00     0.117 C 
HETATM   12  O1  UNL     1      63.047   9.797  52.024  1.00  0.00    -0.274 OA
ATOM     13  H1  UNL     1      61.669  11.645  49.804  1.00  0.00     0.163 HD
ENDBRANCH   1   9
BRANCH   3  14
HETATM   14  O2  UNL     1      62.492  15.396  52.504  1.00  0.00    -0.179 OA
BRANCH  14  15
HETATM   15  C5  UNL     1      63.652  15.879  53.169  1.00  0.00     0.387 C 
HETATM   16  O3  UNL     1      64.181  16.923  52.728  1.00  0.00    -0.236 OA
HETATM   17  N3  UNL     1      64.153  15.193  54.267  1.00  0.00    -0.301 N 
ATOM     18  H3  UNL     1      63.659  14.349  54.555  1.00  0.00     0.171 HD
BRANCH  17  19
HETATM   19  C6  UNL     1      65.275  15.560  55.009  1.00  0.00     0.036 A 
HETATM   20  C7  UNL     1      66.525  15.247  54.468  1.00  0.00     0.029 A 
HETATM   21  C8  UNL     1      67.667  15.564  55.150  1.00  0.00     0.002 A 
HETATM   22  C9  UNL     1      67.582  16.191  56.372  1.00  0.00     0.000 A 
HETATM   23  C10 UNL     1      66.361  16.503  56.913  1.00  0.00     0.002 A 
HETATM   24  C11 UNL     1      65.190  16.180  56.217  1.00  0.00     0.029 A 
ENDBRANCH  17  19
ENDBRANCH  14  15
ENDBRANCH   3  14
BRANCH   8  25
HETATM   25  O7  UNL     1      59.306  12.062  53.079  1.00  0.00    -0.390 OA
ATOM     26  H7  UNL     1      58.505  11.571  53.222  1.00  0.00     0.210 HD
ENDBRANCH   8  25
BRANCH   6  27
HETATM   27  C13 UNL     1      58.394  14.489  50.270  1.00  0.00     0.199 C 
BRANCH  27  28
HETATM   28  O5  UNL     1      57.835  14.518  51.530  1.00  0.00    -0.398 OA
ATOM     29  H5  UNL     1      56.995  14.074  51.547  1.00  0.00     0.209 HD
ENDBRANCH  27  28
ENDBRANCH   6  27
BRANCH   7  30
HETATM   30  O6  UNL     1      59.220  11.250  49.611  1.00  0.00    -0.390 OA
ATOM     31  H6  UNL     1      59.078  10.377  49.955  1.00  0.00     0.210 HD
ENDBRANCH   7  30
TORSDOF 8
ENDMDL
