MODEL 1
REMARK VINA RESULT: -7.983978451      0.000      0.000
REMARK  8 active torsions:
REMARK  status: ('A' for Active; 'I' for Inactive)
REMARK       I    between atoms: C2_2  and  N1_4 
REMARK    1  A    between atoms: N1_4  and  C3_6 
REMARK    2  A    between atoms: N2_8  and  O2_10 
REMARK    3  A    between atoms: O2_10  and  C5_11 
REMARK       I    between atoms: C5_11  and  N3_13 
REMARK    4  A    between atoms: N3_13  and  C6_15 
REMARK    5  A    between atoms: C12_22  and  C13_23 
REMARK    6  A    between atoms: C13_23  and  O5_24 
REMARK    7  A    between atoms: C14_26  and  O6_27 
REMARK    8  A    between atoms: C15_29  and  O7_30 
ROOT
HETATM    1  C3  UNL     1      59.212  13.552  50.586  1.00  0.00     0.192 C 
HETATM    2  C4  UNL     1      60.094  13.242  51.737  1.00  0.00     0.165 C 
HETATM    3  N2  UNL     1      60.373  14.180  52.569  1.00  0.00    -0.236 N 
ATOM      4  H2  UNL     1      59.974  15.103  52.400  1.00  0.00     0.197 HD
HETATM    5  O4  UNL     1      60.565  11.969  51.854  1.00  0.00    -0.326 OA
HETATM    6  C12 UNL     1      60.444  10.955  50.894  1.00  0.00     0.185 C 
HETATM    7  C14 UNL     1      60.015  11.405  49.552  1.00  0.00     0.180 C 
HETATM    8  C15 UNL     1      59.815  12.863  49.380  1.00  0.00     0.180 C 
ENDROOT
BRANCH   1   9
HETATM    9  N1  UNL     1      57.883  12.967  50.767  1.00  0.00    -0.347 N 
HETATM   10  C2  UNL     1      56.727  13.746  51.000  1.00  0.00     0.214 C 
HETATM   11  C1  UNL     1      55.371  13.188  51.187  1.00  0.00     0.117 C 
HETATM   12  O1  UNL     1      56.901  15.011  51.046  1.00  0.00    -0.274 OA
ATOM     13  H1  UNL     1      57.787  11.953  50.724  1.00  0.00     0.163 HD
ENDBRANCH   1   9
BRANCH   3  14
HETATM   14  O2  UNL     1      61.168  14.021  53.661  1.00  0.00    -0.179 OA
BRANCH  14  15
HETATM   15  C5  UNL     1      62.455  14.620  53.607  1.00  0.00     0.387 C 
HETATM   16  O3  UNL     1      62.660  15.476  52.717  1.00  0.00    -0.236 OA
HETATM   17  N3  UNL     1      63.428  14.248  54.525  1.00  0.00    -0.301 N 
ATOM     18  H3  UNL     1      63.173  13.540  55.213  1.00  0.00     0.171 HD
BRANCH  17  19
HETATM   19  C6  UNL     1      64.724  14.759  54.585  1.00  0.00     0.036 A 
HETATM   20  C7  UNL     1      64.959  15.786  55.503  1.00  0.00     0.029 A 
HETATM   21  C8  UNL     1      66.204  16.345  55.604  1.00  0.00     0.002 A 
HETATM   22  C9  UNL     1      67.224  15.892  54.798  1.00  0.00     0.000 A 
HETATM   23  C10 UNL     1      67.005  14.884  53.894  1.00  0.00     0.002 A 
HETATM   24  C11 UNL     1      65.732  14.311  53.789  1.00  0.00     0.029 A 
ENDBRANCH  17  19
ENDBRANCH  14  15
ENDBRANCH   3  14
BRANCH   8  25
HETATM   25  O7  UNL     1      60.972  13.546  49.042  1.00  0.00    -0.390 OA
ATOM     26  H7  UNL     1      61.683  13.175  49.551  1.00  0.00     0.210 HD
ENDBRANCH   8  25
BRANCH   6  27
HETATM   27  C13 UNL     1      61.812  10.266  50.818  1.00  0.00     0.199 C 
BRANCH  27  28
HETATM   28  O5  UNL     1      62.712  11.014  50.089  1.00  0.00    -0.398 OA
ATOM     29  H5  UNL     1      63.600  10.694  50.200  1.00  0.00     0.209 HD
ENDBRANCH  27  28
ENDBRANCH   6  27
BRANCH   7  30
HETATM   30  O6  UNL     1      58.838  10.698  49.212  1.00  0.00    -0.390 OA
ATOM     31  H6  UNL     1      58.719  10.763  48.272  1.00  0.00     0.210 HD
ENDBRANCH   7  30
TORSDOF 8
ENDMDL
