MODEL 2
REMARK VINA RESULT: -7.858736328      2.216      3.569
REMARK  8 active torsions:
REMARK  status: ('A' for Active; 'I' for Inactive)
REMARK       I    between atoms: C2_2  and  N1_4 
REMARK    1  A    between atoms: N1_4  and  C3_6 
REMARK    2  A    between atoms: N2_8  and  O2_10 
REMARK    3  A    between atoms: O2_10  and  C5_11 
REMARK       I    between atoms: C5_11  and  N3_13 
REMARK    4  A    between atoms: N3_13  and  C6_15 
REMARK    5  A    between atoms: C12_22  and  C13_23 
REMARK    6  A    between atoms: C13_23  and  O5_24 
REMARK    7  A    between atoms: C14_26  and  O6_27 
REMARK    8  A    between atoms: C15_29  and  O7_30 
ROOT
HETATM    1  C3  UNL     1      61.158  12.230  51.753  1.00  0.00     0.192 C 
HETATM    2  C4  UNL     1      61.365  13.533  52.430  1.00  0.00     0.165 C 
HETATM    3  N2  UNL     1      62.414  14.216  52.143  1.00  0.00    -0.236 N 
ATOM      4  H2  UNL     1      63.063  13.830  51.457  1.00  0.00     0.197 HD
HETATM    5  O4  UNL     1      60.425  13.941  53.328  1.00  0.00    -0.326 OA
HETATM    6  C12 UNL     1      59.360  13.169  53.812  1.00  0.00     0.185 C 
HETATM    7  C14 UNL     1      59.449  11.720  53.526  1.00  0.00     0.180 C 
HETATM    8  C15 UNL     1      60.664  11.265  52.810  1.00  0.00     0.180 C 
ENDROOT
BRANCH   1   9
HETATM    9  N1  UNL     1      60.093  12.319  50.753  1.00  0.00    -0.347 N 
HETATM   10  C2  UNL     1      60.317  12.767  49.431  1.00  0.00     0.214 C 
HETATM   11  C1  UNL     1      59.265  12.868  48.398  1.00  0.00     0.117 C 
HETATM   12  O1  UNL     1      61.518  13.097  49.145  1.00  0.00    -0.274 OA
ATOM     13  H1  UNL     1      59.148  12.046  51.022  1.00  0.00     0.163 HD
ENDBRANCH   1   9
BRANCH   3  14
HETATM   14  O2  UNL     1      62.715  15.422  52.694  1.00  0.00    -0.179 OA
BRANCH  14  15
HETATM   15  C5  UNL     1      63.658  15.421  53.758  1.00  0.00     0.387 C 
HETATM   16  O3  UNL     1      63.270  15.013  54.876  1.00  0.00    -0.236 OA
HETATM   17  N3  UNL     1      64.954  15.862  53.532  1.00  0.00    -0.301 N 
ATOM     18  H3  UNL     1      65.180  16.180  52.590  1.00  0.00     0.171 HD
BRANCH  17  19
HETATM   19  C6  UNL     1      65.973  15.908  54.483  1.00  0.00     0.036 A 
HETATM   20  C7  UNL     1      67.137  15.188  54.201  1.00  0.00     0.029 A 
HETATM   21  C8  UNL     1      68.171  15.176  55.097  1.00  0.00     0.002 A 
HETATM   22  C9  UNL     1      68.060  15.874  56.277  1.00  0.00     0.000 A 
HETATM   23  C10 UNL     1      66.922  16.585  56.564  1.00  0.00     0.002 A 
HETATM   24  C11 UNL     1      65.864  16.599  55.649  1.00  0.00     0.029 A 
ENDBRANCH  17  19
ENDBRANCH  14  15
ENDBRANCH   3  14
BRANCH   8  25
HETATM   25  O7  UNL     1      61.729  10.982  53.649  1.00  0.00    -0.390 OA
ATOM     26  H7  UNL     1      62.143  10.189  53.330  1.00  0.00     0.210 HD
ENDBRANCH   8  25
BRANCH   6  27
HETATM   27  C13 UNL     1      59.302  13.414  55.326  1.00  0.00     0.199 C 
BRANCH  27  28
HETATM   28  O5  UNL     1      60.502  13.895  55.805  1.00  0.00    -0.398 OA
ATOM     29  H5  UNL     1      60.370  14.512  56.515  1.00  0.00     0.209 HD
ENDBRANCH  27  28
ENDBRANCH   6  27
BRANCH   7  30
HETATM   30  O6  UNL     1      58.284  11.346  52.817  1.00  0.00    -0.390 OA
ATOM     31  H6  UNL     1      58.296  11.793  51.979  1.00  0.00     0.210 HD
ENDBRANCH   7  30
TORSDOF 8
ENDMDL
