MODEL 8
REMARK VINA RESULT: -5.062907101      2.649      3.813
REMARK  4 active torsions:
REMARK  status: ('A' for Active; 'I' for Inactive)
REMARK    1  A    between atoms: C5_9  and  C6_10 
REMARK    2  A    between atoms: C6_10  and  O2_11 
REMARK    3  A    between atoms: C7_13  and  O3_14 
REMARK    4  A    between atoms: C8_16  and  O4_17 
ROOT
HETATM    1  C1  UNL     1     -16.653 -31.230  17.535  1.00  0.00     0.052 C 
HETATM    2  C2  UNL     1     -17.518 -30.603  16.437  1.00  0.00     0.246 C 
HETATM    3  N1  UNL     1     -17.834 -31.629  15.506  1.00  0.00    -0.052 N 
ATOM      4  H11 UNL     1     -17.573 -32.548  15.861  1.00  0.00     0.279 HD
ATOM      5  H12 UNL     1     -17.220 -31.594  14.691  1.00  0.00     0.279 HD
HETATM    6  C3  UNL     1     -19.200 -31.587  15.130  1.00  0.00     0.257 C 
HETATM    7  C4  UNL     1     -20.060 -31.458  16.332  1.00  0.00     0.218 C 
HETATM    8  O1  UNL     1     -21.334 -31.177  16.160  1.00  0.00    -0.363 OA
HETATM    9  C5  UNL     1     -21.778 -30.437  15.130  1.00  0.00     0.178 C 
HETATM   10  C7  UNL     1     -20.858 -30.032  14.066  1.00  0.00     0.180 C 
HETATM   11  C8  UNL     1     -19.440 -30.461  14.182  1.00  0.00     0.183 C 
HETATM   12  S1  UNL     1     -19.110 -30.189  17.262  1.00  0.00    -0.102 SA
ENDROOT
BRANCH   9  13
HETATM   13  C6  UNL     1     -22.968 -31.214  14.532  1.00  0.00     0.198 C 
BRANCH  13  14
HETATM   14  O2  UNL     1     -23.946 -30.369  14.066  1.00  0.00    -0.398 OA
ATOM     15  H2  UNL     1     -23.848 -29.490  14.416  1.00  0.00     0.209 HD
ENDBRANCH  13  14
ENDBRANCH   9  13
BRANCH  10  16
HETATM   16  O3  UNL     1     -21.334 -30.487  12.811  1.00  0.00    -0.390 OA
ATOM     17  H3  UNL     1     -21.328 -29.775  12.182  1.00  0.00     0.210 HD
ENDBRANCH  10  16
BRANCH  11  18
HETATM   18  O4  UNL     1     -18.915 -30.837  12.940  1.00  0.00    -0.391 OA
ATOM     19  H4  UNL     1     -19.370 -31.624  12.665  1.00  0.00     0.210 HD
ENDBRANCH  11  18
TORSDOF 4
ENDMDL
