MODEL 7
REMARK VINA RESULT: -5.113027268      1.686      2.772
REMARK  4 active torsions:
REMARK  status: ('A' for Active; 'I' for Inactive)
REMARK    1  A    between atoms: C5_9  and  C6_10 
REMARK    2  A    between atoms: C6_10  and  O2_11 
REMARK    3  A    between atoms: C7_13  and  O3_14 
REMARK    4  A    between atoms: C8_16  and  O4_17 
ROOT
HETATM    1  C1  UNL     1     -18.025 -29.592  14.468  1.00  0.00     0.052 C 
HETATM    2  C2  UNL     1     -19.104 -30.403  13.744  1.00  0.00     0.246 C 
HETATM    3  N1  UNL     1     -19.597 -31.370  14.662  1.00  0.00    -0.052 N 
ATOM      4  H11 UNL     1     -19.261 -31.192  15.608  1.00  0.00     0.279 HD
ATOM      5  H12 UNL     1     -19.166 -32.283  14.510  1.00  0.00     0.279 HD
HETATM    6  C3  UNL     1     -21.012 -31.450  14.622  1.00  0.00     0.257 C 
HETATM    7  C4  UNL     1     -21.605 -30.091  14.665  1.00  0.00     0.218 C 
HETATM    8  O1  UNL     1     -22.889 -29.963  14.409  1.00  0.00    -0.363 OA
HETATM    9  C5  UNL     1     -23.544 -30.781  13.568  1.00  0.00     0.178 C 
HETATM   10  C7  UNL     1     -22.868 -31.952  13.008  1.00  0.00     0.180 C 
HETATM   11  C8  UNL     1     -21.453 -32.183  13.400  1.00  0.00     0.183 C 
HETATM   12  S1  UNL     1     -20.494 -29.226  13.486  1.00  0.00    -0.102 SA
ENDROOT
BRANCH   9  13
HETATM   13  C6  UNL     1     -24.825 -31.213  14.308  1.00  0.00     0.198 C 
BRANCH  13  14
HETATM   14  O2  UNL     1     -25.811 -31.603  13.434  1.00  0.00    -0.398 OA
ATOM     15  H2  UNL     1     -26.539 -30.992  13.428  1.00  0.00     0.209 HD
ENDBRANCH  13  14
ENDBRANCH   9  13
BRANCH  10  16
HETATM   16  O3  UNL     1     -23.589 -33.129  13.327  1.00  0.00    -0.390 OA
ATOM     17  H3  UNL     1     -23.022 -33.888  13.255  1.00  0.00     0.210 HD
ENDBRANCH  10  16
BRANCH  11  18
HETATM   18  O4  UNL     1     -21.193 -33.542  13.608  1.00  0.00    -0.391 OA
ATOM     19  H4  UNL     1     -21.265 -33.979  12.767  1.00  0.00     0.210 HD
ENDBRANCH  11  18
TORSDOF 4
ENDMDL
