MODEL 5
REMARK VINA RESULT: -5.258053849      2.479      4.452
REMARK  4 active torsions:
REMARK  status: ('A' for Active; 'I' for Inactive)
REMARK    1  A    between atoms: C5_9  and  C6_10 
REMARK    2  A    between atoms: C6_10  and  O2_11 
REMARK    3  A    between atoms: C7_13  and  O3_14 
REMARK    4  A    between atoms: C8_16  and  O4_17 
ROOT
HETATM    1  C1  UNL     1     -23.198 -34.001  11.550  1.00  0.00     0.052 C 
HETATM    2  C2  UNL     1     -22.949 -32.701  12.322  1.00  0.00     0.246 C 
HETATM    3  N1  UNL     1     -22.802 -33.042  13.694  1.00  0.00    -0.052 N 
ATOM      4  H11 UNL     1     -22.721 -34.050  13.821  1.00  0.00     0.279 HD
ATOM      5  H12 UNL     1     -23.668 -32.886  14.212  1.00  0.00     0.279 HD
HETATM    6  C3  UNL     1     -21.713 -32.355  14.286  1.00  0.00     0.257 C 
HETATM    7  C4  UNL     1     -20.512 -32.451  13.419  1.00  0.00     0.218 C 
HETATM    8  O1  UNL     1     -19.479 -31.686  13.698  1.00  0.00    -0.363 OA
HETATM    9  C5  UNL     1     -19.608 -30.473  14.262  1.00  0.00     0.178 C 
HETATM   10  C7  UNL     1     -20.920 -30.013  14.723  1.00  0.00     0.180 C 
HETATM   11  C8  UNL     1     -22.075 -30.929  14.535  1.00  0.00     0.183 C 
HETATM   12  S1  UNL     1     -21.283 -32.137  11.781  1.00  0.00    -0.102 SA
ENDROOT
BRANCH   9  13
HETATM   13  C6  UNL     1     -18.596 -30.435  15.423  1.00  0.00     0.198 C 
BRANCH  13  14
HETATM   14  O2  UNL     1     -18.690 -31.551  16.218  1.00  0.00    -0.398 OA
ATOM     15  H2  UNL     1     -18.017 -31.564  16.889  1.00  0.00     0.209 HD
ENDBRANCH  13  14
ENDBRANCH   9  13
BRANCH  10  16
HETATM   16  O3  UNL     1     -20.863 -29.685  16.100  1.00  0.00    -0.390 OA
ATOM     17  H3  UNL     1     -20.565 -28.790  16.210  1.00  0.00     0.210 HD
ENDBRANCH  10  16
BRANCH  11  18
HETATM   18  O4  UNL     1     -22.937 -30.902  15.638  1.00  0.00    -0.391 OA
ATOM     19  H4  UNL     1     -23.502 -31.663  15.577  1.00  0.00     0.210 HD
ENDBRANCH  11  18
TORSDOF 4
ENDMDL
