MODEL 2
REMARK VINA RESULT: -6.075123629      2.395      4.307
REMARK  4 active torsions:
REMARK  status: ('A' for Active; 'I' for Inactive)
REMARK    1  A    between atoms: C5_9  and  C6_10 
REMARK    2  A    between atoms: C6_10  and  O2_11 
REMARK    3  A    between atoms: C7_13  and  O3_14 
REMARK    4  A    between atoms: C8_16  and  O4_17 
ROOT
HETATM    1  C1  UNL     1     -23.575 -34.291  10.947  1.00  0.00     0.052 C 
HETATM    2  C2  UNL     1     -23.356 -32.903  11.556  1.00  0.00     0.246 C 
HETATM    3  N1  UNL     1     -23.854 -32.937  12.886  1.00  0.00    -0.052 N 
ATOM      4  H11 UNL     1     -24.070 -33.890  13.179  1.00  0.00     0.279 HD
ATOM      5  H12 UNL     1     -24.791 -32.537  12.945  1.00  0.00     0.279 HD
HETATM    6  C3  UNL     1     -22.963 -32.307  13.791  1.00  0.00     0.257 C 
HETATM    7  C4  UNL     1     -21.576 -32.781  13.560  1.00  0.00     0.218 C 
HETATM    8  O1  UNL     1     -20.591 -32.139  14.152  1.00  0.00    -0.363 OA
HETATM    9  C5  UNL     1     -20.645 -30.824  14.422  1.00  0.00     0.178 C 
HETATM   10  C7  UNL     1     -21.883 -30.076  14.192  1.00  0.00     0.180 C 
HETATM   11  C8  UNL     1     -23.048 -30.824  13.650  1.00  0.00     0.183 C 
HETATM   12  S1  UNL     1     -21.532 -32.738  11.724  1.00  0.00    -0.102 SA
ENDROOT
BRANCH   9  13
HETATM   13  C6  UNL     1     -20.202 -30.675  15.891  1.00  0.00     0.198 C 
BRANCH  13  14
HETATM   14  O2  UNL     1     -20.775 -31.631  16.695  1.00  0.00    -0.398 OA
ATOM     15  H2  UNL     1     -21.627 -31.358  17.014  1.00  0.00     0.209 HD
ENDBRANCH  13  14
ENDBRANCH   9  13
BRANCH  10  16
HETATM   16  O3  UNL     1     -22.306 -29.453  15.392  1.00  0.00    -0.390 OA
ATOM     17  H3  UNL     1     -22.025 -28.546  15.405  1.00  0.00     0.210 HD
ENDBRANCH  10  16
BRANCH  11  18
HETATM   18  O4  UNL     1     -24.245 -30.413  14.248  1.00  0.00    -0.391 OA
ATOM     19  H4  UNL     1     -24.787 -30.032  13.567  1.00  0.00     0.210 HD
ENDBRANCH  11  18
TORSDOF 4
ENDMDL
