MODEL 4
REMARK VINA RESULT: -5.285977845      1.514      1.807
REMARK  4 active torsions:
REMARK  status: ('A' for Active; 'I' for Inactive)
REMARK    1  A    between atoms: C5_9  and  C6_10 
REMARK    2  A    between atoms: C6_10  and  O2_11 
REMARK    3  A    between atoms: C7_13  and  O3_14 
REMARK    4  A    between atoms: C8_16  and  O4_17 
ROOT
HETATM    1  C1  UNL     1     -17.046 -30.558  16.097  1.00  0.00     0.052 C 
HETATM    2  C2  UNL     1     -18.563 -30.765  16.152  1.00  0.00     0.246 C 
HETATM    3  N1  UNL     1     -19.157 -29.783  15.314  1.00  0.00    -0.052 N 
ATOM      4  H11 UNL     1     -18.458 -29.300  14.751  1.00  0.00     0.279 HD
ATOM      5  H12 UNL     1     -19.501 -28.989  15.855  1.00  0.00     0.279 HD
HETATM    6  C3  UNL     1     -20.179 -30.340  14.505  1.00  0.00     0.257 C 
HETATM    7  C4  UNL     1     -19.705 -31.594  13.869  1.00  0.00     0.218 C 
HETATM    8  O1  UNL     1     -20.589 -32.361  13.269  1.00  0.00    -0.363 OA
HETATM    9  C5  UNL     1     -21.868 -32.443  13.673  1.00  0.00     0.178 C 
HETATM   10  C7  UNL     1     -22.364 -31.556  14.726  1.00  0.00     0.180 C 
HETATM   11  C8  UNL     1     -21.405 -30.588  15.318  1.00  0.00     0.183 C 
HETATM   12  S1  UNL     1     -18.857 -32.370  15.302  1.00  0.00    -0.102 SA
ENDROOT
BRANCH   9  13
HETATM   13  C6  UNL     1     -22.725 -32.286  12.401  1.00  0.00     0.198 C 
BRANCH  13  14
HETATM   14  O2  UNL     1     -23.869 -33.045  12.461  1.00  0.00    -0.398 OA
ATOM     15  H2  UNL     1     -23.819 -33.803  11.891  1.00  0.00     0.209 HD
ENDBRANCH  13  14
ENDBRANCH   9  13
BRANCH  10  16
HETATM   16  O3  UNL     1     -23.474 -30.812  14.253  1.00  0.00    -0.390 OA
ATOM     17  H3  UNL     1     -24.275 -31.307  14.377  1.00  0.00     0.210 HD
ENDBRANCH  10  16
BRANCH  11  18
HETATM   18  O4  UNL     1     -22.009 -29.348  15.557  1.00  0.00    -0.391 OA
ATOM     19  H4  UNL     1     -21.552 -28.944  16.286  1.00  0.00     0.210 HD
ENDBRANCH  11  18
TORSDOF 4
ENDMDL
