MODEL 1
REMARK VINA RESULT: -5.256223580      0.000      0.000
REMARK  4 active torsions:
REMARK  status: ('A' for Active; 'I' for Inactive)
REMARK    1  A    between atoms: O1_2  and  C2_3 
REMARK    2  A    between atoms: C5_7  and  O3_8 
REMARK    3  A    between atoms: C6_10  and  O4_11 
REMARK    4  A    between atoms: C7_13  and  O5_14 
ROOT
HETATM    1  C2  UNL     1      -5.375   6.703   9.240  1.00  0.00     0.290 C 
HETATM    2  O2  UNL     1      -4.518   7.383  10.062  1.00  0.00    -0.351 OA
HETATM    3  C3  UNL     1      -4.277   8.687   9.783  1.00  0.00     0.152 C 
HETATM    4  C4  UNL     1      -3.213   9.180  10.752  1.00  0.00     0.042 C 
HETATM    5  C5  UNL     1      -3.745   8.924   8.394  1.00  0.00     0.178 C 
HETATM    6  C6  UNL     1      -4.371   8.055   7.362  1.00  0.00     0.183 C 
HETATM    7  C7  UNL     1      -5.475   7.181   7.841  1.00  0.00     0.204 C 
ENDROOT
BRANCH   1   8
HETATM    8  O1  UNL     1      -6.573   6.532   9.886  1.00  0.00    -0.363 OA
HETATM    9  C1  UNL     1      -6.686   5.426  10.678  1.00  0.00     0.204 C 
ENDBRANCH   1   8
BRANCH   7  10
HETATM   10  O5  UNL     1      -6.700   7.850   7.592  1.00  0.00    -0.388 OA
ATOM     11  H5  UNL     1      -7.452   7.289   7.745  1.00  0.00     0.210 HD
ENDBRANCH   7  10
BRANCH   6  12
HETATM   12  O4  UNL     1      -3.347   7.320   6.723  1.00  0.00    -0.390 OA
ATOM     13  H4  UNL     1      -3.133   6.572   7.269  1.00  0.00     0.210 HD
ENDBRANCH   6  12
BRANCH   5  14
HETATM   14  O3  UNL     1      -2.346   8.727   8.453  1.00  0.00    -0.390 OA
ATOM     15  H3  UNL     1      -2.024   8.778   7.561  1.00  0.00     0.210 HD
ENDBRANCH   5  14
TORSDOF 4
ENDMDL
