MODEL 19
REMARK VINA RESULT: -4.163019501      1.187      1.438
REMARK  4 active torsions:
REMARK  status: ('A' for Active; 'I' for Inactive)
REMARK    1  A    between atoms: O1_2  and  C2_3 
REMARK    2  A    between atoms: C5_7  and  O3_8 
REMARK    3  A    between atoms: C6_10  and  O4_11 
REMARK    4  A    between atoms: C7_13  and  O5_14 
ROOT
HETATM    1  C2  UNL     1      -4.913   7.248   9.261  1.00  0.00     0.290 C 
HETATM    2  O2  UNL     1      -4.900   8.101  10.331  1.00  0.00    -0.351 OA
HETATM    3  C3  UNL     1      -5.023   9.427  10.083  1.00  0.00     0.152 C 
HETATM    4  C4  UNL     1      -4.857  10.164  11.404  1.00  0.00     0.042 C 
HETATM    5  C5  UNL     1      -3.975   9.970   9.147  1.00  0.00     0.178 C 
HETATM    6  C6  UNL     1      -3.633   9.043   8.036  1.00  0.00     0.183 C 
HETATM    7  C7  UNL     1      -4.440   7.796   7.968  1.00  0.00     0.204 C 
ENDROOT
BRANCH   1   8
HETATM    8  O1  UNL     1      -6.125   6.606   9.216  1.00  0.00    -0.363 OA
HETATM    9  C1  UNL     1      -6.658   6.225  10.413  1.00  0.00     0.204 C 
ENDBRANCH   1   8
BRANCH   7  10
HETATM   10  O5  UNL     1      -5.506   8.014   7.059  1.00  0.00    -0.388 OA
ATOM     11  H5  UNL     1      -5.200   8.331   6.218  1.00  0.00     0.210 HD
ENDBRANCH   7  10
BRANCH   6  12
HETATM   12  O4  UNL     1      -2.246   8.779   8.091  1.00  0.00    -0.390 OA
ATOM     13  H4  UNL     1      -2.126   7.858   8.291  1.00  0.00     0.210 HD
ENDBRANCH   6  12
BRANCH   5  14
HETATM   14  O3  UNL     1      -2.839  10.271   9.934  1.00  0.00    -0.390 OA
ATOM     15  H3  UNL     1      -2.127   9.735   9.605  1.00  0.00     0.210 HD
ENDBRANCH   5  14
TORSDOF 4
ENDMDL
