MODEL 16
REMARK VINA RESULT: -4.380917783      1.983      2.108
REMARK  4 active torsions:
REMARK  status: ('A' for Active; 'I' for Inactive)
REMARK    1  A    between atoms: O1_2  and  C2_3 
REMARK    2  A    between atoms: C5_7  and  O3_8 
REMARK    3  A    between atoms: C6_10  and  O4_11 
REMARK    4  A    between atoms: C7_13  and  O5_14 
ROOT
HETATM    1  C2  UNL     1      -6.221   8.524   8.718  1.00  0.00     0.290 C 
HETATM    2  O2  UNL     1      -5.219   9.355   9.138  1.00  0.00    -0.351 OA
HETATM    3  C3  UNL     1      -4.215   9.624   8.268  1.00  0.00     0.152 C 
HETATM    4  C4  UNL     1      -3.175  10.458   9.001  1.00  0.00     0.042 C 
HETATM    5  C5  UNL     1      -3.508   8.396   7.758  1.00  0.00     0.178 C 
HETATM    6  C6  UNL     1      -4.419   7.250   7.498  1.00  0.00     0.183 C 
HETATM    7  C7  UNL     1      -5.869   7.527   7.680  1.00  0.00     0.204 C 
ENDROOT
BRANCH   1   8
HETATM    8  O1  UNL     1      -7.341   9.272   8.454  1.00  0.00    -0.363 OA
HETATM    9  C1  UNL     1      -8.481   8.918   9.116  1.00  0.00     0.204 C 
ENDBRANCH   1   8
BRANCH   7  10
HETATM   10  O5  UNL     1      -6.412   7.860   6.414  1.00  0.00    -0.388 OA
ATOM     11  H5  UNL     1      -6.542   8.797   6.315  1.00  0.00     0.210 HD
ENDBRANCH   7  10
BRANCH   6  12
HETATM   12  O4  UNL     1      -3.983   6.153   8.275  1.00  0.00    -0.390 OA
ATOM     13  H4  UNL     1      -4.744   5.759   8.685  1.00  0.00     0.210 HD
ENDBRANCH   6  12
BRANCH   5  14
HETATM   14  O3  UNL     1      -2.523   8.063   8.716  1.00  0.00    -0.390 OA
ATOM     15  H3  UNL     1      -2.641   7.144   8.923  1.00  0.00     0.210 HD
ENDBRANCH   5  14
TORSDOF 4
ENDMDL
