MODEL 4
REMARK VINA RESULT: -4.938494278      1.421      1.612
REMARK  4 active torsions:
REMARK  status: ('A' for Active; 'I' for Inactive)
REMARK    1  A    between atoms: O1_2  and  C2_3 
REMARK    2  A    between atoms: C5_7  and  O3_8 
REMARK    3  A    between atoms: C6_10  and  O4_11 
REMARK    4  A    between atoms: C7_13  and  O5_14 
ROOT
HETATM    1  C2  UNL     1      -5.265   6.996   9.232  1.00  0.00     0.290 C 
HETATM    2  O2  UNL     1      -5.517   8.263   9.683  1.00  0.00    -0.351 OA
HETATM    3  C3  UNL     1      -5.362   9.287   8.808  1.00  0.00     0.152 C 
HETATM    4  C4  UNL     1      -5.577  10.586   9.571  1.00  0.00     0.042 C 
HETATM    5  C5  UNL     1      -3.987   9.363   8.198  1.00  0.00     0.178 C 
HETATM    6  C6  UNL     1      -3.403   8.032   7.883  1.00  0.00     0.183 C 
HETATM    7  C7  UNL     1      -4.295   6.866   8.120  1.00  0.00     0.204 C 
ENDROOT
BRANCH   1   8
HETATM    8  O1  UNL     1      -6.457   6.342   9.047  1.00  0.00    -0.363 OA
HETATM    9  C1  UNL     1      -6.984   5.716  10.139  1.00  0.00     0.204 C 
ENDBRANCH   1   8
BRANCH   7  10
HETATM   10  O5  UNL     1      -4.929   6.545   6.893  1.00  0.00    -0.388 OA
ATOM     11  H5  UNL     1      -4.303   6.416   6.189  1.00  0.00     0.210 HD
ENDBRANCH   7  10
BRANCH   6  12
HETATM   12  O4  UNL     1      -2.175   7.914   8.572  1.00  0.00    -0.390 OA
ATOM     13  H4  UNL     1      -1.843   8.789   8.740  1.00  0.00     0.210 HD
ENDBRANCH   6  12
BRANCH   5  14
HETATM   14  O3  UNL     1      -3.175  10.079   9.107  1.00  0.00    -0.390 OA
ATOM     15  H3  UNL     1      -2.287   9.764   8.989  1.00  0.00     0.210 HD
ENDBRANCH   5  14
TORSDOF 4
ENDMDL
