MODEL 7
REMARK VINA RESULT: -4.799663364      1.052      1.076
REMARK  4 active torsions:
REMARK  status: ('A' for Active; 'I' for Inactive)
REMARK    1  A    between atoms: O1_2  and  C2_3 
REMARK    2  A    between atoms: C5_7  and  O3_8 
REMARK    3  A    between atoms: C6_10  and  O4_11 
REMARK    4  A    between atoms: C7_13  and  O5_14 
ROOT
HETATM    1  C2  UNL     1      -6.079   7.101   9.794  1.00  0.00     0.290 C 
HETATM    2  O2  UNL     1      -4.938   7.669  10.291  1.00  0.00    -0.351 OA
HETATM    3  C3  UNL     1      -4.338   8.632   9.550  1.00  0.00     0.152 C 
HETATM    4  C4  UNL     1      -3.040   9.013  10.246  1.00  0.00     0.042 C 
HETATM    5  C5  UNL     1      -3.971   8.189   8.158  1.00  0.00     0.178 C 
HETATM    6  C6  UNL     1      -4.987   7.304   7.529  1.00  0.00     0.183 C 
HETATM    7  C7  UNL     1      -6.228   7.087   8.319  1.00  0.00     0.204 C 
ENDROOT
BRANCH   1   8
HETATM    8  O1  UNL     1      -7.159   7.587  10.486  1.00  0.00    -0.363 OA
HETATM    9  C1  UNL     1      -7.972   6.663  11.076  1.00  0.00     0.204 C 
ENDBRANCH   1   8
BRANCH   7  10
HETATM   10  O5  UNL     1      -7.199   8.019   7.873  1.00  0.00    -0.388 OA
ATOM     11  H5  UNL     1      -6.823   8.685   7.309  1.00  0.00     0.210 HD
ENDBRANCH   7  10
BRANCH   6  12
HETATM   12  O4  UNL     1      -4.359   6.088   7.178  1.00  0.00    -0.390 OA
ATOM     13  H4  UNL     1      -5.008   5.523   6.776  1.00  0.00     0.210 HD
ENDBRANCH   6  12
BRANCH   5  14
HETATM   14  O3  UNL     1      -2.715   7.545   8.251  1.00  0.00    -0.390 OA
ATOM     15  H3  UNL     1      -2.390   7.702   9.129  1.00  0.00     0.210 HD
ENDBRANCH   5  14
TORSDOF 4
ENDMDL
