MODEL 1
REMARK VINA RESULT: -7.040118593      0.000      0.000
REMARK  10 active torsions:
REMARK  status: ('A' for Active; 'I' for Inactive)
REMARK    1  A    between atoms: C5_5  and  C6_6 
REMARK    2  A    between atoms: C7_7  and  C8_8 
REMARK    3  A    between atoms: C8_8  and  O1_9 
REMARK    4  A    between atoms: O1_9  and  C9_10 
REMARK    5  A    between atoms: C16_17  and  C17_18 
REMARK    6  A    between atoms: C17_18  and  N1_19 
REMARK    7  A    between atoms: C20_22  and  N2_23 
REMARK    8  A    between atoms: N2_23  and  C21_24 
REMARK    9  A    between atoms: N2_23  and  C23_26 
REMARK   10  A    between atoms: C27_30  and  O2_31 
ROOT
HETATM    1  C1  UNL     1      93.013  92.792 -41.242  1.00  0.00     0.018 C 
HETATM    2  C2  UNL     1      92.551  93.179 -42.285  1.00  0.00    -0.075 C 
HETATM    3  C3  UNL     1      91.999  93.665 -43.518  1.00  0.00     0.052 A 
HETATM    4  C4  UNL     1      91.992  92.838 -44.620  1.00  0.00     0.044 A 
HETATM    5  C5  UNL     1      91.463  93.315 -45.790  1.00  0.00     0.019 A 
HETATM    6  C15 UNL     1      90.942  94.619 -45.848  1.00  0.00     0.032 A 
HETATM    7  C16 UNL     1      90.935  95.451 -44.784  1.00  0.00     0.006 A 
HETATM    8  C27 UNL     1      91.484  94.937 -43.597  1.00  0.00     0.092 A 
ENDROOT
BRANCH   8   9
HETATM    9  O2  UNL     1      91.489  95.776 -42.484  1.00  0.00    -0.359 OA
ATOM     10  H2  UNL     1      91.648  96.707 -42.580  1.00  0.00     0.217 HD
ENDBRANCH   8   9
BRANCH   5  11
HETATM   11  C6  UNL     1      91.455  92.459 -46.937  1.00  0.00    -0.065 C 
HETATM   12  C7  UNL     1      91.428  91.743 -47.911  1.00  0.00    -0.074 C 
BRANCH  12  13
HETATM   13  C8  UNL     1      91.372  90.882 -49.093  1.00  0.00     0.269 C 
BRANCH  13  14
HETATM   14  O1  UNL     1      90.452  89.829 -48.886  1.00  0.00    -0.340 OA
BRANCH  14  15
HETATM   15  C9  UNL     1      89.668  89.301 -49.895  1.00  0.00     0.070 A 
HETATM   16  C10 UNL     1      89.468  87.934 -49.867  1.00  0.00     0.037 A 
HETATM   17  C11 UNL     1      88.700  87.325 -50.835  1.00  0.00     0.003 A 
HETATM   18  C12 UNL     1      88.131  88.085 -51.833  1.00  0.00     0.000 A 
HETATM   19  C13 UNL     1      88.339  89.447 -51.848  1.00  0.00     0.003 A 
HETATM   20  C14 UNL     1      89.099  90.048 -50.888  1.00  0.00     0.037 A 
ENDBRANCH  14  15
ENDBRANCH  13  14
ENDBRANCH  12  13
ENDBRANCH   5  11
BRANCH   7  21
HETATM   21  C17 UNL     1      90.394  96.821 -44.817  1.00  0.00     0.313 C 
BRANCH  21  22
HETATM   22  N1  UNL     1      91.084  97.769 -45.622  1.00  0.00     0.092 N 
HETATM   23  C18 UNL     1      92.461  97.854 -45.195  1.00  0.00     0.275 C 
HETATM   24  C19 UNL     1      92.750  99.261 -44.735  1.00  0.00     0.066 C 
HETATM   25  C20 UNL     1      91.708  99.615 -43.699  1.00  0.00     0.226 C 
HETATM   26  C25 UNL     1      90.381  99.726 -44.390  1.00  0.00     0.066 C 
HETATM   27  C26 UNL     1      90.436  99.039 -45.723  1.00  0.00     0.275 C 
BRANCH  25  28
HETATM   28  N2  UNL     1      92.082 100.829 -43.011  1.00  0.00     0.092 N 
BRANCH  28  29
HETATM   29  C21 UNL     1      91.898 101.996 -43.852  1.00  0.00     0.268 C 
HETATM   30  C22 UNL     1      93.152 102.857 -43.648  1.00  0.00     0.037 C 
ENDBRANCH  28  29
BRANCH  28  31
HETATM   31  C23 UNL     1      91.417 101.036 -41.774  1.00  0.00     0.268 C 
HETATM   32  C24 UNL     1      92.311 100.915 -40.562  1.00  0.00     0.037 C 
ENDBRANCH  28  31
ENDBRANCH  25  28
ENDBRANCH  21  22
ENDBRANCH   7  21
TORSDOF 10
ENDMDL
