MODEL 2
REMARK VINA RESULT: -7.031987444      0.526      1.477
REMARK  10 active torsions:
REMARK  status: ('A' for Active; 'I' for Inactive)
REMARK    1  A    between atoms: C5_5  and  C6_6 
REMARK    2  A    between atoms: C7_7  and  C8_8 
REMARK    3  A    between atoms: C8_8  and  O1_9 
REMARK    4  A    between atoms: O1_9  and  C9_10 
REMARK    5  A    between atoms: C16_17  and  C17_18 
REMARK    6  A    between atoms: C17_18  and  N1_19 
REMARK    7  A    between atoms: C20_22  and  N2_23 
REMARK    8  A    between atoms: N2_23  and  C21_24 
REMARK    9  A    between atoms: N2_23  and  C23_26 
REMARK   10  A    between atoms: C27_30  and  O2_31 
ROOT
HETATM    1  C1  UNL     1      92.935  92.924 -41.275  1.00  0.00     0.018 C 
HETATM    2  C2  UNL     1      92.483  93.276 -42.335  1.00  0.00    -0.075 C 
HETATM    3  C3  UNL     1      91.944  93.720 -43.589  1.00  0.00     0.052 A 
HETATM    4  C4  UNL     1      91.963  92.862 -44.667  1.00  0.00     0.044 A 
HETATM    5  C5  UNL     1      91.445  93.299 -45.857  1.00  0.00     0.019 A 
HETATM    6  C15 UNL     1      90.908  94.594 -45.960  1.00  0.00     0.032 A 
HETATM    7  C16 UNL     1      90.875  95.456 -44.920  1.00  0.00     0.006 A 
HETATM    8  C27 UNL     1      91.414  94.983 -43.711  1.00  0.00     0.092 A 
ENDROOT
BRANCH   8   9
HETATM    9  O2  UNL     1      91.391  95.852 -42.622  1.00  0.00    -0.359 OA
ATOM     10  H2  UNL     1      91.011  96.719 -42.702  1.00  0.00     0.217 HD
ENDBRANCH   8   9
BRANCH   5  11
HETATM   11  C6  UNL     1      91.464  92.411 -46.980  1.00  0.00    -0.065 C 
HETATM   12  C7  UNL     1      91.476  91.645 -47.915  1.00  0.00    -0.074 C 
BRANCH  12  13
HETATM   13  C8  UNL     1      91.490  90.698 -49.030  1.00  0.00     0.269 C 
BRANCH  13  14
HETATM   14  O1  UNL     1      90.302  90.817 -49.786  1.00  0.00    -0.340 OA
BRANCH  14  15
HETATM   15  C9  UNL     1      89.580  89.727 -50.237  1.00  0.00     0.070 A 
HETATM   16  C10 UNL     1      88.803  89.927 -51.361  1.00  0.00     0.037 A 
HETATM   17  C11 UNL     1      88.050  88.894 -51.877  1.00  0.00     0.003 A 
HETATM   18  C12 UNL     1      88.077  87.659 -51.267  1.00  0.00     0.000 A 
HETATM   19  C13 UNL     1      88.858  87.475 -50.147  1.00  0.00     0.003 A 
HETATM   20  C14 UNL     1      89.602  88.498 -49.638  1.00  0.00     0.037 A 
ENDBRANCH  14  15
ENDBRANCH  13  14
ENDBRANCH  12  13
ENDBRANCH   5  11
BRANCH   7  21
HETATM   21  C17 UNL     1      90.318  96.817 -44.999  1.00  0.00     0.313 C 
BRANCH  21  22
HETATM   22  N1  UNL     1      91.055  97.774 -45.750  1.00  0.00     0.092 N 
HETATM   23  C18 UNL     1      92.372  97.927 -45.179  1.00  0.00     0.275 C 
HETATM   24  C19 UNL     1      92.553  99.356 -44.730  1.00  0.00     0.066 C 
HETATM   25  C20 UNL     1      91.390  99.690 -43.824  1.00  0.00     0.226 C 
HETATM   26  C25 UNL     1      90.144  99.728 -44.657  1.00  0.00     0.066 C 
HETATM   27  C26 UNL     1      90.372  99.013 -45.958  1.00  0.00     0.275 C 
BRANCH  25  28
HETATM   28  N2  UNL     1      91.639 100.934 -43.134  1.00  0.00     0.092 N 
BRANCH  28  29
HETATM   29  C21 UNL     1      91.558 100.769 -41.695  1.00  0.00     0.268 C 
HETATM   30  C22 UNL     1      90.308 101.547 -41.258  1.00  0.00     0.037 C 
ENDBRANCH  28  29
BRANCH  28  31
HETATM   31  C23 UNL     1      92.871 101.557 -43.463  1.00  0.00     0.268 C 
HETATM   32  C24 UNL     1      92.752 103.021 -43.814  1.00  0.00     0.037 C 
ENDBRANCH  28  31
ENDBRANCH  25  28
ENDBRANCH  21  22
ENDBRANCH   7  21
TORSDOF 10
ENDMDL
