MODEL 9
REMARK VINA RESULT: -6.285680300      4.544      7.220
REMARK  10 active torsions:
REMARK  status: ('A' for Active; 'I' for Inactive)
REMARK    1  A    between atoms: C5_5  and  C6_6 
REMARK    2  A    between atoms: C7_7  and  C8_8 
REMARK    3  A    between atoms: C8_8  and  O1_9 
REMARK    4  A    between atoms: O1_9  and  C9_10 
REMARK    5  A    between atoms: C16_17  and  C17_18 
REMARK    6  A    between atoms: C17_18  and  N1_19 
REMARK    7  A    between atoms: C20_22  and  N2_23 
REMARK    8  A    between atoms: N2_23  and  C21_24 
REMARK    9  A    between atoms: N2_23  and  C23_26 
REMARK   10  A    between atoms: C27_30  and  O2_31 
ROOT
HETATM    1  C1  UNL     1      85.107  99.793 -44.111  1.00  0.00     0.018 C 
HETATM    2  C2  UNL     1      86.283  99.640 -43.894  1.00  0.00    -0.075 C 
HETATM    3  C3  UNL     1      87.681  99.476 -43.617  1.00  0.00     0.052 A 
HETATM    4  C4  UNL     1      88.361  98.429 -44.201  1.00  0.00     0.044 A 
HETATM    5  C5  UNL     1      89.695  98.284 -43.928  1.00  0.00     0.019 A 
HETATM    6  C15 UNL     1      90.341  99.191 -43.071  1.00  0.00     0.032 A 
HETATM    7  C16 UNL     1      89.701 100.227 -42.485  1.00  0.00     0.006 A 
HETATM    8  C27 UNL     1      88.333 100.351 -42.782  1.00  0.00     0.092 A 
ENDROOT
BRANCH   8   9
HETATM    9  O2  UNL     1      87.649 101.412 -42.191  1.00  0.00    -0.359 OA
ATOM     10  H2  UNL     1      87.538 101.451 -41.248  1.00  0.00     0.217 HD
ENDBRANCH   8   9
BRANCH   5  11
HETATM   11  C6  UNL     1      90.404  97.198 -44.532  1.00  0.00    -0.065 C 
HETATM   12  C7  UNL     1      90.987  96.267 -45.038  1.00  0.00    -0.074 C 
BRANCH  12  13
HETATM   13  C8  UNL     1      91.676  95.125 -45.639  1.00  0.00     0.269 C 
BRANCH  13  14
HETATM   14  O1  UNL     1      91.391  93.946 -44.914  1.00  0.00    -0.340 OA
BRANCH  14  15
HETATM   15  C9  UNL     1      91.873  93.706 -43.640  1.00  0.00     0.070 A 
HETATM   16  C10 UNL     1      93.057  93.000 -43.554  1.00  0.00     0.037 A 
HETATM   17  C11 UNL     1      93.608  92.717 -42.323  1.00  0.00     0.003 A 
HETATM   18  C12 UNL     1      92.974  93.142 -41.177  1.00  0.00     0.000 A 
HETATM   19  C13 UNL     1      91.794  93.846 -41.280  1.00  0.00     0.003 A 
HETATM   20  C14 UNL     1      91.250  94.126 -42.498  1.00  0.00     0.037 A 
ENDBRANCH  14  15
ENDBRANCH  13  14
ENDBRANCH  12  13
ENDBRANCH   5  11
BRANCH   7  21
HETATM   21  C17 UNL     1      90.354 101.192 -41.584  1.00  0.00     0.313 C 
BRANCH  21  22
HETATM   22  N1  UNL     1      91.775 101.234 -41.602  1.00  0.00     0.092 N 
HETATM   23  C18 UNL     1      92.291 100.691 -40.368  1.00  0.00     0.275 C 
HETATM   24  C19 UNL     1      93.087 101.755 -39.654  1.00  0.00     0.066 C 
HETATM   25  C20 UNL     1      92.196 102.969 -39.528  1.00  0.00     0.226 C 
HETATM   26  C25 UNL     1      91.981 103.537 -40.899  1.00  0.00     0.066 C 
HETATM   27  C26 UNL     1      92.323 102.511 -41.940  1.00  0.00     0.275 C 
BRANCH  25  28
HETATM   28  N2  UNL     1      92.781 103.923 -38.614  1.00  0.00     0.092 N 
BRANCH  28  29
HETATM   29  C21 UNL     1      93.438 105.006 -39.322  1.00  0.00     0.268 C 
HETATM   30  C22 UNL     1      94.826 105.138 -38.681  1.00  0.00     0.037 C 
ENDBRANCH  28  29
BRANCH  28  31
HETATM   31  C23 UNL     1      91.874 104.468 -37.667  1.00  0.00     0.268 C 
HETATM   32  C24 UNL     1      90.780 103.518 -37.239  1.00  0.00     0.037 C 
ENDBRANCH  28  31
ENDBRANCH  25  28
ENDBRANCH  21  22
ENDBRANCH   7  21
TORSDOF 10
ENDMDL
