MODEL 8
REMARK VINA RESULT: -6.338534930      4.529      7.280
REMARK  10 active torsions:
REMARK  status: ('A' for Active; 'I' for Inactive)
REMARK    1  A    between atoms: C5_5  and  C6_6 
REMARK    2  A    between atoms: C7_7  and  C8_8 
REMARK    3  A    between atoms: C8_8  and  O1_9 
REMARK    4  A    between atoms: O1_9  and  C9_10 
REMARK    5  A    between atoms: C16_17  and  C17_18 
REMARK    6  A    between atoms: C17_18  and  N1_19 
REMARK    7  A    between atoms: C20_22  and  N2_23 
REMARK    8  A    between atoms: N2_23  and  C21_24 
REMARK    9  A    between atoms: N2_23  and  C23_26 
REMARK   10  A    between atoms: C27_30  and  O2_31 
ROOT
HETATM    1  C1  UNL     1      85.143  99.827 -44.151  1.00  0.00     0.018 C 
HETATM    2  C2  UNL     1      86.316  99.657 -43.931  1.00  0.00    -0.075 C 
HETATM    3  C3  UNL     1      87.711  99.471 -43.650  1.00  0.00     0.052 A 
HETATM    4  C4  UNL     1      88.379  98.420 -44.241  1.00  0.00     0.044 A 
HETATM    5  C5  UNL     1      89.710  98.255 -43.963  1.00  0.00     0.019 A 
HETATM    6  C15 UNL     1      90.365  99.146 -43.096  1.00  0.00     0.032 A 
HETATM    7  C16 UNL     1      89.736 100.184 -42.503  1.00  0.00     0.006 A 
HETATM    8  C27 UNL     1      88.372 100.330 -42.804  1.00  0.00     0.092 A 
ENDROOT
BRANCH   8   9
HETATM    9  O2  UNL     1      87.699 101.394 -42.206  1.00  0.00    -0.359 OA
ATOM     10  H2  UNL     1      88.178 102.144 -41.872  1.00  0.00     0.217 HD
ENDBRANCH   8   9
BRANCH   5  11
HETATM   11  C6  UNL     1      90.407  97.164 -44.575  1.00  0.00    -0.065 C 
HETATM   12  C7  UNL     1      90.995  96.233 -45.073  1.00  0.00    -0.074 C 
BRANCH  12  13
HETATM   13  C8  UNL     1      91.710  95.095 -45.652  1.00  0.00     0.269 C 
BRANCH  13  14
HETATM   14  O1  UNL     1      91.428  93.918 -44.923  1.00  0.00    -0.340 OA
BRANCH  14  15
HETATM   15  C9  UNL     1      91.896  93.693 -43.641  1.00  0.00     0.070 A 
HETATM   16  C10 UNL     1      93.068  92.969 -43.533  1.00  0.00     0.037 A 
HETATM   17  C11 UNL     1      93.604  92.698 -42.293  1.00  0.00     0.003 A 
HETATM   18  C12 UNL     1      92.967  93.152 -41.160  1.00  0.00     0.000 A 
HETATM   19  C13 UNL     1      91.799  93.873 -41.284  1.00  0.00     0.003 A 
HETATM   20  C14 UNL     1      91.270  94.140 -42.512  1.00  0.00     0.037 A 
ENDBRANCH  14  15
ENDBRANCH  13  14
ENDBRANCH  12  13
ENDBRANCH   5  11
BRANCH   7  21
HETATM   21  C17 UNL     1      90.399 101.133 -41.591  1.00  0.00     0.313 C 
BRANCH  21  22
HETATM   22  N1  UNL     1      91.820 101.160 -41.608  1.00  0.00     0.092 N 
HETATM   23  C18 UNL     1      92.328 100.658 -40.353  1.00  0.00     0.275 C 
HETATM   24  C19 UNL     1      93.134 101.739 -39.677  1.00  0.00     0.066 C 
HETATM   25  C20 UNL     1      92.255 102.966 -39.598  1.00  0.00     0.226 C 
HETATM   26  C25 UNL     1      92.048 103.485 -40.990  1.00  0.00     0.066 C 
HETATM   27  C26 UNL     1      92.381 102.418 -41.991  1.00  0.00     0.275 C 
BRANCH  25  28
HETATM   28  N2  UNL     1      92.848 103.947 -38.718  1.00  0.00     0.092 N 
BRANCH  28  29
HETATM   29  C21 UNL     1      93.017 103.424 -37.375  1.00  0.00     0.268 C 
HETATM   30  C22 UNL     1      91.681 103.675 -36.662  1.00  0.00     0.037 C 
ENDBRANCH  28  29
BRANCH  28  31
HETATM   31  C23 UNL     1      94.085 104.476 -39.171  1.00  0.00     0.268 C 
HETATM   32  C24 UNL     1      95.207 104.379 -38.164  1.00  0.00     0.037 C 
ENDBRANCH  28  31
ENDBRANCH  25  28
ENDBRANCH  21  22
ENDBRANCH   7  21
TORSDOF 10
ENDMDL
