MODEL 11
REMARK VINA RESULT: -6.150539186      4.686      7.608
REMARK  10 active torsions:
REMARK  status: ('A' for Active; 'I' for Inactive)
REMARK    1  A    between atoms: C5_5  and  C6_6 
REMARK    2  A    between atoms: C7_7  and  C8_8 
REMARK    3  A    between atoms: C8_8  and  O1_9 
REMARK    4  A    between atoms: O1_9  and  C9_10 
REMARK    5  A    between atoms: C16_17  and  C17_18 
REMARK    6  A    between atoms: C17_18  and  N1_19 
REMARK    7  A    between atoms: C20_22  and  N2_23 
REMARK    8  A    between atoms: N2_23  and  C21_24 
REMARK    9  A    between atoms: N2_23  and  C23_26 
REMARK   10  A    between atoms: C27_30  and  O2_31 
ROOT
HETATM    1  C1  UNL     1      85.658 100.620 -43.346  1.00  0.00     0.018 C 
HETATM    2  C2  UNL     1      86.833 100.358 -43.285  1.00  0.00    -0.075 C 
HETATM    3  C3  UNL     1      88.235 100.065 -43.194  1.00  0.00     0.052 A 
HETATM    4  C4  UNL     1      88.722  98.930 -43.806  1.00  0.00     0.044 A 
HETATM    5  C5  UNL     1      90.062  98.662 -43.711  1.00  0.00     0.019 A 
HETATM    6  C15 UNL     1      90.907  99.535 -43.004  1.00  0.00     0.032 A 
HETATM    7  C16 UNL     1      90.457 100.654 -42.396  1.00  0.00     0.006 A 
HETATM    8  C27 UNL     1      89.079 100.904 -42.508  1.00  0.00     0.092 A 
ENDROOT
BRANCH   8   9
HETATM    9  O2  UNL     1      88.590 102.053 -41.889  1.00  0.00    -0.359 OA
ATOM     10  H2  UNL     1      89.156 102.591 -41.349  1.00  0.00     0.217 HD
ENDBRANCH   8   9
BRANCH   5  11
HETATM   11  C6  UNL     1      90.571  97.484 -44.345  1.00  0.00    -0.065 C 
HETATM   12  C7  UNL     1      90.991  96.477 -44.866  1.00  0.00    -0.074 C 
BRANCH  12  13
HETATM   13  C8  UNL     1      91.489  95.245 -45.477  1.00  0.00     0.269 C 
BRANCH  13  14
HETATM   14  O1  UNL     1      91.141  94.130 -44.682  1.00  0.00    -0.340 OA
BRANCH  14  15
HETATM   15  C9  UNL     1      91.726  93.862 -43.458  1.00  0.00     0.070 A 
HETATM   16  C10 UNL     1      92.860  93.072 -43.478  1.00  0.00     0.037 A 
HETATM   17  C11 UNL     1      93.506  92.756 -42.302  1.00  0.00     0.003 A 
HETATM   18  C12 UNL     1      93.016  93.231 -41.106  1.00  0.00     0.000 A 
HETATM   19  C13 UNL     1      91.885  94.017 -41.102  1.00  0.00     0.003 A 
HETATM   20  C14 UNL     1      91.247  94.330 -42.267  1.00  0.00     0.037 A 
ENDBRANCH  14  15
ENDBRANCH  13  14
ENDBRANCH  12  13
ENDBRANCH   5  11
BRANCH   7  21
HETATM   21  C17 UNL     1      91.321 101.586 -41.650  1.00  0.00     0.313 C 
BRANCH  21  22
HETATM   22  N1  UNL     1      91.548 101.297 -40.276  1.00  0.00     0.092 N 
HETATM   23  C18 UNL     1      91.135 102.422 -39.471  1.00  0.00     0.275 C 
HETATM   24  C19 UNL     1      92.327 102.950 -38.710  1.00  0.00     0.066 C 
HETATM   25  C20 UNL     1      93.418 103.218 -39.720  1.00  0.00     0.226 C 
HETATM   26  C25 UNL     1      93.888 101.900 -40.262  1.00  0.00     0.066 C 
HETATM   27  C26 UNL     1      92.869 100.835 -39.982  1.00  0.00     0.275 C 
BRANCH  25  28
HETATM   28  N2  UNL     1      94.481 103.984 -39.113  1.00  0.00     0.092 N 
BRANCH  28  29
HETATM   29  C21 UNL     1      94.604 103.694 -37.697  1.00  0.00     0.268 C 
HETATM   30  C22 UNL     1      95.654 104.678 -37.162  1.00  0.00     0.037 C 
ENDBRANCH  28  29
BRANCH  28  31
HETATM   31  C23 UNL     1      95.749 103.829 -39.732  1.00  0.00     0.268 C 
HETATM   32  C24 UNL     1      96.042 104.847 -40.809  1.00  0.00     0.037 C 
ENDBRANCH  28  31
ENDBRANCH  25  28
ENDBRANCH  21  22
ENDBRANCH   7  21
TORSDOF 10
ENDMDL
