MODEL 2
REMARK VINA RESULT: -7.608709201      3.260      6.170
REMARK  5 active torsions:
REMARK  status: ('A' for Active; 'I' for Inactive)
REMARK    1  A    between atoms: C7_9  and  N2_10 
REMARK    2  A    between atoms: N2_10  and  C8_12 
REMARK    3  A    between atoms: C12_19  and  O1_20 
REMARK    4  A    between atoms: O1_20  and  C13_21 
REMARK    5  A    between atoms: C13_21  and  C14_22 
ROOT
HETATM    1  C8  UNL     1     -27.416  46.160  11.264  1.00  0.00     0.115 C 
HETATM    2  C9  UNL     1     -28.397  45.839  12.369  1.00  0.00     0.055 C 
HETATM    3  C10 UNL     1     -28.651  44.329  12.306  1.00  0.00     0.234 C 
HETATM    4  N3  UNL     1     -27.395  43.647  12.037  1.00  0.00    -0.073 N 
ATOM      5  H31 UNL     1     -27.307  43.409  11.049  1.00  0.00     0.277 HD
ATOM      6  H32 UNL     1     -27.394  42.705  12.429  1.00  0.00     0.277 HD
HETATM    7  C11 UNL     1     -26.253  44.413  12.500  1.00  0.00     0.266 C 
HETATM    8  C12 UNL     1     -26.061  45.688  11.695  1.00  0.00     0.169 C 
ENDROOT
BRANCH   1   9
HETATM    9  N2  UNL     1     -27.431  47.573  10.916  1.00  0.00    -0.367 N 
ATOM     10  H2  UNL     1     -27.119  48.253  11.610  1.00  0.00     0.161 HD
BRANCH   9  11
HETATM   11  C7  UNL     1     -27.861  48.036   9.653  1.00  0.00     0.129 A 
HETATM   12  N1  UNL     1     -29.183  48.173   9.387  1.00  0.00    -0.351 N 
HETATM   13  C6  UNL     1     -29.596  48.608   8.200  1.00  0.00     0.090 A 
ATOM     14  H1  UNL     1     -29.868  47.941  10.106  1.00  0.00     0.166 HD
HETATM   15  C5  UNL     1     -28.751  48.938   7.191  1.00  0.00     0.031 A 
HETATM   16  C4  UNL     1     -27.395  48.806   7.440  1.00  0.00    -0.004 A 
HETATM   17  C3  UNL     1     -26.469  49.126   6.451  1.00  0.00     0.026 A 
HETATM   18  C20 UNL     1     -26.950  48.354   8.671  1.00  0.00     0.089 A 
HETATM   19  C2  UNL     1     -25.116  49.004   6.673  1.00  0.00     0.007 A 
HETATM   20  C1  UNL     1     -24.186  49.363   5.575  1.00  0.00     0.054 C 
HETATM   21  C21 UNL     1     -24.694  48.555   7.903  1.00  0.00     0.252 A 
HETATM   22  N4  UNL     1     -25.619  48.249   8.847  1.00  0.00    -0.319 N 
HETATM   23  O2  UNL     1     -23.462  48.427   8.147  1.00  0.00    -0.268 OA
ATOM     24  H4  UNL     1     -25.283  47.918   9.751  1.00  0.00     0.169 HD
ENDBRANCH   9  11
ENDBRANCH   1   9
BRANCH   8  25
HETATM   25  O1  UNL     1     -25.186  45.488  10.656  1.00  0.00    -0.382 OA
BRANCH  25  26
HETATM   26  C13 UNL     1     -24.122  44.739  11.084  1.00  0.00     0.172 C 
BRANCH  26  27
HETATM   27  C14 UNL     1     -23.254  44.228   9.958  1.00  0.00     0.009 C 
HETATM   28  C15 UNL     1     -22.096  45.206   9.832  1.00  0.00     0.007 C 
HETATM   29  C16 UNL     1     -20.991  44.646   8.966  1.00  0.00     0.000 C 
HETATM   30  C17 UNL     1     -20.465  43.347   9.481  1.00  0.00     0.000 C 
HETATM   31  C18 UNL     1     -21.345  42.717  10.538  1.00  0.00     0.000 C 
HETATM   32  C19 UNL     1     -22.811  42.818  10.158  1.00  0.00     0.007 C 
ENDBRANCH  26  27
ENDBRANCH  25  26
ENDBRANCH   8  25
TORSDOF 5
ENDMDL
