MODEL 3
REMARK VINA RESULT: -7.519843401      4.344      6.698
REMARK  5 active torsions:
REMARK  status: ('A' for Active; 'I' for Inactive)
REMARK    1  A    between atoms: C7_9  and  N2_10 
REMARK    2  A    between atoms: N2_10  and  C8_12 
REMARK    3  A    between atoms: C12_19  and  O1_20 
REMARK    4  A    between atoms: O1_20  and  C13_21 
REMARK    5  A    between atoms: C13_21  and  C14_22 
ROOT
HETATM    1  C8  UNL     1     -26.589  47.390   9.859  1.00  0.00     0.115 C 
HETATM    2  C9  UNL     1     -27.905  46.646   9.895  1.00  0.00     0.055 C 
HETATM    3  C10 UNL     1     -28.862  47.489  10.744  1.00  0.00     0.234 C 
HETATM    4  N3  UNL     1     -28.670  48.894  10.423  1.00  0.00    -0.073 N 
ATOM      5  H31 UNL     1     -28.073  49.353  11.111  1.00  0.00     0.277 HD
ATOM      6  H32 UNL     1     -29.526  49.429  10.573  1.00  0.00     0.277 HD
HETATM    7  C11 UNL     1     -28.162  49.077   9.077  1.00  0.00     0.266 C 
HETATM    8  C12 UNL     1     -26.741  48.556   8.931  1.00  0.00     0.169 C 
ENDROOT
BRANCH   1   9
HETATM    9  N2  UNL     1     -25.483  46.521   9.487  1.00  0.00    -0.367 N 
ATOM     10  H2  UNL     1     -25.009  46.681   8.598  1.00  0.00     0.161 HD
BRANCH   9  11
HETATM   11  C7  UNL     1     -25.041  45.464  10.313  1.00  0.00     0.129 A 
HETATM   12  N1  UNL     1     -25.834  44.991  11.304  1.00  0.00    -0.351 N 
HETATM   13  C6  UNL     1     -25.426  43.996  12.087  1.00  0.00     0.090 A 
ATOM     14  H1  UNL     1     -26.756  45.403  11.452  1.00  0.00     0.166 HD
HETATM   15  C5  UNL     1     -24.216  43.394  11.958  1.00  0.00     0.031 A 
HETATM   16  C4  UNL     1     -23.388  43.860  10.950  1.00  0.00    -0.004 A 
HETATM   17  C3  UNL     1     -22.133  43.290  10.758  1.00  0.00     0.026 A 
HETATM   18  C20 UNL     1     -23.801  44.896  10.128  1.00  0.00     0.089 A 
HETATM   19  C2  UNL     1     -21.290  43.734   9.765  1.00  0.00     0.007 A 
HETATM   20  C1  UNL     1     -19.968  43.082   9.617  1.00  0.00     0.054 C 
HETATM   21  C21 UNL     1     -21.719  44.764   8.958  1.00  0.00     0.252 A 
HETATM   22  N4  UNL     1     -22.946  45.300   9.169  1.00  0.00    -0.319 N 
HETATM   23  O2  UNL     1     -20.976  45.202   8.035  1.00  0.00    -0.268 OA
ATOM     24  H4  UNL     1     -23.243  46.062   8.559  1.00  0.00     0.169 HD
ENDBRANCH   9  11
ENDBRANCH   1   9
BRANCH   8  25
HETATM   25  O1  UNL     1     -25.824  49.557   9.142  1.00  0.00    -0.382 OA
BRANCH  25  26
HETATM   26  C13 UNL     1     -24.936  49.597   8.100  1.00  0.00     0.172 C 
BRANCH  26  27
HETATM   27  C14 UNL     1     -25.586  49.870   6.764  1.00  0.00     0.009 C 
HETATM   28  C15 UNL     1     -25.126  51.256   6.338  1.00  0.00     0.007 C 
HETATM   29  C16 UNL     1     -25.442  51.521   4.884  1.00  0.00     0.000 C 
HETATM   30  C17 UNL     1     -24.824  50.513   3.973  1.00  0.00     0.000 C 
HETATM   31  C18 UNL     1     -24.308  49.286   4.693  1.00  0.00     0.000 C 
HETATM   32  C19 UNL     1     -25.293  48.818   5.748  1.00  0.00     0.007 C 
ENDBRANCH  26  27
ENDBRANCH  25  26
ENDBRANCH   8  25
TORSDOF 5
ENDMDL
