MODEL 4
REMARK VINA RESULT: -7.417587017      3.354      6.970
REMARK  5 active torsions:
REMARK  status: ('A' for Active; 'I' for Inactive)
REMARK    1  A    between atoms: C7_9  and  N2_10 
REMARK    2  A    between atoms: N2_10  and  C8_12 
REMARK    3  A    between atoms: C12_19  and  O1_20 
REMARK    4  A    between atoms: O1_20  and  C13_21 
REMARK    5  A    between atoms: C13_21  and  C14_22 
ROOT
HETATM    1  C8  UNL     1     -26.957  46.247  11.089  1.00  0.00     0.115 C 
HETATM    2  C9  UNL     1     -27.987  46.065  12.180  1.00  0.00     0.055 C 
HETATM    3  C10 UNL     1     -28.451  44.607  12.107  1.00  0.00     0.234 C 
HETATM    4  N3  UNL     1     -27.301  43.755  11.850  1.00  0.00    -0.073 N 
ATOM      5  H31 UNL     1     -27.235  43.510  10.862  1.00  0.00     0.277 HD
ATOM      6  H32 UNL     1     -27.438  42.821  12.238  1.00  0.00     0.277 HD
HETATM    7  C11 UNL     1     -26.069  44.350  12.330  1.00  0.00     0.266 C 
HETATM    8  C12 UNL     1     -25.688  45.588  11.533  1.00  0.00     0.169 C 
ENDROOT
BRANCH   1   9
HETATM    9  N2  UNL     1     -26.767  47.649  10.747  1.00  0.00    -0.367 N 
ATOM     10  H2  UNL     1     -26.902  48.355  11.471  1.00  0.00     0.161 HD
BRANCH   9  11
HETATM   11  C7  UNL     1     -26.404  48.068   9.448  1.00  0.00     0.129 A 
HETATM   12  N1  UNL     1     -25.102  48.093   9.075  1.00  0.00    -0.351 N 
HETATM   13  C6  UNL     1     -24.751  48.486   7.853  1.00  0.00     0.090 A 
ATOM     14  H1  UNL     1     -24.382  47.806   9.738  1.00  0.00     0.166 HD
HETATM   15  C5  UNL     1     -25.645  48.883   6.912  1.00  0.00     0.031 A 
HETATM   16  C4  UNL     1     -26.982  48.866   7.271  1.00  0.00    -0.004 A 
HETATM   17  C3  UNL     1     -27.956  49.260   6.357  1.00  0.00     0.026 A 
HETATM   18  C20 UNL     1     -27.362  48.459   8.539  1.00  0.00     0.089 A 
HETATM   19  C2  UNL     1     -29.292  49.252   6.688  1.00  0.00     0.007 A 
HETATM   20  C1  UNL     1     -30.274  49.684   5.665  1.00  0.00     0.054 C 
HETATM   21  C21 UNL     1     -29.648  48.844   7.952  1.00  0.00     0.252 A 
HETATM   22  N4  UNL     1     -28.679  48.466   8.822  1.00  0.00    -0.319 N 
HETATM   23  O2  UNL     1     -30.863  48.823   8.297  1.00  0.00    -0.268 OA
ATOM     24  H4  UNL     1     -28.966  48.168   9.754  1.00  0.00     0.169 HD
ENDBRANCH   9  11
ENDBRANCH   1   9
BRANCH   8  25
HETATM   25  O1  UNL     1     -24.837  45.269  10.504  1.00  0.00    -0.382 OA
BRANCH  25  26
HETATM   26  C13 UNL     1     -23.790  44.526  10.982  1.00  0.00     0.172 C 
BRANCH  26  27
HETATM   27  C14 UNL     1     -22.890  43.986   9.895  1.00  0.00     0.009 C 
HETATM   28  C15 UNL     1     -21.801  45.025   9.684  1.00  0.00     0.007 C 
HETATM   29  C16 UNL     1     -20.661  44.473   8.859  1.00  0.00     0.000 C 
HETATM   30  C17 UNL     1     -20.048  43.258   9.474  1.00  0.00     0.000 C 
HETATM   31  C18 UNL     1     -20.884  42.658  10.583  1.00  0.00     0.000 C 
HETATM   32  C19 UNL     1     -22.353  42.629  10.205  1.00  0.00     0.007 C 
ENDBRANCH  26  27
ENDBRANCH  25  26
ENDBRANCH   8  25
TORSDOF 5
ENDMDL
