MODEL 1
REMARK VINA RESULT: -7.949242181      0.000      0.000
REMARK  5 active torsions:
REMARK  status: ('A' for Active; 'I' for Inactive)
REMARK    1  A    between atoms: C7_9  and  N2_10 
REMARK    2  A    between atoms: N2_10  and  C8_12 
REMARK    3  A    between atoms: C12_19  and  O1_20 
REMARK    4  A    between atoms: O1_20  and  C13_21 
REMARK    5  A    between atoms: C13_21  and  C14_22 
ROOT
HETATM    1  C8  UNL     1     -29.640  44.117  13.743  1.00  0.00     0.115 C 
HETATM    2  C9  UNL     1     -29.854  43.780  15.200  1.00  0.00     0.055 C 
HETATM    3  C10 UNL     1     -31.269  44.244  15.556  1.00  0.00     0.234 C 
HETATM    4  N3  UNL     1     -32.164  43.929  14.454  1.00  0.00    -0.073 N 
ATOM      5  H31 UNL     1     -32.326  44.744  13.863  1.00  0.00     0.277 HD
ATOM      6  H32 UNL     1     -33.118  43.777  14.782  1.00  0.00     0.277 HD
HETATM    7  C11 UNL     1     -31.687  42.800  13.677  1.00  0.00     0.266 C 
HETATM    8  C12 UNL     1     -30.411  43.130  12.920  1.00  0.00     0.169 C 
ENDROOT
BRANCH   1   9
HETATM    9  N2  UNL     1     -28.227  44.152  13.393  1.00  0.00    -0.367 N 
ATOM     10  H2  UNL     1     -27.574  43.576  13.925  1.00  0.00     0.161 HD
BRANCH   9  11
HETATM   11  C7  UNL     1     -27.729  44.956  12.344  1.00  0.00     0.129 A 
HETATM   12  N1  UNL     1     -28.491  45.942  11.813  1.00  0.00    -0.351 N 
HETATM   13  C6  UNL     1     -28.029  46.703  10.825  1.00  0.00     0.090 A 
ATOM     14  H1  UNL     1     -29.431  46.103  12.176  1.00  0.00     0.166 HD
HETATM   15  C5  UNL     1     -26.792  46.555  10.286  1.00  0.00     0.031 A 
HETATM   16  C4  UNL     1     -25.994  45.554  10.813  1.00  0.00    -0.004 A 
HETATM   17  C3  UNL     1     -24.713  45.344  10.309  1.00  0.00     0.026 A 
HETATM   18  C20 UNL     1     -26.463  44.754  11.842  1.00  0.00     0.089 A 
HETATM   19  C2  UNL     1     -23.900  44.355  10.815  1.00  0.00     0.007 A 
HETATM   20  C1  UNL     1     -22.547  44.188  10.231  1.00  0.00     0.054 C 
HETATM   21  C21 UNL     1     -24.383  43.572  11.838  1.00  0.00     0.252 A 
HETATM   22  N4  UNL     1     -25.635  43.799  12.308  1.00  0.00    -0.319 N 
HETATM   23  O2  UNL     1     -23.669  42.654  12.329  1.00  0.00    -0.268 OA
ATOM     24  H4  UNL     1     -25.972  43.206  13.065  1.00  0.00     0.169 HD
ENDBRANCH   9  11
ENDBRANCH   1   9
BRANCH   8  25
HETATM   25  O1  UNL     1     -30.689  43.565  11.648  1.00  0.00    -0.382 OA
BRANCH  25  26
HETATM   26  C13 UNL     1     -31.014  42.497  10.854  1.00  0.00     0.172 C 
BRANCH  26  27
HETATM   27  C14 UNL     1     -29.989  42.209   9.782  1.00  0.00     0.009 C 
HETATM   28  C15 UNL     1     -30.757  41.647   8.596  1.00  0.00     0.007 C 
HETATM   29  C16 UNL     1     -29.903  41.617   7.349  1.00  0.00     0.000 C 
HETATM   30  C17 UNL     1     -29.381  42.967   6.982  1.00  0.00     0.000 C 
HETATM   31  C18 UNL     1     -29.533  43.991   8.085  1.00  0.00     0.000 C 
HETATM   32  C19 UNL     1     -29.162  43.401   9.433  1.00  0.00     0.007 C 
ENDBRANCH  26  27
ENDBRANCH  25  26
ENDBRANCH   8  25
TORSDOF 5
ENDMDL
