MODEL 13
REMARK VINA RESULT: -7.755223579      2.037      6.809
REMARK  7 active torsions:
REMARK  status: ('A' for Active; 'I' for Inactive)
REMARK    1  A    between atoms: C5_5  and  O1_6 
REMARK    2  A    between atoms: O1_6  and  C6_7 
REMARK    3  A    between atoms: C6_7  and  C7_8 
REMARK    4  A    between atoms: C7_8  and  O2_9 
REMARK    5  A    between atoms: C7_8  and  C8_11 
REMARK    6  A    between atoms: C8_11  and  N1_12 
REMARK    7  A    between atoms: N1_12  and  C9_14 
ROOT
HETATM    1  C1  UNL     1      24.237  57.683  17.651  1.00  0.00     0.050 C 
HETATM    2  C2  UNL     1      24.215  56.805  16.434  1.00  0.00    -0.034 A 
HETATM    3  C3  UNL     1      24.448  57.326  15.184  1.00  0.00     0.012 A 
HETATM    4  C4  UNL     1      24.427  56.504  14.046  1.00  0.00     0.038 A 
HETATM    5  C5  UNL     1      24.175  55.165  14.117  1.00  0.00     0.081 A 
HETATM    6  C13 UNL     1      23.943  54.672  15.413  1.00  0.00     0.027 A 
HETATM    7  C14 UNL     1      23.665  53.351  15.770  1.00  0.00     0.057 A 
HETATM    8  C15 UNL     1      23.520  53.390  17.139  1.00  0.00     0.115 A 
HETATM    9  C16 UNL     1      23.224  52.288  18.028  1.00  0.00     0.117 C 
HETATM   10  N2  UNL     1      22.969  51.410  18.753  1.00  0.00    -0.190 NA
HETATM   11  N3  UNL     1      23.704  54.671  17.569  1.00  0.00    -0.346 N 
ATOM     12  H3  UNL     1      23.651  54.978  18.540  1.00  0.00     0.167 HD
HETATM   13  C17 UNL     1      23.961  55.460  16.530  1.00  0.00     0.052 A 
ENDROOT
BRANCH   5  14
HETATM   14  O1  UNL     1      24.148  54.336  13.048  1.00  0.00    -0.347 OA
BRANCH  14  15
HETATM   15  C6  UNL     1      25.100  54.152  12.094  1.00  0.00     0.213 C 
BRANCH  15  16
HETATM   16  C7  UNL     1      25.026  55.011  10.854  1.00  0.00     0.180 C 
BRANCH  16  17
HETATM   17  O2  UNL     1      25.563  54.191   9.825  1.00  0.00    -0.388 OA
ATOM     18  H2  UNL     1      25.755  54.796   9.118  1.00  0.00     0.210 HD
ENDBRANCH  16  17
BRANCH  16  19
HETATM   19  C8  UNL     1      23.557  55.206  10.437  1.00  0.00     0.089 C 
BRANCH  19  20
HETATM   20  N1  UNL     1      22.912  56.300  11.017  1.00  0.00    -0.392 N 
ATOM     21  H1  UNL     1      22.334  56.141  11.842  1.00  0.00     0.159 HD
BRANCH  20  22
HETATM   22  C9  UNL     1      23.021  57.599  10.523  1.00  0.00     0.018 C 
HETATM   23  C10 UNL     1      21.907  57.750   9.460  1.00  0.00     0.037 C 
HETATM   24  C11 UNL     1      24.307  57.964   9.822  1.00  0.00     0.037 C 
HETATM   25  C12 UNL     1      22.729  58.707  11.509  1.00  0.00     0.037 C 
ENDBRANCH  20  22
ENDBRANCH  19  20
ENDBRANCH  16  19
ENDBRANCH  15  16
ENDBRANCH  14  15
ENDBRANCH   5  14
TORSDOF 7
ENDMDL
