MODEL 12
REMARK VINA RESULT: -7.797618470      3.148      9.206
REMARK  7 active torsions:
REMARK  status: ('A' for Active; 'I' for Inactive)
REMARK    1  A    between atoms: C5_5  and  O1_6 
REMARK    2  A    between atoms: O1_6  and  C6_7 
REMARK    3  A    between atoms: C6_7  and  C7_8 
REMARK    4  A    between atoms: C7_8  and  O2_9 
REMARK    5  A    between atoms: C7_8  and  C8_11 
REMARK    6  A    between atoms: C8_11  and  N1_12 
REMARK    7  A    between atoms: N1_12  and  C9_14 
ROOT
HETATM    1  C1  UNL     1      25.704  47.912  20.574  1.00  0.00     0.050 C 
HETATM    2  C2  UNL     1      25.043  49.113  19.962  1.00  0.00    -0.034 A 
HETATM    3  C3  UNL     1      24.856  49.200  18.604  1.00  0.00     0.012 A 
HETATM    4  C4  UNL     1      24.238  50.324  18.033  1.00  0.00     0.038 A 
HETATM    5  C5  UNL     1      23.797  51.374  18.783  1.00  0.00     0.081 A 
HETATM    6  C13 UNL     1      24.006  51.245  20.167  1.00  0.00     0.027 A 
HETATM    7  C14 UNL     1      23.653  52.165  21.157  1.00  0.00     0.057 A 
HETATM    8  C15 UNL     1      24.068  51.578  22.332  1.00  0.00     0.115 A 
HETATM    9  C16 UNL     1      23.947  52.104  23.674  1.00  0.00     0.117 C 
HETATM   10  N2  UNL     1      23.869  52.525  24.760  1.00  0.00    -0.190 NA
HETATM   11  N3  UNL     1      24.638  50.371  22.049  1.00  0.00    -0.346 N 
ATOM     12  H3  UNL     1      25.029  49.730  22.739  1.00  0.00     0.167 HD
HETATM   13  C17 UNL     1      24.606  50.158  20.737  1.00  0.00     0.052 A 
ENDROOT
BRANCH   5  14
HETATM   14  O1  UNL     1      23.193  52.474  18.275  1.00  0.00    -0.347 OA
BRANCH  14  15
HETATM   15  C6  UNL     1      23.192  52.924  16.992  1.00  0.00     0.213 C 
BRANCH  15  16
HETATM   16  C7  UNL     1      22.902  54.388  16.762  1.00  0.00     0.180 C 
BRANCH  16  17
HETATM   17  O2  UNL     1      23.858  55.067  17.564  1.00  0.00    -0.388 OA
ATOM     18  H2  UNL     1      23.766  54.672  18.424  1.00  0.00     0.210 HD
ENDBRANCH  16  17
BRANCH  16  19
HETATM   19  C8  UNL     1      23.288  54.779  15.323  1.00  0.00     0.089 C 
BRANCH  19  20
HETATM   20  N1  UNL     1      23.003  56.097  14.966  1.00  0.00    -0.392 N 
ATOM     21  H1  UNL     1      22.070  56.461  15.159  1.00  0.00     0.159 HD
BRANCH  20  22
HETATM   22  C9  UNL     1      23.931  56.941  14.359  1.00  0.00     0.018 C 
HETATM   23  C10 UNL     1      23.113  58.069  13.687  1.00  0.00     0.037 C 
HETATM   24  C11 UNL     1      24.787  56.350  13.264  1.00  0.00     0.037 C 
HETATM   25  C12 UNL     1      24.863  57.680  15.292  1.00  0.00     0.037 C 
ENDBRANCH  20  22
ENDBRANCH  19  20
ENDBRANCH  16  19
ENDBRANCH  15  16
ENDBRANCH  14  15
ENDBRANCH   5  14
TORSDOF 7
ENDMDL
