MODEL 2
REMARK VINA RESULT: -9.291503108      0.477      1.038
REMARK  7 active torsions:
REMARK  status: ('A' for Active; 'I' for Inactive)
REMARK    1  A    between atoms: C5_5  and  O1_6 
REMARK    2  A    between atoms: O1_6  and  C6_7 
REMARK    3  A    between atoms: C6_7  and  C7_8 
REMARK    4  A    between atoms: C7_8  and  O2_9 
REMARK    5  A    between atoms: C7_8  and  C8_11 
REMARK    6  A    between atoms: C8_11  and  N1_12 
REMARK    7  A    between atoms: N1_12  and  C9_14 
ROOT
HETATM    1  C1  UNL     1      22.669  57.791   9.496  1.00  0.00     0.050 C 
HETATM    2  C2  UNL     1      23.141  57.460  10.882  1.00  0.00    -0.034 A 
HETATM    3  C3  UNL     1      23.041  58.377  11.900  1.00  0.00     0.012 A 
HETATM    4  C4  UNL     1      23.483  58.065  13.195  1.00  0.00     0.038 A 
HETATM    5  C5  UNL     1      24.029  56.855  13.510  1.00  0.00     0.081 A 
HETATM    6  C13 UNL     1      24.112  55.945  12.441  1.00  0.00     0.027 A 
HETATM    7  C14 UNL     1      24.623  54.647  12.483  1.00  0.00     0.057 A 
HETATM    8  C15 UNL     1      24.481  54.181  11.195  1.00  0.00     0.115 A 
HETATM    9  C16 UNL     1      24.852  52.881  10.679  1.00  0.00     0.117 C 
HETATM   10  N2  UNL     1      25.161  51.842  10.248  1.00  0.00    -0.190 NA
HETATM   11  N3  UNL     1      23.915  55.158  10.430  1.00  0.00    -0.346 N 
ATOM     12  H3  UNL     1      23.699  55.074   9.436  1.00  0.00     0.167 HD
HETATM   13  C17 UNL     1      23.686  56.234  11.175  1.00  0.00     0.052 A 
ENDROOT
BRANCH   5  14
HETATM   14  O1  UNL     1      24.465  56.511  14.744  1.00  0.00    -0.347 OA
BRANCH  14  15
HETATM   15  C6  UNL     1      23.756  56.439  15.902  1.00  0.00     0.213 C 
BRANCH  15  16
HETATM   16  C7  UNL     1      24.256  55.499  16.973  1.00  0.00     0.180 C 
BRANCH  16  17
HETATM   17  O2  UNL     1      23.926  56.149  18.194  1.00  0.00    -0.388 OA
ATOM     18  H2  UNL     1      23.942  55.454  18.842  1.00  0.00     0.210 HD
ENDBRANCH  16  17
BRANCH  16  19
HETATM   19  C8  UNL     1      23.396  54.222  16.995  1.00  0.00     0.089 C 
BRANCH  19  20
HETATM   20  N1  UNL     1      23.113  53.714  18.263  1.00  0.00    -0.392 N 
ATOM     21  H1  UNL     1      22.858  54.369  19.003  1.00  0.00     0.159 HD
BRANCH  20  22
HETATM   22  C9  UNL     1      23.162  52.355  18.569  1.00  0.00     0.018 C 
HETATM   23  C10 UNL     1      21.772  51.782  18.207  1.00  0.00     0.037 C 
HETATM   24  C11 UNL     1      23.394  51.982  20.014  1.00  0.00     0.037 C 
HETATM   25  C12 UNL     1      24.119  51.526  17.743  1.00  0.00     0.037 C 
ENDBRANCH  20  22
ENDBRANCH  19  20
ENDBRANCH  16  19
ENDBRANCH  15  16
ENDBRANCH  14  15
ENDBRANCH   5  14
TORSDOF 7
ENDMDL
