MODEL 1
REMARK VINA RESULT: -9.364410586      0.000      0.000
REMARK  7 active torsions:
REMARK  status: ('A' for Active; 'I' for Inactive)
REMARK    1  A    between atoms: C5_5  and  O1_6 
REMARK    2  A    between atoms: O1_6  and  C6_7 
REMARK    3  A    between atoms: C6_7  and  C7_8 
REMARK    4  A    between atoms: C7_8  and  O2_9 
REMARK    5  A    between atoms: C7_8  and  C8_11 
REMARK    6  A    between atoms: C8_11  and  N1_12 
REMARK    7  A    between atoms: N1_12  and  C9_14 
ROOT
HETATM    1  C1  UNL     1      22.300  57.523   9.485  1.00  0.00     0.050 C 
HETATM    2  C2  UNL     1      22.906  57.385  10.851  1.00  0.00    -0.034 A 
HETATM    3  C3  UNL     1      22.822  58.406  11.767  1.00  0.00     0.012 A 
HETATM    4  C4  UNL     1      23.390  58.275  13.044  1.00  0.00     0.038 A 
HETATM    5  C5  UNL     1      24.048  57.148  13.439  1.00  0.00     0.081 A 
HETATM    6  C13 UNL     1      24.111  56.128  12.473  1.00  0.00     0.027 A 
HETATM    7  C14 UNL     1      24.719  54.878  12.613  1.00  0.00     0.057 A 
HETATM    8  C15 UNL     1      24.507  54.258  11.401  1.00  0.00     0.115 A 
HETATM    9  C16 UNL     1      24.930  52.934  11.000  1.00  0.00     0.117 C 
HETATM   10  N2  UNL     1      25.280  51.874  10.660  1.00  0.00    -0.190 NA
HETATM   11  N3  UNL     1      23.810  55.101  10.587  1.00  0.00    -0.346 N 
ATOM     12  H3  UNL     1      23.521  54.890   9.631  1.00  0.00     0.167 HD
HETATM   13  C17 UNL     1      23.563  56.240  11.226  1.00  0.00     0.052 A 
ENDROOT
BRANCH   5  14
HETATM   14  O1  UNL     1      24.607  56.978  14.660  1.00  0.00    -0.347 OA
BRANCH  14  15
HETATM   15  C6  UNL     1      24.012  57.046  15.880  1.00  0.00     0.213 C 
BRANCH  15  16
HETATM   16  C7  UNL     1      24.439  56.045  16.927  1.00  0.00     0.180 C 
BRANCH  16  17
HETATM   17  O2  UNL     1      24.069  56.645  18.161  1.00  0.00    -0.388 OA
ATOM     18  H2  UNL     1      23.960  55.912  18.756  1.00  0.00     0.210 HD
ENDBRANCH  16  17
BRANCH  16  19
HETATM   19  C8  UNL     1      23.547  54.791  16.848  1.00  0.00     0.089 C 
BRANCH  19  20
HETATM   20  N1  UNL     1      23.372  54.107  18.052  1.00  0.00    -0.392 N 
ATOM     21  H1  UNL     1      23.516  54.616  18.925  1.00  0.00     0.159 HD
BRANCH  20  22
HETATM   22  C9  UNL     1      23.010  52.763  18.120  1.00  0.00     0.018 C 
HETATM   23  C10 UNL     1      24.109  51.982  17.362  1.00  0.00     0.037 C 
HETATM   24  C11 UNL     1      21.706  52.367  17.469  1.00  0.00     0.037 C 
HETATM   25  C12 UNL     1      23.017  52.145  19.500  1.00  0.00     0.037 C 
ENDBRANCH  20  22
ENDBRANCH  19  20
ENDBRANCH  16  19
ENDBRANCH  15  16
ENDBRANCH  14  15
ENDBRANCH   5  14
TORSDOF 7
ENDMDL
