MODEL 11
REMARK VINA RESULT: -7.807478262      5.117      9.771
REMARK  7 active torsions:
REMARK  status: ('A' for Active; 'I' for Inactive)
REMARK    1  A    between atoms: C5_5  and  O1_6 
REMARK    2  A    between atoms: O1_6  and  C6_7 
REMARK    3  A    between atoms: C6_7  and  C7_8 
REMARK    4  A    between atoms: C7_8  and  O2_9 
REMARK    5  A    between atoms: C7_8  and  C8_11 
REMARK    6  A    between atoms: C8_11  and  N1_12 
REMARK    7  A    between atoms: N1_12  and  C9_14 
ROOT
HETATM    1  C1  UNL     1      26.916  46.218  22.474  1.00  0.00     0.050 C 
HETATM    2  C2  UNL     1      26.065  47.004  21.520  1.00  0.00    -0.034 A 
HETATM    3  C3  UNL     1      24.987  47.729  21.968  1.00  0.00     0.012 A 
HETATM    4  C4  UNL     1      24.192  48.463  21.074  1.00  0.00     0.038 A 
HETATM    5  C5  UNL     1      24.440  48.496  19.733  1.00  0.00     0.081 A 
HETATM    6  C13 UNL     1      25.552  47.742  19.316  1.00  0.00     0.027 A 
HETATM    7  C14 UNL     1      26.028  47.602  18.011  1.00  0.00     0.057 A 
HETATM    8  C15 UNL     1      27.121  46.774  18.133  1.00  0.00     0.115 A 
HETATM    9  C16 UNL     1      27.994  46.301  17.080  1.00  0.00     0.117 C 
HETATM   10  N2  UNL     1      28.694  45.900  16.237  1.00  0.00    -0.190 NA
HETATM   11  N3  UNL     1      27.282  46.441  19.445  1.00  0.00    -0.346 N 
ATOM     12  H3  UNL     1      28.018  45.837  19.812  1.00  0.00     0.167 HD
HETATM   13  C17 UNL     1      26.335  47.022  20.174  1.00  0.00     0.052 A 
ENDROOT
BRANCH   5  14
HETATM   14  O1  UNL     1      23.703  49.192  18.837  1.00  0.00    -0.347 OA
BRANCH  14  15
HETATM   15  C6  UNL     1      23.791  50.508  18.508  1.00  0.00     0.213 C 
BRANCH  15  16
HETATM   16  C7  UNL     1      22.900  51.478  19.248  1.00  0.00     0.180 C 
BRANCH  16  17
HETATM   17  O2  UNL     1      23.796  52.241  20.045  1.00  0.00    -0.388 OA
ATOM     18  H2  UNL     1      24.020  51.663  20.766  1.00  0.00     0.210 HD
ENDBRANCH  16  17
BRANCH  16  19
HETATM   19  C8  UNL     1      22.316  52.509  18.265  1.00  0.00     0.089 C 
BRANCH  19  20
HETATM   20  N1  UNL     1      23.079  53.664  18.089  1.00  0.00    -0.392 N 
ATOM     21  H1  UNL     1      23.415  54.155  18.917  1.00  0.00     0.159 HD
BRANCH  20  22
HETATM   22  C9  UNL     1      23.405  54.179  16.835  1.00  0.00     0.018 C 
HETATM   23  C10 UNL     1      22.067  54.343  16.076  1.00  0.00     0.037 C 
HETATM   24  C11 UNL     1      24.277  53.325  15.945  1.00  0.00     0.037 C 
HETATM   25  C12 UNL     1      23.997  55.569  16.824  1.00  0.00     0.037 C 
ENDBRANCH  20  22
ENDBRANCH  19  20
ENDBRANCH  16  19
ENDBRANCH  15  16
ENDBRANCH  14  15
ENDBRANCH   5  14
TORSDOF 7
ENDMDL
