MODEL 2
REMARK VINA RESULT: -9.012683654      2.362      3.309
REMARK  1 active torsions:
REMARK  status: ('A' for Active; 'I' for Inactive)
REMARK    1  A    between atoms: C15_24  and  O2_25 
ROOT
HETATM    1  C1  UNL     1      34.741  45.637  11.295  1.00  0.00     0.045 C 
HETATM    2  C2  UNL     1      34.154  46.032   9.984  1.00  0.00     0.159 C 
HETATM    3  O1  UNL     1      35.220  46.405   9.049  1.00  0.00    -0.338 OA
HETATM    4  C3  UNL     1      34.844  47.051   7.831  1.00  0.00     0.111 A 
HETATM    5  C4  UNL     1      34.109  48.209   7.771  1.00  0.00     0.054 A 
HETATM    6  C5  UNL     1      33.771  48.640   6.523  1.00  0.00    -0.003 A 
HETATM    7  C6  UNL     1      34.202  47.938   5.385  1.00  0.00     0.102 A 
HETATM    8  N1  UNL     1      34.940  46.820   5.439  1.00  0.00    -0.351 N 
ATOM      9  H1  UNL     1      35.249  46.327   4.601  1.00  0.00     0.166 HD
HETATM   10  C7  UNL     1      35.249  46.389   6.693  1.00  0.00     0.149 A 
HETATM   11  N2  UNL     1      36.058  45.192   6.686  1.00  0.00    -0.080 NA
HETATM   12  C8  UNL     1      32.664  49.601   6.204  1.00  0.00     0.040 A 
HETATM   13  C9  UNL     1      31.478  49.583   6.950  1.00  0.00     0.058 A 
HETATM   14  N3  UNL     1      30.673  50.492   6.433  1.00  0.00    -0.299 N 
ATOM     15  H3  UNL     1      29.735  50.701   6.775  1.00  0.00     0.187 HD
HETATM   16  N4  UNL     1      31.256  51.095   5.402  1.00  0.00    -0.286 N 
HETATM   17  C10 UNL     1      30.725  52.148   4.558  1.00  0.00     0.179 C 
HETATM   18  C11 UNL     1      32.491  50.557   5.245  1.00  0.00     0.143 A 
HETATM   19  C12 UNL     1      33.499  50.883   4.243  1.00  0.00     0.120 C 
HETATM   20  N5  UNL     1      34.289  51.156   3.441  1.00  0.00    -0.190 NA
HETATM   21  C13 UNL     1      31.272  48.642   8.117  1.00  0.00     0.183 C 
HETATM   22  N6  UNL     1      31.126  47.262   7.675  1.00  0.00    -0.360 N 
HETATM   23  C14 UNL     1      30.628  47.303   6.228  1.00  0.00     0.152 C 
HETATM   24  C15 UNL     1      31.255  46.016   8.252  1.00  0.00     0.149 C 
HETATM   25  C16 UNL     1      32.182  44.955   8.666  1.00  0.00     0.024 A 
HETATM   26  C17 UNL     1      31.755  43.630   8.233  1.00  0.00     0.019 A 
HETATM   27  C18 UNL     1      32.395  42.471   8.446  1.00  0.00     0.043 A 
HETATM   28  C19 UNL     1      33.580  42.507   9.143  1.00  0.00     0.117 A 
HETATM   29  F1  UNL     1      34.227  41.345   9.354  1.00  0.00    -0.206 F 
HETATM   30  C20 UNL     1      34.026  43.721   9.574  1.00  0.00     0.053 A 
HETATM   31  C21 UNL     1      33.337  44.940   9.341  1.00  0.00    -0.012 A 
ENDROOT
BRANCH  24  32
HETATM   32  O2  UNL     1      29.995  45.557   8.577  1.00  0.00    -0.346 OA
ATOM     33  H2  UNL     1      30.073  44.978   9.326  1.00  0.00     0.219 HD
ENDBRANCH  24  32
TORSDOF 1
ENDMDL
