MODEL 5
REMARK VINA RESULT: -8.577127108      3.120      5.024
REMARK  1 active torsions:
REMARK  status: ('A' for Active; 'I' for Inactive)
REMARK    1  A    between atoms: C15_24  and  O2_25 
ROOT
HETATM    1  C1  UNL     1      38.378  47.692   8.110  1.00  0.00     0.045 C 
HETATM    2  C2  UNL     1      37.180  46.853   7.828  1.00  0.00     0.159 C 
HETATM    3  O1  UNL     1      36.103  47.686   7.283  1.00  0.00    -0.338 OA
HETATM    4  C3  UNL     1      34.797  47.112   7.188  1.00  0.00     0.111 A 
HETATM    5  C4  UNL     1      34.116  46.573   8.253  1.00  0.00     0.054 A 
HETATM    6  C5  UNL     1      32.917  45.994   7.965  1.00  0.00    -0.003 A 
HETATM    7  C6  UNL     1      32.417  46.002   6.651  1.00  0.00     0.102 A 
HETATM    8  N1  UNL     1      33.068  46.548   5.615  1.00  0.00    -0.351 N 
ATOM      9  H1  UNL     1      32.686  46.550   4.668  1.00  0.00     0.166 HD
HETATM   10  C7  UNL     1      34.276  47.101   5.914  1.00  0.00     0.149 A 
HETATM   11  N2  UNL     1      34.921  47.687   4.760  1.00  0.00    -0.080 NA
HETATM   12  C8  UNL     1      32.198  45.003   8.832  1.00  0.00     0.040 A 
HETATM   13  C9  UNL     1      32.921  44.062   9.578  1.00  0.00     0.058 A 
HETATM   14  N3  UNL     1      32.047  43.301  10.207  1.00  0.00    -0.299 N 
ATOM     15  H3  UNL     1      32.288  42.528  10.827  1.00  0.00     0.187 HD
HETATM   16  N4  UNL     1      30.807  43.684   9.919  1.00  0.00    -0.286 N 
HETATM   17  C10 UNL     1      29.558  43.120  10.395  1.00  0.00     0.179 C 
HETATM   18  C11 UNL     1      30.880  44.738   9.069  1.00  0.00     0.143 A 
HETATM   19  C12 UNL     1      29.786  45.490   8.465  1.00  0.00     0.120 C 
HETATM   20  N5  UNL     1      28.906  46.077   7.995  1.00  0.00    -0.190 NA
HETATM   21  C13 UNL     1      34.434  44.024   9.577  1.00  0.00     0.183 C 
HETATM   22  N6  UNL     1      34.959  43.557   8.302  1.00  0.00    -0.360 N 
HETATM   23  C14 UNL     1      33.864  42.714   7.645  1.00  0.00     0.152 C 
HETATM   24  C15 UNL     1      36.165  43.638   7.636  1.00  0.00     0.149 C 
HETATM   25  C16 UNL     1      37.039  44.466   6.795  1.00  0.00     0.024 A 
HETATM   26  C17 UNL     1      37.569  43.743   5.646  1.00  0.00     0.019 A 
HETATM   27  C18 UNL     1      38.380  44.230   4.695  1.00  0.00     0.043 A 
HETATM   28  C19 UNL     1      38.768  45.546   4.791  1.00  0.00     0.117 A 
HETATM   29  F1  UNL     1      39.578  46.038   3.835  1.00  0.00    -0.206 F 
HETATM   30  C20 UNL     1      38.304  46.269   5.848  1.00  0.00     0.053 A 
HETATM   31  C21 UNL     1      37.445  45.740   6.848  1.00  0.00    -0.012 A 
ENDROOT
BRANCH  24  32
HETATM   32  O2  UNL     1      36.841  42.450   7.820  1.00  0.00    -0.346 OA
ATOM     33  H2  UNL     1      37.577  42.613   8.399  1.00  0.00     0.219 HD
ENDBRANCH  24  32
TORSDOF 1
ENDMDL
