MODEL 3
REMARK VINA RESULT: -8.899578335      2.967      5.147
REMARK  1 active torsions:
REMARK  status: ('A' for Active; 'I' for Inactive)
REMARK    1  A    between atoms: C15_24  and  O2_25 
ROOT
HETATM    1  C1  UNL     1      36.435  45.910   4.355  1.00  0.00     0.045 C 
HETATM    2  C2  UNL     1      35.467  46.188   5.451  1.00  0.00     0.159 C 
HETATM    3  O1  UNL     1      35.415  45.051   6.376  1.00  0.00    -0.338 OA
HETATM    4  C3  UNL     1      34.365  45.024   7.344  1.00  0.00     0.111 A 
HETATM    5  C4  UNL     1      33.029  45.090   7.031  1.00  0.00     0.054 A 
HETATM    6  C5  UNL     1      32.168  45.136   8.086  1.00  0.00    -0.003 A 
HETATM    7  C6  UNL     1      32.651  45.077   9.404  1.00  0.00     0.102 A 
HETATM    8  N1  UNL     1      33.953  44.989   9.713  1.00  0.00    -0.351 N 
ATOM      9  H1  UNL     1      34.284  44.941  10.678  1.00  0.00     0.166 HD
HETATM   10  C7  UNL     1      34.801  44.968   8.650  1.00  0.00     0.149 A 
HETATM   11  N2  UNL     1      36.187  44.857   9.046  1.00  0.00    -0.080 NA
HETATM   12  C8  UNL     1      30.748  45.614   8.030  1.00  0.00     0.040 A 
HETATM   13  C9  UNL     1      30.393  46.675   7.184  1.00  0.00     0.058 A 
HETATM   14  N3  UNL     1      29.108  46.911   7.365  1.00  0.00    -0.299 N 
ATOM     15  H3  UNL     1      28.574  47.631   6.879  1.00  0.00     0.187 HD
HETATM   16  N4  UNL     1      28.606  46.077   8.271  1.00  0.00    -0.286 N 
HETATM   17  C10 UNL     1      27.244  45.995   8.761  1.00  0.00     0.179 C 
HETATM   18  C11 UNL     1      29.606  45.265   8.694  1.00  0.00     0.143 A 
HETATM   19  C12 UNL     1      29.548  44.201   9.689  1.00  0.00     0.120 C 
HETATM   20  N5  UNL     1      29.484  43.357  10.479  1.00  0.00    -0.190 NA
HETATM   21  C13 UNL     1      31.396  47.351   6.275  1.00  0.00     0.183 C 
HETATM   22  N6  UNL     1      32.353  48.147   7.028  1.00  0.00    -0.360 N 
HETATM   23  C14 UNL     1      31.686  48.520   8.354  1.00  0.00     0.152 C 
HETATM   24  C15 UNL     1      33.610  48.667   6.798  1.00  0.00     0.149 C 
HETATM   25  C16 UNL     1      35.054  48.397   6.769  1.00  0.00     0.024 A 
HETATM   26  C17 UNL     1      35.833  49.410   7.469  1.00  0.00     0.019 A 
HETATM   27  C18 UNL     1      37.166  49.433   7.625  1.00  0.00     0.043 A 
HETATM   28  C19 UNL     1      37.896  48.405   7.077  1.00  0.00     0.117 A 
HETATM   29  F1  UNL     1      39.233  48.423   7.237  1.00  0.00    -0.206 F 
HETATM   30  C20 UNL     1      37.218  47.430   6.409  1.00  0.00     0.053 A 
HETATM   31  C21 UNL     1      35.807  47.419   6.251  1.00  0.00    -0.012 A 
ENDROOT
BRANCH  24  32
HETATM   32  O2  UNL     1      33.474  49.997   6.461  1.00  0.00    -0.346 OA
ATOM     33  H2  UNL     1      34.333  50.340   6.247  1.00  0.00     0.219 HD
ENDBRANCH  24  32
TORSDOF 1
ENDMDL
