MODEL 8
REMARK VINA RESULT: -7.867251337      6.388      9.223
REMARK  4 active torsions:
REMARK  status: ('A' for Active; 'I' for Inactive)
REMARK    1  A    between atoms: O1_1  and  C1_3 
REMARK    2  A    between atoms: C1_3  and  N2_11 
REMARK    3  A    between atoms: C2_4  and  N1_5 
REMARK    4  A    between atoms: N2_11  and  N3_13 
ROOT
HETATM    1  N3  UNL     1      -8.054  -8.483  14.603  1.00  0.00    -0.252 N 
HETATM    2  C8  UNL     1      -8.477  -9.425  13.639  1.00  0.00     0.074 A 
HETATM    3  C9  UNL     1      -8.452 -10.772  13.930  1.00  0.00     0.033 A 
HETATM    4  C10 UNL     1      -8.857 -11.744  13.030  1.00  0.00     0.002 A 
HETATM    5  C11 UNL     1      -9.307 -11.371  11.785  1.00  0.00     0.002 A 
HETATM    6  C12 UNL     1      -9.327 -10.024  11.509  1.00  0.00     0.021 A 
HETATM    7  C13 UNL     1      -8.933  -9.071  12.386  1.00  0.00     0.034 A 
HETATM    8  S1  UNL     1      -9.003  -7.350  11.912  1.00  0.00    -0.086 SA
HETATM    9  C14 UNL     1      -8.422  -6.419  13.330  1.00  0.00     0.034 A 
HETATM   10  C15 UNL     1      -8.390  -5.055  13.234  1.00  0.00     0.021 A 
HETATM   11  C16 UNL     1      -7.955  -4.268  14.283  1.00  0.00     0.002 A 
HETATM   12  C17 UNL     1      -7.560  -4.936  15.421  1.00  0.00     0.002 A 
HETATM   13  C18 UNL     1      -7.588  -6.304  15.526  1.00  0.00     0.033 A 
HETATM   14  C19 UNL     1      -8.031  -7.090  14.455  1.00  0.00     0.074 A 
ENDROOT
BRANCH   1  15
HETATM   15  N2  UNL     1      -7.561  -9.025  15.828  1.00  0.00    -0.272 N 
ATOM     16  H2  UNL     1      -8.204  -9.510  16.455  1.00  0.00     0.189 HD
BRANCH  15  17
HETATM   17  C1  UNL     1      -6.212  -8.903  16.185  1.00  0.00     0.170 C 
HETATM   18  C2  UNL     1      -5.048  -8.944  15.342  1.00  0.00     0.143 C 
BRANCH  17  19
HETATM   19  O1  UNL     1      -6.036  -8.725  17.468  1.00  0.00    -0.344 OA
ATOM     20  H1  UNL     1      -6.678  -8.206  17.939  1.00  0.00     0.219 HD
ENDBRANCH  17  19
BRANCH  18  21
HETATM   21  N1  UNL     1      -5.124  -9.149  13.958  1.00  0.00    -0.386 N 
HETATM   22  C3  UNL     1      -4.620  -8.109  13.100  1.00  0.00     0.122 C 
HETATM   23  C4  UNL     1      -5.446  -8.201  11.805  1.00  0.00     0.020 C 
HETATM   24  C5  UNL     1      -5.168  -9.530  11.184  1.00  0.00     0.003 C 
HETATM   25  C6  UNL     1      -5.312 -10.709  12.101  1.00  0.00     0.020 C 
HETATM   26  C7  UNL     1      -4.760 -10.448  13.491  1.00  0.00     0.122 C 
ENDBRANCH  18  21
ENDBRANCH  15  17
ENDBRANCH   1  15
TORSDOF 4
ENDMDL
