MODEL 1
REMARK VINA RESULT: -8.295160810      0.000      0.000
REMARK  4 active torsions:
REMARK  status: ('A' for Active; 'I' for Inactive)
REMARK    1  A    between atoms: O1_1  and  C1_3 
REMARK    2  A    between atoms: C1_3  and  N2_11 
REMARK    3  A    between atoms: C2_4  and  N1_5 
REMARK    4  A    between atoms: N2_11  and  N3_13 
ROOT
HETATM    1  N3  UNL     1      -6.624  -3.236  10.039  1.00  0.00    -0.252 N 
HETATM    2  C8  UNL     1      -7.558  -3.416  11.084  1.00  0.00     0.074 A 
HETATM    3  C9  UNL     1      -8.579  -2.508  11.263  1.00  0.00     0.033 A 
HETATM    4  C10 UNL     1      -9.527  -2.631  12.265  1.00  0.00     0.002 A 
HETATM    5  C11 UNL     1      -9.467  -3.698  13.131  1.00  0.00     0.002 A 
HETATM    6  C12 UNL     1      -8.443  -4.596  12.938  1.00  0.00     0.021 A 
HETATM    7  C13 UNL     1      -7.514  -4.480  11.961  1.00  0.00     0.034 A 
HETATM    8  S1  UNL     1      -6.229  -5.712  11.811  1.00  0.00    -0.086 SA
HETATM    9  C14 UNL     1      -5.227  -5.218  10.409  1.00  0.00     0.034 A 
HETATM   10  C15 UNL     1      -4.167  -6.011  10.065  1.00  0.00     0.021 A 
HETATM   11  C16 UNL     1      -3.347  -5.698   8.998  1.00  0.00     0.002 A 
HETATM   12  C17 UNL     1      -3.661  -4.548   8.307  1.00  0.00     0.002 A 
HETATM   13  C18 UNL     1      -4.722  -3.745   8.645  1.00  0.00     0.033 A 
HETATM   14  C19 UNL     1      -5.545  -4.075   9.730  1.00  0.00     0.074 A 
ENDROOT
BRANCH   1  15
HETATM   15  N2  UNL     1      -6.784  -2.052   9.259  1.00  0.00    -0.272 N 
ATOM     16  H2  UNL     1      -6.259  -1.213   9.508  1.00  0.00     0.189 HD
BRANCH  15  17
HETATM   17  C1  UNL     1      -7.649  -2.021   8.157  1.00  0.00     0.170 C 
HETATM   18  C2  UNL     1      -8.343  -0.899   7.586  1.00  0.00     0.143 C 
BRANCH  17  19
HETATM   19  O1  UNL     1      -7.815  -3.193   7.603  1.00  0.00    -0.344 OA
ATOM     20  H1  UNL     1      -7.090  -3.807   7.630  1.00  0.00     0.219 HD
ENDBRANCH  17  19
BRANCH  18  21
HETATM   21  N1  UNL     1      -8.250   0.396   8.113  1.00  0.00    -0.386 N 
HETATM   22  C3  UNL     1      -6.948   0.866   8.505  1.00  0.00     0.122 C 
HETATM   23  C4  UNL     1      -7.193   1.865   9.650  1.00  0.00     0.020 C 
HETATM   24  C5  UNL     1      -7.982   3.004   9.095  1.00  0.00     0.003 C 
HETATM   25  C6  UNL     1      -9.213   2.619   8.329  1.00  0.00     0.020 C 
HETATM   26  C7  UNL     1      -9.001   1.407   7.441  1.00  0.00     0.122 C 
ENDBRANCH  18  21
ENDBRANCH  15  17
ENDBRANCH   1  15
TORSDOF 4
ENDMDL
