MODEL 3
REMARK VINA RESULT: -8.262661843      0.085      3.859
REMARK  4 active torsions:
REMARK  status: ('A' for Active; 'I' for Inactive)
REMARK    1  A    between atoms: O1_1  and  C1_3 
REMARK    2  A    between atoms: C1_3  and  N2_11 
REMARK    3  A    between atoms: C2_4  and  N1_5 
REMARK    4  A    between atoms: N2_11  and  N3_13 
ROOT
HETATM    1  N3  UNL     1      -6.638  -3.219  10.113  1.00  0.00    -0.252 N 
HETATM    2  C8  UNL     1      -5.554  -4.057   9.768  1.00  0.00     0.074 A 
HETATM    3  C9  UNL     1      -4.708  -3.706   8.738  1.00  0.00     0.033 A 
HETATM    4  C10 UNL     1      -3.627  -4.481   8.353  1.00  0.00     0.002 A 
HETATM    5  C11 UNL     1      -3.367  -5.658   9.015  1.00  0.00     0.002 A 
HETATM    6  C12 UNL     1      -4.218  -5.996  10.041  1.00  0.00     0.021 A 
HETATM    7  C13 UNL     1      -5.276  -5.241  10.420  1.00  0.00     0.034 A 
HETATM    8  S1  UNL     1      -6.312  -5.784  11.769  1.00  0.00    -0.086 SA
HETATM    9  C14 UNL     1      -7.571  -4.523  11.970  1.00  0.00     0.034 A 
HETATM   10  C15 UNL     1      -8.498  -4.692  12.961  1.00  0.00     0.021 A 
HETATM   11  C16 UNL     1      -9.499  -3.764  13.179  1.00  0.00     0.002 A 
HETATM   12  C17 UNL     1      -9.505  -2.669  12.344  1.00  0.00     0.002 A 
HETATM   13  C18 UNL     1      -8.579  -2.491  11.346  1.00  0.00     0.033 A 
HETATM   14  C19 UNL     1      -7.570  -3.440  11.136  1.00  0.00     0.074 A 
ENDROOT
BRANCH   1  15
HETATM   15  N2  UNL     1      -6.812  -2.060   9.300  1.00  0.00    -0.272 N 
ATOM     16  H2  UNL     1      -6.287  -1.212   9.517  1.00  0.00     0.189 HD
BRANCH  15  17
HETATM   17  C1  UNL     1      -7.691  -2.064   8.208  1.00  0.00     0.170 C 
HETATM   18  C2  UNL     1      -8.394  -0.962   7.612  1.00  0.00     0.143 C 
BRANCH  17  19
HETATM   19  O1  UNL     1      -7.860  -3.254   7.693  1.00  0.00    -0.344 OA
ATOM     20  H1  UNL     1      -7.553  -4.004   8.189  1.00  0.00     0.219 HD
ENDBRANCH  17  19
BRANCH  18  21
HETATM   21  N1  UNL     1      -8.297   0.348   8.098  1.00  0.00    -0.386 N 
HETATM   22  C3  UNL     1      -6.999   0.818   8.503  1.00  0.00     0.122 C 
HETATM   23  C4  UNL     1      -7.257   1.856   9.608  1.00  0.00     0.020 C 
HETATM   24  C5  UNL     1      -8.021   2.985   8.999  1.00  0.00     0.003 C 
HETATM   25  C6  UNL     1      -9.240   2.588   8.219  1.00  0.00     0.020 C 
HETATM   26  C7  UNL     1      -9.022   1.344   7.376  1.00  0.00     0.122 C 
ENDBRANCH  18  21
ENDBRANCH  15  17
ENDBRANCH   1  15
TORSDOF 4
ENDMDL
