MODEL 4
REMARK VINA RESULT: -9.586116372      0.990      4.768
REMARK  6 active torsions:
REMARK  status: ('A' for Active; 'I' for Inactive)
REMARK    1  A    between atoms: C2_2  and  C3_3 
REMARK    2  A    between atoms: C3_3  and  C20_22 
REMARK    3  A    between atoms: C4_4  and  C5_5 
REMARK    4  A    between atoms: C4_4  and  C11_11 
REMARK    5  A    between atoms: C14_14  and  C15_15 
REMARK    6  A    between atoms: C16_16  and  C17_17 
ROOT
HETATM    1  C3  UNL     1      59.490   3.583  18.219  1.00  0.00    -0.036 C 
HETATM    2  C4  UNL     1      59.123   4.184  17.108  1.00  0.00    -0.009 C 
ENDROOT
BRANCH   2   3
HETATM    3  C5  UNL     1      58.182   5.309  17.192  1.00  0.00    -0.025 A 
HETATM    4  C6  UNL     1      58.640   6.612  17.309  1.00  0.00     0.012 A 
HETATM    5  C7  UNL     1      57.742   7.657  17.324  1.00  0.00     0.001 A 
HETATM    6  C8  UNL     1      56.387   7.379  17.221  1.00  0.00     0.000 A 
HETATM    7  C9  UNL     1      55.908   6.097  17.104  1.00  0.00     0.001 A 
HETATM    8  C10 UNL     1      56.826   5.064  17.091  1.00  0.00     0.012 A 
ENDBRANCH   2   3
BRANCH   2   9
HETATM    9  C11 UNL     1      59.637   3.781  15.799  1.00  0.00    -0.025 A 
HETATM   10  C12 UNL     1      60.848   4.170  15.320  1.00  0.00     0.013 A 
HETATM   11  C13 UNL     1      61.270   3.726  14.065  1.00  0.00     0.012 A 
HETATM   12  C14 UNL     1      60.512   2.903  13.271  1.00  0.00    -0.036 A 
HETATM   13  C18 UNL     1      59.276   2.527  13.797  1.00  0.00     0.012 A 
HETATM   14  C19 UNL     1      58.852   2.950  15.018  1.00  0.00     0.013 A 
BRANCH  12  15
HETATM   15  C15 UNL     1      60.926   2.402  11.963  1.00  0.00     0.018 C 
HETATM   16  C16 UNL     1      60.254   1.541  11.232  1.00  0.00     0.085 C 
BRANCH  16  17
HETATM   17  C17 UNL     1      60.750   1.088   9.917  1.00  0.00     0.198 C 
HETATM   18  O1  UNL     1      60.204   0.048   9.450  1.00  0.00    -0.645 OA
HETATM   19  O2  UNL     1      61.733   1.730   9.223  1.00  0.00    -0.645 OA
ENDBRANCH  16  17
ENDBRANCH  12  15
ENDBRANCH   2   9
BRANCH   1  20
HETATM   20  C2  UNL     1      58.989   4.014  19.556  1.00  0.00     0.036 C 
HETATM   21  C1  UNL     1      57.812   3.232  20.039  1.00  0.00     0.010 C 
ENDBRANCH   1  20
BRANCH   1  22
HETATM   22  C20 UNL     1      60.370   2.426  18.233  1.00  0.00    -0.029 A 
HETATM   23  C21 UNL     1      61.708   2.582  18.455  1.00  0.00     0.012 A 
HETATM   24  C22 UNL     1      62.559   1.463  18.476  1.00  0.00     0.001 A 
HETATM   25  C23 UNL     1      62.037   0.192  18.268  1.00  0.00     0.000 A 
HETATM   26  C24 UNL     1      60.691   0.052  18.044  1.00  0.00     0.001 A 
HETATM   27  C25 UNL     1      59.886   1.165  18.032  1.00  0.00     0.012 A 
ENDBRANCH   1  22
TORSDOF 6
ENDMDL
