MODEL 1
REMARK VINA RESULT: -9.713827427      0.000      0.000
REMARK  6 active torsions:
REMARK  status: ('A' for Active; 'I' for Inactive)
REMARK    1  A    between atoms: C2_2  and  C3_3 
REMARK    2  A    between atoms: C3_3  and  C20_22 
REMARK    3  A    between atoms: C4_4  and  C5_5 
REMARK    4  A    between atoms: C4_4  and  C11_11 
REMARK    5  A    between atoms: C14_14  and  C15_15 
REMARK    6  A    between atoms: C16_16  and  C17_17 
ROOT
HETATM    1  C3  UNL     1      59.026   4.119  17.755  1.00  0.00    -0.036 C 
HETATM    2  C4  UNL     1      59.760   3.207  17.158  1.00  0.00    -0.009 C 
ENDROOT
BRANCH   2   3
HETATM    3  C5  UNL     1      60.423   2.185  17.980  1.00  0.00    -0.025 A 
HETATM    4  C6  UNL     1      59.742   1.050  18.389  1.00  0.00     0.012 A 
HETATM    5  C7  UNL     1      60.400   0.075  19.107  1.00  0.00     0.001 A 
HETATM    6  C8  UNL     1      61.742   0.255  19.408  1.00  0.00     0.000 A 
HETATM    7  C9  UNL     1      62.440   1.370  19.014  1.00  0.00     0.001 A 
HETATM    8  C10 UNL     1      61.760   2.335  18.295  1.00  0.00     0.012 A 
ENDBRANCH   2   3
BRANCH   2   9
HETATM    9  C11 UNL     1      59.920   3.165  15.705  1.00  0.00    -0.025 A 
HETATM   10  C12 UNL     1      59.142   2.405  14.889  1.00  0.00     0.013 A 
HETATM   11  C13 UNL     1      59.352   2.436  13.508  1.00  0.00     0.012 A 
HETATM   12  C14 UNL     1      60.321   3.207  12.918  1.00  0.00    -0.036 A 
HETATM   13  C18 UNL     1      61.099   3.971  13.787  1.00  0.00     0.012 A 
HETATM   14  C19 UNL     1      60.906   3.952  15.134  1.00  0.00     0.013 A 
BRANCH  12  15
HETATM   15  C15 UNL     1      60.557   3.281  11.478  1.00  0.00     0.018 C 
HETATM   16  C16 UNL     1      61.340   2.475  10.796  1.00  0.00     0.085 C 
BRANCH  16  17
HETATM   17  C17 UNL     1      61.522   2.625   9.338  1.00  0.00     0.198 C 
HETATM   18  O1  UNL     1      61.915   3.760   8.944  1.00  0.00    -0.645 OA
HETATM   19  O2  UNL     1      61.291   1.620   8.445  1.00  0.00    -0.645 OA
ENDBRANCH  16  17
ENDBRANCH  12  15
ENDBRANCH   2   9
BRANCH   1  20
HETATM   20  C2  UNL     1      58.839   4.142  19.235  1.00  0.00     0.036 C 
HETATM   21  C1  UNL     1      57.469   3.742  19.675  1.00  0.00     0.010 C 
ENDBRANCH   1  20
BRANCH   1  22
HETATM   22  C20 UNL     1      58.378   5.203  17.034  1.00  0.00    -0.029 A 
HETATM   23  C21 UNL     1      58.916   6.458  17.050  1.00  0.00     0.012 A 
HETATM   24  C22 UNL     1      58.294   7.505  16.348  1.00  0.00     0.001 A 
HETATM   25  C23 UNL     1      57.126   7.263  15.634  1.00  0.00     0.000 A 
HETATM   26  C24 UNL     1      56.598   5.998  15.629  1.00  0.00     0.001 A 
HETATM   27  C25 UNL     1      57.230   4.995  16.324  1.00  0.00     0.012 A 
ENDBRANCH   1  22
TORSDOF 6
ENDMDL
