MODEL 2
REMARK VINA RESULT: -9.698525920      0.740      1.180
REMARK  6 active torsions:
REMARK  status: ('A' for Active; 'I' for Inactive)
REMARK    1  A    between atoms: C2_2  and  C3_3 
REMARK    2  A    between atoms: C3_3  and  C20_22 
REMARK    3  A    between atoms: C4_4  and  C5_5 
REMARK    4  A    between atoms: C4_4  and  C11_11 
REMARK    5  A    between atoms: C14_14  and  C15_15 
REMARK    6  A    between atoms: C16_16  and  C17_17 
ROOT
HETATM    1  C3  UNL     1      59.041   4.168  17.802  1.00  0.00    -0.036 C 
HETATM    2  C4  UNL     1      59.787   3.320  17.129  1.00  0.00    -0.009 C 
ENDROOT
BRANCH   2   3
HETATM    3  C5  UNL     1      60.487   2.258  17.864  1.00  0.00    -0.025 A 
HETATM    4  C6  UNL     1      59.854   1.061  18.158  1.00  0.00     0.012 A 
HETATM    5  C7  UNL     1      60.549   0.055  18.794  1.00  0.00     0.001 A 
HETATM    6  C8  UNL     1      61.878   0.265  19.129  1.00  0.00     0.000 A 
HETATM    7  C9  UNL     1      62.529   1.442  18.848  1.00  0.00     0.001 A 
HETATM    8  C10 UNL     1      61.813   2.438  18.210  1.00  0.00     0.012 A 
ENDBRANCH   2   3
BRANCH   2   9
HETATM    9  C11 UNL     1      59.924   3.388  15.674  1.00  0.00    -0.025 A 
HETATM   10  C12 UNL     1      60.802   4.212  15.043  1.00  0.00     0.013 A 
HETATM   11  C13 UNL     1      60.880   4.202  13.649  1.00  0.00     0.012 A 
HETATM   12  C14 UNL     1      60.102   3.391  12.864  1.00  0.00    -0.036 A 
HETATM   13  C18 UNL     1      59.213   2.561  13.546  1.00  0.00     0.012 A 
HETATM   14  C19 UNL     1      59.126   2.558  14.904  1.00  0.00     0.013 A 
BRANCH  12  15
HETATM   15  C15 UNL     1      60.168   3.338  11.406  1.00  0.00     0.018 C 
HETATM   16  C16 UNL     1      59.576   2.439  10.651  1.00  0.00     0.085 C 
BRANCH  16  17
HETATM   17  C17 UNL     1      59.699   2.461   9.179  1.00  0.00     0.198 C 
HETATM   18  O1  UNL     1      60.548   3.271   8.708  1.00  0.00    -0.645 OA
HETATM   19  O2  UNL     1      58.957   1.670   8.352  1.00  0.00    -0.645 OA
ENDBRANCH  16  17
ENDBRANCH  12  15
ENDBRANCH   2   9
BRANCH   1  20
HETATM   20  C2  UNL     1      58.878   4.079  19.282  1.00  0.00     0.036 C 
HETATM   21  C1  UNL     1      57.523   3.620  19.711  1.00  0.00     0.010 C 
ENDBRANCH   1  20
BRANCH   1  22
HETATM   22  C20 UNL     1      58.357   5.285  17.171  1.00  0.00    -0.029 A 
HETATM   23  C21 UNL     1      58.848   6.553  17.297  1.00  0.00     0.012 A 
HETATM   24  C22 UNL     1      58.190   7.632  16.683  1.00  0.00     0.001 A 
HETATM   25  C23 UNL     1      57.034   7.410  15.944  1.00  0.00     0.000 A 
HETATM   26  C24 UNL     1      56.552   6.132  15.829  1.00  0.00     0.001 A 
HETATM   27  C25 UNL     1      57.219   5.097  16.440  1.00  0.00     0.012 A 
ENDBRANCH   1  22
TORSDOF 6
ENDMDL
