MODEL 6
REMARK VINA RESULT: -6.208422583      3.817      8.821
REMARK  6 active torsions:
REMARK  status: ('A' for Active; 'I' for Inactive)
REMARK    1  A    between atoms: C2_2  and  C3_3 
REMARK    2  A    between atoms: C3_3  and  C20_22 
REMARK    3  A    between atoms: C4_4  and  C5_5 
REMARK    4  A    between atoms: C4_4  and  C11_11 
REMARK    5  A    between atoms: C14_14  and  C15_15 
REMARK    6  A    between atoms: C16_16  and  C17_17 
ROOT
HETATM    1  C3  UNL     1      59.961   2.018   9.399  1.00  0.00    -0.036 C 
HETATM    2  C4  UNL     1      60.059   3.088  10.156  1.00  0.00    -0.009 C 
ENDROOT
BRANCH   2   3
HETATM    3  C5  UNL     1      60.244   4.395   9.510  1.00  0.00    -0.025 A 
HETATM    4  C6  UNL     1      61.512   4.912   9.303  1.00  0.00     0.012 A 
HETATM    5  C7  UNL     1      61.665   6.111   8.640  1.00  0.00     0.001 A 
HETATM    6  C8  UNL     1      60.535   6.778   8.192  1.00  0.00     0.000 A 
HETATM    7  C9  UNL     1      59.267   6.287   8.384  1.00  0.00     0.001 A 
HETATM    8  C10 UNL     1      59.137   5.083   9.052  1.00  0.00     0.012 A 
ENDBRANCH   2   3
BRANCH   2   9
HETATM    9  C11 UNL     1      59.968   3.020  11.614  1.00  0.00    -0.025 A 
HETATM   10  C12 UNL     1      58.826   2.703  12.279  1.00  0.00     0.013 A 
HETATM   11  C13 UNL     1      58.830   2.645  13.674  1.00  0.00     0.012 A 
HETATM   12  C14 UNL     1      59.948   2.897  14.427  1.00  0.00    -0.036 A 
HETATM   13  C18 UNL     1      61.100   3.220  13.711  1.00  0.00     0.012 A 
HETATM   14  C19 UNL     1      61.111   3.279  12.352  1.00  0.00     0.013 A 
BRANCH  12  15
HETATM   15  C15 UNL     1      59.997   2.828  15.885  1.00  0.00     0.018 C 
HETATM   16  C16 UNL     1      59.388   1.926  16.624  1.00  0.00     0.085 C 
BRANCH  16  17
HETATM   17  C17 UNL     1      59.493   1.933  18.096  1.00  0.00     0.198 C 
HETATM   18  O1  UNL     1      58.686   1.177  18.711  1.00  0.00    -0.645 OA
HETATM   19  O2  UNL     1      60.393   2.694  18.782  1.00  0.00    -0.645 OA
ENDBRANCH  16  17
ENDBRANCH  12  15
ENDBRANCH   2   9
BRANCH   1  20
HETATM   20  C2  UNL     1      60.023   2.092   7.910  1.00  0.00     0.036 C 
HETATM   21  C1  UNL     1      61.324   1.635   7.338  1.00  0.00     0.010 C 
ENDBRANCH   1  20
BRANCH   1  22
HETATM   22  C20 UNL     1      59.834   0.676   9.945  1.00  0.00    -0.029 A 
HETATM   23  C21 UNL     1      60.700   0.240  10.906  1.00  0.00     0.012 A 
HETATM   24  C22 UNL     1      60.575  -1.054  11.439  1.00  0.00     0.001 A 
HETATM   25  C23 UNL     1      59.564  -1.895  10.987  1.00  0.00     0.000 A 
HETATM   26  C24 UNL     1      58.703  -1.443  10.021  1.00  0.00     0.001 A 
HETATM   27  C25 UNL     1      58.851  -0.172   9.520  1.00  0.00     0.012 A 
ENDBRANCH   1  22
TORSDOF 6
ENDMDL
