MODEL 5
REMARK VINA RESULT: -9.577679485      0.967      4.809
REMARK  6 active torsions:
REMARK  status: ('A' for Active; 'I' for Inactive)
REMARK    1  A    between atoms: C2_2  and  C3_3 
REMARK    2  A    between atoms: C3_3  and  C20_22 
REMARK    3  A    between atoms: C4_4  and  C5_5 
REMARK    4  A    between atoms: C4_4  and  C11_11 
REMARK    5  A    between atoms: C14_14  and  C15_15 
REMARK    6  A    between atoms: C16_16  and  C17_17 
ROOT
HETATM    1  C3  UNL     1      59.479   3.546  18.232  1.00  0.00    -0.036 C 
HETATM    2  C4  UNL     1      59.120   4.149  17.120  1.00  0.00    -0.009 C 
ENDROOT
BRANCH   2   3
HETATM    3  C5  UNL     1      58.169   5.266  17.198  1.00  0.00    -0.025 A 
HETATM    4  C6  UNL     1      58.614   6.568  17.361  1.00  0.00     0.012 A 
HETATM    5  C7  UNL     1      57.709   7.608  17.369  1.00  0.00     0.001 A 
HETATM    6  C8  UNL     1      56.360   7.324  17.214  1.00  0.00     0.000 A 
HETATM    7  C9  UNL     1      55.893   6.042  17.050  1.00  0.00     0.001 A 
HETATM    8  C10 UNL     1      56.819   5.015  17.045  1.00  0.00     0.012 A 
ENDBRANCH   2   3
BRANCH   2   9
HETATM    9  C11 UNL     1      59.651   3.756  15.815  1.00  0.00    -0.025 A 
HETATM   10  C12 UNL     1      60.847   4.189  15.334  1.00  0.00     0.013 A 
HETATM   11  C13 UNL     1      61.288   3.752  14.083  1.00  0.00     0.012 A 
HETATM   12  C14 UNL     1      60.566   2.892  13.296  1.00  0.00    -0.036 A 
HETATM   13  C18 UNL     1      59.345   2.471  13.822  1.00  0.00     0.012 A 
HETATM   14  C19 UNL     1      58.902   2.887  15.040  1.00  0.00     0.013 A 
BRANCH  12  15
HETATM   15  C15 UNL     1      61.002   2.398  11.992  1.00  0.00     0.018 C 
HETATM   16  C16 UNL     1      60.263   1.699  11.160  1.00  0.00     0.085 C 
BRANCH  16  17
HETATM   17  C17 UNL     1      60.787   1.237   9.859  1.00  0.00     0.198 C 
HETATM   18  O1  UNL     1      61.723   1.930   9.364  1.00  0.00    -0.645 OA
HETATM   19  O2  UNL     1      60.315   0.137   9.206  1.00  0.00    -0.645 OA
ENDBRANCH  16  17
ENDBRANCH  12  15
ENDBRANCH   2   9
BRANCH   1  20
HETATM   20  C2  UNL     1      58.960   3.968  19.565  1.00  0.00     0.036 C 
HETATM   21  C1  UNL     1      57.769   3.190  20.021  1.00  0.00     0.010 C 
ENDBRANCH   1  20
BRANCH   1  22
HETATM   22  C20 UNL     1      60.368   2.396  18.251  1.00  0.00    -0.029 A 
HETATM   23  C21 UNL     1      59.875   1.141  18.044  1.00  0.00     0.012 A 
HETATM   24  C22 UNL     1      60.735   0.029  18.056  1.00  0.00     0.001 A 
HETATM   25  C23 UNL     1      62.095   0.208  18.281  1.00  0.00     0.000 A 
HETATM   26  C24 UNL     1      62.575   1.475  18.489  1.00  0.00     0.001 A 
HETATM   27  C25 UNL     1      61.709   2.541  18.470  1.00  0.00     0.012 A 
ENDBRANCH   1  22
TORSDOF 6
ENDMDL
