MODEL 3
REMARK VINA RESULT: -9.599325191      0.236      1.436
REMARK  6 active torsions:
REMARK  status: ('A' for Active; 'I' for Inactive)
REMARK    1  A    between atoms: C2_2  and  C3_3 
REMARK    2  A    between atoms: C3_3  and  C20_22 
REMARK    3  A    between atoms: C4_4  and  C5_5 
REMARK    4  A    between atoms: C4_4  and  C11_11 
REMARK    5  A    between atoms: C14_14  and  C15_15 
REMARK    6  A    between atoms: C16_16  and  C17_17 
ROOT
HETATM    1  C3  UNL     1      59.043   4.157  17.861  1.00  0.00    -0.036 C 
HETATM    2  C4  UNL     1      59.799   3.296  17.217  1.00  0.00    -0.009 C 
ENDROOT
BRANCH   2   3
HETATM    3  C5  UNL     1      60.479   2.243  17.984  1.00  0.00    -0.025 A 
HETATM    4  C6  UNL     1      59.806   1.093  18.364  1.00  0.00     0.012 A 
HETATM    5  C7  UNL     1      60.480   0.091  19.029  1.00  0.00     0.001 A 
HETATM    6  C8  UNL     1      61.829   0.258  19.304  1.00  0.00     0.000 A 
HETATM    7  C9  UNL     1      62.519   1.387  18.937  1.00  0.00     0.001 A 
HETATM    8  C10 UNL     1      61.823   2.380  18.272  1.00  0.00     0.012 A 
ENDBRANCH   2   3
BRANCH   2   9
HETATM    9  C11 UNL     1      59.967   3.341  15.765  1.00  0.00    -0.025 A 
HETATM   10  C12 UNL     1      60.840   4.173  15.138  1.00  0.00     0.013 A 
HETATM   11  C13 UNL     1      60.949   4.140  13.747  1.00  0.00     0.012 A 
HETATM   12  C14 UNL     1      60.207   3.297  12.960  1.00  0.00    -0.036 A 
HETATM   13  C18 UNL     1      59.322   2.459  13.638  1.00  0.00     0.012 A 
HETATM   14  C19 UNL     1      59.205   2.479  14.993  1.00  0.00     0.013 A 
BRANCH  12  15
HETATM   15  C15 UNL     1      60.307   3.219  11.505  1.00  0.00     0.018 C 
HETATM   16  C16 UNL     1      61.217   2.541  10.841  1.00  0.00     0.085 C 
BRANCH  16  17
HETATM   17  C17 UNL     1      61.243   2.519   9.365  1.00  0.00     0.198 C 
HETATM   18  O1  UNL     1      60.844   1.450   8.821  1.00  0.00    -0.645 OA
HETATM   19  O2  UNL     1      61.664   3.571   8.606  1.00  0.00    -0.645 OA
ENDBRANCH  16  17
ENDBRANCH  12  15
ENDBRANCH   2   9
BRANCH   1  20
HETATM   20  C2  UNL     1      58.848   4.091  19.338  1.00  0.00     0.036 C 
HETATM   21  C1  UNL     1      57.466   3.700  19.747  1.00  0.00     0.010 C 
ENDBRANCH   1  20
BRANCH   1  22
HETATM   22  C20 UNL     1      58.376   5.267  17.199  1.00  0.00    -0.029 A 
HETATM   23  C21 UNL     1      57.234   5.055  16.482  1.00  0.00     0.012 A 
HETATM   24  C22 UNL     1      56.585   6.128  15.847  1.00  0.00     0.001 A 
HETATM   25  C23 UNL     1      57.109   7.411  15.949  1.00  0.00     0.000 A 
HETATM   26  C24 UNL     1      58.257   7.608  16.671  1.00  0.00     0.001 A 
HETATM   27  C25 UNL     1      58.867   6.539  17.281  1.00  0.00     0.012 A 
ENDBRANCH   1  22
TORSDOF 6
ENDMDL
