MODEL 3
REMARK VINA RESULT: -5.533086992      3.553      4.317
REMARK  5 active torsions:
REMARK  status: ('A' for Active; 'I' for Inactive)
REMARK    1  A    between atoms: O1_1  and  C1_3 
REMARK    2  A    between atoms: C6_10  and  C7_11 
REMARK    3  A    between atoms: C7_11  and  N1_12 
REMARK    4  A    between atoms: C10_15  and  N2_16 
REMARK    5  A    between atoms: C13_19  and  O2_20 
ROOT
HETATM    1  N1  UNL     1      90.411  98.915 -44.075  1.00  0.00     0.092 N 
HETATM    2  C8  UNL     1      89.872  97.892 -44.778  1.00  0.00     0.275 C 
HETATM    3  C9  UNL     1      90.353  96.497 -44.522  1.00  0.00     0.066 C 
HETATM    4  C10 UNL     1      91.050  96.242 -43.222  1.00  0.00     0.226 C 
HETATM    5  C16 UNL     1      90.815  97.352 -42.237  1.00  0.00     0.066 C 
HETATM    6  C17 UNL     1      91.359  98.567 -42.969  1.00  0.00     0.275 C 
ENDROOT
BRANCH   1   7
HETATM    7  C7  UNL     1      89.604  99.906 -43.374  1.00  0.00     0.313 C 
BRANCH   7   8
HETATM    8  C6  UNL     1      90.284 101.183 -43.165  1.00  0.00     0.006 A 
HETATM    9  C1  UNL     1      90.328 101.719 -41.888  1.00  0.00     0.091 A 
HETATM   10  C2  UNL     1      90.863 102.952 -41.623  1.00  0.00     0.046 A 
HETATM   11 BR1  UNL     1      91.032 103.488 -39.761  1.00  0.00    -0.048 Br
HETATM   12  C3  UNL     1      91.355 103.734 -42.611  1.00  0.00     0.046 A 
HETATM   13  C4  UNL     1      91.309 103.222 -43.923  1.00  0.00     0.036 A 
HETATM   14 CL1  UNL     1      91.854 104.314 -45.162  1.00  0.00    -0.084 Cl
HETATM   15  C5  UNL     1      90.787 101.986 -44.177  1.00  0.00     0.035 A 
BRANCH   9  16
HETATM   16  O1  UNL     1      89.819 101.072 -40.761  1.00  0.00    -0.359 OA
ATOM     17  H1  UNL     1      89.266 100.326 -40.964  1.00  0.00     0.217 HD
ENDBRANCH   9  16
ENDBRANCH   7   8
ENDBRANCH   1   7
BRANCH   4  18
HETATM   18  N2  UNL     1      90.781  94.918 -42.696  1.00  0.00     0.093 N 
HETATM   19  C11 UNL     1      91.178  94.745 -41.340  1.00  0.00     0.275 C 
HETATM   20  C12 UNL     1      92.468  94.056 -41.114  1.00  0.00     0.062 C 
HETATM   21  C13 UNL     1      92.566  92.780 -41.950  1.00  0.00     0.121 C 
HETATM   22  C14 UNL     1      92.478  93.267 -43.398  1.00  0.00     0.062 C 
HETATM   23  C15 UNL     1      91.143  93.869 -43.595  1.00  0.00     0.275 C 
BRANCH  21  24
HETATM   24  O2  UNL     1      91.488  91.957 -41.660  1.00  0.00    -0.395 OA
ATOM     25  H2  UNL     1      90.697  92.480 -41.616  1.00  0.00     0.210 HD
ENDBRANCH  21  24
ENDBRANCH   4  18
TORSDOF 5
ENDMDL
