MODEL 2
REMARK VINA RESULT: -5.575614802      1.912      2.128
REMARK  5 active torsions:
REMARK  status: ('A' for Active; 'I' for Inactive)
REMARK    1  A    between atoms: O1_1  and  C1_3 
REMARK    2  A    between atoms: C6_10  and  C7_11 
REMARK    3  A    between atoms: C7_11  and  N1_12 
REMARK    4  A    between atoms: C10_15  and  N2_16 
REMARK    5  A    between atoms: C13_19  and  O2_20 
ROOT
HETATM    1  N1  UNL     1      90.326  98.851 -44.376  1.00  0.00     0.092 N 
HETATM    2  C8  UNL     1      90.076  97.732 -45.097  1.00  0.00     0.275 C 
HETATM    3  C9  UNL     1      90.626  96.422 -44.624  1.00  0.00     0.066 C 
HETATM    4  C10 UNL     1      91.021  96.326 -43.184  1.00  0.00     0.226 C 
HETATM    5  C16 UNL     1      90.447  97.453 -42.372  1.00  0.00     0.066 C 
HETATM    6  C17 UNL     1      91.018  98.682 -43.059  1.00  0.00     0.275 C 
ENDROOT
BRANCH   1   7
HETATM    7  C7  UNL     1      89.278  99.775 -43.961  1.00  0.00     0.313 C 
BRANCH   7   8
HETATM    8  C6  UNL     1      88.000  99.566 -44.641  1.00  0.00     0.006 A 
HETATM    9  C1  UNL     1      86.968  98.946 -43.955  1.00  0.00     0.091 A 
HETATM   10  C2  UNL     1      85.774  98.629 -44.546  1.00  0.00     0.046 A 
HETATM   11 BR1  UNL     1      84.352  97.942 -43.411  1.00  0.00    -0.048 Br
HETATM   12  C3  UNL     1      85.547  98.881 -45.857  1.00  0.00     0.046 A 
HETATM   13  C4  UNL     1      86.586  99.496 -46.584  1.00  0.00     0.036 A 
HETATM   14 CL1  UNL     1      86.279  99.694 -48.285  1.00  0.00    -0.084 Cl
HETATM   15  C5  UNL     1      87.768  99.821 -45.984  1.00  0.00     0.035 A 
BRANCH   9  16
HETATM   16  O1  UNL     1      87.050  98.570 -42.613  1.00  0.00    -0.359 OA
ATOM     17  H1  UNL     1      86.388  98.970 -42.062  1.00  0.00     0.217 HD
ENDBRANCH   9  16
ENDBRANCH   7   8
ENDBRANCH   1   7
BRANCH   4  18
HETATM   18  N2  UNL     1      90.774  95.011 -42.625  1.00  0.00     0.093 N 
HETATM   19  C11 UNL     1      91.244  94.854 -41.291  1.00  0.00     0.275 C 
HETATM   20  C12 UNL     1      92.541  94.160 -41.126  1.00  0.00     0.062 C 
HETATM   21  C13 UNL     1      92.587  92.873 -41.949  1.00  0.00     0.121 C 
HETATM   22  C14 UNL     1      92.422  93.340 -43.397  1.00  0.00     0.062 C 
HETATM   23  C15 UNL     1      91.081  93.948 -43.528  1.00  0.00     0.275 C 
BRANCH  21  24
HETATM   24  O2  UNL     1      91.522  92.060 -41.588  1.00  0.00    -0.395 OA
ATOM     25  H2  UNL     1      91.056  91.788 -42.369  1.00  0.00     0.210 HD
ENDBRANCH  21  24
ENDBRANCH   4  18
TORSDOF 5
ENDMDL
