MODEL 1
REMARK VINA RESULT: -5.715850000      0.000      0.000
REMARK  5 active torsions:
REMARK  status: ('A' for Active; 'I' for Inactive)
REMARK    1  A    between atoms: O1_1  and  C1_3 
REMARK    2  A    between atoms: C6_10  and  C7_11 
REMARK    3  A    between atoms: C7_11  and  N1_12 
REMARK    4  A    between atoms: C10_15  and  N2_16 
REMARK    5  A    between atoms: C13_19  and  O2_20 
ROOT
HETATM    1  N1  UNL     1      90.343  98.874 -44.148  1.00  0.00     0.092 N 
HETATM    2  C8  UNL     1      90.015  97.803 -44.908  1.00  0.00     0.275 C 
HETATM    3  C9  UNL     1      90.552  96.455 -44.541  1.00  0.00     0.066 C 
HETATM    4  C10 UNL     1      91.032  96.269 -43.136  1.00  0.00     0.226 C 
HETATM    5  C16 UNL     1      90.545  97.367 -42.232  1.00  0.00     0.066 C 
HETATM    6  C17 UNL     1      91.110  98.614 -42.888  1.00  0.00     0.275 C 
ENDROOT
BRANCH   1   7
HETATM    7  C7  UNL     1      89.352  99.803 -43.619  1.00  0.00     0.313 C 
BRANCH   7   8
HETATM    8  C6  UNL     1      87.995  99.562 -44.107  1.00  0.00     0.006 A 
HETATM    9  C1  UNL     1      87.493 100.365 -45.119  1.00  0.00     0.091 A 
HETATM   10  C2  UNL     1      86.202 100.266 -45.568  1.00  0.00     0.046 A 
HETATM   11 BR1  UNL     1      85.698 101.322 -47.122  1.00  0.00    -0.048 Br
HETATM   12  C3  UNL     1      85.330  99.388 -45.020  1.00  0.00     0.046 A 
HETATM   13  C4  UNL     1      85.809  98.569 -43.978  1.00  0.00     0.036 A 
HETATM   14 CL1  UNL     1      84.616  97.541 -43.240  1.00  0.00    -0.084 Cl
HETATM   15  C5  UNL     1      87.100  98.664 -43.546  1.00  0.00     0.035 A 
BRANCH   9  16
HETATM   16  O1  UNL     1      88.238 101.357 -45.759  1.00  0.00    -0.359 OA
ATOM     17  H1  UNL     1      88.777 101.872 -45.170  1.00  0.00     0.217 HD
ENDBRANCH   9  16
ENDBRANCH   7   8
ENDBRANCH   1   7
BRANCH   4  18
HETATM   18  N2  UNL     1      90.780  94.934 -42.632  1.00  0.00     0.093 N 
HETATM   19  C11 UNL     1      91.190  94.740 -41.283  1.00  0.00     0.275 C 
HETATM   20  C12 UNL     1      92.488  94.059 -41.079  1.00  0.00     0.062 C 
HETATM   21  C13 UNL     1      92.593  92.800 -41.940  1.00  0.00     0.121 C 
HETATM   22  C14 UNL     1      92.489  93.313 -43.378  1.00  0.00     0.062 C 
HETATM   23  C15 UNL     1      91.146  93.905 -43.553  1.00  0.00     0.275 C 
BRANCH  21  24
HETATM   24  O2  UNL     1      91.525  91.961 -41.657  1.00  0.00    -0.395 OA
ATOM     25  H2  UNL     1      91.507  91.252 -42.288  1.00  0.00     0.210 HD
ENDBRANCH  21  24
ENDBRANCH   4  18
TORSDOF 5
ENDMDL
