MODEL 12
REMARK VINA RESULT: -5.134561076      4.119      7.274
REMARK  5 active torsions:
REMARK  status: ('A' for Active; 'I' for Inactive)
REMARK    1  A    between atoms: O1_1  and  C1_3 
REMARK    2  A    between atoms: C6_10  and  C7_11 
REMARK    3  A    between atoms: C7_11  and  N1_12 
REMARK    4  A    between atoms: C10_15  and  N2_16 
REMARK    5  A    between atoms: C13_19  and  O2_20 
ROOT
HETATM    1  N1  UNL     1      90.767  97.777 -45.254  1.00  0.00     0.092 N 
HETATM    2  C8  UNL     1      92.013  98.147 -44.876  1.00  0.00     0.275 C 
HETATM    3  C9  UNL     1      92.392  99.594 -44.927  1.00  0.00     0.066 C 
HETATM    4  C10 UNL     1      91.278 100.593 -44.950  1.00  0.00     0.226 C 
HETATM    5  C16 UNL     1      89.970  99.977 -44.539  1.00  0.00     0.066 C 
HETATM    6  C17 UNL     1      89.789  98.869 -45.562  1.00  0.00     0.275 C 
ENDROOT
BRANCH   1   7
HETATM    7  C7  UNL     1      89.908  96.933 -44.433  1.00  0.00     0.313 C 
BRANCH   7   8
HETATM    8  C6  UNL     1      90.342  95.538 -44.363  1.00  0.00     0.006 A 
HETATM    9  C1  UNL     1      90.947  95.081 -43.204  1.00  0.00     0.091 A 
HETATM   10  C2  UNL     1      91.465  93.817 -43.090  1.00  0.00     0.046 A 
HETATM   11 BR1  UNL     1      92.106  93.252 -41.343  1.00  0.00    -0.048 Br
HETATM   12  C3  UNL     1      91.439  92.949 -44.128  1.00  0.00     0.046 A 
HETATM   13  C4  UNL     1      90.845  93.393 -45.326  1.00  0.00     0.036 A 
HETATM   14 CL1  UNL     1      90.940  92.275 -46.655  1.00  0.00    -0.084 Cl
HETATM   15  C5  UNL     1      90.318  94.648 -45.426  1.00  0.00     0.035 A 
BRANCH   9  16
HETATM   16  O1  UNL     1      91.105  95.859 -42.056  1.00  0.00    -0.359 OA
ATOM     17  H1  UNL     1      90.572  95.574 -41.323  1.00  0.00     0.217 HD
ENDBRANCH   9  16
ENDBRANCH   7   8
ENDBRANCH   1   7
BRANCH   4  18
HETATM   18  N2  UNL     1      91.606 101.811 -44.235  1.00  0.00     0.093 N 
HETATM   19  C11 UNL     1      92.547 101.626 -43.183  1.00  0.00     0.275 C 
HETATM   20  C12 UNL     1      91.994 101.534 -41.813  1.00  0.00     0.062 C 
HETATM   21  C13 UNL     1      90.986 102.653 -41.548  1.00  0.00     0.121 C 
HETATM   22  C14 UNL     1      89.879 102.420 -42.578  1.00  0.00     0.062 C 
HETATM   23  C15 UNL     1      90.462 102.607 -43.922  1.00  0.00     0.275 C 
BRANCH  21  24
HETATM   24  O2  UNL     1      91.594 103.879 -41.773  1.00  0.00    -0.395 OA
ATOM     25  H2  UNL     1      92.515 103.744 -41.958  1.00  0.00     0.210 HD
ENDBRANCH  21  24
ENDBRANCH   4  18
TORSDOF 5
ENDMDL
