MODEL 4
REMARK VINA RESULT: -6.520567836      1.900      5.023
REMARK  10 active torsions:
REMARK  status: ('A' for Active; 'I' for Inactive)
REMARK    1  A    between atoms: C2_2  and  C3_3 
REMARK    2  A    between atoms: C3_3  and  C4_4 
REMARK    3  A    between atoms: C4_4  and  C5_5 
REMARK    4  A    between atoms: C5_5  and  N1_6 
REMARK    5  A    between atoms: C6_7  and  C7_8 
REMARK    6  A    between atoms: C7_8  and  C8_9 
REMARK       I    between atoms: C8_9  and  N2_11 
REMARK    7  A    between atoms: C10_14  and  O2_15 
REMARK    8  A    between atoms: C11_17  and  O3_18 
REMARK    9  A    between atoms: C12_20  and  C13_21 
REMARK   10  A    between atoms: C13_21  and  O4_22 
ROOT
HETATM    1  N1  UNL     1      28.357  51.974 249.717  1.00  0.00     0.105 N 
HETATM    2  C6  UNL     1      28.204  51.464 248.372  1.00  0.00     0.263 C 
HETATM    3  C10 UNL     1      28.069  49.973 248.602  1.00  0.00     0.182 C 
HETATM    4  C11 UNL     1      27.192  49.923 249.831  1.00  0.00     0.184 C 
HETATM    5  C12 UNL     1      27.442  51.267 250.539  1.00  0.00     0.277 C 
ENDROOT
BRANCH   2   6
HETATM    6  C7  UNL     1      29.324  51.789 247.449  1.00  0.00     0.141 C 
BRANCH   6   7
HETATM    7  C8  UNL     1      28.840  51.972 246.079  1.00  0.00     0.219 C 
HETATM    8  O1  UNL     1      27.703  51.633 245.668  1.00  0.00    -0.274 OA
HETATM    9  N2  UNL     1      29.693  52.578 245.101  1.00  0.00    -0.365 N 
HETATM   10  C9  UNL     1      29.266  52.786 243.727  1.00  0.00     0.149 C 
ATOM     11  H2  UNL     1      30.628  52.874 245.377  1.00  0.00     0.161 HD
ENDBRANCH   6   7
ENDBRANCH   2   6
BRANCH   1  12
HETATM   12  C5  UNL     1      28.147  53.386 249.667  1.00  0.00     0.273 C 
BRANCH  12  13
HETATM   13  C4  UNL     1      28.706  54.136 250.862  1.00  0.00     0.030 C 
BRANCH  13  14
HETATM   14  C3  UNL     1      27.724  55.252 251.154  1.00  0.00     0.001 C 
BRANCH  14  15
HETATM   15  C2  UNL     1      27.747  55.671 252.613  1.00  0.00    -0.005 C 
HETATM   16  C1  UNL     1      27.690  54.495 253.542  1.00  0.00     0.005 C 
ENDBRANCH  14  15
ENDBRANCH  13  14
ENDBRANCH  12  13
ENDBRANCH   1  12
BRANCH   3  17
HETATM   17  O2  UNL     1      29.319  49.440 248.935  1.00  0.00    -0.391 OA
ATOM     18  H2  UNL     1      29.284  49.080 249.814  1.00  0.00     0.210 HD
ENDBRANCH   3  17
BRANCH   5  19
HETATM   19  C13 UNL     1      27.990  50.919 251.901  1.00  0.00     0.202 C 
BRANCH  19  20
HETATM   20  O4  UNL     1      26.948  50.990 252.812  1.00  0.00    -0.399 OA
ATOM     21  H4  UNL     1      26.794  51.907 253.010  1.00  0.00     0.209 HD
ENDBRANCH  19  20
ENDBRANCH   5  19
BRANCH   4  22
HETATM   22  O3  UNL     1      25.855  49.776 249.528  1.00  0.00    -0.391 OA
ATOM     23  H3  UNL     1      25.643  48.907 249.206  1.00  0.00     0.210 HD
ENDBRANCH   4  22
TORSDOF 10
ENDMDL
