MODEL 3
REMARK VINA RESULT: -6.692791912      0.825      1.158
REMARK  10 active torsions:
REMARK  status: ('A' for Active; 'I' for Inactive)
REMARK    1  A    between atoms: C2_2  and  C3_3 
REMARK    2  A    between atoms: C3_3  and  C4_4 
REMARK    3  A    between atoms: C4_4  and  C5_5 
REMARK    4  A    between atoms: C5_5  and  N1_6 
REMARK    5  A    between atoms: C6_7  and  C7_8 
REMARK    6  A    between atoms: C7_8  and  C8_9 
REMARK       I    between atoms: C8_9  and  N2_11 
REMARK    7  A    between atoms: C10_14  and  O2_15 
REMARK    8  A    between atoms: C11_17  and  O3_18 
REMARK    9  A    between atoms: C12_20  and  C13_21 
REMARK   10  A    between atoms: C13_21  and  O4_22 
ROOT
HETATM    1  N1  UNL     1      27.936  51.751 249.783  1.00  0.00     0.105 N 
HETATM    2  C6  UNL     1      27.324  50.898 250.778  1.00  0.00     0.263 C 
HETATM    3  C10 UNL     1      26.771  49.764 249.940  1.00  0.00     0.182 C 
HETATM    4  C11 UNL     1      27.877  49.548 248.934  1.00  0.00     0.184 C 
HETATM    5  C12 UNL     1      28.601  50.905 248.858  1.00  0.00     0.277 C 
ENDROOT
BRANCH   2   6
HETATM    6  C7  UNL     1      26.272  51.552 251.601  1.00  0.00     0.141 C 
BRANCH   6   7
HETATM    7  C8  UNL     1      26.731  51.759 252.976  1.00  0.00     0.219 C 
HETATM    8  O1  UNL     1      26.413  52.734 253.700  1.00  0.00    -0.274 OA
HETATM    9  N2  UNL     1      27.609  50.803 253.581  1.00  0.00    -0.365 N 
HETATM   10  C9  UNL     1      28.097  50.955 254.942  1.00  0.00     0.149 C 
ATOM     11  H2  UNL     1      27.902  49.990 253.040  1.00  0.00     0.161 HD
ENDBRANCH   6   7
ENDBRANCH   2   6
BRANCH   1  12
HETATM   12  C5  UNL     1      28.788  52.670 250.471  1.00  0.00     0.273 C 
BRANCH  12  13
HETATM   13  C4  UNL     1      28.373  54.122 250.324  1.00  0.00     0.030 C 
BRANCH  13  14
HETATM   14  C3  UNL     1      28.753  54.799 251.625  1.00  0.00     0.001 C 
BRANCH  14  15
HETATM   15  C2  UNL     1      27.676  55.753 252.114  1.00  0.00    -0.005 C 
HETATM   16  C1  UNL     1      27.794  56.038 253.581  1.00  0.00     0.005 C 
ENDBRANCH  14  15
ENDBRANCH  13  14
ENDBRANCH  12  13
ENDBRANCH   1  12
BRANCH   3  17
HETATM   17  O2  UNL     1      25.636  50.208 249.252  1.00  0.00    -0.391 OA
ATOM     18  H2  UNL     1      25.898  50.823 248.577  1.00  0.00     0.210 HD
ENDBRANCH   3  17
BRANCH   5  19
HETATM   19  C13 UNL     1      28.479  51.357 247.423  1.00  0.00     0.202 C 
BRANCH  19  20
HETATM   20  O4  UNL     1      27.848  50.349 246.710  1.00  0.00    -0.399 OA
ATOM     21  H4  UNL     1      27.400  49.787 247.332  1.00  0.00     0.209 HD
ENDBRANCH  19  20
ENDBRANCH   5  19
BRANCH   4  22
HETATM   22  O3  UNL     1      28.754  48.552 249.309  1.00  0.00    -0.391 OA
ATOM     23  H3  UNL     1      29.274  48.227 248.583  1.00  0.00     0.210 HD
ENDBRANCH   4  22
TORSDOF 10
ENDMDL
