MODEL 2
REMARK VINA RESULT: -6.696761171      2.028      4.516
REMARK  10 active torsions:
REMARK  status: ('A' for Active; 'I' for Inactive)
REMARK    1  A    between atoms: C2_2  and  C3_3 
REMARK    2  A    between atoms: C3_3  and  C4_4 
REMARK    3  A    between atoms: C4_4  and  C5_5 
REMARK    4  A    between atoms: C5_5  and  N1_6 
REMARK    5  A    between atoms: C6_7  and  C7_8 
REMARK    6  A    between atoms: C7_8  and  C8_9 
REMARK       I    between atoms: C8_9  and  N2_11 
REMARK    7  A    between atoms: C10_14  and  O2_15 
REMARK    8  A    between atoms: C11_17  and  O3_18 
REMARK    9  A    between atoms: C12_20  and  C13_21 
REMARK   10  A    between atoms: C13_21  and  O4_22 
ROOT
HETATM    1  N1  UNL     1      28.130  51.612 249.624  1.00  0.00     0.105 N 
HETATM    2  C6  UNL     1      28.407  52.636 250.608  1.00  0.00     0.263 C 
HETATM    3  C10 UNL     1      27.329  52.395 251.643  1.00  0.00     0.182 C 
HETATM    4  C11 UNL     1      27.286  50.887 251.708  1.00  0.00     0.184 C 
HETATM    5  C12 UNL     1      27.809  50.426 250.335  1.00  0.00     0.277 C 
ENDROOT
BRANCH   2   6
HETATM    6  C7  UNL     1      28.382  54.028 250.085  1.00  0.00     0.141 C 
BRANCH   6   7
HETATM    7  C8  UNL     1      28.557  55.000 251.166  1.00  0.00     0.219 C 
HETATM    8  O1  UNL     1      27.633  55.683 251.674  1.00  0.00    -0.274 OA
HETATM    9  N2  UNL     1      29.860  55.220 251.717  1.00  0.00    -0.365 N 
HETATM   10  C9  UNL     1      30.093  56.170 252.792  1.00  0.00     0.149 C 
ATOM     11  H2  UNL     1      30.649  54.693 251.344  1.00  0.00     0.161 HD
ENDBRANCH   6   7
ENDBRANCH   2   6
BRANCH   1  12
HETATM   12  C5  UNL     1      29.275  51.509 248.777  1.00  0.00     0.273 C 
BRANCH  12  13
HETATM   13  C4  UNL     1      28.948  51.156 247.338  1.00  0.00     0.030 C 
BRANCH  13  14
HETATM   14  C3  UNL     1      28.716  52.473 246.626  1.00  0.00     0.001 C 
BRANCH  14  15
HETATM   15  C2  UNL     1      28.267  52.278 245.188  1.00  0.00    -0.005 C 
HETATM   16  C1  UNL     1      29.333  52.660 244.205  1.00  0.00     0.005 C 
ENDBRANCH  14  15
ENDBRANCH  13  14
ENDBRANCH  12  13
ENDBRANCH   1  12
BRANCH   3  17
HETATM   17  O2  UNL     1      26.101  52.846 251.146  1.00  0.00    -0.391 OA
ATOM     18  H2  UNL     1      25.850  53.641 251.602  1.00  0.00     0.210 HD
ENDBRANCH   3  17
BRANCH   5  19
HETATM   19  C13 UNL     1      26.689  49.628 249.714  1.00  0.00     0.202 C 
BRANCH  19  20
HETATM   20  O4  UNL     1      25.832  50.516 249.083  1.00  0.00    -0.399 OA
ATOM     21  H4  UNL     1      25.231  50.858 249.735  1.00  0.00     0.209 HD
ENDBRANCH  19  20
ENDBRANCH   5  19
BRANCH   4  22
HETATM   22  O3  UNL     1      28.067  50.372 252.721  1.00  0.00    -0.391 OA
ATOM     23  H3  UNL     1      28.851  49.941 252.399  1.00  0.00     0.210 HD
ENDBRANCH   4  22
TORSDOF 10
ENDMDL
