MODEL 1
REMARK VINA RESULT: -6.776352145      0.000      0.000
REMARK  10 active torsions:
REMARK  status: ('A' for Active; 'I' for Inactive)
REMARK    1  A    between atoms: C2_2  and  C3_3 
REMARK    2  A    between atoms: C3_3  and  C4_4 
REMARK    3  A    between atoms: C4_4  and  C5_5 
REMARK    4  A    between atoms: C5_5  and  N1_6 
REMARK    5  A    between atoms: C6_7  and  C7_8 
REMARK    6  A    between atoms: C7_8  and  C8_9 
REMARK       I    between atoms: C8_9  and  N2_11 
REMARK    7  A    between atoms: C10_14  and  O2_15 
REMARK    8  A    between atoms: C11_17  and  O3_18 
REMARK    9  A    between atoms: C12_20  and  C13_21 
REMARK   10  A    between atoms: C13_21  and  O4_22 
ROOT
HETATM    1  N1  UNL     1      27.968  51.800 249.829  1.00  0.00     0.105 N 
HETATM    2  C6  UNL     1      27.293  50.897 250.736  1.00  0.00     0.263 C 
HETATM    3  C10 UNL     1      26.726  49.853 249.795  1.00  0.00     0.182 C 
HETATM    4  C11 UNL     1      27.856  49.673 248.809  1.00  0.00     0.184 C 
HETATM    5  C12 UNL     1      28.632  51.001 248.861  1.00  0.00     0.277 C 
ENDROOT
BRANCH   2   6
HETATM    6  C7  UNL     1      26.239  51.526 251.575  1.00  0.00     0.141 C 
BRANCH   6   7
HETATM    7  C8  UNL     1      26.716  51.743 252.943  1.00  0.00     0.219 C 
HETATM    8  O1  UNL     1      26.429  52.737 253.655  1.00  0.00    -0.274 OA
HETATM    9  N2  UNL     1      27.573  50.774 253.556  1.00  0.00    -0.365 N 
HETATM   10  C9  UNL     1      28.075  50.935 254.911  1.00  0.00     0.149 C 
ATOM     11  H2  UNL     1      27.840  49.945 253.026  1.00  0.00     0.161 HD
ENDBRANCH   6   7
ENDBRANCH   2   6
BRANCH   1  12
HETATM   12  C5  UNL     1      28.830  52.628 250.612  1.00  0.00     0.273 C 
BRANCH  12  13
HETATM   13  C4  UNL     1      28.443  54.095 250.610  1.00  0.00     0.030 C 
BRANCH  13  14
HETATM   14  C3  UNL     1      29.196  54.728 251.762  1.00  0.00     0.001 C 
BRANCH  14  15
HETATM   15  C2  UNL     1      29.870  53.693 252.647  1.00  0.00    -0.005 C 
HETATM   16  C1  UNL     1      31.214  54.150 253.131  1.00  0.00     0.005 C 
ENDBRANCH  14  15
ENDBRANCH  13  14
ENDBRANCH  12  13
ENDBRANCH   1  12
BRANCH   3  17
HETATM   17  O2  UNL     1      25.632  50.393 249.111  1.00  0.00    -0.391 OA
ATOM     18  H2  UNL     1      25.302  49.753 248.491  1.00  0.00     0.210 HD
ENDBRANCH   3  17
BRANCH   5  19
HETATM   19  C13 UNL     1      28.574  51.567 247.463  1.00  0.00     0.202 C 
BRANCH  19  20
HETATM   20  O4  UNL     1      27.876  50.670 246.668  1.00  0.00    -0.399 OA
ATOM     21  H4  UNL     1      28.509  50.107 246.238  1.00  0.00     0.209 HD
ENDBRANCH  19  20
ENDBRANCH   5  19
BRANCH   4  22
HETATM   22  O3  UNL     1      28.683  48.617 249.131  1.00  0.00    -0.391 OA
ATOM     23  H3  UNL     1      28.769  47.987 248.424  1.00  0.00     0.210 HD
ENDBRANCH   4  22
TORSDOF 10
ENDMDL
