MODEL 5
REMARK VINA RESULT: -6.324331888      1.719      4.781
REMARK  10 active torsions:
REMARK  status: ('A' for Active; 'I' for Inactive)
REMARK    1  A    between atoms: C2_2  and  C3_3 
REMARK    2  A    between atoms: C3_3  and  C4_4 
REMARK    3  A    between atoms: C4_4  and  C5_5 
REMARK    4  A    between atoms: C5_5  and  N1_6 
REMARK    5  A    between atoms: C6_7  and  C7_8 
REMARK    6  A    between atoms: C7_8  and  C8_9 
REMARK       I    between atoms: C8_9  and  N2_11 
REMARK    7  A    between atoms: C10_14  and  O2_15 
REMARK    8  A    between atoms: C11_17  and  O3_18 
REMARK    9  A    between atoms: C12_20  and  C13_21 
REMARK   10  A    between atoms: C13_21  and  O4_22 
ROOT
HETATM    1  N1  UNL     1      28.394  51.904 250.100  1.00  0.00     0.105 N 
HETATM    2  C6  UNL     1      28.052  51.373 248.799  1.00  0.00     0.263 C 
HETATM    3  C10 UNL     1      27.631  49.955 249.125  1.00  0.00     0.182 C 
HETATM    4  C11 UNL     1      26.846  50.147 250.401  1.00  0.00     0.184 C 
HETATM    5  C12 UNL     1      27.409  51.442 251.012  1.00  0.00     0.277 C 
ENDROOT
BRANCH   2   6
HETATM    6  C7  UNL     1      29.152  51.415 247.798  1.00  0.00     0.141 C 
BRANCH   6   7
HETATM    7  C8  UNL     1      28.700  52.023 246.545  1.00  0.00     0.219 C 
HETATM    8  O1  UNL     1      27.568  52.535 246.363  1.00  0.00    -0.274 OA
HETATM    9  N2  UNL     1      29.581  52.059 245.417  1.00  0.00    -0.365 N 
HETATM   10  C9  UNL     1      29.187  52.651 244.148  1.00  0.00     0.149 C 
ATOM     11  H2  UNL     1      30.514  51.658 245.505  1.00  0.00     0.161 HD
ENDBRANCH   6   7
ENDBRANCH   2   6
BRANCH   1  12
HETATM   12  C5  UNL     1      28.472  53.326 249.976  1.00  0.00     0.273 C 
BRANCH  12  13
HETATM   13  C4  UNL     1      27.527  54.078 250.895  1.00  0.00     0.030 C 
BRANCH  13  14
HETATM   14  C3  UNL     1      28.310  55.264 251.421  1.00  0.00     0.001 C 
BRANCH  14  15
HETATM   15  C2  UNL     1      29.597  54.844 252.109  1.00  0.00    -0.005 C 
HETATM   16  C1  UNL     1      30.483  56.015 252.416  1.00  0.00     0.005 C 
ENDBRANCH  14  15
ENDBRANCH  13  14
ENDBRANCH  12  13
ENDBRANCH   1  12
BRANCH   3  17
HETATM   17  O2  UNL     1      28.766  49.192 249.422  1.00  0.00    -0.391 OA
ATOM     18  H2  UNL     1      29.011  48.682 248.658  1.00  0.00     0.210 HD
ENDBRANCH   3  17
BRANCH   5  19
HETATM   19  C13 UNL     1      27.963  51.054 252.361  1.00  0.00     0.202 C 
BRANCH  19  20
HETATM   20  O4  UNL     1      26.910  51.021 253.262  1.00  0.00    -0.399 OA
ATOM     21  H4  UNL     1      27.235  51.318 254.103  1.00  0.00     0.209 HD
ENDBRANCH  19  20
ENDBRANCH   5  19
BRANCH   4  22
HETATM   22  O3  UNL     1      25.489  50.266 250.181  1.00  0.00    -0.391 OA
ATOM     23  H3  UNL     1      25.052  50.783 250.847  1.00  0.00     0.210 HD
ENDBRANCH   4  22
TORSDOF 10
ENDMDL
