MODEL 2
REMARK VINA RESULT: -6.214868764      0.986      1.018
REMARK  10 active torsions:
REMARK  status: ('A' for Active; 'I' for Inactive)
REMARK    1  A    between atoms: C2_2  and  C3_3 
REMARK    2  A    between atoms: C3_3  and  C4_4 
REMARK    3  A    between atoms: C4_4  and  C5_5 
REMARK    4  A    between atoms: C5_5  and  N1_6 
REMARK    5  A    between atoms: C6_7  and  C7_8 
REMARK    6  A    between atoms: C7_8  and  C8_9 
REMARK       I    between atoms: C8_9  and  N2_11 
REMARK    7  A    between atoms: C10_14  and  O2_15 
REMARK    8  A    between atoms: C11_17  and  O3_18 
REMARK    9  A    between atoms: C12_20  and  C13_21 
REMARK   10  A    between atoms: C13_21  and  O4_22 
ROOT
HETATM    1  N1  UNL     1      26.863   0.970 289.123  1.00  0.00     0.105 N 
HETATM    2  C6  UNL     1      26.775   0.014 288.060  1.00  0.00     0.263 C 
HETATM    3  C10 UNL     1      25.943   0.729 287.026  1.00  0.00     0.182 C 
HETATM    4  C11 UNL     1      26.423   2.174 287.194  1.00  0.00     0.184 C 
HETATM    5  C12 UNL     1      26.762   2.296 288.652  1.00  0.00     0.277 C 
ENDROOT
BRANCH   2   6
HETATM    6  C7  UNL     1      28.101  -0.400 287.517  1.00  0.00     0.141 C 
BRANCH   6   7
HETATM    7  C8  UNL     1      28.185  -1.789 287.034  1.00  0.00     0.219 C 
HETATM    8  O1  UNL     1      29.116  -2.600 287.286  1.00  0.00    -0.274 OA
HETATM    9  N2  UNL     1      27.123  -2.300 286.195  1.00  0.00    -0.365 N 
HETATM   10  C9  UNL     1      27.180  -3.664 285.707  1.00  0.00     0.149 C 
ATOM     11  H2  UNL     1      26.335  -1.702 285.947  1.00  0.00     0.161 HD
ENDBRANCH   6   7
ENDBRANCH   2   6
BRANCH   1  12
HETATM   12  C5  UNL     1      27.988   0.734 290.000  1.00  0.00     0.273 C 
BRANCH  12  13
HETATM   13  C4  UNL     1      27.474   0.713 291.423  1.00  0.00     0.030 C 
BRANCH  13  14
HETATM   14  C3  UNL     1      28.639   0.861 292.410  1.00  0.00     0.001 C 
BRANCH  14  15
HETATM   15  C2  UNL     1      28.070   1.202 293.774  1.00  0.00    -0.005 C 
HETATM   16  C1  UNL     1      28.946   0.604 294.839  1.00  0.00     0.005 C 
ENDBRANCH  14  15
ENDBRANCH  13  14
ENDBRANCH  12  13
ENDBRANCH   1  12
BRANCH   3  17
HETATM   17  O2  UNL     1      26.131   0.323 285.731  1.00  0.00    -0.391 OA
ATOM     18  H2  UNL     1      26.767   0.823 285.233  1.00  0.00     0.210 HD
ENDBRANCH   3  17
BRANCH   5  19
HETATM   19  C13 UNL     1      25.580   3.000 289.335  1.00  0.00     0.202 C 
BRANCH  19  20
HETATM   20  O4  UNL     1      26.100   3.908 290.283  1.00  0.00    -0.399 OA
ATOM     21  H4  UNL     1      26.650   3.422 290.885  1.00  0.00     0.209 HD
ENDBRANCH  19  20
ENDBRANCH   5  19
BRANCH   4  22
HETATM   22  O3  UNL     1      27.549   2.314 286.392  1.00  0.00    -0.391 OA
ATOM     23  H3  UNL     1      27.535   3.203 286.057  1.00  0.00     0.210 HD
ENDBRANCH   4  22
TORSDOF 10
ENDMDL
