MODEL 4
REMARK VINA RESULT: -5.866400811      2.027      4.650
REMARK  10 active torsions:
REMARK  status: ('A' for Active; 'I' for Inactive)
REMARK    1  A    between atoms: C2_2  and  C3_3 
REMARK    2  A    between atoms: C3_3  and  C4_4 
REMARK    3  A    between atoms: C4_4  and  C5_5 
REMARK    4  A    between atoms: C5_5  and  N1_6 
REMARK    5  A    between atoms: C6_7  and  C7_8 
REMARK    6  A    between atoms: C7_8  and  C8_9 
REMARK       I    between atoms: C8_9  and  N2_11 
REMARK    7  A    between atoms: C10_14  and  O2_15 
REMARK    8  A    between atoms: C11_17  and  O3_18 
REMARK    9  A    between atoms: C12_20  and  C13_21 
REMARK   10  A    between atoms: C13_21  and  O4_22 
ROOT
HETATM    1  N1  UNL     1      27.310   0.794 289.521  1.00  0.00     0.105 N 
HETATM    2  C6  UNL     1      26.374   1.487 288.686  1.00  0.00     0.263 C 
HETATM    3  C10 UNL     1      25.909   2.621 289.563  1.00  0.00     0.182 C 
HETATM    4  C11 UNL     1      27.192   2.963 290.326  1.00  0.00     0.184 C 
HETATM    5  C12 UNL     1      27.914   1.653 290.463  1.00  0.00     0.277 C 
ENDROOT
BRANCH   2   6
HETATM    6  C7  UNL     1      26.963   1.979 287.407  1.00  0.00     0.141 C 
BRANCH   6   7
HETATM    7  C8  UNL     1      26.535   1.264 286.193  1.00  0.00     0.219 C 
HETATM    8  O1  UNL     1      25.389   0.781 285.989  1.00  0.00    -0.274 OA
HETATM    9  N2  UNL     1      27.487   1.082 285.119  1.00  0.00    -0.365 N 
HETATM   10  C9  UNL     1      27.092   0.383 283.912  1.00  0.00     0.149 C 
ATOM     11  H2  UNL     1      28.436   1.446 285.211  1.00  0.00     0.161 HD
ENDBRANCH   6   7
ENDBRANCH   2   6
BRANCH   1  12
HETATM   12  C5  UNL     1      28.243  -0.015 288.769  1.00  0.00     0.273 C 
BRANCH  12  13
HETATM   13  C4  UNL     1      27.620  -1.379 288.568  1.00  0.00     0.030 C 
BRANCH  13  14
HETATM   14  C3  UNL     1      28.162  -2.025 287.286  1.00  0.00     0.001 C 
BRANCH  14  15
HETATM   15  C2  UNL     1      26.988  -2.548 286.481  1.00  0.00    -0.005 C 
HETATM   16  C1  UNL     1      27.471  -3.616 285.539  1.00  0.00     0.005 C 
ENDBRANCH  14  15
ENDBRANCH  13  14
ENDBRANCH  12  13
ENDBRANCH   1  12
BRANCH   3  17
HETATM   17  O2  UNL     1      25.451   3.730 288.903  1.00  0.00    -0.391 OA
ATOM     18  H2  UNL     1      26.086   4.171 288.350  1.00  0.00     0.210 HD
ENDBRANCH   3  17
BRANCH   5  19
HETATM   19  C13 UNL     1      27.647   1.133 291.884  1.00  0.00     0.202 C 
BRANCH  19  20
HETATM   20  O4  UNL     1      27.568   2.245 292.750  1.00  0.00    -0.399 OA
ATOM     21  H4  UNL     1      27.281   1.935 293.601  1.00  0.00     0.209 HD
ENDBRANCH  19  20
ENDBRANCH   5  19
BRANCH   4  22
HETATM   22  O3  UNL     1      27.899   3.858 289.535  1.00  0.00    -0.391 OA
ATOM     23  H3  UNL     1      27.321   4.107 288.823  1.00  0.00     0.210 HD
ENDBRANCH   4  22
TORSDOF 10
ENDMDL
