MODEL 1
REMARK VINA RESULT: -6.347200977      0.000      0.000
REMARK  10 active torsions:
REMARK  status: ('A' for Active; 'I' for Inactive)
REMARK    1  A    between atoms: C2_2  and  C3_3 
REMARK    2  A    between atoms: C3_3  and  C4_4 
REMARK    3  A    between atoms: C4_4  and  C5_5 
REMARK    4  A    between atoms: C5_5  and  N1_6 
REMARK    5  A    between atoms: C6_7  and  C7_8 
REMARK    6  A    between atoms: C7_8  and  C8_9 
REMARK       I    between atoms: C8_9  and  N2_11 
REMARK    7  A    between atoms: C10_14  and  O2_15 
REMARK    8  A    between atoms: C11_17  and  O3_18 
REMARK    9  A    between atoms: C12_20  and  C13_21 
REMARK   10  A    between atoms: C13_21  and  O4_22 
ROOT
HETATM    1  N1  UNL     1      26.939   0.971 289.185  1.00  0.00     0.105 N 
HETATM    2  C6  UNL     1      26.941  -0.053 288.182  1.00  0.00     0.263 C 
HETATM    3  C10 UNL     1      26.055   0.522 287.106  1.00  0.00     0.182 C 
HETATM    4  C11 UNL     1      26.408   2.011 287.184  1.00  0.00     0.184 C 
HETATM    5  C12 UNL     1      26.726   2.251 288.632  1.00  0.00     0.277 C 
ENDROOT
BRANCH   2   6
HETATM    6  C7  UNL     1      28.300  -0.383 287.666  1.00  0.00     0.141 C 
BRANCH   6   7
HETATM    7  C8  UNL     1      28.479  -1.762 287.181  1.00  0.00     0.219 C 
HETATM    8  O1  UNL     1      27.555  -2.585 286.946  1.00  0.00    -0.274 OA
HETATM    9  N2  UNL     1      29.821  -2.247 286.941  1.00  0.00    -0.365 N 
HETATM   10  C9  UNL     1      30.026  -3.600 286.463  1.00  0.00     0.149 C 
ATOM     11  H2  UNL     1      30.622  -1.638 287.109  1.00  0.00     0.161 HD
ENDBRANCH   6   7
ENDBRANCH   2   6
BRANCH   1  12
HETATM   12  C5  UNL     1      28.076   0.888 290.075  1.00  0.00     0.273 C 
BRANCH  12  13
HETATM   13  C4  UNL     1      27.554   0.664 291.478  1.00  0.00     0.030 C 
BRANCH  13  14
HETATM   14  C3  UNL     1      28.655   0.957 292.505  1.00  0.00     0.001 C 
BRANCH  14  15
HETATM   15  C2  UNL     1      28.008   1.111 293.868  1.00  0.00    -0.005 C 
HETATM   16  C1  UNL     1      28.939   0.577 294.920  1.00  0.00     0.005 C 
ENDBRANCH  14  15
ENDBRANCH  13  14
ENDBRANCH  12  13
ENDBRANCH   1  12
BRANCH   3  17
HETATM   17  O2  UNL     1      26.285   0.055 285.839  1.00  0.00    -0.391 OA
ATOM     18  H2  UNL     1      25.514  -0.050 285.295  1.00  0.00     0.210 HD
ENDBRANCH   3  17
BRANCH   5  19
HETATM   19  C13 UNL     1      25.484   2.891 289.271  1.00  0.00     0.202 C 
BRANCH  19  20
HETATM   20  O4  UNL     1      25.918   3.891 290.167  1.00  0.00    -0.399 OA
ATOM     21  H4  UNL     1      25.617   3.657 291.038  1.00  0.00     0.209 HD
ENDBRANCH  19  20
ENDBRANCH   5  19
BRANCH   4  22
HETATM   22  O3  UNL     1      27.521   2.198 286.376  1.00  0.00    -0.391 OA
ATOM     23  H3  UNL     1      27.254   1.981 285.490  1.00  0.00     0.210 HD
ENDBRANCH   4  22
TORSDOF 10
ENDMDL
