MODEL 2
REMARK VINA RESULT: -9.848668593      0.909      1.244
REMARK  5 active torsions:
REMARK  status: ('A' for Active; 'I' for Inactive)
REMARK       I    between atoms: C2_2  and  N1_4 
REMARK    1  A    between atoms: C6_8  and  C7_9 
REMARK    2  A    between atoms: C10_12  and  C11_13 
REMARK    3  A    between atoms: C11_13  and  N2_14 
REMARK    4  A    between atoms: C21_24  and  N3_25 
REMARK    5  A    between atoms: N3_25  and  C22_27 
ROOT
HETATM    1  C1  UNL     1      -1.654 -11.329  21.851  1.00  0.00     0.117 C 
HETATM    2  C2  UNL     1      -1.577  -9.849  22.037  1.00  0.00     0.220 C 
HETATM    3  O1  UNL     1      -1.732  -9.372  23.191  1.00  0.00    -0.273 OA
HETATM    4  N1  UNL     1      -1.333  -8.995  20.941  1.00  0.00    -0.313 N 
HETATM    5  C3  UNL     1      -1.014  -7.604  21.116  1.00  0.00     0.046 A 
HETATM    6  C4  UNL     1      -0.462  -7.189  22.307  1.00  0.00     0.031 A 
HETATM    7  C5  UNL     1      -0.154  -5.870  22.509  1.00  0.00     0.014 A 
HETATM    8  C6  UNL     1      -0.392  -4.941  21.527  1.00  0.00    -0.025 A 
HETATM    9  C19 UNL     1      -0.935  -5.332  20.348  1.00  0.00     0.024 A 
HETATM   10  C20 UNL     1      -1.244  -6.660  20.143  1.00  0.00    -0.008 A 
HETATM   11  C21 UNL     1      -1.808  -7.133  18.829  1.00  0.00     0.119 C 
HETATM   12  C28 UNL     1      -1.249  -8.493  18.513  1.00  0.00     0.055 C 
HETATM   13  C29 UNL     1      -1.443  -9.516  19.609  1.00  0.00     0.091 C 
HETATM   14  C30 UNL     1      -2.804 -10.183  19.469  1.00  0.00     0.033 C 
ENDROOT
BRANCH   8  15
HETATM   15  C7  UNL     1      -0.037  -3.537  21.818  1.00  0.00    -0.026 A 
HETATM   16  C8  UNL     1      -0.482  -2.869  22.924  1.00  0.00     0.013 A 
HETATM   17  C9  UNL     1      -0.153  -1.556  23.206  1.00  0.00     0.010 A 
HETATM   18  C10 UNL     1       0.659  -0.911  22.320  1.00  0.00    -0.030 A 
HETATM   19  C17 UNL     1       1.126  -1.556  21.193  1.00  0.00     0.010 A 
HETATM   20  C18 UNL     1       0.784  -2.886  20.923  1.00  0.00     0.013 A 
BRANCH  18  21
HETATM   21  C11 UNL     1       1.043   0.497  22.571  1.00  0.00     0.311 C 
BRANCH  21  22
HETATM   22  N2  UNL     1       1.895   0.619  23.737  1.00  0.00     0.092 N 
HETATM   23  C12 UNL     1       2.097   2.011  24.082  1.00  0.00     0.272 C 
HETATM   24  C13 UNL     1       3.548   2.381  24.189  1.00  0.00     0.030 C 
HETATM   25  C14 UNL     1       4.349   2.031  22.966  1.00  0.00     0.003 C 
HETATM   26  C15 UNL     1       4.048   0.627  22.542  1.00  0.00     0.030 C 
HETATM   27  C16 UNL     1       3.172  -0.009  23.577  1.00  0.00     0.272 C 
ENDBRANCH  21  22
ENDBRANCH  18  21
ENDBRANCH   8  15
BRANCH  11  28
HETATM   28  N3  UNL     1      -3.227  -7.108  18.820  1.00  0.00    -0.381 N 
ATOM     29  H3  UNL     1      -3.707  -7.124  19.720  1.00  0.00     0.160 HD
BRANCH  28  30
HETATM   30  C22 UNL     1      -4.014  -7.062  17.661  1.00  0.00     0.028 A 
HETATM   31  C23 UNL     1      -4.269  -5.830  17.046  1.00  0.00     0.029 A 
HETATM   32  C24 UNL     1      -5.024  -5.728  15.900  1.00  0.00     0.002 A 
HETATM   33  C25 UNL     1      -5.566  -6.845  15.302  1.00  0.00     0.000 A 
HETATM   34  C26 UNL     1      -5.330  -8.070  15.886  1.00  0.00     0.002 A 
HETATM   35  C27 UNL     1      -4.566  -8.161  17.043  1.00  0.00     0.029 A 
ENDBRANCH  28  30
ENDBRANCH  11  28
TORSDOF 5
ENDMDL
