MODEL 3
REMARK VINA RESULT: -9.769050274      1.092      1.482
REMARK  5 active torsions:
REMARK  status: ('A' for Active; 'I' for Inactive)
REMARK       I    between atoms: C2_2  and  N1_4 
REMARK    1  A    between atoms: C6_8  and  C7_9 
REMARK    2  A    between atoms: C10_12  and  C11_13 
REMARK    3  A    between atoms: C11_13  and  N2_14 
REMARK    4  A    between atoms: C21_24  and  N3_25 
REMARK    5  A    between atoms: N3_25  and  C22_27 
ROOT
HETATM    1  C1  UNL     1      -1.655 -11.273  21.764  1.00  0.00     0.117 C 
HETATM    2  C2  UNL     1      -1.592  -9.795  21.978  1.00  0.00     0.220 C 
HETATM    3  O1  UNL     1      -1.756  -9.342  23.140  1.00  0.00    -0.273 OA
HETATM    4  N1  UNL     1      -1.350  -8.919  20.899  1.00  0.00    -0.313 N 
HETATM    5  C3  UNL     1      -1.044  -7.529  21.103  1.00  0.00     0.046 A 
HETATM    6  C4  UNL     1      -0.501  -7.132  22.304  1.00  0.00     0.031 A 
HETATM    7  C5  UNL     1      -0.206  -5.815  22.533  1.00  0.00     0.014 A 
HETATM    8  C6  UNL     1      -0.448  -4.869  21.567  1.00  0.00    -0.025 A 
HETATM    9  C19 UNL     1      -0.980  -5.242  20.378  1.00  0.00     0.024 A 
HETATM   10  C20 UNL     1      -1.277  -6.569  20.146  1.00  0.00    -0.008 A 
HETATM   11  C21 UNL     1      -1.831  -7.021  18.821  1.00  0.00     0.119 C 
HETATM   12  C28 UNL     1      -1.258  -8.370  18.482  1.00  0.00     0.055 C 
HETATM   13  C29 UNL     1      -1.449  -9.415  19.557  1.00  0.00     0.091 C 
HETATM   14  C30 UNL     1      -2.804 -10.092  19.398  1.00  0.00     0.033 C 
ENDROOT
BRANCH   8  15
HETATM   15  C7  UNL     1      -0.106  -3.468  21.887  1.00  0.00    -0.026 A 
HETATM   16  C8  UNL     1      -0.672  -2.779  22.923  1.00  0.00     0.013 A 
HETATM   17  C9  UNL     1      -0.358  -1.469  23.231  1.00  0.00     0.010 A 
HETATM   18  C10 UNL     1       0.570  -0.848  22.447  1.00  0.00    -0.030 A 
HETATM   19  C17 UNL     1       1.162  -1.514  21.392  1.00  0.00     0.010 A 
HETATM   20  C18 UNL     1       0.831  -2.841  21.095  1.00  0.00     0.013 A 
BRANCH  18  21
HETATM   21  C11 UNL     1       0.945   0.556  22.729  1.00  0.00     0.311 C 
BRANCH  21  22
HETATM   22  N2  UNL     1       0.320   1.043  23.943  1.00  0.00     0.092 N 
HETATM   23  C12 UNL     1      -0.494   2.210  23.669  1.00  0.00     0.272 C 
HETATM   24  C13 UNL     1      -0.142   3.383  24.537  1.00  0.00     0.030 C 
HETATM   25  C14 UNL     1       1.315   3.749  24.491  1.00  0.00     0.003 C 
HETATM   26  C15 UNL     1       2.156   2.521  24.658  1.00  0.00     0.030 C 
HETATM   27  C16 UNL     1       1.259   1.365  24.975  1.00  0.00     0.272 C 
ENDBRANCH  21  22
ENDBRANCH  18  21
ENDBRANCH   8  15
BRANCH  11  28
HETATM   28  N3  UNL     1      -3.250  -7.008  18.806  1.00  0.00    -0.381 N 
ATOM     29  H3  UNL     1      -3.734  -7.010  19.704  1.00  0.00     0.160 HD
BRANCH  28  30
HETATM   30  C22 UNL     1      -4.032  -6.993  17.642  1.00  0.00     0.028 A 
HETATM   31  C23 UNL     1      -4.293  -5.775  17.001  1.00  0.00     0.029 A 
HETATM   32  C24 UNL     1      -5.044  -5.703  15.849  1.00  0.00     0.002 A 
HETATM   33  C25 UNL     1      -5.575  -6.836  15.273  1.00  0.00     0.000 A 
HETATM   34  C26 UNL     1      -5.332  -8.047  15.882  1.00  0.00     0.002 A 
HETATM   35  C27 UNL     1      -4.573  -8.108  17.044  1.00  0.00     0.029 A 
ENDBRANCH  28  30
ENDBRANCH  11  28
TORSDOF 5
ENDMDL
