MODEL 1
REMARK VINA RESULT: -9.869135146      0.000      0.000
REMARK  5 active torsions:
REMARK  status: ('A' for Active; 'I' for Inactive)
REMARK       I    between atoms: C2_2  and  N1_4 
REMARK    1  A    between atoms: C6_8  and  C7_9 
REMARK    2  A    between atoms: C10_12  and  C11_13 
REMARK    3  A    between atoms: C11_13  and  N2_14 
REMARK    4  A    between atoms: C21_24  and  N3_25 
REMARK    5  A    between atoms: N3_25  and  C22_27 
ROOT
HETATM    1  C1  UNL     1      -1.653 -11.250  21.808  1.00  0.00     0.117 C 
HETATM    2  C2  UNL     1      -1.590  -9.771  22.016  1.00  0.00     0.220 C 
HETATM    3  O1  UNL     1      -1.759  -9.312  23.175  1.00  0.00    -0.273 OA
HETATM    4  N1  UNL     1      -1.342  -8.900  20.935  1.00  0.00    -0.313 N 
HETATM    5  C3  UNL     1      -1.035  -7.509  21.134  1.00  0.00     0.046 A 
HETATM    6  C4  UNL     1      -0.498  -7.107  22.336  1.00  0.00     0.031 A 
HETATM    7  C5  UNL     1      -0.203  -5.789  22.561  1.00  0.00     0.014 A 
HETATM    8  C6  UNL     1      -0.439  -4.848  21.589  1.00  0.00    -0.025 A 
HETATM    9  C19 UNL     1      -0.967  -5.226  20.400  1.00  0.00     0.024 A 
HETATM   10  C20 UNL     1      -1.264  -6.553  20.172  1.00  0.00    -0.008 A 
HETATM   11  C21 UNL     1      -1.812  -7.011  18.847  1.00  0.00     0.119 C 
HETATM   12  C28 UNL     1      -1.239  -8.361  18.516  1.00  0.00     0.055 C 
HETATM   13  C29 UNL     1      -1.435  -9.402  19.595  1.00  0.00     0.091 C 
HETATM   14  C30 UNL     1      -2.790 -10.078  19.432  1.00  0.00     0.033 C 
ENDROOT
BRANCH   8  15
HETATM   15  C7  UNL     1      -0.098  -3.445  21.905  1.00  0.00    -0.026 A 
HETATM   16  C8  UNL     1      -0.645  -2.762  22.955  1.00  0.00     0.013 A 
HETATM   17  C9  UNL     1      -0.330  -1.450  23.258  1.00  0.00     0.010 A 
HETATM   18  C10 UNL     1       0.576  -0.823  22.455  1.00  0.00    -0.030 A 
HETATM   19  C17 UNL     1       1.148  -1.484  21.386  1.00  0.00     0.010 A 
HETATM   20  C18 UNL     1       0.818  -2.812  21.094  1.00  0.00     0.013 A 
BRANCH  18  21
HETATM   21  C11 UNL     1       0.951   0.582  22.733  1.00  0.00     0.311 C 
BRANCH  21  22
HETATM   22  N2  UNL     1       1.861   1.101  21.731  1.00  0.00     0.092 N 
HETATM   23  C12 UNL     1       3.138   1.442  22.323  1.00  0.00     0.272 C 
HETATM   24  C13 UNL     1       3.557   2.854  22.033  1.00  0.00     0.030 C 
HETATM   25  C14 UNL     1       2.524   3.878  22.411  1.00  0.00     0.003 C 
HETATM   26  C15 UNL     1       1.180   3.462  21.896  1.00  0.00     0.030 C 
HETATM   27  C16 UNL     1       1.350   2.246  21.039  1.00  0.00     0.272 C 
ENDBRANCH  21  22
ENDBRANCH  18  21
ENDBRANCH   8  15
BRANCH  11  28
HETATM   28  N3  UNL     1      -3.231  -6.996  18.825  1.00  0.00    -0.381 N 
ATOM     29  H3  UNL     1      -3.719  -6.985  19.720  1.00  0.00     0.160 HD
BRANCH  28  30
HETATM   30  C22 UNL     1      -4.008  -6.996  17.657  1.00  0.00     0.028 A 
HETATM   31  C23 UNL     1      -4.282  -5.785  17.010  1.00  0.00     0.029 A 
HETATM   32  C24 UNL     1      -5.028  -5.728  15.854  1.00  0.00     0.002 A 
HETATM   33  C25 UNL     1      -5.542  -6.871  15.280  1.00  0.00     0.000 A 
HETATM   34  C26 UNL     1      -5.286  -8.075  15.897  1.00  0.00     0.002 A 
HETATM   35  C27 UNL     1      -4.531  -8.121  17.063  1.00  0.00     0.029 A 
ENDBRANCH  28  30
ENDBRANCH  11  28
TORSDOF 5
ENDMDL
