MODEL 13
REMARK VINA RESULT: -8.670872612      2.660      3.991
REMARK  7 active torsions:
REMARK  status: ('A' for Active; 'I' for Inactive)
REMARK    1  A    between atoms: O1_2  and  C2_3 
REMARK    2  A    between atoms: C4_7  and  C5_8 
REMARK    3  A    between atoms: C7_10  and  C8_11 
REMARK    4  A    between atoms: C10_15  and  C11_16 
REMARK    5  A    between atoms: C11_16  and  N3_17 
REMARK    6  A    between atoms: C23_35  and  N6_36 
REMARK    7  A    between atoms: N6_36  and  S1_38 
ROOT
HETATM    1  C5  UNL     1      -7.253 -31.226  24.243  1.00  0.00    -0.021 A 
HETATM    2  C6  UNL     1      -6.767 -32.441  23.815  1.00  0.00     0.029 A 
HETATM    3  C7  UNL     1      -5.503 -32.890  24.190  1.00  0.00     0.030 A 
HETATM    4  C18 UNL     1      -4.703 -32.129  25.003  1.00  0.00     0.023 A 
HETATM    5  C19 UNL     1      -3.430 -32.304  25.532  1.00  0.00     0.121 A 
HETATM    6  N4  UNL     1      -3.171 -31.223  26.253  1.00  0.00    -0.311 N 
ATOM      7  H4  UNL     1      -2.307 -31.058  26.770  1.00  0.00     0.186 HD
HETATM    8  N5  UNL     1      -4.201 -30.388  26.205  1.00  0.00    -0.300 N 
ATOM      9  H5  UNL     1      -4.247 -29.486  26.679  1.00  0.00     0.187 HD
HETATM   10  C20 UNL     1      -5.177 -30.910  25.439  1.00  0.00     0.061 A 
HETATM   11  C21 UNL     1      -6.437 -30.479  25.056  1.00  0.00     0.044 A 
ENDROOT
BRANCH   1  12
HETATM   12  C4  UNL     1      -8.553 -30.715  23.876  1.00  0.00    -0.008 A 
HETATM   13  C3  UNL     1      -9.309 -29.985  24.759  1.00  0.00     0.102 A 
HETATM   14  N1  UNL     1     -10.521 -29.509  24.403  1.00  0.00    -0.344 N 
HETATM   15  C2  UNL     1     -11.056 -29.714  23.191  1.00  0.00     0.169 A 
ATOM     16  H1  UNL     1     -11.053 -28.970  25.087  1.00  0.00     0.167 HD
HETATM   17  C23 UNL     1     -10.335 -30.440  22.272  1.00  0.00     0.094 A 
HETATM   18  C22 UNL     1      -9.085 -30.936  22.626  1.00  0.00     0.048 A 
BRANCH  15  19
HETATM   19  O1  UNL     1     -12.327 -29.196  22.863  1.00  0.00    -0.339 OA
HETATM   20  C1  UNL     1     -13.122 -28.524  23.798  1.00  0.00     0.211 C 
ENDBRANCH  15  19
BRANCH  17  21
HETATM   21  N6  UNL     1     -10.884 -30.666  20.991  1.00  0.00    -0.281 N 
ATOM     22  H6  UNL     1     -11.146 -29.871  20.408  1.00  0.00     0.179 HD
BRANCH  21  23
HETATM   23  S1  UNL     1     -11.115 -32.267  20.403  1.00  0.00     0.227 S 
HETATM   24  C24 UNL     1     -11.887 -33.287  21.632  1.00  0.00     0.186 C 
HETATM   25  O4  UNL     1     -12.019 -32.261  19.196  1.00  0.00    -0.206 OA
HETATM   26  O5  UNL     1      -9.814 -32.886  19.947  1.00  0.00    -0.206 OA
ENDBRANCH  21  23
ENDBRANCH  17  21
ENDBRANCH   1  12
BRANCH   3  27
HETATM   27  C8  UNL     1      -5.029 -34.197  23.710  1.00  0.00     0.159 A 
HETATM   28  N2  UNL     1      -5.835 -35.263  23.454  1.00  0.00    -0.344 N 
HETATM   29  C9  UNL     1      -5.077 -36.278  23.038  1.00  0.00     0.124 A 
ATOM     30  H2  UNL     1      -6.849 -35.283  23.563  1.00  0.00     0.167 HD
HETATM   31  C10 UNL     1      -3.762 -35.818  23.039  1.00  0.00     0.088 A 
HETATM   32  O3  UNL     1      -3.815 -34.565  23.453  1.00  0.00    -0.294 OA
BRANCH  31  33
HETATM   33  C11 UNL     1      -2.551 -36.563  22.660  1.00  0.00     0.183 C 
BRANCH  33  34
HETATM   34  N3  UNL     1      -1.722 -35.945  21.685  1.00  0.00    -0.402 N 
HETATM   35  C12 UNL     1      -2.267 -34.847  20.971  1.00  0.00     0.149 C 
HETATM   36  C13 UNL     1      -1.499 -33.561  21.127  1.00  0.00     0.135 C 
HETATM   37  C14 UNL     1      -0.480 -33.419  19.995  1.00  0.00     0.041 C 
HETATM   38  O2  UNL     1      -0.928 -33.388  22.357  1.00  0.00    -0.378 OA
HETATM   39  C15 UNL     1      -0.330 -34.469  22.919  1.00  0.00     0.135 C 
HETATM   40  C16 UNL     1       1.151 -34.223  23.243  1.00  0.00     0.041 C 
HETATM   41  C17 UNL     1      -0.383 -35.745  22.140  1.00  0.00     0.149 C 
ENDBRANCH  33  34
ENDBRANCH  31  33
ENDBRANCH   3  27
TORSDOF 7
ENDMDL
