MODEL 2
REMARK VINA RESULT: -9.819406779      2.433      3.223
REMARK  7 active torsions:
REMARK  status: ('A' for Active; 'I' for Inactive)
REMARK    1  A    between atoms: O1_2  and  C2_3 
REMARK    2  A    between atoms: C4_7  and  C5_8 
REMARK    3  A    between atoms: C7_10  and  C8_11 
REMARK    4  A    between atoms: C10_15  and  C11_16 
REMARK    5  A    between atoms: C11_16  and  N3_17 
REMARK    6  A    between atoms: C23_35  and  N6_36 
REMARK    7  A    between atoms: N6_36  and  S1_38 
ROOT
HETATM    1  C5  UNL     1      -8.682 -30.465  24.123  1.00  0.00    -0.021 A 
HETATM    2  C6  UNL     1      -7.857 -31.546  23.903  1.00  0.00     0.029 A 
HETATM    3  C7  UNL     1      -6.602 -31.633  24.500  1.00  0.00     0.030 A 
HETATM    4  C18 UNL     1      -6.150 -30.639  25.329  1.00  0.00     0.023 A 
HETATM    5  C19 UNL     1      -4.976 -30.449  26.048  1.00  0.00     0.121 A 
HETATM    6  N4  UNL     1      -5.105 -29.289  26.677  1.00  0.00    -0.311 N 
ATOM      7  H4  UNL     1      -4.402 -28.875  27.289  1.00  0.00     0.186 HD
HETATM    8  N5  UNL     1      -6.282 -28.747  26.393  1.00  0.00    -0.300 N 
ATOM      9  H5  UNL     1      -6.618 -27.855  26.754  1.00  0.00     0.187 HD
HETATM   10  C20 UNL     1      -6.966 -29.552  25.558  1.00  0.00     0.061 A 
HETATM   11  C21 UNL     1      -8.213 -29.481  24.957  1.00  0.00     0.044 A 
ENDROOT
BRANCH   1  12
HETATM   12  C4  UNL     1      -9.989 -30.327  23.522  1.00  0.00    -0.008 A 
HETATM   13  C3  UNL     1     -11.019 -29.711  24.188  1.00  0.00     0.102 A 
HETATM   14  N1  UNL     1     -12.234 -29.584  23.615  1.00  0.00    -0.344 N 
HETATM   15  C2  UNL     1     -12.511 -30.041  22.385  1.00  0.00     0.169 A 
ATOM     16  H1  UNL     1     -12.975 -29.119  24.141  1.00  0.00     0.167 HD
HETATM   17  C23 UNL     1     -11.509 -30.666  21.679  1.00  0.00     0.094 A 
HETATM   18  C22 UNL     1     -10.252 -30.804  22.258  1.00  0.00     0.048 A 
BRANCH  15  19
HETATM   19  O1  UNL     1     -13.796 -29.885  21.825  1.00  0.00    -0.339 OA
HETATM   20  C1  UNL     1     -14.684 -28.894  22.261  1.00  0.00     0.211 C 
ENDBRANCH  15  19
BRANCH  17  21
HETATM   21  N6  UNL     1     -11.783 -31.153  20.383  1.00  0.00    -0.281 N 
ATOM     22  H6  UNL     1     -11.913 -30.496  19.614  1.00  0.00     0.179 HD
BRANCH  21  23
HETATM   23  S1  UNL     1     -11.899 -32.845  20.086  1.00  0.00     0.227 S 
HETATM   24  C24 UNL     1     -12.413 -33.709  21.548  1.00  0.00     0.186 C 
HETATM   25  O4  UNL     1     -12.926 -33.125  19.019  1.00  0.00    -0.206 OA
HETATM   26  O5  UNL     1     -10.596 -33.412  19.571  1.00  0.00    -0.206 OA
ENDBRANCH  21  23
ENDBRANCH  17  21
ENDBRANCH   1  12
BRANCH   3  27
HETATM   27  C8  UNL     1      -5.758 -32.809  24.237  1.00  0.00     0.159 A 
HETATM   28  N2  UNL     1      -6.218 -34.088  24.163  1.00  0.00    -0.344 N 
HETATM   29  C9  UNL     1      -5.187 -34.895  23.914  1.00  0.00     0.124 A 
ATOM     30  H2  UNL     1      -7.188 -34.379  24.277  1.00  0.00     0.167 HD
HETATM   31  C10 UNL     1      -4.057 -34.084  23.834  1.00  0.00     0.088 A 
HETATM   32  O3  UNL     1      -4.479 -32.850  24.038  1.00  0.00    -0.294 OA
BRANCH  31  33
HETATM   33  C11 UNL     1      -2.670 -34.503  23.576  1.00  0.00     0.183 C 
BRANCH  33  34
HETATM   34  N3  UNL     1      -1.953 -33.722  22.629  1.00  0.00    -0.402 N 
HETATM   35  C12 UNL     1      -0.540 -33.694  22.747  1.00  0.00     0.149 C 
HETATM   36  C13 UNL     1       0.196 -34.200  21.534  1.00  0.00     0.135 C 
HETATM   37  C14 UNL     1       0.540 -33.035  20.606  1.00  0.00     0.041 C 
HETATM   38  O2  UNL     1      -0.435 -35.216  20.872  1.00  0.00    -0.378 OA
HETATM   39  C15 UNL     1      -1.777 -35.107  20.707  1.00  0.00     0.135 C 
HETATM   40  C16 UNL     1      -2.196 -35.151  19.230  1.00  0.00     0.041 C 
HETATM   41  C17 UNL     1      -2.429 -33.894  21.292  1.00  0.00     0.149 C 
ENDBRANCH  33  34
ENDBRANCH  31  33
ENDBRANCH   3  27
TORSDOF 7
ENDMDL
