MODEL 16
REMARK VINA RESULT: -8.400189773      2.733      7.245
REMARK  7 active torsions:
REMARK  status: ('A' for Active; 'I' for Inactive)
REMARK    1  A    between atoms: O1_2  and  C2_3 
REMARK    2  A    between atoms: C4_7  and  C5_8 
REMARK    3  A    between atoms: C7_10  and  C8_11 
REMARK    4  A    between atoms: C10_15  and  C11_16 
REMARK    5  A    between atoms: C11_16  and  N3_17 
REMARK    6  A    between atoms: C23_35  and  N6_36 
REMARK    7  A    between atoms: N6_36  and  S1_38 
ROOT
HETATM    1  C5  UNL     1      -7.956 -31.702  23.993  1.00  0.00    -0.021 A 
HETATM    2  C6  UNL     1      -8.779 -32.165  22.990  1.00  0.00     0.029 A 
HETATM    3  C7  UNL     1     -10.042 -31.616  22.777  1.00  0.00     0.030 A 
HETATM    4  C18 UNL     1     -10.503 -30.594  23.567  1.00  0.00     0.023 A 
HETATM    5  C19 UNL     1     -11.685 -29.864  23.597  1.00  0.00     0.121 A 
HETATM    6  N4  UNL     1     -11.563 -28.994  24.590  1.00  0.00    -0.311 N 
ATOM      7  H4  UNL     1     -12.273 -28.314  24.862  1.00  0.00     0.186 HD
HETATM    8  N5  UNL     1     -10.382 -29.138  25.177  1.00  0.00    -0.300 N 
ATOM      9  H5  UNL     1     -10.050 -28.586  25.967  1.00  0.00     0.187 HD
HETATM   10  C20 UNL     1      -9.689 -30.121  24.574  1.00  0.00     0.061 A 
HETATM   11  C21 UNL     1      -8.435 -30.678  24.771  1.00  0.00     0.044 A 
ENDROOT
BRANCH   1  12
HETATM   12  C4  UNL     1      -6.642 -32.243  24.256  1.00  0.00    -0.008 A 
HETATM   13  C3  UNL     1      -5.619 -31.446  24.703  1.00  0.00     0.102 A 
HETATM   14  N1  UNL     1      -4.396 -31.962  24.949  1.00  0.00    -0.344 N 
HETATM   15  C2  UNL     1      -4.107 -33.260  24.776  1.00  0.00     0.169 A 
ATOM     16  H1  UNL     1      -3.661 -31.337  25.281  1.00  0.00     0.167 HD
HETATM   17  C23 UNL     1      -5.101 -34.098  24.329  1.00  0.00     0.094 A 
HETATM   18  C22 UNL     1      -6.366 -33.578  24.072  1.00  0.00     0.048 A 
BRANCH  15  19
HETATM   19  O1  UNL     1      -2.814 -33.756  25.047  1.00  0.00    -0.339 OA
HETATM   20  C1  UNL     1      -1.731 -33.520  24.194  1.00  0.00     0.211 C 
ENDBRANCH  15  19
BRANCH  17  21
HETATM   21  N6  UNL     1      -4.813 -35.467  24.142  1.00  0.00    -0.281 N 
ATOM     22  H6  UNL     1      -4.836 -36.101  24.940  1.00  0.00     0.179 HD
BRANCH  21  23
HETATM   23  S1  UNL     1      -4.424 -36.078  22.580  1.00  0.00     0.227 S 
HETATM   24  C24 UNL     1      -5.895 -36.486  21.676  1.00  0.00     0.186 C 
HETATM   25  O4  UNL     1      -3.681 -35.040  21.777  1.00  0.00    -0.206 OA
HETATM   26  O5  UNL     1      -3.508 -37.277  22.662  1.00  0.00    -0.206 OA
ENDBRANCH  21  23
ENDBRANCH  17  21
ENDBRANCH   1  12
BRANCH   3  27
HETATM   27  C8  UNL     1     -10.884 -32.141  21.692  1.00  0.00     0.159 A 
HETATM   28  N2  UNL     1     -10.870 -31.676  20.412  1.00  0.00    -0.344 N 
HETATM   29  C9  UNL     1     -11.753 -32.375  19.698  1.00  0.00     0.124 A 
ATOM     30  H2  UNL     1     -10.283 -30.921  20.059  1.00  0.00     0.167 HD
HETATM   31  C10 UNL     1     -12.327 -33.299  20.569  1.00  0.00     0.088 A 
HETATM   32  O3  UNL     1     -11.755 -33.096  21.742  1.00  0.00    -0.294 OA
BRANCH  31  33
HETATM   33  C11 UNL     1     -13.360 -34.300  20.260  1.00  0.00     0.183 C 
BRANCH  33  34
HETATM   34  N3  UNL     1     -12.970 -35.659  20.408  1.00  0.00    -0.402 N 
HETATM   35  C12 UNL     1     -11.579 -35.933  20.463  1.00  0.00     0.149 C 
HETATM   36  C13 UNL     1     -11.129 -36.608  21.732  1.00  0.00     0.135 C 
HETATM   37  C14 UNL     1     -11.127 -38.126  21.546  1.00  0.00     0.041 C 
HETATM   38  O2  UNL     1     -11.817 -36.228  22.851  1.00  0.00    -0.378 OA
HETATM   39  C15 UNL     1     -13.162 -36.097  22.734  1.00  0.00     0.135 C 
HETATM   40  C16 UNL     1     -13.930 -36.992  23.717  1.00  0.00     0.041 C 
HETATM   41  C17 UNL     1     -13.747 -36.357  21.383  1.00  0.00     0.149 C 
ENDBRANCH  33  34
ENDBRANCH  31  33
ENDBRANCH   3  27
TORSDOF 7
ENDMDL
