MODEL 3
REMARK VINA RESULT: -9.756017361      2.385      3.317
REMARK  7 active torsions:
REMARK  status: ('A' for Active; 'I' for Inactive)
REMARK    1  A    between atoms: O1_2  and  C2_3 
REMARK    2  A    between atoms: C4_7  and  C5_8 
REMARK    3  A    between atoms: C7_10  and  C8_11 
REMARK    4  A    between atoms: C10_15  and  C11_16 
REMARK    5  A    between atoms: C11_16  and  N3_17 
REMARK    6  A    between atoms: C23_35  and  N6_36 
REMARK    7  A    between atoms: N6_36  and  S1_38 
ROOT
HETATM    1  C5  UNL     1      -9.038 -30.250  24.216  1.00  0.00    -0.021 A 
HETATM    2  C6  UNL     1      -8.134 -31.267  24.001  1.00  0.00     0.029 A 
HETATM    3  C7  UNL     1      -6.922 -31.315  24.686  1.00  0.00     0.030 A 
HETATM    4  C18 UNL     1      -6.594 -30.345  25.598  1.00  0.00     0.023 A 
HETATM    5  C19 UNL     1      -5.490 -30.129  26.413  1.00  0.00     0.121 A 
HETATM    6  N4  UNL     1      -5.735 -29.016  27.090  1.00  0.00    -0.311 N 
ATOM      7  H4  UNL     1      -5.105 -28.597  27.775  1.00  0.00     0.186 HD
HETATM    8  N5  UNL     1      -6.920 -28.528  26.747  1.00  0.00    -0.300 N 
ATOM      9  H5  UNL     1      -7.336 -27.679  27.128  1.00  0.00     0.187 HD
HETATM   10  C20 UNL     1      -7.490 -29.322  25.822  1.00  0.00     0.061 A 
HETATM   11  C21 UNL     1      -8.693 -29.289  25.133  1.00  0.00     0.044 A 
ENDROOT
BRANCH   1  12
HETATM   12  C4  UNL     1     -10.304 -30.154  23.526  1.00  0.00    -0.008 A 
HETATM   13  C3  UNL     1     -11.377 -29.510  24.089  1.00  0.00     0.102 A 
HETATM   14  N1  UNL     1     -12.554 -29.422  23.433  1.00  0.00    -0.344 N 
HETATM   15  C2  UNL     1     -12.749 -29.948  22.215  1.00  0.00     0.169 A 
ATOM     16  H1  UNL     1     -13.328 -28.934  23.885  1.00  0.00     0.167 HD
HETATM   17  C23 UNL     1     -11.702 -30.603  21.611  1.00  0.00     0.094 A 
HETATM   18  C22 UNL     1     -10.484 -30.701  22.275  1.00  0.00     0.048 A 
BRANCH  15  19
HETATM   19  O1  UNL     1     -13.997 -29.831  21.567  1.00  0.00    -0.339 OA
HETATM   20  C1  UNL     1     -15.009 -28.992  22.046  1.00  0.00     0.211 C 
ENDBRANCH  15  19
BRANCH  17  21
HETATM   21  N6  UNL     1     -11.890 -31.163  20.329  1.00  0.00    -0.281 N 
ATOM     22  H6  UNL     1     -11.981 -30.550  19.519  1.00  0.00     0.179 HD
BRANCH  21  23
HETATM   23  S1  UNL     1     -11.969 -32.870  20.117  1.00  0.00     0.227 S 
HETATM   24  C24 UNL     1     -12.465 -33.671  21.620  1.00  0.00     0.186 C 
HETATM   25  O4  UNL     1     -12.989 -33.225  19.066  1.00  0.00    -0.206 OA
HETATM   26  O5  UNL     1     -10.654 -33.433  19.630  1.00  0.00    -0.206 OA
ENDBRANCH  21  23
ENDBRANCH  17  21
ENDBRANCH   1  12
BRANCH   3  27
HETATM   27  C8  UNL     1      -5.990 -32.423  24.427  1.00  0.00     0.159 A 
HETATM   28  N2  UNL     1      -6.368 -33.708  24.183  1.00  0.00    -0.344 N 
HETATM   29  C9  UNL     1      -5.272 -34.443  23.993  1.00  0.00     0.124 A 
ATOM     30  H2  UNL     1      -7.328 -34.051  24.151  1.00  0.00     0.167 HD
HETATM   31  C10 UNL     1      -4.186 -33.580  24.125  1.00  0.00     0.088 A 
HETATM   32  O3  UNL     1      -4.697 -32.390  24.385  1.00  0.00    -0.294 OA
BRANCH  31  33
HETATM   33  C11 UNL     1      -2.758 -33.912  24.005  1.00  0.00     0.183 C 
BRANCH  33  34
HETATM   34  N3  UNL     1      -2.358 -34.491  22.770  1.00  0.00    -0.402 N 
HETATM   35  C12 UNL     1      -2.622 -33.751  21.589  1.00  0.00     0.149 C 
HETATM   36  C13 UNL     1      -1.396 -33.405  20.786  1.00  0.00     0.135 C 
HETATM   37  C14 UNL     1      -1.152 -34.471  19.717  1.00  0.00     0.041 C 
HETATM   38  O2  UNL     1      -0.278 -33.162  21.535  1.00  0.00    -0.378 OA
HETATM   39  C15 UNL     1      -0.044 -33.991  22.583  1.00  0.00     0.135 C 
HETATM   40  C16 UNL     1       1.320 -34.690  22.491  1.00  0.00     0.041 C 
HETATM   41  C17 UNL     1      -1.052 -35.070  22.823  1.00  0.00     0.149 C 
ENDBRANCH  33  34
ENDBRANCH  31  33
ENDBRANCH   3  27
TORSDOF 7
ENDMDL
