MODEL 6
REMARK VINA RESULT: -9.197248986      1.906      2.548
REMARK  7 active torsions:
REMARK  status: ('A' for Active; 'I' for Inactive)
REMARK    1  A    between atoms: O1_2  and  C2_3 
REMARK    2  A    between atoms: C4_7  and  C5_8 
REMARK    3  A    between atoms: C7_10  and  C8_11 
REMARK    4  A    between atoms: C10_15  and  C11_16 
REMARK    5  A    between atoms: C11_16  and  N3_17 
REMARK    6  A    between atoms: C23_35  and  N6_36 
REMARK    7  A    between atoms: N6_36  and  S1_38 
ROOT
HETATM    1  C5  UNL     1      -9.207 -29.941  24.380  1.00  0.00    -0.021 A 
HETATM    2  C6  UNL     1      -8.180 -30.836  24.176  1.00  0.00     0.029 A 
HETATM    3  C7  UNL     1      -7.012 -30.783  24.933  1.00  0.00     0.030 A 
HETATM    4  C18 UNL     1      -6.851 -29.832  25.908  1.00  0.00     0.023 A 
HETATM    5  C19 UNL     1      -5.827 -29.536  26.799  1.00  0.00     0.121 A 
HETATM    6  N4  UNL     1      -6.238 -28.496  27.510  1.00  0.00    -0.311 N 
ATOM      7  H4  UNL     1      -5.701 -28.046  28.251  1.00  0.00     0.186 HD
HETATM    8  N5  UNL     1      -7.450 -28.128  27.117  1.00  0.00    -0.300 N 
ATOM      9  H5  UNL     1      -7.983 -27.352  27.510  1.00  0.00     0.187 HD
HETATM   10  C20 UNL     1      -7.871 -28.931  26.122  1.00  0.00     0.061 A 
HETATM   11  C21 UNL     1      -9.028 -28.997  25.361  1.00  0.00     0.044 A 
ENDROOT
BRANCH   1  12
HETATM   12  C4  UNL     1     -10.434 -29.952  23.617  1.00  0.00    -0.008 A 
HETATM   13  C3  UNL     1     -11.593 -29.418  24.122  1.00  0.00     0.102 A 
HETATM   14  N1  UNL     1     -12.733 -29.430  23.399  1.00  0.00    -0.344 N 
HETATM   15  C2  UNL     1     -12.807 -29.953  22.167  1.00  0.00     0.169 A 
ATOM     16  H1  UNL     1     -13.574 -29.023  23.809  1.00  0.00     0.167 HD
HETATM   17  C23 UNL     1     -11.670 -30.499  21.619  1.00  0.00     0.094 A 
HETATM   18  C22 UNL     1     -10.489 -30.494  22.353  1.00  0.00     0.048 A 
BRANCH  15  19
HETATM   19  O1  UNL     1     -14.020 -29.942  21.447  1.00  0.00    -0.339 OA
HETATM   20  C1  UNL     1     -15.080 -29.093  21.785  1.00  0.00     0.211 C 
ENDBRANCH  15  19
BRANCH  17  21
HETATM   21  N6  UNL     1     -11.731 -31.054  20.322  1.00  0.00    -0.281 N 
ATOM     22  H6  UNL     1     -11.714 -30.439  19.509  1.00  0.00     0.179 HD
BRANCH  21  23
HETATM   23  S1  UNL     1     -11.831 -32.758  20.099  1.00  0.00     0.227 S 
HETATM   24  C24 UNL     1     -12.320 -33.565  21.602  1.00  0.00     0.186 C 
HETATM   25  O4  UNL     1     -12.867 -33.094  19.056  1.00  0.00    -0.206 OA
HETATM   26  O5  UNL     1     -10.528 -33.333  19.593  1.00  0.00    -0.206 OA
ENDBRANCH  21  23
ENDBRANCH  17  21
ENDBRANCH   1  12
BRANCH   3  27
HETATM   27  C8  UNL     1      -5.944 -31.763  24.681  1.00  0.00     0.159 A 
HETATM   28  N2  UNL     1      -4.680 -31.672  25.179  1.00  0.00    -0.344 N 
HETATM   29  C9  UNL     1      -3.980 -32.723  24.754  1.00  0.00     0.124 A 
ATOM     30  H2  UNL     1      -4.328 -30.924  25.777  1.00  0.00     0.167 HD
HETATM   31  C10 UNL     1      -4.843 -33.485  23.969  1.00  0.00     0.088 A 
HETATM   32  O3  UNL     1      -5.999 -32.845  23.974  1.00  0.00    -0.294 OA
BRANCH  31  33
HETATM   33  C11 UNL     1      -4.543 -34.745  23.271  1.00  0.00     0.183 C 
BRANCH  33  34
HETATM   34  N3  UNL     1      -3.166 -35.075  23.152  1.00  0.00    -0.402 N 
HETATM   35  C12 UNL     1      -2.845 -36.417  22.823  1.00  0.00     0.149 C 
HETATM   36  C13 UNL     1      -2.063 -36.574  21.546  1.00  0.00     0.135 C 
HETATM   37  C14 UNL     1      -0.564 -36.595  21.849  1.00  0.00     0.041 C 
HETATM   38  O2  UNL     1      -2.378 -35.666  20.573  1.00  0.00    -0.378 OA
HETATM   39  C15 UNL     1      -2.559 -34.379  20.964  1.00  0.00     0.135 C 
HETATM   40  C16 UNL     1      -1.616 -33.405  20.244  1.00  0.00     0.041 C 
HETATM   41  C17 UNL     1      -2.420 -34.096  22.426  1.00  0.00     0.149 C 
ENDBRANCH  33  34
ENDBRANCH  31  33
ENDBRANCH   3  27
TORSDOF 7
ENDMDL
