MODEL 5
REMARK VINA RESULT: -9.258051976      2.701      7.244
REMARK  7 active torsions:
REMARK  status: ('A' for Active; 'I' for Inactive)
REMARK    1  A    between atoms: O1_2  and  C2_3 
REMARK    2  A    between atoms: C4_7  and  C5_8 
REMARK    3  A    between atoms: C7_10  and  C8_11 
REMARK    4  A    between atoms: C10_15  and  C11_16 
REMARK    5  A    between atoms: C11_16  and  N3_17 
REMARK    6  A    between atoms: C23_35  and  N6_36 
REMARK    7  A    between atoms: N6_36  and  S1_38 
ROOT
HETATM    1  C5  UNL     1      -5.481 -31.587  24.779  1.00  0.00    -0.021 A 
HETATM    2  C6  UNL     1      -6.650 -31.549  24.053  1.00  0.00     0.029 A 
HETATM    3  C7  UNL     1      -7.642 -30.609  24.325  1.00  0.00     0.030 A 
HETATM    4  C18 UNL     1      -7.479 -29.690  25.330  1.00  0.00     0.023 A 
HETATM    5  C19 UNL     1      -8.269 -28.659  25.824  1.00  0.00     0.121 A 
HETATM    6  N4  UNL     1      -7.585 -28.103  26.813  1.00  0.00    -0.311 N 
ATOM      7  H4  UNL     1      -7.905 -27.315  27.375  1.00  0.00     0.186 HD
HETATM    8  N5  UNL     1      -6.422 -28.723  26.965  1.00  0.00    -0.300 N 
ATOM      9  H5  UNL     1      -5.716 -28.483  27.660  1.00  0.00     0.187 HD
HETATM   10  C20 UNL     1      -6.313 -29.717  26.064  1.00  0.00     0.061 A 
HETATM   11  C21 UNL     1      -5.335 -30.658  25.780  1.00  0.00     0.044 A 
ENDROOT
BRANCH   1  12
HETATM   12  C4  UNL     1      -4.427 -32.546  24.539  1.00  0.00    -0.008 A 
HETATM   13  C3  UNL     1      -3.318 -32.605  25.346  1.00  0.00     0.102 A 
HETATM   14  N1  UNL     1      -2.342 -33.508  25.115  1.00  0.00    -0.344 N 
HETATM   15  C2  UNL     1      -2.388 -34.387  24.103  1.00  0.00     0.169 A 
ATOM     16  H1  UNL     1      -1.533 -33.522  25.737  1.00  0.00     0.167 HD
HETATM   17  C23 UNL     1      -3.480 -34.365  23.267  1.00  0.00     0.094 A 
HETATM   18  C22 UNL     1      -4.494 -33.440  23.495  1.00  0.00     0.048 A 
BRANCH  15  19
HETATM   19  O1  UNL     1      -1.344 -35.314  23.900  1.00  0.00    -0.339 OA
HETATM   20  C1  UNL     1      -0.170 -35.292  24.661  1.00  0.00     0.211 C 
ENDBRANCH  15  19
BRANCH  17  21
HETATM   21  N6  UNL     1      -3.545 -35.283  22.197  1.00  0.00    -0.281 N 
ATOM     22  H6  UNL     1      -2.965 -35.137  21.371  1.00  0.00     0.179 HD
BRANCH  21  23
HETATM   23  S1  UNL     1      -4.592 -36.647  22.271  1.00  0.00     0.227 S 
HETATM   24  C24 UNL     1      -5.943 -36.470  21.134  1.00  0.00     0.186 C 
HETATM   25  O4  UNL     1      -3.851 -37.904  21.888  1.00  0.00    -0.206 OA
HETATM   26  O5  UNL     1      -5.110 -36.878  23.671  1.00  0.00    -0.206 OA
ENDBRANCH  21  23
ENDBRANCH  17  21
ENDBRANCH   1  12
BRANCH   3  27
HETATM   27  C8  UNL     1      -8.873 -30.605  23.521  1.00  0.00     0.159 A 
HETATM   28  N2  UNL     1      -9.332 -29.534  22.818  1.00  0.00    -0.344 N 
HETATM   29  C9  UNL     1     -10.466 -29.880  22.209  1.00  0.00     0.124 A 
ATOM     30  H2  UNL     1      -8.883 -28.619  22.766  1.00  0.00     0.167 HD
HETATM   31  C10 UNL     1     -10.711 -31.208  22.550  1.00  0.00     0.088 A 
HETATM   32  O3  UNL     1      -9.714 -31.572  23.336  1.00  0.00    -0.294 OA
BRANCH  31  33
HETATM   33  C11 UNL     1     -11.844 -32.048  22.128  1.00  0.00     0.183 C 
BRANCH  33  34
HETATM   34  N3  UNL     1     -11.543 -33.066  21.183  1.00  0.00    -0.402 N 
HETATM   35  C12 UNL     1     -10.198 -33.167  20.743  1.00  0.00     0.149 C 
HETATM   36  C13 UNL     1      -9.549 -34.496  21.027  1.00  0.00     0.135 C 
HETATM   37  C14 UNL     1      -9.709 -35.425  19.822  1.00  0.00     0.041 C 
HETATM   38  O2  UNL     1      -9.956 -35.088  22.190  1.00  0.00    -0.378 OA
HETATM   39  C15 UNL     1     -11.281 -35.040  22.478  1.00  0.00     0.135 C 
HETATM   40  C16 UNL     1     -11.897 -36.434  22.659  1.00  0.00     0.041 C 
HETATM   41  C17 UNL     1     -12.154 -34.318  21.501  1.00  0.00     0.149 C 
ENDBRANCH  33  34
ENDBRANCH  31  33
ENDBRANCH   3  27
TORSDOF 7
ENDMDL
