MODEL 4
REMARK VINA RESULT: -9.467181939      2.549      3.761
REMARK  7 active torsions:
REMARK  status: ('A' for Active; 'I' for Inactive)
REMARK    1  A    between atoms: O1_2  and  C2_3 
REMARK    2  A    between atoms: C4_7  and  C5_8 
REMARK    3  A    between atoms: C7_10  and  C8_11 
REMARK    4  A    between atoms: C10_15  and  C11_16 
REMARK    5  A    between atoms: C11_16  and  N3_17 
REMARK    6  A    between atoms: C23_35  and  N6_36 
REMARK    7  A    between atoms: N6_36  and  S1_38 
ROOT
HETATM    1  C5  UNL     1      -8.745 -30.438  24.098  1.00  0.00    -0.021 A 
HETATM    2  C6  UNL     1      -7.904 -31.500  23.846  1.00  0.00     0.029 A 
HETATM    3  C7  UNL     1      -6.650 -31.590  24.445  1.00  0.00     0.030 A 
HETATM    4  C18 UNL     1      -6.215 -30.617  25.309  1.00  0.00     0.023 A 
HETATM    5  C19 UNL     1      -5.048 -30.436  26.040  1.00  0.00     0.121 A 
HETATM    6  N4  UNL     1      -5.195 -29.300  26.706  1.00  0.00    -0.311 N 
ATOM      7  H4  UNL     1      -4.500 -28.896  27.335  1.00  0.00     0.186 HD
HETATM    8  N5  UNL     1      -6.378 -28.765  26.435  1.00  0.00    -0.300 N 
ATOM      9  H5  UNL     1      -6.728 -27.889  26.824  1.00  0.00     0.187 HD
HETATM   10  C20 UNL     1      -7.047 -29.550  25.571  1.00  0.00     0.061 A 
HETATM   11  C21 UNL     1      -8.293 -29.476  24.967  1.00  0.00     0.044 A 
ENDROOT
BRANCH   1  12
HETATM   12  C4  UNL     1     -10.051 -30.298  23.496  1.00  0.00    -0.008 A 
HETATM   13  C3  UNL     1     -11.086 -29.698  24.169  1.00  0.00     0.102 A 
HETATM   14  N1  UNL     1     -12.301 -29.568  23.595  1.00  0.00    -0.344 N 
HETATM   15  C2  UNL     1     -12.571 -30.008  22.358  1.00  0.00     0.169 A 
ATOM     16  H1  UNL     1     -13.045 -29.115  24.126  1.00  0.00     0.167 HD
HETATM   17  C23 UNL     1     -11.565 -30.616  21.645  1.00  0.00     0.094 A 
HETATM   18  C22 UNL     1     -10.308 -30.756  22.225  1.00  0.00     0.048 A 
BRANCH  15  19
HETATM   19  O1  UNL     1     -13.857 -29.850  21.797  1.00  0.00    -0.339 OA
HETATM   20  C1  UNL     1     -14.722 -28.823  22.194  1.00  0.00     0.211 C 
ENDBRANCH  15  19
BRANCH  17  21
HETATM   21  N6  UNL     1     -11.833 -31.086  20.341  1.00  0.00    -0.281 N 
ATOM     22  H6  UNL     1     -11.996 -30.418  19.588  1.00  0.00     0.179 HD
BRANCH  21  23
HETATM   23  S1  UNL     1     -11.887 -32.774  20.007  1.00  0.00     0.227 S 
HETATM   24  C24 UNL     1     -12.459 -33.679  21.422  1.00  0.00     0.186 C 
HETATM   25  O4  UNL     1     -12.845 -33.059  18.879  1.00  0.00    -0.206 OA
HETATM   26  O5  UNL     1     -10.542 -33.297  19.557  1.00  0.00    -0.206 OA
ENDBRANCH  21  23
ENDBRANCH  17  21
ENDBRANCH   1  12
BRANCH   3  27
HETATM   27  C8  UNL     1      -5.789 -32.744  24.147  1.00  0.00     0.159 A 
HETATM   28  N2  UNL     1      -6.149 -34.043  24.332  1.00  0.00    -0.344 N 
HETATM   29  C9  UNL     1      -5.132 -34.822  23.962  1.00  0.00     0.124 A 
ATOM     30  H2  UNL     1      -7.046 -34.367  24.693  1.00  0.00     0.167 HD
HETATM   31  C10 UNL     1      -4.115 -33.971  23.536  1.00  0.00     0.088 A 
HETATM   32  O3  UNL     1      -4.583 -32.745  23.677  1.00  0.00    -0.294 OA
BRANCH  31  33
HETATM   33  C11 UNL     1      -2.785 -34.348  23.030  1.00  0.00     0.183 C 
BRANCH  33  34
HETATM   34  N3  UNL     1      -1.883 -34.878  23.993  1.00  0.00    -0.402 N 
HETATM   35  C12 UNL     1      -0.946 -35.843  23.543  1.00  0.00     0.149 C 
HETATM   36  C13 UNL     1       0.494 -35.449  23.741  1.00  0.00     0.135 C 
HETATM   37  C14 UNL     1       1.008 -35.995  25.074  1.00  0.00     0.041 C 
HETATM   38  O2  UNL     1       0.740 -34.111  23.605  1.00  0.00    -0.378 OA
HETATM   39  C15 UNL     1      -0.155 -33.258  24.164  1.00  0.00     0.135 C 
HETATM   40  C16 UNL     1       0.491 -32.311  25.185  1.00  0.00     0.041 C 
HETATM   41  C17 UNL     1      -1.332 -33.876  24.850  1.00  0.00     0.149 C 
ENDBRANCH  33  34
ENDBRANCH  31  33
ENDBRANCH   3  27
TORSDOF 7
ENDMDL
