MODEL 9
REMARK VINA RESULT: -8.898582129      3.281      7.490
REMARK  7 active torsions:
REMARK  status: ('A' for Active; 'I' for Inactive)
REMARK    1  A    between atoms: O1_2  and  C2_3 
REMARK    2  A    between atoms: C4_7  and  C5_8 
REMARK    3  A    between atoms: C7_10  and  C8_11 
REMARK    4  A    between atoms: C10_15  and  C11_16 
REMARK    5  A    between atoms: C11_16  and  N3_17 
REMARK    6  A    between atoms: C23_35  and  N6_36 
REMARK    7  A    between atoms: N6_36  and  S1_38 
ROOT
HETATM    1  C5  UNL     1      -5.343 -31.592  24.852  1.00  0.00    -0.021 A 
HETATM    2  C6  UNL     1      -6.464 -31.652  24.055  1.00  0.00     0.029 A 
HETATM    3  C7  UNL     1      -7.519 -30.756  24.218  1.00  0.00     0.030 A 
HETATM    4  C18 UNL     1      -7.468 -29.784  25.184  1.00  0.00     0.023 A 
HETATM    5  C19 UNL     1      -8.341 -28.777  25.577  1.00  0.00     0.121 A 
HETATM    6  N4  UNL     1      -7.751 -28.139  26.578  1.00  0.00    -0.311 N 
ATOM      7  H4  UNL     1      -8.147 -27.344  27.079  1.00  0.00     0.186 HD
HETATM    8  N5  UNL     1      -6.569 -28.687  26.831  1.00  0.00    -0.300 N 
ATOM      9  H5  UNL     1      -5.923 -28.376  27.556  1.00  0.00     0.187 HD
HETATM   10  C20 UNL     1      -6.352 -29.713  25.989  1.00  0.00     0.061 A 
HETATM   11  C21 UNL     1      -5.311 -30.612  25.813  1.00  0.00     0.044 A 
ENDROOT
BRANCH   1  12
HETATM   12  C4  UNL     1      -4.228 -32.502  24.725  1.00  0.00    -0.008 A 
HETATM   13  C3  UNL     1      -3.103 -32.364  25.499  1.00  0.00     0.102 A 
HETATM   14  N1  UNL     1      -2.068 -33.222  25.374  1.00  0.00    -0.344 N 
HETATM   15  C2  UNL     1      -2.071 -34.244  24.505  1.00  0.00     0.169 A 
ATOM     16  H1  UNL     1      -1.249 -33.088  25.968  1.00  0.00     0.167 HD
HETATM   17  C23 UNL     1      -3.177 -34.421  23.708  1.00  0.00     0.094 A 
HETATM   18  C22 UNL     1      -4.250 -33.544  23.826  1.00  0.00     0.048 A 
BRANCH  15  19
HETATM   19  O1  UNL     1      -0.967 -35.117  24.410  1.00  0.00    -0.339 OA
HETATM   20  C1  UNL     1       0.323 -34.658  24.119  1.00  0.00     0.211 C 
ENDBRANCH  15  19
BRANCH  17  21
HETATM   21  N6  UNL     1      -3.196 -35.491  22.787  1.00  0.00    -0.281 N 
ATOM     22  H6  UNL     1      -3.659 -36.364  23.039  1.00  0.00     0.179 HD
BRANCH  21  23
HETATM   23  S1  UNL     1      -2.447 -35.337  21.245  1.00  0.00     0.227 S 
HETATM   24  C24 UNL     1      -2.065 -33.640  20.894  1.00  0.00     0.186 C 
HETATM   25  O4  UNL     1      -1.149 -36.102  21.210  1.00  0.00    -0.206 OA
HETATM   26  O5  UNL     1      -3.306 -35.921  20.147  1.00  0.00    -0.206 OA
ENDBRANCH  21  23
ENDBRANCH  17  21
ENDBRANCH   1  12
BRANCH   3  27
HETATM   27  C8  UNL     1      -8.694 -30.857  23.340  1.00  0.00     0.159 A 
HETATM   28  N2  UNL     1      -9.087 -29.892  22.463  1.00  0.00    -0.344 N 
HETATM   29  C9  UNL     1     -10.185 -30.313  21.835  1.00  0.00     0.124 A 
ATOM     30  H2  UNL     1      -8.620 -28.998  22.313  1.00  0.00     0.167 HD
HETATM   31  C10 UNL     1     -10.474 -31.577  22.343  1.00  0.00     0.088 A 
HETATM   32  O3  UNL     1      -9.538 -31.833  23.238  1.00  0.00    -0.294 OA
BRANCH  31  33
HETATM   33  C11 UNL     1     -11.592 -32.458  21.969  1.00  0.00     0.183 C 
BRANCH  33  34
HETATM   34  N3  UNL     1     -11.296 -33.460  21.005  1.00  0.00    -0.402 N 
HETATM   35  C12 UNL     1      -9.973 -33.500  20.496  1.00  0.00     0.149 C 
HETATM   36  C13 UNL     1      -9.252 -34.800  20.739  1.00  0.00     0.135 C 
HETATM   37  C14 UNL     1      -9.433 -35.732  19.540  1.00  0.00     0.041 C 
HETATM   38  O2  UNL     1      -9.573 -35.413  21.919  1.00  0.00    -0.378 OA
HETATM   39  C15 UNL     1     -10.882 -35.424  22.275  1.00  0.00     0.135 C 
HETATM   40  C16 UNL     1     -11.426 -36.844  22.481  1.00  0.00     0.041 C 
HETATM   41  C17 UNL     1     -11.835 -34.738  21.348  1.00  0.00     0.149 C 
ENDBRANCH  33  34
ENDBRANCH  31  33
ENDBRANCH   3  27
TORSDOF 7
ENDMDL
