MODEL 1
REMARK VINA RESULT: -6.948750318      0.000      0.000
REMARK  2 active torsions:
REMARK  status: ('A' for Active; 'I' for Inactive)
REMARK    1  A    between atoms: N5_13  and  C6_14 
REMARK    2  A    between atoms: C10_24  and  O6_25 
ROOT
HETATM    1  N1  UNL     1      -9.450 -12.301  23.596  1.00  0.00    -0.080 NA
HETATM    2  C1  UNL     1      -9.688 -12.267  22.194  1.00  0.00     0.148 A 
HETATM    3  N2  UNL     1     -10.851 -12.612  21.626  1.00  0.00    -0.339 N 
ATOM      4  H2  UNL     1     -11.623 -12.919  22.219  1.00  0.00     0.167 HD
HETATM    5  C2  UNL     1     -11.028 -12.565  20.292  1.00  0.00     0.183 A 
HETATM    6  N3  UNL     1     -10.047 -12.169  19.462  1.00  0.00    -0.336 N 
ATOM      7  H3  UNL     1     -10.200 -12.138  18.454  1.00  0.00     0.168 HD
HETATM    8  C3  UNL     1      -8.869 -11.815  19.984  1.00  0.00     0.142 A 
HETATM    9  C4  UNL     1      -8.675 -11.860  21.346  1.00  0.00     0.119 A 
HETATM   10  N4  UNL     1      -7.425 -11.458  21.570  1.00  0.00    -0.346 N 
ATOM     11  H4  UNL     1      -6.979 -11.382  22.484  1.00  0.00     0.167 HD
HETATM   12  C5  UNL     1      -6.852 -11.171  20.398  1.00  0.00     0.188 A 
HETATM   13  N5  UNL     1      -7.751 -11.393  19.405  1.00  0.00    -0.297 N 
ENDROOT
BRANCH  13  14
HETATM   14  C6  UNL     1      -7.448 -11.179  18.017  1.00  0.00     0.262 C 
HETATM   15  O1  UNL     1      -8.272 -12.062  17.281  1.00  0.00    -0.353 OA
HETATM   16  C7  UNL     1      -7.647 -11.957  16.015  1.00  0.00     0.180 C 
HETATM   17  C8  UNL     1      -8.284 -12.924  15.063  1.00  0.00     0.216 C 
HETATM   18  C9  UNL     1      -6.235 -12.362  16.394  1.00  0.00     0.198 C 
HETATM   19  O2  UNL     1      -7.560 -13.147  13.930  1.00  0.00    -0.287 OA
HETATM   20  P1  UNL     1      -6.087 -12.394  13.956  1.00  0.00     0.408 P 
HETATM   21  O3  UNL     1      -5.424 -11.817  12.550  1.00  0.00    -0.624 OA
HETATM   22  O4  UNL     1      -5.333 -13.711  13.858  1.00  0.00    -0.624 OA
HETATM   23  O5  UNL     1      -5.364 -12.013  15.385  1.00  0.00    -0.279 OA
HETATM   24  C10 UNL     1      -6.032 -11.540  17.651  1.00  0.00     0.199 C 
BRANCH  24  25
HETATM   25  O6  UNL     1      -5.260 -10.425  17.351  1.00  0.00    -0.388 OA
ATOM     26  H6  UNL     1      -4.644 -10.589  16.647  1.00  0.00     0.210 HD
ENDBRANCH  24  25
ENDBRANCH  13  14
TORSDOF 2
ENDMDL
