MODEL 3
REMARK VINA RESULT: -6.878182220      4.220      5.483
REMARK  2 active torsions:
REMARK  status: ('A' for Active; 'I' for Inactive)
REMARK    1  A    between atoms: N5_13  and  C6_14 
REMARK    2  A    between atoms: C10_24  and  O6_25 
ROOT
HETATM    1  N1  UNL     1     -10.949 -16.627  18.268  1.00  0.00    -0.080 NA
HETATM    2  C1  UNL     1     -10.607 -15.249  18.183  1.00  0.00     0.148 A 
HETATM    3  N2  UNL     1     -10.730 -14.517  17.068  1.00  0.00    -0.339 N 
ATOM      4  H2  UNL     1     -11.089 -14.958  16.220  1.00  0.00     0.167 HD
HETATM    5  C2  UNL     1     -10.392 -13.214  17.037  1.00  0.00     0.183 A 
HETATM    6  N3  UNL     1      -9.914 -12.581  18.122  1.00  0.00    -0.336 N 
ATOM      7  H3  UNL     1      -9.664 -11.593  18.080  1.00  0.00     0.168 HD
HETATM    8  C3  UNL     1      -9.774 -13.271  19.257  1.00  0.00     0.142 A 
HETATM    9  C4  UNL     1     -10.116 -14.604  19.303  1.00  0.00     0.119 A 
HETATM   10  N4  UNL     1      -9.874 -15.021  20.544  1.00  0.00    -0.346 N 
ATOM     11  H4  UNL     1     -10.026 -15.967  20.894  1.00  0.00     0.167 HD
HETATM   12  C5  UNL     1      -9.399 -13.995  21.255  1.00  0.00     0.188 A 
HETATM   13  N5  UNL     1      -9.335 -12.900  20.454  1.00  0.00    -0.297 N 
ENDROOT
BRANCH  13  14
HETATM   14  C6  UNL     1      -8.864 -11.623  20.916  1.00  0.00     0.262 C 
HETATM   15  O1  UNL     1      -9.477 -10.645  20.099  1.00  0.00    -0.353 OA
HETATM   16  C7  UNL     1      -8.695  -9.522  20.461  1.00  0.00     0.180 C 
HETATM   17  C8  UNL     1      -9.085  -8.350  19.611  1.00  0.00     0.216 C 
HETATM   18  C9  UNL     1      -7.315 -10.052  20.120  1.00  0.00     0.198 C 
HETATM   19  O2  UNL     1      -8.189  -7.323  19.637  1.00  0.00    -0.287 OA
HETATM   20  P1  UNL     1      -6.824  -7.689  20.498  1.00  0.00     0.408 P 
HETATM   21  O3  UNL     1      -6.035  -6.505  21.349  1.00  0.00    -0.624 OA
HETATM   22  O4  UNL     1      -5.926  -7.515  19.282  1.00  0.00    -0.624 OA
HETATM   23  O5  UNL     1      -6.354  -9.254  20.700  1.00  0.00    -0.279 OA
HETATM   24  C10 UNL     1      -7.380 -11.433  20.741  1.00  0.00     0.199 C 
BRANCH  24  25
HETATM   25  O6  UNL     1      -6.699 -11.426  21.950  1.00  0.00    -0.388 OA
ATOM     26  H6  UNL     1      -6.715 -10.573  22.371  1.00  0.00     0.210 HD
ENDBRANCH  24  25
ENDBRANCH  13  14
TORSDOF 2
ENDMDL
