MODEL 2
REMARK VINA RESULT: -6.904181664      4.484      7.002
REMARK  2 active torsions:
REMARK  status: ('A' for Active; 'I' for Inactive)
REMARK    1  A    between atoms: N5_13  and  C6_14 
REMARK    2  A    between atoms: C10_24  and  O6_25 
ROOT
HETATM    1  N1  UNL     1      -4.505  -7.941  17.767  1.00  0.00    -0.080 NA
HETATM    2  C1  UNL     1      -5.476  -8.978  17.717  1.00  0.00     0.148 A 
HETATM    3  N2  UNL     1      -6.043  -9.416  16.586  1.00  0.00    -0.339 N 
ATOM      4  H2  UNL     1      -5.773  -8.993  15.697  1.00  0.00     0.167 HD
HETATM    5  C2  UNL     1      -6.960 -10.402  16.590  1.00  0.00     0.183 A 
HETATM    6  N3  UNL     1      -7.354 -10.997  17.730  1.00  0.00    -0.336 N 
ATOM      7  H3  UNL     1      -8.050 -11.743  17.714  1.00  0.00     0.168 HD
HETATM    8  C3  UNL     1      -6.816 -10.592  18.884  1.00  0.00     0.142 A 
HETATM    9  C4  UNL     1      -5.877  -9.585  18.893  1.00  0.00     0.119 A 
HETATM   10  N4  UNL     1      -5.526  -9.399  20.164  1.00  0.00    -0.346 N 
ATOM     11  H4  UNL     1      -4.845  -8.717  20.499  1.00  0.00     0.167 HD
HETATM   12  C5  UNL     1      -6.213 -10.252  20.928  1.00  0.00     0.188 A 
HETATM   13  N5  UNL     1      -7.020 -10.999  20.131  1.00  0.00    -0.297 N 
ENDROOT
BRANCH  13  14
HETATM   14  C6  UNL     1      -7.896 -12.017  20.644  1.00  0.00     0.262 C 
HETATM   15  O1  UNL     1      -9.202 -11.682  20.216  1.00  0.00    -0.353 OA
HETATM   16  C7  UNL     1      -9.944 -12.565  21.037  1.00  0.00     0.180 C 
HETATM   17  C8  UNL     1     -11.409 -12.305  20.850  1.00  0.00     0.216 C 
HETATM   18  C9  UNL     1      -9.446 -12.124  22.400  1.00  0.00     0.198 C 
HETATM   19  O2  UNL     1     -12.198 -12.853  21.816  1.00  0.00    -0.287 OA
HETATM   20  P1  UNL     1     -11.323 -13.555  23.032  1.00  0.00     0.408 P 
HETATM   21  O3  UNL     1     -11.905 -14.902  23.804  1.00  0.00    -0.624 OA
HETATM   22  O4  UNL     1     -11.895 -12.616  24.083  1.00  0.00    -0.624 OA
HETATM   23  O5  UNL     1      -9.782 -13.069  23.346  1.00  0.00    -0.279 OA
HETATM   24  C10 UNL     1      -7.954 -12.054  22.149  1.00  0.00     0.199 C 
BRANCH  24  25
HETATM   25  O6  UNL     1      -7.345 -13.185  22.676  1.00  0.00    -0.388 OA
ATOM     26  H6  UNL     1      -6.886 -13.005  23.488  1.00  0.00     0.210 HD
ENDBRANCH  24  25
ENDBRANCH  13  14
TORSDOF 2
ENDMDL
