MODEL 3
REMARK VINA RESULT: -6.658707727      1.613      4.931
REMARK  3 active torsions:
REMARK  status: ('A' for Active; 'I' for Inactive)
REMARK    1  A    between atoms: C1_2  and  C2_4 
REMARK    2  A    between atoms: C2_4  and  C3_5 
REMARK    3  A    between atoms: C6_8  and  O3_9 
ROOT
HETATM    1  C3  UNL     1      30.033  18.426  17.200  1.00  0.00    -0.048 A 
HETATM    2  C4  UNL     1      30.108  19.514  18.011  1.00  0.00     0.010 A 
HETATM    3  C5  UNL     1      30.853  20.613  17.646  1.00  0.00     0.037 A 
HETATM    4  C6  UNL     1      31.542  20.658  16.465  1.00  0.00     0.065 A 
HETATM    5  C7  UNL     1      31.483  19.574  15.633  1.00  0.00     0.037 A 
HETATM    6  C8  UNL     1      30.725  18.457  16.005  1.00  0.00     0.010 A 
ENDROOT
BRANCH   1   7
HETATM    7  C2  UNL     1      29.255  17.228  17.552  1.00  0.00     0.151 C 
BRANCH   7   8
HETATM    8  C1  UNL     1      27.902  17.203  16.963  1.00  0.00     0.176 C 
HETATM    9  O1  UNL     1      27.701  16.563  15.885  1.00  0.00    -0.648 OA
HETATM   10  O2  UNL     1      26.799  17.846  17.505  1.00  0.00    -0.648 OA
ENDBRANCH   7   8
ENDBRANCH   1   7
BRANCH   4  11
HETATM   11  O3  UNL     1      32.287  21.788  16.125  1.00  0.00    -0.361 OA
ATOM     12  H3  UNL     1      33.234  21.741  16.071  1.00  0.00     0.217 HD
ENDBRANCH   4  11
TORSDOF 3
ENDMDL
