MODEL 2
REMARK VINA RESULT: -7.144698204      0.035      1.418
REMARK  3 active torsions:
REMARK  status: ('A' for Active; 'I' for Inactive)
REMARK    1  A    between atoms: C1_2  and  C2_4 
REMARK    2  A    between atoms: C2_4  and  C3_5 
REMARK    3  A    between atoms: C6_8  and  O3_9 
ROOT
HETATM    1  C3  UNL     1      31.256  19.864  16.119  1.00  0.00    -0.048 A 
HETATM    2  C4  UNL     1      30.959  18.593  15.741  1.00  0.00     0.010 A 
HETATM    3  C5  UNL     1      30.260  17.755  16.581  1.00  0.00     0.037 A 
HETATM    4  C6  UNL     1      29.840  18.160  17.818  1.00  0.00     0.065 A 
HETATM    5  C7  UNL     1      30.128  19.434  18.221  1.00  0.00     0.037 A 
HETATM    6  C8  UNL     1      30.838  20.287  17.366  1.00  0.00     0.010 A 
ENDROOT
BRANCH   1   7
HETATM    7  C2  UNL     1      32.005  20.792  15.257  1.00  0.00     0.151 C 
BRANCH   7   8
HETATM    8  C1  UNL     1      33.417  20.963  15.652  1.00  0.00     0.176 C 
HETATM    9  O1  UNL     1      33.861  22.127  15.896  1.00  0.00    -0.648 OA
HETATM   10  O2  UNL     1      34.327  19.925  15.778  1.00  0.00    -0.648 OA
ENDBRANCH   7   8
ENDBRANCH   1   7
BRANCH   4  11
HETATM   11  O3  UNL     1      29.132  17.285  18.645  1.00  0.00    -0.361 OA
ATOM     12  H3  UNL     1      28.656  16.552  18.274  1.00  0.00     0.217 HD
ENDBRANCH   4  11
TORSDOF 3
ENDMDL
