MODEL 10
REMARK VINA RESULT: -6.036217249      1.498      1.811
REMARK  3 active torsions:
REMARK  status: ('A' for Active; 'I' for Inactive)
REMARK    1  A    between atoms: C1_2  and  C2_4 
REMARK    2  A    between atoms: C2_4  and  C3_5 
REMARK    3  A    between atoms: C6_8  and  O3_9 
ROOT
HETATM    1  C3  UNL     1      31.016  18.975  16.735  1.00  0.00    -0.048 A 
HETATM    2  C4  UNL     1      30.447  19.496  17.854  1.00  0.00     0.010 A 
HETATM    3  C5  UNL     1      29.369  18.878  18.447  1.00  0.00     0.037 A 
HETATM    4  C6  UNL     1      28.830  17.727  17.943  1.00  0.00     0.065 A 
HETATM    5  C7  UNL     1      29.384  17.184  16.818  1.00  0.00     0.037 A 
HETATM    6  C8  UNL     1      30.481  17.812  16.215  1.00  0.00     0.010 A 
ENDROOT
BRANCH   1   7
HETATM    7  C2  UNL     1      32.165  19.603  16.064  1.00  0.00     0.151 C 
BRANCH   7   8
HETATM    8  C1  UNL     1      31.805  20.773  15.240  1.00  0.00     0.176 C 
HETATM    9  O1  UNL     1      31.481  20.606  14.024  1.00  0.00    -0.648 OA
HETATM   10  O2  UNL     1      31.797  22.081  15.698  1.00  0.00    -0.648 OA
ENDBRANCH   7   8
ENDBRANCH   1   7
BRANCH   4  11
HETATM   11  O3  UNL     1      27.737  17.125  18.571  1.00  0.00    -0.361 OA
ATOM     12  H3  UNL     1      27.637  16.181  18.560  1.00  0.00     0.217 HD
ENDBRANCH   4  11
TORSDOF 3
ENDMDL
