MODEL 1
REMARK VINA RESULT: -7.147629078      0.000      0.000
REMARK  3 active torsions:
REMARK  status: ('A' for Active; 'I' for Inactive)
REMARK    1  A    between atoms: C1_2  and  C2_4 
REMARK    2  A    between atoms: C2_4  and  C3_5 
REMARK    3  A    between atoms: C6_8  and  O3_9 
ROOT
HETATM    1  C3  UNL     1      31.262  19.904  16.160  1.00  0.00    -0.048 A 
HETATM    2  C4  UNL     1      30.836  20.308  17.386  1.00  0.00     0.010 A 
HETATM    3  C5  UNL     1      30.130  19.452  18.202  1.00  0.00     0.037 A 
HETATM    4  C6  UNL     1      29.830  18.174  17.819  1.00  0.00     0.065 A 
HETATM    5  C7  UNL     1      30.247  17.745  16.590  1.00  0.00     0.037 A 
HETATM    6  C8  UNL     1      30.965  18.616  15.760  1.00  0.00     0.010 A 
ENDROOT
BRANCH   1   7
HETATM    7  C2  UNL     1      32.014  20.785  15.252  1.00  0.00     0.151 C 
BRANCH   7   8
HETATM    8  C1  UNL     1      33.424  20.978  15.642  1.00  0.00     0.176 C 
HETATM    9  O1  UNL     1      33.847  22.147  15.900  1.00  0.00    -0.648 OA
HETATM   10  O2  UNL     1      34.354  19.956  15.749  1.00  0.00    -0.648 OA
ENDBRANCH   7   8
ENDBRANCH   1   7
BRANCH   4  11
HETATM   11  O3  UNL     1      29.113  17.332  18.671  1.00  0.00    -0.361 OA
ATOM     12  H3  UNL     1      29.493  16.513  18.969  1.00  0.00     0.217 HD
ENDBRANCH   4  11
TORSDOF 3
ENDMDL
