MODEL 4
REMARK VINA RESULT: -6.653111727      1.610      5.111
REMARK  3 active torsions:
REMARK  status: ('A' for Active; 'I' for Inactive)
REMARK    1  A    between atoms: C1_2  and  C2_4 
REMARK    2  A    between atoms: C2_4  and  C3_5 
REMARK    3  A    between atoms: C6_8  and  O3_9 
ROOT
HETATM    1  C3  UNL     1      30.064  18.399  17.157  1.00  0.00    -0.048 A 
HETATM    2  C4  UNL     1      30.753  18.458  15.988  1.00  0.00     0.010 A 
HETATM    3  C5  UNL     1      31.482  19.578  15.656  1.00  0.00     0.037 A 
HETATM    4  C6  UNL     1      31.543  20.669  16.479  1.00  0.00     0.065 A 
HETATM    5  C7  UNL     1      30.856  20.635  17.661  1.00  0.00     0.037 A 
HETATM    6  C8  UNL     1      30.116  19.494  17.998  1.00  0.00     0.010 A 
ENDROOT
BRANCH   1   7
HETATM    7  C2  UNL     1      29.267  17.227  17.551  1.00  0.00     0.151 C 
BRANCH   7   8
HETATM    8  C1  UNL     1      27.913  17.203  16.966  1.00  0.00     0.176 C 
HETATM    9  O1  UNL     1      27.709  16.568  15.886  1.00  0.00    -0.648 OA
HETATM   10  O2  UNL     1      26.811  17.842  17.514  1.00  0.00    -0.648 OA
ENDBRANCH   7   8
ENDBRANCH   1   7
BRANCH   4  11
HETATM   11  O3  UNL     1      32.292  21.789  16.112  1.00  0.00    -0.361 OA
ATOM     12  H3  UNL     1      33.079  22.018  16.592  1.00  0.00     0.217 HD
ENDBRANCH   4  11
TORSDOF 3
ENDMDL
