MODEL 5
REMARK VINA RESULT: -6.534176359      0.942      1.777
REMARK  3 active torsions:
REMARK  status: ('A' for Active; 'I' for Inactive)
REMARK    1  A    between atoms: C1_2  and  C2_4 
REMARK    2  A    between atoms: C2_4  and  C3_5 
REMARK    3  A    between atoms: C6_8  and  O3_9 
ROOT
HETATM    1  C3  UNL     1      31.169  19.943  16.735  1.00  0.00    -0.048 A 
HETATM    2  C4  UNL     1      31.282  18.840  15.949  1.00  0.00     0.010 A 
HETATM    3  C5  UNL     1      30.609  17.681  16.263  1.00  0.00     0.037 A 
HETATM    4  C6  UNL     1      29.806  17.588  17.366  1.00  0.00     0.065 A 
HETATM    5  C7  UNL     1      29.677  18.684  18.174  1.00  0.00     0.037 A 
HETATM    6  C8  UNL     1      30.362  19.864  17.854  1.00  0.00     0.010 A 
ENDROOT
BRANCH   1   7
HETATM    7  C2  UNL     1      31.874  21.201  16.443  1.00  0.00     0.151 C 
BRANCH   7   8
HETATM    8  C1  UNL     1      33.074  21.029  15.602  1.00  0.00     0.176 C 
HETATM    9  O1  UNL     1      34.108  20.481  16.094  1.00  0.00    -0.648 OA
HETATM   10  O2  UNL     1      33.170  21.434  14.280  1.00  0.00    -0.648 OA
ENDBRANCH   7   8
ENDBRANCH   1   7
BRANCH   4  11
HETATM   11  O3  UNL     1      29.136  16.398  17.655  1.00  0.00    -0.361 OA
ATOM     12  H3  UNL     1      29.481  15.798  18.306  1.00  0.00     0.217 HD
ENDBRANCH   4  11
TORSDOF 3
ENDMDL
