MODEL 6
REMARK VINA RESULT: -6.420108004      1.437      5.183
REMARK  3 active torsions:
REMARK  status: ('A' for Active; 'I' for Inactive)
REMARK    1  A    between atoms: C1_2  and  C2_4 
REMARK    2  A    between atoms: C2_4  and  C3_5 
REMARK    3  A    between atoms: C6_8  and  O3_9 
ROOT
HETATM    1  C3  UNL     1      29.904  18.277  17.118  1.00  0.00    -0.048 A 
HETATM    2  C4  UNL     1      30.630  18.377  15.974  1.00  0.00     0.010 A 
HETATM    3  C5  UNL     1      31.388  19.497  15.717  1.00  0.00     0.037 A 
HETATM    4  C6  UNL     1      31.442  20.547  16.591  1.00  0.00     0.065 A 
HETATM    5  C7  UNL     1      30.719  20.472  17.749  1.00  0.00     0.037 A 
HETATM    6  C8  UNL     1      29.949  19.331  18.010  1.00  0.00     0.010 A 
ENDROOT
BRANCH   1   7
HETATM    7  C2  UNL     1      29.075  17.103  17.432  1.00  0.00     0.151 C 
BRANCH   7   8
HETATM    8  C1  UNL     1      27.784  17.437  18.064  1.00  0.00     0.176 C 
HETATM    9  O1  UNL     1      27.607  17.182  19.295  1.00  0.00    -0.648 OA
HETATM   10  O2  UNL     1      26.715  18.019  17.402  1.00  0.00    -0.648 OA
ENDBRANCH   7   8
ENDBRANCH   1   7
BRANCH   4  11
HETATM   11  O3  UNL     1      32.222  21.669  16.300  1.00  0.00    -0.361 OA
ATOM     12  H3  UNL     1      32.469  22.274  16.989  1.00  0.00     0.217 HD
ENDBRANCH   4  11
TORSDOF 3
ENDMDL
