MODEL 1
REMARK VINA RESULT: -8.324645786      0.000      0.000
REMARK  13 active torsions:
REMARK  status: ('A' for Active; 'I' for Inactive)
REMARK    1  A    between atoms: C2_2  and  C3_3 
REMARK    2  A    between atoms: C3_3  and  S1_4 
REMARK    3  A    between atoms: S1_4  and  C4_5 
REMARK    4  A    between atoms: C5_8  and  N2_9 
REMARK    5  A    between atoms: N2_9  and  C6_11 
REMARK    6  A    between atoms: C8_13  and  C9_14 
REMARK    7  A    between atoms: N5_27  and  C16_28 
REMARK    8  A    between atoms: C18_30  and  O1_31 
REMARK    9  A    between atoms: O1_31  and  C19_32 
REMARK   10  A    between atoms: C19_32  and  C20_33 
REMARK   11  A    between atoms: C20_33  and  O2_34 
REMARK   12  A    between atoms: C21_36  and  O3_37 
REMARK   13  A    between atoms: C22_39  and  O4_40 
ROOT
HETATM    1  C4  UNL     1       9.867   3.045  -1.705  1.00  0.00     0.147 A 
HETATM    2  N1  UNL     1      10.461   4.201  -1.312  1.00  0.00    -0.321 N 
ATOM      3  H1  UNL     1      11.478   4.270  -1.357  1.00  0.00     0.169 HD
HETATM    4  C5  UNL     1       9.762   5.257  -0.868  1.00  0.00     0.136 A 
HETATM    5  C15 UNL     1       8.390   5.164  -0.808  1.00  0.00     0.139 A 
HETATM    6  N3  UNL     1       7.387   5.980  -0.433  1.00  0.00    -0.279 N 
ATOM      7  H3  UNL     1       7.492   6.933  -0.084  1.00  0.00     0.189 HD
HETATM    8  N4  UNL     1       6.228   5.331  -0.596  1.00  0.00    -0.238 N 
ATOM      9  H4  UNL     1       5.311   5.723  -0.386  1.00  0.00     0.208 HD
HETATM   10  N5  UNL     1       6.430   4.120  -1.065  1.00  0.00    -0.252 N 
HETATM   11  C23 UNL     1       7.772   3.997  -1.202  1.00  0.00     0.158 A 
HETATM   12  N6  UNL     1       8.528   2.974  -1.638  1.00  0.00    -0.320 N 
ATOM     13  H6  UNL     1       8.067   2.112  -1.929  1.00  0.00     0.169 HD
ENDROOT
BRANCH  10  14
HETATM   14  C16 UNL     1       5.499   3.062  -1.406  1.00  0.00     0.145 C 
HETATM   15  C17 UNL     1       4.203   3.593  -1.959  1.00  0.00     0.065 C 
HETATM   16  C18 UNL     1       3.366   3.770  -0.716  1.00  0.00     0.154 C 
HETATM   17  C21 UNL     1       3.625   2.518   0.046  1.00  0.00     0.178 C 
HETATM   18  C22 UNL     1       5.107   2.265  -0.214  1.00  0.00     0.174 C 
BRANCH  16  19
HETATM   19  O1  UNL     1       3.519   4.936  -0.058  1.00  0.00    -0.381 OA
BRANCH  19  20
HETATM   20  C19 UNL     1       3.066   4.979   1.242  1.00  0.00     0.194 C 
BRANCH  20  21
HETATM   21  C20 UNL     1       3.509   6.289   1.859  1.00  0.00     0.190 C 
BRANCH  21  22
HETATM   22  O2  UNL     1       4.682   6.767   1.329  1.00  0.00    -0.399 OA
ATOM     23  H2  UNL     1       4.632   6.931   0.395  1.00  0.00     0.209 HD
ENDBRANCH  21  22
ENDBRANCH  20  21
ENDBRANCH  19  20
ENDBRANCH  16  19
BRANCH  17  24
HETATM   24  O3  UNL     1       2.903   1.461  -0.532  1.00  0.00    -0.390 OA
ATOM     25  H3  UNL     1       3.482   0.721  -0.671  1.00  0.00     0.210 HD
ENDBRANCH  17  24
BRANCH  18  26
HETATM   26  O4  UNL     1       5.384   0.906  -0.345  1.00  0.00    -0.391 OA
ATOM     27  H4  UNL     1       4.648   0.350  -0.121  1.00  0.00     0.210 HD
ENDBRANCH  18  26
ENDBRANCH  10  14
BRANCH   4  28
HETATM   28  N2  UNL     1      10.407   6.447  -0.470  1.00  0.00    -0.369 N 
ATOM     29  H2  UNL     1      10.756   7.108  -1.165  1.00  0.00     0.161 HD
BRANCH  28  30
HETATM   30  C6  UNL     1      10.564   6.709   0.936  1.00  0.00     0.092 A 
HETATM   31  C7  UNL     1       9.804   7.926   1.407  1.00  0.00     0.037 A 
HETATM   32  C8  UNL     1      11.277   7.905   1.442  1.00  0.00     0.043 A 
BRANCH  32  33
HETATM   33  C9  UNL     1      11.955   7.765   2.762  1.00  0.00    -0.049 A 
HETATM   34  C10 UNL     1      13.325   7.549   2.805  1.00  0.00     0.011 A 
HETATM   35  C11 UNL     1      14.024   7.414   3.989  1.00  0.00     0.046 A 
HETATM   36  C12 UNL     1      13.354   7.491   5.191  1.00  0.00     0.154 A 
HETATM   37  F1  UNL     1      14.009   7.363   6.386  1.00  0.00    -0.203 F 
HETATM   38  C13 UNL     1      11.988   7.706   5.161  1.00  0.00     0.155 A 
HETATM   39  F2  UNL     1      11.284   7.789   6.333  1.00  0.00    -0.203 F 
HETATM   40  C14 UNL     1      11.295   7.842   3.971  1.00  0.00     0.053 A 
ENDBRANCH  32  33
ENDBRANCH  28  30
ENDBRANCH   4  28
BRANCH   1  41
HETATM   41  S1  UNL     1      10.834   1.663  -2.289  1.00  0.00    -0.094 SA
BRANCH  41  42
HETATM   42  C3  UNL     1      11.357   0.692  -0.841  1.00  0.00     0.082 C 
BRANCH  42  43
HETATM   43  C2  UNL     1      12.884   0.734  -0.808  1.00  0.00     0.006 C 
HETATM   44  C1  UNL     1      13.283   2.164  -0.433  1.00  0.00     0.006 C 
ENDBRANCH  42  43
ENDBRANCH  41  42
ENDBRANCH   1  41
TORSDOF 13
ENDMDL
