MODEL 2
REMARK VINA RESULT: -8.084185937      5.010      9.534
REMARK  13 active torsions:
REMARK  status: ('A' for Active; 'I' for Inactive)
REMARK    1  A    between atoms: C2_2  and  C3_3 
REMARK    2  A    between atoms: C3_3  and  S1_4 
REMARK    3  A    between atoms: S1_4  and  C4_5 
REMARK    4  A    between atoms: C5_8  and  N2_9 
REMARK    5  A    between atoms: N2_9  and  C6_11 
REMARK    6  A    between atoms: C8_13  and  C9_14 
REMARK    7  A    between atoms: N5_27  and  C16_28 
REMARK    8  A    between atoms: C18_30  and  O1_31 
REMARK    9  A    between atoms: O1_31  and  C19_32 
REMARK   10  A    between atoms: C19_32  and  C20_33 
REMARK   11  A    between atoms: C20_33  and  O2_34 
REMARK   12  A    between atoms: C21_36  and  O3_37 
REMARK   13  A    between atoms: C22_39  and  O4_40 
ROOT
HETATM    1  C4  UNL     1       6.317   6.097   0.158  1.00  0.00     0.147 A 
HETATM    2  N1  UNL     1       6.373   5.057  -0.713  1.00  0.00    -0.321 N 
ATOM      3  H1  UNL     1       5.500   4.640  -1.036  1.00  0.00     0.169 HD
HETATM    4  C5  UNL     1       7.533   4.556  -1.165  1.00  0.00     0.136 A 
HETATM    5  C15 UNL     1       8.711   5.118  -0.728  1.00  0.00     0.139 A 
HETATM    6  N3  UNL     1      10.021   4.899  -0.950  1.00  0.00    -0.279 N 
ATOM      7  H3  UNL     1      10.410   4.181  -1.561  1.00  0.00     0.189 HD
HETATM    8  N4  UNL     1      10.727   5.782  -0.232  1.00  0.00    -0.238 N 
ATOM      9  H4  UNL     1      11.745   5.833  -0.219  1.00  0.00     0.208 HD
HETATM   10  N5  UNL     1       9.931   6.573   0.451  1.00  0.00    -0.252 N 
HETATM   11  C23 UNL     1       8.670   6.175   0.156  1.00  0.00     0.158 A 
HETATM   12  N6  UNL     1       7.477   6.632   0.572  1.00  0.00    -0.320 N 
ATOM     13  H6  UNL     1       7.451   7.413   1.227  1.00  0.00     0.169 HD
ENDROOT
BRANCH  10  14
HETATM   14  C16 UNL     1      10.224   7.673   1.350  1.00  0.00     0.145 C 
HETATM   15  C17 UNL     1      11.421   8.472   0.911  1.00  0.00     0.065 C 
HETATM   16  C18 UNL     1      12.559   7.760   1.599  1.00  0.00     0.154 C 
HETATM   17  C21 UNL     1      12.031   7.527   2.971  1.00  0.00     0.178 C 
HETATM   18  C22 UNL     1      10.564   7.194   2.716  1.00  0.00     0.174 C 
BRANCH  16  19
HETATM   19  O1  UNL     1      13.076   6.698   0.948  1.00  0.00    -0.381 OA
BRANCH  19  20
HETATM   20  C19 UNL     1      13.869   5.845   1.683  1.00  0.00     0.194 C 
BRANCH  20  21
HETATM   21  C20 UNL     1      14.698   5.018   0.724  1.00  0.00     0.190 C 
BRANCH  21  22
HETATM   22  O2  UNL     1      16.049   5.117   0.951  1.00  0.00    -0.399 OA
ATOM     23  H2  UNL     1      16.346   6.013   1.051  1.00  0.00     0.209 HD
ENDBRANCH  21  22
ENDBRANCH  20  21
ENDBRANCH  19  20
ENDBRANCH  16  19
BRANCH  17  24
HETATM   24  O3  UNL     1      12.078   8.726   3.699  1.00  0.00    -0.390 OA
ATOM     25  H3  UNL     1      12.977   8.916   3.939  1.00  0.00     0.210 HD
ENDBRANCH  17  24
BRANCH  18  26
HETATM   26  O4  UNL     1       9.736   7.719   3.706  1.00  0.00    -0.391 OA
ATOM     27  H4  UNL     1       9.949   8.615   3.937  1.00  0.00     0.210 HD
ENDBRANCH  18  26
ENDBRANCH  10  14
BRANCH   4  28
HETATM   28  N2  UNL     1       7.560   3.476  -2.072  1.00  0.00    -0.369 N 
ATOM     29  H2  UNL     1       8.297   3.403  -2.773  1.00  0.00     0.161 HD
BRANCH  28  30
HETATM   30  C6  UNL     1       6.525   2.479  -1.989  1.00  0.00     0.092 A 
HETATM   31  C7  UNL     1       5.790   2.268  -3.290  1.00  0.00     0.037 A 
HETATM   32  C8  UNL     1       5.089   2.818  -2.116  1.00  0.00     0.043 A 
BRANCH  32  33
HETATM   33  C9  UNL     1       4.131   1.942  -1.384  1.00  0.00    -0.049 A 
HETATM   34  C10 UNL     1       4.573   0.734  -0.864  1.00  0.00     0.011 A 
HETATM   35  C11 UNL     1       3.746  -0.129  -0.171  1.00  0.00     0.046 A 
HETATM   36  C12 UNL     1       2.422   0.202   0.025  1.00  0.00     0.154 A 
HETATM   37  F1  UNL     1       1.571  -0.624   0.707  1.00  0.00    -0.203 F 
HETATM   38  C13 UNL     1       1.971   1.405  -0.489  1.00  0.00     0.155 A 
HETATM   39  F2  UNL     1       0.662   1.771  -0.316  1.00  0.00    -0.203 F 
HETATM   40  C14 UNL     1       2.805   2.264  -1.181  1.00  0.00     0.053 A 
ENDBRANCH  32  33
ENDBRANCH  28  30
ENDBRANCH   4  28
BRANCH   1  41
HETATM   41  S1  UNL     1       4.752   6.733   0.735  1.00  0.00    -0.094 SA
BRANCH  41  42
HETATM   42  C3  UNL     1       3.540   5.376   0.678  1.00  0.00     0.082 C 
BRANCH  42  43
HETATM   43  C2  UNL     1       2.406   5.755   1.630  1.00  0.00     0.006 C 
HETATM   44  C1  UNL     1       1.540   4.505   1.812  1.00  0.00     0.006 C 
ENDBRANCH  42  43
ENDBRANCH  41  42
ENDBRANCH   1  41
TORSDOF 13
ENDMDL
