MODEL 3
REMARK VINA RESULT: -7.826881542      6.095      8.902
REMARK  13 active torsions:
REMARK  status: ('A' for Active; 'I' for Inactive)
REMARK    1  A    between atoms: C2_2  and  C3_3 
REMARK    2  A    between atoms: C3_3  and  S1_4 
REMARK    3  A    between atoms: S1_4  and  C4_5 
REMARK    4  A    between atoms: C5_8  and  N2_9 
REMARK    5  A    between atoms: N2_9  and  C6_11 
REMARK    6  A    between atoms: C8_13  and  C9_14 
REMARK    7  A    between atoms: N5_27  and  C16_28 
REMARK    8  A    between atoms: C18_30  and  O1_31 
REMARK    9  A    between atoms: O1_31  and  C19_32 
REMARK   10  A    between atoms: C19_32  and  C20_33 
REMARK   11  A    between atoms: C20_33  and  O2_34 
REMARK   12  A    between atoms: C21_36  and  O3_37 
REMARK   13  A    between atoms: C22_39  and  O4_40 
ROOT
HETATM    1  C4  UNL     1      -0.206   1.236   2.826  1.00  0.00     0.147 A 
HETATM    2  N1  UNL     1       0.162   2.537   2.707  1.00  0.00    -0.321 N 
ATOM      3  H1  UNL     1       0.098   3.143   3.525  1.00  0.00     0.169 HD
HETATM    4  C5  UNL     1       0.608   3.058   1.553  1.00  0.00     0.136 A 
HETATM    5  C15 UNL     1       0.693   2.241   0.448  1.00  0.00     0.139 A 
HETATM    6  N3  UNL     1       1.078   2.395  -0.833  1.00  0.00    -0.279 N 
ATOM      7  H3  UNL     1       1.416   3.260  -1.255  1.00  0.00     0.189 HD
HETATM    8  N4  UNL     1       0.943   1.219  -1.461  1.00  0.00    -0.238 N 
ATOM      9  H4  UNL     1       1.166   1.060  -2.442  1.00  0.00     0.208 HD
HETATM   10  N5  UNL     1       0.485   0.300  -0.641  1.00  0.00    -0.252 N 
HETATM   11  C23 UNL     1       0.322   0.918   0.553  1.00  0.00     0.158 A 
HETATM   12  N6  UNL     1      -0.116   0.456   1.737  1.00  0.00    -0.320 N 
ATOM     13  H6  UNL     1      -0.390  -0.524   1.811  1.00  0.00     0.169 HD
ENDROOT
BRANCH  10  14
HETATM   14  C16 UNL     1       0.189  -1.103  -0.854  1.00  0.00     0.145 C 
HETATM   15  C17 UNL     1       1.307  -2.003  -0.400  1.00  0.00     0.065 C 
HETATM   16  C18 UNL     1       2.159  -2.116  -1.640  1.00  0.00     0.154 C 
HETATM   17  C21 UNL     1       1.156  -2.326  -2.719  1.00  0.00     0.178 C 
HETATM   18  C22 UNL     1       0.007  -1.418  -2.295  1.00  0.00     0.174 C 
BRANCH  16  19
HETATM   19  O1  UNL     1       3.070  -1.139  -1.825  1.00  0.00    -0.381 OA
BRANCH  19  20
HETATM   20  C19 UNL     1       4.093  -1.063  -0.907  1.00  0.00     0.194 C 
BRANCH  20  21
HETATM   21  C20 UNL     1       4.408   0.399  -0.665  1.00  0.00     0.190 C 
BRANCH  21  22
HETATM   22  O2  UNL     1       5.458   0.590   0.199  1.00  0.00    -0.399 OA
ATOM     23  H2  UNL     1       5.619   1.505   0.396  1.00  0.00     0.209 HD
ENDBRANCH  21  22
ENDBRANCH  20  21
ENDBRANCH  19  20
ENDBRANCH  16  19
BRANCH  17  24
HETATM   24  O3  UNL     1       0.693  -3.651  -2.676  1.00  0.00    -0.390 OA
ATOM     25  H3  UNL     1       1.091  -4.149  -3.380  1.00  0.00     0.210 HD
ENDBRANCH  17  24
BRANCH  18  26
HETATM   26  O4  UNL     1      -1.233  -1.984  -2.584  1.00  0.00    -0.391 OA
ATOM     27  H4  UNL     1      -1.893  -1.343  -2.818  1.00  0.00     0.210 HD
ENDBRANCH  18  26
ENDBRANCH  10  14
BRANCH   4  28
HETATM   28  N2  UNL     1       0.987   4.413   1.460  1.00  0.00    -0.369 N 
ATOM     29  H2  UNL     1       0.282   5.151   1.436  1.00  0.00     0.161 HD
BRANCH  28  30
HETATM   30  C6  UNL     1       2.389   4.735   1.400  1.00  0.00     0.092 A 
HETATM   31  C7  UNL     1       2.679   6.196   1.643  1.00  0.00     0.037 A 
HETATM   32  C8  UNL     1       2.959   5.587   0.331  1.00  0.00     0.043 A 
BRANCH  32  33
HETATM   33  C9  UNL     1       4.377   5.324  -0.044  1.00  0.00    -0.049 A 
HETATM   34  C10 UNL     1       5.356   6.243   0.306  1.00  0.00     0.011 A 
HETATM   35  C11 UNL     1       6.692   6.066  -0.002  1.00  0.00     0.046 A 
HETATM   36  C12 UNL     1       7.092   4.939  -0.686  1.00  0.00     0.154 A 
HETATM   37  F1  UNL     1       8.405   4.726  -1.010  1.00  0.00    -0.203 F 
HETATM   38  C13 UNL     1       6.124   4.016  -1.040  1.00  0.00     0.155 A 
HETATM   39  F2  UNL     1       6.481   2.882  -1.721  1.00  0.00    -0.203 F 
HETATM   40  C14 UNL     1       4.790   4.199  -0.727  1.00  0.00     0.053 A 
ENDBRANCH  32  33
ENDBRANCH  28  30
ENDBRANCH   4  28
BRANCH   1  41
HETATM   41  S1  UNL     1      -0.794   0.584   4.380  1.00  0.00    -0.094 SA
BRANCH  41  42
HETATM   42  C3  UNL     1       0.637  -0.078   5.289  1.00  0.00     0.082 C 
BRANCH  42  43
HETATM   43  C2  UNL     1       0.563  -1.601   5.183  1.00  0.00     0.006 C 
HETATM   44  C1  UNL     1       1.373  -2.002   3.947  1.00  0.00     0.006 C 
ENDBRANCH  42  43
ENDBRANCH  41  42
ENDBRANCH   1  41
TORSDOF 13
ENDMDL
