MODEL 7
REMARK VINA RESULT: -8.955655153      6.250     11.169
REMARK  2 active torsions:
REMARK  status: ('A' for Active; 'I' for Inactive)
REMARK    1  A    between atoms: N2_5  and  C4_6 
REMARK    2  A    between atoms: C8_12  and  C9_13 
ROOT
HETATM    1  C4  UNL     1     221.889  -2.113  15.903  1.00  0.00     0.032 A 
HETATM    2  C5  UNL     1     222.146  -1.591  17.161  1.00  0.00     0.031 A 
HETATM    3  C6  UNL     1     221.436  -2.051  18.260  1.00  0.00     0.034 A 
HETATM    4  C7  UNL     1     220.458  -3.038  18.127  1.00  0.00     0.060 A 
HETATM    5  N3  UNL     1     219.640  -3.657  18.984  1.00  0.00    -0.340 N 
ATOM      6  H3  UNL     1     219.606  -3.475  19.987  1.00  0.00     0.167 HD
HETATM    7  C8  UNL     1     218.863  -4.559  18.337  1.00  0.00     0.124 A 
HETATM    8  N6  UNL     1     219.220  -4.482  17.062  1.00  0.00    -0.340 N 
ATOM      9  H6  UNL     1     218.813  -5.042  16.312  1.00  0.00     0.167 HD
HETATM   10  C18 UNL     1     220.208  -3.551  16.885  1.00  0.00     0.062 A 
HETATM   11  C19 UNL     1     220.914  -3.090  15.805  1.00  0.00     0.061 A 
ENDROOT
BRANCH   7  12
HETATM   12  C9  UNL     1     217.848  -5.413  18.987  1.00  0.00     0.101 A 
HETATM   13  C10 UNL     1     218.044  -6.022  20.197  1.00  0.00     0.081 A 
HETATM   14  N4  UNL     1     219.253  -5.877  20.923  1.00  0.00    -0.100 NA
HETATM   15  C11 UNL     1     217.037  -6.817  20.752  1.00  0.00     0.055 A 
HETATM   16  C12 UNL     1     217.238  -7.437  21.984  1.00  0.00     0.130 A 
HETATM   17  C16 UNL     1     215.862  -6.960  20.048  1.00  0.00     0.050 A 
HETATM   18  F1  UNL     1     218.396  -7.282  22.654  1.00  0.00    -0.205 F 
HETATM   19  C13 UNL     1     216.223  -8.207  22.490  1.00  0.00     0.043 A 
HETATM   20  C14 UNL     1     215.027  -8.386  21.832  1.00  0.00     0.005 A 
HETATM   21  C15 UNL     1     214.857  -7.758  20.610  1.00  0.00     0.030 A 
HETATM   22  N5  UNL     1     215.679  -6.361  18.866  1.00  0.00    -0.322 N 
HETATM   23  C17 UNL     1     216.638  -5.598  18.327  1.00  0.00     0.261 A 
ATOM     24  H5  UNL     1     214.796  -6.486  18.369  1.00  0.00     0.169 HD
HETATM   25  O1  UNL     1     216.447  -5.033  17.199  1.00  0.00    -0.267 OA
ENDBRANCH   7  12
BRANCH   1  26
HETATM   26  N2  UNL     1     222.615  -1.648  14.746  1.00  0.00    -0.377 N 
HETATM   27  C3  UNL     1     223.976  -2.068  14.620  1.00  0.00     0.153 C 
HETATM   28  C2  UNL     1     224.776  -1.402  13.575  1.00  0.00     0.291 C 
HETATM   29  N1  UNL     1     224.055  -0.481  12.737  1.00  0.00     0.087 N 
HETATM   30  C1  UNL     1     224.754  -0.304  11.480  1.00  0.00     0.310 C 
HETATM   31  C21 UNL     1     222.713  -0.960  12.471  1.00  0.00     0.291 C 
HETATM   32  C20 UNL     1     221.956  -0.806  13.799  1.00  0.00     0.153 C 
ENDBRANCH   1  26
TORSDOF 2
ENDMDL
