MODEL 1
REMARK VINA RESULT: -9.980742519      0.000      0.000
REMARK  2 active torsions:
REMARK  status: ('A' for Active; 'I' for Inactive)
REMARK    1  A    between atoms: N2_5  and  C4_6 
REMARK    2  A    between atoms: C8_12  and  C9_13 
ROOT
HETATM    1  C4  UNL     1     218.446  -7.680  27.147  1.00  0.00     0.032 A 
HETATM    2  C5  UNL     1     219.083  -6.523  26.726  1.00  0.00     0.031 A 
HETATM    3  C6  UNL     1     218.856  -6.032  25.449  1.00  0.00     0.034 A 
HETATM    4  C7  UNL     1     217.992  -6.683  24.568  1.00  0.00     0.060 A 
HETATM    5  N3  UNL     1     217.592  -6.447  23.314  1.00  0.00    -0.340 N 
ATOM      6  H3  UNL     1     217.900  -5.657  22.746  1.00  0.00     0.167 HD
HETATM    7  C8  UNL     1     216.723  -7.400  22.901  1.00  0.00     0.124 A 
HETATM    8  N6  UNL     1     216.595  -8.230  23.929  1.00  0.00    -0.340 N 
ATOM      9  H6  UNL     1     216.002  -9.061  23.932  1.00  0.00     0.167 HD
HETATM   10  C18 UNL     1     217.365  -7.824  24.985  1.00  0.00     0.062 A 
HETATM   11  C19 UNL     1     217.595  -8.302  26.248  1.00  0.00     0.061 A 
ENDROOT
BRANCH   7  12
HETATM   12  C9  UNL     1     216.091  -7.441  21.567  1.00  0.00     0.101 A 
HETATM   13  C10 UNL     1     216.356  -6.526  20.583  1.00  0.00     0.081 A 
HETATM   14  N4  UNL     1     217.268  -5.459  20.778  1.00  0.00    -0.100 NA
HETATM   15  C11 UNL     1     215.719  -6.628  19.343  1.00  0.00     0.055 A 
HETATM   16  C12 UNL     1     215.990  -5.696  18.342  1.00  0.00     0.130 A 
HETATM   17  C16 UNL     1     214.833  -7.664  19.153  1.00  0.00     0.050 A 
HETATM   18  F1  UNL     1     216.862  -4.691  18.553  1.00  0.00    -0.205 F 
HETATM   19  C13 UNL     1     215.343  -5.834  17.142  1.00  0.00     0.043 A 
HETATM   20  C14 UNL     1     214.447  -6.850  16.894  1.00  0.00     0.005 A 
HETATM   21  C15 UNL     1     214.198  -7.760  17.907  1.00  0.00     0.030 A 
HETATM   22  N5  UNL     1     214.579  -8.554  20.119  1.00  0.00    -0.322 N 
HETATM   23  C17 UNL     1     215.184  -8.464  21.310  1.00  0.00     0.261 A 
ATOM     24  H5  UNL     1     213.917  -9.311  19.946  1.00  0.00     0.169 HD
HETATM   25  O1  UNL     1     214.932  -9.321  22.221  1.00  0.00    -0.267 OA
ENDBRANCH   7  12
BRANCH   1  26
HETATM   26  N2  UNL     1     218.669  -8.210  28.470  1.00  0.00    -0.377 N 
HETATM   27  C3  UNL     1     217.512  -8.566  29.231  1.00  0.00     0.153 C 
HETATM   28  C2  UNL     1     217.731  -8.876  30.656  1.00  0.00     0.291 C 
HETATM   29  N1  UNL     1     219.106  -8.885  31.082  1.00  0.00     0.087 N 
HETATM   30  C1  UNL     1     219.247  -9.682  32.283  1.00  0.00     0.310 C 
HETATM   31  C21 UNL     1     219.968  -9.424  30.049  1.00  0.00     0.291 C 
HETATM   32  C20 UNL     1     220.006  -8.352  28.950  1.00  0.00     0.153 C 
ENDBRANCH   1  26
TORSDOF 2
ENDMDL
