MODEL 4
REMARK VINA RESULT: -9.202883461      5.893     10.937
REMARK  2 active torsions:
REMARK  status: ('A' for Active; 'I' for Inactive)
REMARK    1  A    between atoms: N2_5  and  C4_6 
REMARK    2  A    between atoms: C8_12  and  C9_13 
ROOT
HETATM    1  C4  UNL     1     221.212  -2.450  15.721  1.00  0.00     0.032 A 
HETATM    2  C5  UNL     1     220.012  -1.759  15.666  1.00  0.00     0.031 A 
HETATM    3  C6  UNL     1     218.955  -2.137  16.481  1.00  0.00     0.034 A 
HETATM    4  C7  UNL     1     219.074  -3.212  17.364  1.00  0.00     0.060 A 
HETATM    5  N3  UNL     1     218.248  -3.786  18.245  1.00  0.00    -0.340 N 
ATOM      6  H3  UNL     1     217.289  -3.486  18.421  1.00  0.00     0.167 HD
HETATM    7  C8  UNL     1     218.859  -4.821  18.870  1.00  0.00     0.124 A 
HETATM    8  N6  UNL     1     220.081  -4.871  18.355  1.00  0.00    -0.340 N 
ATOM      9  H6  UNL     1     220.794  -5.551  18.623  1.00  0.00     0.167 HD
HETATM   10  C18 UNL     1     220.258  -3.891  17.417  1.00  0.00     0.062 A 
HETATM   11  C19 UNL     1     221.297  -3.510  16.608  1.00  0.00     0.061 A 
ENDROOT
BRANCH   7  12
HETATM   12  C9  UNL     1     218.229  -5.671  19.900  1.00  0.00     0.101 A 
HETATM   13  C10 UNL     1     217.003  -6.259  19.740  1.00  0.00     0.081 A 
HETATM   14  N4  UNL     1     216.239  -6.091  18.557  1.00  0.00    -0.100 NA
HETATM   15  C11 UNL     1     216.469  -7.052  20.759  1.00  0.00     0.055 A 
HETATM   16  C12 UNL     1     215.221  -7.651  20.595  1.00  0.00     0.130 A 
HETATM   17  C16 UNL     1     217.209  -7.216  21.909  1.00  0.00     0.050 A 
HETATM   18  F1  UNL     1     214.516  -7.476  19.461  1.00  0.00    -0.205 F 
HETATM   19  C13 UNL     1     214.736  -8.420  21.621  1.00  0.00     0.043 A 
HETATM   20  C14 UNL     1     215.432  -8.620  22.793  1.00  0.00     0.005 A 
HETATM   21  C15 UNL     1     216.668  -8.012  22.926  1.00  0.00     0.030 A 
HETATM   22  N5  UNL     1     218.407  -6.638  22.057  1.00  0.00    -0.322 N 
HETATM   23  C17 UNL     1     218.926  -5.877  21.086  1.00  0.00     0.261 A 
ATOM     24  H5  UNL     1     218.931  -6.780  22.921  1.00  0.00     0.169 HD
HETATM   25  O1  UNL     1     220.069  -5.332  21.243  1.00  0.00    -0.267 OA
ENDBRANCH   7  12
BRANCH   1  26
HETATM   26  N2  UNL     1     222.323  -2.074  14.882  1.00  0.00    -0.377 N 
HETATM   27  C3  UNL     1     222.017  -1.366  13.677  1.00  0.00     0.153 C 
HETATM   28  C2  UNL     1     223.121  -1.198  12.714  1.00  0.00     0.291 C 
HETATM   29  N1  UNL     1     224.405  -1.677  13.155  1.00  0.00     0.087 N 
HETATM   30  C1  UNL     1     225.460  -1.017  12.415  1.00  0.00     0.310 C 
HETATM   31  C21 UNL     1     224.593  -1.434  14.572  1.00  0.00     0.291 C 
HETATM   32  C20 UNL     1     223.650  -2.416  15.282  1.00  0.00     0.153 C 
ENDBRANCH   1  26
TORSDOF 2
ENDMDL
