MODEL 2
REMARK VINA RESULT: -9.947926661      0.750      1.131
REMARK  2 active torsions:
REMARK  status: ('A' for Active; 'I' for Inactive)
REMARK    1  A    between atoms: N2_5  and  C4_6 
REMARK    2  A    between atoms: C8_12  and  C9_13 
ROOT
HETATM    1  C4  UNL     1     218.993  -7.832  27.123  1.00  0.00     0.032 A 
HETATM    2  C5  UNL     1     219.233  -6.488  26.880  1.00  0.00     0.031 A 
HETATM    3  C6  UNL     1     218.770  -5.900  25.713  1.00  0.00     0.034 A 
HETATM    4  C7  UNL     1     218.060  -6.640  24.765  1.00  0.00     0.060 A 
HETATM    5  N3  UNL     1     217.507  -6.348  23.583  1.00  0.00    -0.340 N 
ATOM      6  H3  UNL     1     217.526  -5.426  23.146  1.00  0.00     0.167 HD
HETATM    7  C8  UNL     1     216.918  -7.444  23.047  1.00  0.00     0.124 A 
HETATM    8  N6  UNL     1     217.121  -8.418  23.925  1.00  0.00    -0.340 N 
ATOM      9  H6  UNL     1     216.795  -9.378  23.808  1.00  0.00     0.167 HD
HETATM   10  C18 UNL     1     217.825  -7.964  25.007  1.00  0.00     0.062 A 
HETATM   11  C19 UNL     1     218.287  -8.536  26.163  1.00  0.00     0.061 A 
ENDROOT
BRANCH   7  12
HETATM   12  C9  UNL     1     216.217  -7.469  21.747  1.00  0.00     0.101 A 
HETATM   13  C10 UNL     1     216.466  -6.573  20.743  1.00  0.00     0.081 A 
HETATM   14  N4  UNL     1     217.427  -5.540  20.880  1.00  0.00    -0.100 NA
HETATM   15  C11 UNL     1     215.762  -6.659  19.538  1.00  0.00     0.055 A 
HETATM   16  C12 UNL     1     216.016  -5.746  18.516  1.00  0.00     0.130 A 
HETATM   17  C16 UNL     1     214.828  -7.662  19.403  1.00  0.00     0.050 A 
HETATM   18  F1  UNL     1     216.935  -4.774  18.672  1.00  0.00    -0.205 F 
HETATM   19  C13 UNL     1     215.302  -5.869  17.352  1.00  0.00     0.043 A 
HETATM   20  C14 UNL     1     214.356  -6.851  17.160  1.00  0.00     0.005 A 
HETATM   21  C15 UNL     1     214.127  -7.743  18.193  1.00  0.00     0.030 A 
HETATM   22  N5  UNL     1     214.591  -8.534  20.390  1.00  0.00    -0.322 N 
HETATM   23  C17 UNL     1     215.260  -8.459  21.547  1.00  0.00     0.261 A 
ATOM     24  H5  UNL     1     213.893  -9.266  20.258  1.00  0.00     0.169 HD
HETATM   25  O1  UNL     1     215.023  -9.299  22.478  1.00  0.00    -0.267 OA
ENDBRANCH   7  12
BRANCH   1  26
HETATM   26  N2  UNL     1     219.468  -8.463  28.330  1.00  0.00    -0.377 N 
HETATM   27  C3  UNL     1     220.646  -9.267  28.222  1.00  0.00     0.153 C 
HETATM   28  C2  UNL     1     220.986 -10.097  29.394  1.00  0.00     0.291 C 
HETATM   29  N1  UNL     1     220.143  -9.912  30.547  1.00  0.00     0.087 N 
HETATM   30  C1  UNL     1     220.843 -10.336  31.743  1.00  0.00     0.310 C 
HETATM   31  C21 UNL     1     219.753  -8.523  30.690  1.00  0.00     0.291 C 
HETATM   32  C20 UNL     1     218.757  -8.261  29.551  1.00  0.00     0.153 C 
ENDBRANCH   1  26
TORSDOF 2
ENDMDL
