MODEL 5
REMARK VINA RESULT: -9.182764302      5.853     10.935
REMARK  2 active torsions:
REMARK  status: ('A' for Active; 'I' for Inactive)
REMARK    1  A    between atoms: N2_5  and  C4_6 
REMARK    2  A    between atoms: C8_12  and  C9_13 
ROOT
HETATM    1  C4  UNL     1     221.010  -2.330  15.590  1.00  0.00     0.032 A 
HETATM    2  C5  UNL     1     219.937  -1.452  15.634  1.00  0.00     0.031 A 
HETATM    3  C6  UNL     1     218.805  -1.776  16.366  1.00  0.00     0.034 A 
HETATM    4  C7  UNL     1     218.719  -2.981  17.067  1.00  0.00     0.060 A 
HETATM    5  N3  UNL     1     217.780  -3.543  17.835  1.00  0.00    -0.340 N 
ATOM      6  H3  UNL     1     216.876  -3.122  18.047  1.00  0.00     0.167 HD
HETATM    7  C8  UNL     1     218.196  -4.748  18.293  1.00  0.00     0.124 A 
HETATM    8  N6  UNL     1     219.412  -4.917  17.789  1.00  0.00    -0.340 N 
ATOM      9  H6  UNL     1     219.997  -5.737  17.952  1.00  0.00     0.167 HD
HETATM   10  C18 UNL     1     219.777  -3.844  17.022  1.00  0.00     0.062 A 
HETATM   11  C19 UNL     1     220.892  -3.515  16.296  1.00  0.00     0.061 A 
ENDROOT
BRANCH   7  12
HETATM   12  C9  UNL     1     217.401  -5.635  19.166  1.00  0.00     0.101 A 
HETATM   13  C10 UNL     1     217.844  -6.086  20.380  1.00  0.00     0.081 A 
HETATM   14  N4  UNL     1     219.117  -5.731  20.893  1.00  0.00    -0.100 NA
HETATM   15  C11 UNL     1     217.035  -6.924  21.154  1.00  0.00     0.055 A 
HETATM   16  C12 UNL     1     217.488  -7.383  22.390  1.00  0.00     0.130 A 
HETATM   17  C16 UNL     1     215.799  -7.270  20.657  1.00  0.00     0.050 A 
HETATM   18  F1  UNL     1     218.702  -7.030  22.854  1.00  0.00    -0.205 F 
HETATM   19  C13 UNL     1     216.662  -8.202  23.114  1.00  0.00     0.043 A 
HETATM   20  C14 UNL     1     215.415  -8.581  22.669  1.00  0.00     0.005 A 
HETATM   21  C15 UNL     1     214.993  -8.109  21.438  1.00  0.00     0.030 A 
HETATM   22  N5  UNL     1     215.372  -6.824  19.470  1.00  0.00    -0.322 N 
HETATM   23  C17 UNL     1     216.140  -6.022  18.722  1.00  0.00     0.261 A 
ATOM     24  H5  UNL     1     214.450  -7.098  19.130  1.00  0.00     0.169 HD
HETATM   25  O1  UNL     1     215.719  -5.605  17.592  1.00  0.00    -0.267 OA
ENDBRANCH   7  12
BRANCH   1  26
HETATM   26  N2  UNL     1     222.196  -2.013  14.833  1.00  0.00    -0.377 N 
HETATM   27  C3  UNL     1     222.021  -1.231  13.649  1.00  0.00     0.153 C 
HETATM   28  C2  UNL     1     223.192  -1.116  12.758  1.00  0.00     0.291 C 
HETATM   29  N1  UNL     1     224.403  -1.720  13.247  1.00  0.00     0.087 N 
HETATM   30  C1  UNL     1     225.552  -1.120  12.600  1.00  0.00     0.310 C 
HETATM   31  C21 UNL     1     224.525  -1.555  14.682  1.00  0.00     0.291 C 
HETATM   32  C20 UNL     1     223.464  -2.484  15.290  1.00  0.00     0.153 C 
ENDBRANCH   1  26
TORSDOF 2
ENDMDL
