MODEL 1
REMARK VINA RESULT: -9.798396770      0.000      0.000
REMARK  2 active torsions:
REMARK  status: ('A' for Active; 'I' for Inactive)
REMARK    1  A    between atoms: N2_5  and  C4_6 
REMARK    2  A    between atoms: C8_12  and  C9_13 
ROOT
HETATM    1  C4  UNL     1     218.803   3.585  26.826  1.00  0.00     0.032 A 
HETATM    2  C5  UNL     1     219.132   4.893  26.504  1.00  0.00     0.031 A 
HETATM    3  C6  UNL     1     218.678   5.449  25.317  1.00  0.00     0.034 A 
HETATM    4  C7  UNL     1     217.891   4.713  24.429  1.00  0.00     0.060 A 
HETATM    5  N3  UNL     1     217.327   4.981  23.247  1.00  0.00    -0.340 N 
ATOM      6  H3  UNL     1     217.399   5.874  22.759  1.00  0.00     0.167 HD
HETATM    7  C8  UNL     1     216.646   3.904  22.787  1.00  0.00     0.124 A 
HETATM    8  N6  UNL     1     216.803   2.966  23.713  1.00  0.00    -0.340 N 
ATOM      9  H6  UNL     1     216.406   2.027  23.658  1.00  0.00     0.167 HD
HETATM   10  C18 UNL     1     217.568   3.425  24.750  1.00  0.00     0.062 A 
HETATM   11  C19 UNL     1     218.021   2.884  25.925  1.00  0.00     0.061 A 
ENDROOT
BRANCH   7  12
HETATM   12  C9  UNL     1     215.908   3.860  21.509  1.00  0.00     0.101 A 
HETATM   13  C10 UNL     1     216.088   4.774  20.506  1.00  0.00     0.081 A 
HETATM   14  N4  UNL     1     217.008   5.846  20.626  1.00  0.00    -0.100 NA
HETATM   15  C11 UNL     1     215.353   4.669  19.322  1.00  0.00     0.055 A 
HETATM   16  C12 UNL     1     215.537   5.601  18.302  1.00  0.00     0.130 A 
HETATM   17  C16 UNL     1     214.458   3.629  19.205  1.00  0.00     0.050 A 
HETATM   18  F1  UNL     1     216.418   6.610  18.441  1.00  0.00    -0.205 F 
HETATM   19  C13 UNL     1     214.795   5.459  17.159  1.00  0.00     0.043 A 
HETATM   20  C14 UNL     1     213.886   4.439  16.985  1.00  0.00     0.005 A 
HETATM   21  C15 UNL     1     213.725   3.529  18.015  1.00  0.00     0.030 A 
HETATM   22  N5  UNL     1     214.289   2.738  20.189  1.00  0.00    -0.322 N 
HETATM   23  C17 UNL     1     214.988   2.832  21.327  1.00  0.00     0.261 A 
ATOM     24  H5  UNL     1     213.619   1.978  20.071  1.00  0.00     0.169 HD
HETATM   25  O1  UNL     1     214.815   1.974  22.256  1.00  0.00    -0.267 OA
ENDBRANCH   7  12
BRANCH   1  26
HETATM   26  N2  UNL     1     219.266   2.986  28.055  1.00  0.00    -0.377 N 
HETATM   27  C3  UNL     1     220.586   2.435  28.052  1.00  0.00     0.153 C 
HETATM   28  C2  UNL     1     220.960   1.619  29.222  1.00  0.00     0.291 C 
HETATM   29  N1  UNL     1     219.982   1.565  30.277  1.00  0.00     0.087 N 
HETATM   30  C1  UNL     1     220.623   1.214  31.528  1.00  0.00     0.310 C 
HETATM   31  C21 UNL     1     219.308   2.839  30.428  1.00  0.00     0.291 C 
HETATM   32  C20 UNL     1     218.405   2.971  29.193  1.00  0.00     0.153 C 
ENDBRANCH   1  26
TORSDOF 2
ENDMDL
