MODEL 4
REMARK VINA RESULT: -9.287644951      6.823     10.390
REMARK  2 active torsions:
REMARK  status: ('A' for Active; 'I' for Inactive)
REMARK    1  A    between atoms: N2_5  and  C4_6 
REMARK    2  A    between atoms: C8_12  and  C9_13 
ROOT
HETATM    1  C4  UNL     1     223.623   8.458  17.344  1.00  0.00     0.032 A 
HETATM    2  C5  UNL     1     224.418   8.419  18.479  1.00  0.00     0.031 A 
HETATM    3  C6  UNL     1     223.957   7.791  19.627  1.00  0.00     0.034 A 
HETATM    4  C7  UNL     1     222.697   7.191  19.665  1.00  0.00     0.060 A 
HETATM    5  N3  UNL     1     222.011   6.533  20.605  1.00  0.00    -0.340 N 
ATOM      6  H3  UNL     1     222.349   6.350  21.549  1.00  0.00     0.167 HD
HETATM    7  C8  UNL     1     220.804   6.142  20.129  1.00  0.00     0.124 A 
HETATM    8  N6  UNL     1     220.762   6.574  18.875  1.00  0.00    -0.340 N 
ATOM      9  H6  UNL     1     219.974   6.435  18.242  1.00  0.00     0.167 HD
HETATM   10  C18 UNL     1     221.916   7.231  18.545  1.00  0.00     0.062 A 
HETATM   11  C19 UNL     1     222.379   7.853  17.416  1.00  0.00     0.061 A 
ENDROOT
BRANCH   7  12
HETATM   12  C9  UNL     1     219.796   5.393  20.908  1.00  0.00     0.101 A 
HETATM   13  C10 UNL     1     218.471   5.342  20.567  1.00  0.00     0.081 A 
HETATM   14  N4  UNL     1     217.964   6.015  19.427  1.00  0.00    -0.100 NA
HETATM   15  C11 UNL     1     217.574   4.613  21.353  1.00  0.00     0.055 A 
HETATM   16  C12 UNL     1     216.225   4.561  21.005  1.00  0.00     0.130 A 
HETATM   17  C16 UNL     1     218.066   3.959  22.461  1.00  0.00     0.050 A 
HETATM   18  F1  UNL     1     215.769   5.209  19.916  1.00  0.00    -0.205 F 
HETATM   19  C13 UNL     1     215.382   3.834  21.804  1.00  0.00     0.043 A 
HETATM   20  C14 UNL     1     215.817   3.159  22.924  1.00  0.00     0.005 A 
HETATM   21  C15 UNL     1     217.162   3.230  23.243  1.00  0.00     0.030 A 
HETATM   22  N5  UNL     1     219.363   4.013  22.786  1.00  0.00    -0.322 N 
HETATM   23  C17 UNL     1     220.229   4.710  22.040  1.00  0.00     0.261 A 
ATOM     24  H5  UNL     1     219.696   3.517  23.613  1.00  0.00     0.169 HD
HETATM   25  O1  UNL     1     221.462   4.752  22.364  1.00  0.00    -0.267 OA
ENDBRANCH   7  12
BRANCH   1  26
HETATM   26  N2  UNL     1     224.082   9.107  16.140  1.00  0.00    -0.377 N 
HETATM   27  C3  UNL     1     223.417   8.761  14.922  1.00  0.00     0.153 C 
HETATM   28  C2  UNL     1     224.041   9.239  13.673  1.00  0.00     0.291 C 
HETATM   29  N1  UNL     1     225.190  10.089  13.842  1.00  0.00     0.087 N 
HETATM   30  C1  UNL     1     225.388  10.896  12.656  1.00  0.00     0.310 C 
HETATM   31  C21 UNL     1     225.029  10.960  14.989  1.00  0.00     0.291 C 
HETATM   32  C20 UNL     1     225.155  10.045  16.216  1.00  0.00     0.153 C 
ENDBRANCH   1  26
TORSDOF 2
ENDMDL
