MODEL 2
REMARK VINA RESULT: -9.739192463      0.824      1.258
REMARK  2 active torsions:
REMARK  status: ('A' for Active; 'I' for Inactive)
REMARK    1  A    between atoms: N2_5  and  C4_6 
REMARK    2  A    between atoms: C8_12  and  C9_13 
ROOT
HETATM    1  C4  UNL     1     218.434   3.590  26.957  1.00  0.00     0.032 A 
HETATM    2  C5  UNL     1     219.445   4.287  26.313  1.00  0.00     0.031 A 
HETATM    3  C6  UNL     1     219.324   4.599  24.968  1.00  0.00     0.034 A 
HETATM    4  C7  UNL     1     218.195   4.223  24.238  1.00  0.00     0.060 A 
HETATM    5  N3  UNL     1     217.816   4.383  22.966  1.00  0.00    -0.340 N 
ATOM      6  H3  UNL     1     218.365   4.863  22.253  1.00  0.00     0.167 HD
HETATM    7  C8  UNL     1     216.602   3.820  22.755  1.00  0.00     0.124 A 
HETATM    8  N6  UNL     1     216.241   3.309  23.926  1.00  0.00    -0.340 N 
ATOM      9  H6  UNL     1     215.366   2.813  24.095  1.00  0.00     0.167 HD
HETATM   10  C18 UNL     1     217.200   3.536  24.875  1.00  0.00     0.062 A 
HETATM   11  C19 UNL     1     217.329   3.232  26.205  1.00  0.00     0.061 A 
ENDROOT
BRANCH   7  12
HETATM   12  C9  UNL     1     215.892   3.815  21.460  1.00  0.00     0.101 A 
HETATM   13  C10 UNL     1     216.062   4.783  20.507  1.00  0.00     0.081 A 
HETATM   14  N4  UNL     1     216.944   5.877  20.699  1.00  0.00    -0.100 NA
HETATM   15  C11 UNL     1     215.355   4.713  19.303  1.00  0.00     0.055 A 
HETATM   16  C12 UNL     1     215.530   5.699  18.334  1.00  0.00     0.130 A 
HETATM   17  C16 UNL     1     214.498   3.652  19.116  1.00  0.00     0.050 A 
HETATM   18  F1  UNL     1     216.374   6.728  18.541  1.00  0.00    -0.205 F 
HETATM   19  C13 UNL     1     214.816   5.590  17.169  1.00  0.00     0.043 A 
HETATM   20  C14 UNL     1     213.945   4.551  16.925  1.00  0.00     0.005 A 
HETATM   21  C15 UNL     1     213.793   3.587  17.907  1.00  0.00     0.030 A 
HETATM   22  N5  UNL     1     214.338   2.709  20.052  1.00  0.00    -0.322 N 
HETATM   23  C17 UNL     1     215.010   2.769  21.208  1.00  0.00     0.261 A 
ATOM     24  H5  UNL     1     213.695   1.935  19.882  1.00  0.00     0.169 HD
HETATM   25  O1  UNL     1     214.846   1.862  22.091  1.00  0.00    -0.267 OA
ENDBRANCH   7  12
BRANCH   1  26
HETATM   26  N2  UNL     1     218.541   3.253  28.356  1.00  0.00    -0.377 N 
HETATM   27  C3  UNL     1     217.329   3.244  29.116  1.00  0.00     0.153 C 
HETATM   28  C2  UNL     1     217.472   3.138  30.580  1.00  0.00     0.291 C 
HETATM   29  N1  UNL     1     218.817   2.948  31.058  1.00  0.00     0.087 N 
HETATM   30  C1  UNL     1     218.793   2.346  32.376  1.00  0.00     0.310 C 
HETATM   31  C21 UNL     1     219.573   2.098  30.160  1.00  0.00     0.291 C 
HETATM   32  C20 UNL     1     219.822   2.950  28.907  1.00  0.00     0.153 C 
ENDBRANCH   1  26
TORSDOF 2
ENDMDL
