MODEL 5
REMARK VINA RESULT: -9.146664500      3.001      9.924
REMARK  2 active torsions:
REMARK  status: ('A' for Active; 'I' for Inactive)
REMARK    1  A    between atoms: N2_5  and  C4_6 
REMARK    2  A    between atoms: C8_12  and  C9_13 
ROOT
HETATM    1  C4  UNL     1     215.566   4.085  20.831  1.00  0.00     0.032 A 
HETATM    2  C5  UNL     1     214.957   2.965  21.374  1.00  0.00     0.031 A 
HETATM    3  C6  UNL     1     215.301   2.537  22.647  1.00  0.00     0.034 A 
HETATM    4  C7  UNL     1     216.258   3.216  23.403  1.00  0.00     0.060 A 
HETATM    5  N3  UNL     1     216.775   3.039  24.623  1.00  0.00    -0.340 N 
ATOM      6  H3  UNL     1     216.513   2.286  25.260  1.00  0.00     0.167 HD
HETATM    7  C8  UNL     1     217.694   3.996  24.897  1.00  0.00     0.124 A 
HETATM    8  N6  UNL     1     217.732   4.767  23.818  1.00  0.00    -0.340 N 
ATOM      9  H6  UNL     1     218.333   5.585  23.713  1.00  0.00     0.167 HD
HETATM   10  C18 UNL     1     216.857   4.320  22.865  1.00  0.00     0.062 A 
HETATM   11  C19 UNL     1     216.510   4.736  21.607  1.00  0.00     0.061 A 
ENDROOT
BRANCH   7  12
HETATM   12  C9  UNL     1     218.456   4.093  26.159  1.00  0.00     0.101 A 
HETATM   13  C10 UNL     1     217.910   3.830  27.386  1.00  0.00     0.081 A 
HETATM   14  N4  UNL     1     216.555   3.444  27.538  1.00  0.00    -0.100 NA
HETATM   15  C11 UNL     1     218.693   3.943  28.539  1.00  0.00     0.055 A 
HETATM   16  C12 UNL     1     218.137   3.676  29.789  1.00  0.00     0.130 A 
HETATM   17  C16 UNL     1     220.010   4.319  28.393  1.00  0.00     0.050 A 
HETATM   18  F1  UNL     1     216.846   3.309  29.905  1.00  0.00    -0.205 F 
HETATM   19  C13 UNL     1     218.942   3.799  30.891  1.00  0.00     0.043 A 
HETATM   20  C14 UNL     1     220.265   4.171  30.807  1.00  0.00     0.005 A 
HETATM   21  C15 UNL     1     220.789   4.429  29.552  1.00  0.00     0.030 A 
HETATM   22  N5  UNL     1     220.536   4.573  27.190  1.00  0.00    -0.322 N 
HETATM   23  C17 UNL     1     219.793   4.468  26.081  1.00  0.00     0.261 A 
ATOM     24  H5  UNL     1     221.515   4.848  27.115  1.00  0.00     0.169 HD
HETATM   25  O1  UNL     1     220.309   4.714  24.940  1.00  0.00    -0.267 OA
ENDBRANCH   7  12
BRANCH   1  26
HETATM   26  N2  UNL     1     215.224   4.547  19.507  1.00  0.00    -0.377 N 
HETATM   27  C3  UNL     1     216.121   5.474  18.891  1.00  0.00     0.153 C 
HETATM   28  C2  UNL     1     215.650   6.122  17.652  1.00  0.00     0.291 C 
HETATM   29  N1  UNL     1     214.380   5.657  17.156  1.00  0.00     0.087 N 
HETATM   30  C1  UNL     1     214.269   5.940  15.740  1.00  0.00     0.310 C 
HETATM   31  C21 UNL     1     214.228   4.232  17.371  1.00  0.00     0.291 C 
HETATM   32  C20 UNL     1     214.032   4.067  18.885  1.00  0.00     0.153 C 
ENDBRANCH   1  26
TORSDOF 2
ENDMDL
