MODEL 6
REMARK VINA RESULT: -8.970738499      2.732      9.691
REMARK  2 active torsions:
REMARK  status: ('A' for Active; 'I' for Inactive)
REMARK    1  A    between atoms: N2_5  and  C4_6 
REMARK    2  A    between atoms: C8_12  and  C9_13 
ROOT
HETATM    1  C4  UNL     1     215.502   4.036  20.765  1.00  0.00     0.032 A 
HETATM    2  C5  UNL     1     214.938   2.880  21.284  1.00  0.00     0.031 A 
HETATM    3  C6  UNL     1     215.274   2.457  22.561  1.00  0.00     0.034 A 
HETATM    4  C7  UNL     1     216.178   3.175  23.345  1.00  0.00     0.060 A 
HETATM    5  N3  UNL     1     216.675   3.012  24.575  1.00  0.00    -0.340 N 
ATOM      6  H3  UNL     1     216.437   2.241  25.199  1.00  0.00     0.167 HD
HETATM    7  C8  UNL     1     217.537   4.011  24.880  1.00  0.00     0.124 A 
HETATM    8  N6  UNL     1     217.561   4.795  23.809  1.00  0.00    -0.340 N 
ATOM      9  H6  UNL     1     218.123   5.643  23.725  1.00  0.00     0.167 HD
HETATM   10  C18 UNL     1     216.732   4.314  22.832  1.00  0.00     0.062 A 
HETATM   11  C19 UNL     1     216.394   4.725  21.569  1.00  0.00     0.061 A 
ENDROOT
BRANCH   7  12
HETATM   12  C9  UNL     1     218.264   4.133  26.160  1.00  0.00     0.101 A 
HETATM   13  C10 UNL     1     219.589   4.466  26.241  1.00  0.00     0.081 A 
HETATM   14  N4  UNL     1     220.371   4.719  25.086  1.00  0.00    -0.100 NA
HETATM   15  C11 UNL     1     220.211   4.563  27.489  1.00  0.00     0.055 A 
HETATM   16  C12 UNL     1     221.561   4.902  27.571  1.00  0.00     0.130 A 
HETATM   17  C16 UNL     1     219.453   4.317  28.612  1.00  0.00     0.050 A 
HETATM   18  F1  UNL     1     222.281   5.138  26.458  1.00  0.00    -0.205 F 
HETATM   19  C13 UNL     1     222.129   4.986  28.815  1.00  0.00     0.043 A 
HETATM   20  C14 UNL     1     221.421   4.751  29.973  1.00  0.00     0.005 A 
HETATM   21  C15 UNL     1     220.083   4.416  29.859  1.00  0.00     0.030 A 
HETATM   22  N5  UNL     1     218.158   3.993  28.524  1.00  0.00    -0.322 N 
HETATM   23  C17 UNL     1     217.554   3.897  27.333  1.00  0.00     0.261 A 
ATOM     24  H5  UNL     1     217.624   3.818  29.375  1.00  0.00     0.169 HD
HETATM   25  O1  UNL     1     216.318   3.587  27.266  1.00  0.00    -0.267 OA
ENDBRANCH   7  12
BRANCH   1  26
HETATM   26  N2  UNL     1     215.168   4.493  19.439  1.00  0.00    -0.377 N 
HETATM   27  C3  UNL     1     216.041   5.457  18.845  1.00  0.00     0.153 C 
HETATM   28  C2  UNL     1     215.569   6.095  17.601  1.00  0.00     0.291 C 
HETATM   29  N1  UNL     1     214.327   5.587  17.079  1.00  0.00     0.087 N 
HETATM   30  C1  UNL     1     214.231   5.875  15.663  1.00  0.00     0.310 C 
HETATM   31  C21 UNL     1     214.223   4.156  17.282  1.00  0.00     0.291 C 
HETATM   32  C20 UNL     1     214.006   3.974  18.792  1.00  0.00     0.153 C 
ENDBRANCH   1  26
TORSDOF 2
ENDMDL
