MODEL 15
REMARK VINA RESULT: -7.214516976      2.074      3.267
REMARK  8 active torsions:
REMARK  status: ('A' for Active; 'I' for Inactive)
REMARK    1  A    between atoms: N1_1  and  S1_4 
REMARK    2  A    between atoms: S1_4  and  C1_7 
REMARK    3  A    between atoms: C4_10  and  C5_11 
REMARK    4  A    between atoms: C6_14  and  S2_15 
REMARK    5  A    between atoms: S2_15  and  N2_18 
REMARK    6  A    between atoms: N2_18  and  C7_20 
REMARK    7  A    between atoms: C7_20  and  C8_21 
REMARK    8  A    between atoms: C8_21  and  C9_22 
ROOT
HETATM    1  C1  UNL     1      -4.510   1.896  14.146  1.00  0.00     0.080 A 
HETATM    2  C2  UNL     1      -4.550   1.376  12.880  1.00  0.00     0.026 A 
HETATM    3  C3  UNL     1      -4.339   2.226  11.838  1.00  0.00     0.021 A 
HETATM    4  C4  UNL     1      -4.083   3.610  12.026  1.00  0.00     0.064 A 
HETATM    5  C6  UNL     1      -4.047   4.124  13.291  1.00  0.00     0.098 A 
HETATM    6  C15 UNL     1      -4.268   3.226  14.358  1.00  0.00     0.051 A 
ENDROOT
BRANCH   5   7
HETATM    7  S2  UNL     1      -3.883   5.801  13.652  1.00  0.00     0.263 S 
HETATM    8  O5  UNL     1      -4.898   6.555  12.764  1.00  0.00    -0.200 OA
HETATM    9  O6  UNL     1      -4.353   6.169  15.053  1.00  0.00    -0.200 OA
BRANCH   7  10
HETATM   10  N2  UNL     1      -2.370   6.491  13.343  1.00  0.00    -0.295 N 
ATOM     11  H2  UNL     1      -1.569   5.893  13.142  1.00  0.00     0.177 HD
BRANCH  10  12
HETATM   12  C7  UNL     1      -2.214   7.891  13.362  1.00  0.00     0.077 C 
BRANCH  12  13
HETATM   13  C8  UNL     1      -1.627   8.275  14.721  1.00  0.00     0.083 C 
BRANCH  13  14
HETATM   14  C9  UNL     1      -1.177   9.672  14.661  1.00  0.00    -0.053 A 
HETATM   15  C10 UNL     1      -1.950  10.622  14.007  1.00  0.00     0.007 A 
HETATM   16  C11 UNL     1      -1.551  11.919  13.948  1.00  0.00     0.001 A 
HETATM   17  C12 UNL     1      -0.377  12.327  14.530  1.00  0.00     0.000 A 
HETATM   18  C13 UNL     1       0.382  11.368  15.179  1.00  0.00     0.001 A 
HETATM   19  C14 UNL     1      -0.014  10.063  15.241  1.00  0.00     0.007 A 
ENDBRANCH  13  14
ENDBRANCH  12  13
ENDBRANCH  10  12
ENDBRANCH   7  10
ENDBRANCH   5   7
BRANCH   4  20
HETATM   20  C5  UNL     1      -3.763   4.397  10.853  1.00  0.00     0.210 C 
HETATM   21  O3  UNL     1      -2.660   4.838  10.538  1.00  0.00    -0.644 OA
HETATM   22  O4  UNL     1      -4.802   4.713   9.954  1.00  0.00    -0.644 OA
ENDBRANCH   4  20
BRANCH   1  23
HETATM   23  S1  UNL     1      -4.780   0.798  15.480  1.00  0.00     0.256 S 
HETATM   24  O1  UNL     1      -3.647   0.899  16.436  1.00  0.00    -0.201 OA
HETATM   25  O2  UNL     1      -4.943  -0.612  15.044  1.00  0.00    -0.201 OA
BRANCH  23  26
HETATM   26  N1  UNL     1      -6.238   1.300  16.271  1.00  0.00    -0.324 N 
ATOM     27  H12 UNL     1      -7.085   1.599  15.790  1.00  0.00     0.169 HD
ATOM     28  H11 UNL     1      -6.104   1.246  17.282  1.00  0.00     0.169 HD
ENDBRANCH  23  26
ENDBRANCH   1  23
TORSDOF 8
ENDMDL
