MODEL 10
REMARK VINA RESULT: -7.412115165      1.439      2.689
REMARK  8 active torsions:
REMARK  status: ('A' for Active; 'I' for Inactive)
REMARK    1  A    between atoms: N1_1  and  S1_4 
REMARK    2  A    between atoms: S1_4  and  C1_7 
REMARK    3  A    between atoms: C4_10  and  C5_11 
REMARK    4  A    between atoms: C6_14  and  S2_15 
REMARK    5  A    between atoms: S2_15  and  N2_18 
REMARK    6  A    between atoms: N2_18  and  C7_20 
REMARK    7  A    between atoms: C7_20  and  C8_21 
REMARK    8  A    between atoms: C8_21  and  C9_22 
ROOT
HETATM    1  C1  UNL     1      -5.613   1.649  15.775  1.00  0.00     0.080 A 
HETATM    2  C2  UNL     1      -4.963   0.745  14.978  1.00  0.00     0.026 A 
HETATM    3  C3  UNL     1      -4.378   1.207  13.839  1.00  0.00     0.021 A 
HETATM    4  C4  UNL     1      -4.424   2.576  13.463  1.00  0.00     0.064 A 
HETATM    5  C6  UNL     1      -5.077   3.473  14.260  1.00  0.00     0.098 A 
HETATM    6  C15 UNL     1      -5.676   2.973  15.438  1.00  0.00     0.051 A 
ENDROOT
BRANCH   5   7
HETATM    7  S2  UNL     1      -5.323   5.130  13.855  1.00  0.00     0.263 S 
HETATM    8  O5  UNL     1      -6.830   5.303  13.560  1.00  0.00    -0.200 OA
HETATM    9  O6  UNL     1      -5.120   6.078  15.031  1.00  0.00    -0.200 OA
BRANCH   7  10
HETATM   10  N2  UNL     1      -4.499   5.701  12.494  1.00  0.00    -0.295 N 
ATOM     11  H2  UNL     1      -4.525   5.170  11.623  1.00  0.00     0.177 HD
BRANCH  10  12
HETATM   12  C7  UNL     1      -3.778   6.910  12.558  1.00  0.00     0.077 C 
BRANCH  12  13
HETATM   13  C8  UNL     1      -2.305   6.560  12.781  1.00  0.00     0.083 C 
BRANCH  13  14
HETATM   14  C9  UNL     1      -1.696   7.603  13.617  1.00  0.00    -0.053 A 
HETATM   15  C10 UNL     1      -0.540   8.245  13.194  1.00  0.00     0.007 A 
HETATM   16  C11 UNL     1       0.031   9.216  13.952  1.00  0.00     0.001 A 
HETATM   17  C12 UNL     1      -0.515   9.591  15.155  1.00  0.00     0.000 A 
HETATM   18  C13 UNL     1      -1.668   8.942  15.562  1.00  0.00     0.001 A 
HETATM   19  C14 UNL     1      -2.246   7.964  14.804  1.00  0.00     0.007 A 
ENDBRANCH  13  14
ENDBRANCH  12  13
ENDBRANCH  10  12
ENDBRANCH   7  10
ENDBRANCH   5   7
BRANCH   4  20
HETATM   20  C5  UNL     1      -3.674   2.974  12.290  1.00  0.00     0.210 C 
HETATM   21  O3  UNL     1      -4.108   3.113  11.149  1.00  0.00    -0.644 OA
HETATM   22  O4  UNL     1      -2.296   3.237  12.433  1.00  0.00    -0.644 OA
ENDBRANCH   4  20
BRANCH   1  23
HETATM   23  S1  UNL     1      -6.360   1.047  17.237  1.00  0.00     0.256 S 
HETATM   24  O1  UNL     1      -5.576  -0.108  17.749  1.00  0.00    -0.201 OA
HETATM   25  O2  UNL     1      -7.774   0.643  17.040  1.00  0.00    -0.201 OA
BRANCH  23  26
HETATM   26  N1  UNL     1      -6.311   2.328  18.403  1.00  0.00    -0.324 N 
ATOM     27  H12 UNL     1      -5.513   2.536  19.002  1.00  0.00     0.169 HD
ATOM     28  H11 UNL     1      -7.201   2.828  18.387  1.00  0.00     0.169 HD
ENDBRANCH  23  26
ENDBRANCH   1  23
TORSDOF 8
ENDMDL
