MODEL 9
REMARK VINA RESULT: -7.443681564      1.890      3.032
REMARK  8 active torsions:
REMARK  status: ('A' for Active; 'I' for Inactive)
REMARK    1  A    between atoms: N1_1  and  S1_4 
REMARK    2  A    between atoms: S1_4  and  C1_7 
REMARK    3  A    between atoms: C4_10  and  C5_11 
REMARK    4  A    between atoms: C6_14  and  S2_15 
REMARK    5  A    between atoms: S2_15  and  N2_18 
REMARK    6  A    between atoms: N2_18  and  C7_20 
REMARK    7  A    between atoms: C7_20  and  C8_21 
REMARK    8  A    between atoms: C8_21  and  C9_22 
ROOT
HETATM    1  C1  UNL     1      -4.668   1.769  14.255  1.00  0.00     0.080 A 
HETATM    2  C2  UNL     1      -4.386   1.237  13.025  1.00  0.00     0.026 A 
HETATM    3  C3  UNL     1      -4.297   2.091  11.969  1.00  0.00     0.021 A 
HETATM    4  C4  UNL     1      -4.485   3.492  12.107  1.00  0.00     0.064 A 
HETATM    5  C6  UNL     1      -4.769   4.017  13.336  1.00  0.00     0.098 A 
HETATM    6  C15 UNL     1      -4.856   3.114  14.419  1.00  0.00     0.051 A 
ENDROOT
BRANCH   5   7
HETATM    7  S2  UNL     1      -5.152   5.674  13.618  1.00  0.00     0.263 S 
HETATM    8  O5  UNL     1      -6.481   5.960  12.882  1.00  0.00    -0.200 OA
HETATM    9  O6  UNL     1      -5.521   5.973  15.065  1.00  0.00    -0.200 OA
BRANCH   7  10
HETATM   10  N2  UNL     1      -4.036   6.810  13.051  1.00  0.00    -0.295 N 
ATOM     11  H2  UNL     1      -4.342   7.558  12.429  1.00  0.00     0.177 HD
BRANCH  10  12
HETATM   12  C7  UNL     1      -2.683   6.725  13.436  1.00  0.00     0.077 C 
BRANCH  12  13
HETATM   13  C8  UNL     1      -2.501   7.585  14.688  1.00  0.00     0.083 C 
BRANCH  13  14
HETATM   14  C9  UNL     1      -1.300   8.414  14.518  1.00  0.00    -0.053 A 
HETATM   15  C10 UNL     1      -0.441   8.181  13.452  1.00  0.00     0.007 A 
HETATM   16  C11 UNL     1       0.669   8.943  13.277  1.00  0.00     0.001 A 
HETATM   17  C12 UNL     1       0.974   9.962  14.145  1.00  0.00     0.000 A 
HETATM   18  C13 UNL     1       0.107  10.182  15.201  1.00  0.00     0.001 A 
HETATM   19  C14 UNL     1      -1.011   9.419  15.383  1.00  0.00     0.007 A 
ENDBRANCH  13  14
ENDBRANCH  12  13
ENDBRANCH  10  12
ENDBRANCH   7  10
ENDBRANCH   5   7
BRANCH   4  20
HETATM   20  C5  UNL     1      -4.258   4.317  10.938  1.00  0.00     0.210 C 
HETATM   21  O3  UNL     1      -5.109   4.762  10.172  1.00  0.00    -0.644 OA
HETATM   22  O4  UNL     1      -2.931   4.665  10.611  1.00  0.00    -0.644 OA
ENDBRANCH   4  20
BRANCH   1  23
HETATM   23  S1  UNL     1      -4.778   0.665  15.607  1.00  0.00     0.256 S 
HETATM   24  O1  UNL     1      -3.620   0.883  16.514  1.00  0.00    -0.201 OA
HETATM   25  O2  UNL     1      -4.824  -0.758  15.189  1.00  0.00    -0.201 OA
BRANCH  23  26
HETATM   26  N1  UNL     1      -6.242   1.037  16.456  1.00  0.00    -0.324 N 
ATOM     27  H12 UNL     1      -6.515   1.972  16.758  1.00  0.00     0.169 HD
ATOM     28  H11 UNL     1      -6.773   0.178  16.598  1.00  0.00     0.169 HD
ENDBRANCH  23  26
ENDBRANCH   1  23
TORSDOF 8
ENDMDL
