MODEL 16
REMARK VINA RESULT: -7.109029423      3.847      7.436
REMARK  8 active torsions:
REMARK  status: ('A' for Active; 'I' for Inactive)
REMARK    1  A    between atoms: N1_1  and  S1_4 
REMARK    2  A    between atoms: S1_4  and  C1_7 
REMARK    3  A    between atoms: C4_10  and  C5_11 
REMARK    4  A    between atoms: C6_14  and  S2_15 
REMARK    5  A    between atoms: S2_15  and  N2_18 
REMARK    6  A    between atoms: N2_18  and  C7_20 
REMARK    7  A    between atoms: C7_20  and  C8_21 
REMARK    8  A    between atoms: C8_21  and  C9_22 
ROOT
HETATM    1  C1  UNL     1       0.460   4.736  10.250  1.00  0.00     0.080 A 
HETATM    2  C2  UNL     1      -0.080   4.806   8.993  1.00  0.00     0.026 A 
HETATM    3  C3  UNL     1      -1.431   4.688   8.874  1.00  0.00     0.021 A 
HETATM    4  C4  UNL     1      -2.278   4.497   9.998  1.00  0.00     0.064 A 
HETATM    5  C6  UNL     1      -1.735   4.425  11.249  1.00  0.00     0.098 A 
HETATM    6  C15 UNL     1      -0.332   4.551  11.350  1.00  0.00     0.051 A 
ENDROOT
BRANCH   5   7
HETATM    7  S2  UNL     1      -2.631   4.063  12.676  1.00  0.00     0.263 S 
HETATM    8  O5  UNL     1      -1.642   4.142  13.861  1.00  0.00    -0.200 OA
HETATM    9  O6  UNL     1      -3.649   5.136  13.041  1.00  0.00    -0.200 OA
BRANCH   7  10
HETATM   10  N2  UNL     1      -3.343   2.531  12.747  1.00  0.00    -0.295 N 
ATOM     11  H2  UNL     1      -2.846   1.721  12.379  1.00  0.00     0.177 HD
BRANCH  10  12
HETATM   12  C7  UNL     1      -4.623   2.372  13.314  1.00  0.00     0.077 C 
BRANCH  12  13
HETATM   13  C8  UNL     1      -4.573   1.158  14.242  1.00  0.00     0.083 C 
BRANCH  13  14
HETATM   14  C9  UNL     1      -5.313   1.475  15.471  1.00  0.00    -0.053 A 
HETATM   15  C10 UNL     1      -5.996   2.680  15.578  1.00  0.00     0.007 A 
HETATM   16  C11 UNL     1      -6.690   2.985  16.705  1.00  0.00     0.001 A 
HETATM   17  C12 UNL     1      -6.737   2.116  17.767  1.00  0.00     0.000 A 
HETATM   18  C13 UNL     1      -6.052   0.919  17.643  1.00  0.00     0.001 A 
HETATM   19  C14 UNL     1      -5.352   0.607  16.514  1.00  0.00     0.007 A 
ENDBRANCH  13  14
ENDBRANCH  12  13
ENDBRANCH  10  12
ENDBRANCH   7  10
ENDBRANCH   5   7
BRANCH   4  20
HETATM   20  C5  UNL     1      -3.708   4.496   9.765  1.00  0.00     0.210 C 
HETATM   21  O3  UNL     1      -4.404   5.454   9.437  1.00  0.00    -0.644 OA
HETATM   22  O4  UNL     1      -4.412   3.284   9.926  1.00  0.00    -0.644 OA
ENDBRANCH   4  20
BRANCH   1  23
HETATM   23  S1  UNL     1       2.195   4.891  10.394  1.00  0.00     0.256 S 
HETATM   24  O1  UNL     1       2.634   6.142   9.721  1.00  0.00    -0.201 OA
HETATM   25  O2  UNL     1       2.928   3.733   9.824  1.00  0.00    -0.201 OA
BRANCH  23  26
HETATM   26  N1  UNL     1       2.563   4.996  12.084  1.00  0.00    -0.324 N 
ATOM     27  H12 UNL     1       2.359   5.805  12.672  1.00  0.00     0.169 HD
ATOM     28  H11 UNL     1       3.009   4.129  12.384  1.00  0.00     0.169 HD
ENDBRANCH  23  26
ENDBRANCH   1  23
TORSDOF 8
ENDMDL
