MODEL 18
REMARK VINA RESULT: -7.021747110      3.344      7.229
REMARK  8 active torsions:
REMARK  status: ('A' for Active; 'I' for Inactive)
REMARK    1  A    between atoms: N1_1  and  S1_4 
REMARK    2  A    between atoms: S1_4  and  C1_7 
REMARK    3  A    between atoms: C4_10  and  C5_11 
REMARK    4  A    between atoms: C6_14  and  S2_15 
REMARK    5  A    between atoms: S2_15  and  N2_18 
REMARK    6  A    between atoms: N2_18  and  C7_20 
REMARK    7  A    between atoms: C7_20  and  C8_21 
REMARK    8  A    between atoms: C8_21  and  C9_22 
ROOT
HETATM    1  C1  UNL     1       0.016   4.748  10.424  1.00  0.00     0.080 A 
HETATM    2  C2  UNL     1      -0.624   4.839   9.217  1.00  0.00     0.026 A 
HETATM    3  C3  UNL     1      -1.982   4.745   9.210  1.00  0.00     0.021 A 
HETATM    4  C4  UNL     1      -2.737   4.558  10.398  1.00  0.00     0.064 A 
HETATM    5  C6  UNL     1      -2.093   4.464  11.599  1.00  0.00     0.098 A 
HETATM    6  C15 UNL     1      -0.684   4.566  11.585  1.00  0.00     0.051 A 
ENDROOT
BRANCH   5   7
HETATM    7  S2  UNL     1      -2.874   4.103  13.093  1.00  0.00     0.263 S 
HETATM    8  O5  UNL     1      -3.168   2.586  13.092  1.00  0.00    -0.200 OA
HETATM    9  O6  UNL     1      -1.962   4.249  14.304  1.00  0.00    -0.200 OA
BRANCH   7  10
HETATM   10  N2  UNL     1      -4.350   4.878  13.375  1.00  0.00    -0.295 N 
ATOM     11  H2  UNL     1      -4.804   5.398  12.624  1.00  0.00     0.177 HD
BRANCH  10  12
HETATM   12  C7  UNL     1      -4.955   4.807  14.645  1.00  0.00     0.077 C 
BRANCH  12  13
HETATM   13  C8  UNL     1      -6.165   3.878  14.533  1.00  0.00     0.083 C 
BRANCH  13  14
HETATM   14  C9  UNL     1      -6.071   2.856  15.584  1.00  0.00    -0.053 A 
HETATM   15  C10 UNL     1      -6.790   3.003  16.762  1.00  0.00     0.007 A 
HETATM   16  C11 UNL     1      -6.719   2.063  17.740  1.00  0.00     0.001 A 
HETATM   17  C12 UNL     1      -5.937   0.944  17.593  1.00  0.00     0.000 A 
HETATM   18  C13 UNL     1      -5.227   0.812  16.412  1.00  0.00     0.001 A 
HETATM   19  C14 UNL     1      -5.294   1.754  15.426  1.00  0.00     0.007 A 
ENDBRANCH  13  14
ENDBRANCH  12  13
ENDBRANCH  10  12
ENDBRANCH   7  10
ENDBRANCH   5   7
BRANCH   4  20
HETATM   20  C5  UNL     1      -4.181   4.583  10.285  1.00  0.00     0.210 C 
HETATM   21  O3  UNL     1      -4.886   5.561  10.048  1.00  0.00    -0.644 OA
HETATM   22  O4  UNL     1      -4.888   3.375  10.462  1.00  0.00    -0.644 OA
ENDBRANCH   4  20
BRANCH   1  23
HETATM   23  S1  UNL     1       1.760   4.872  10.425  1.00  0.00     0.256 S 
HETATM   24  O1  UNL     1       2.168   6.070   9.644  1.00  0.00    -0.201 OA
HETATM   25  O2  UNL     1       2.426   3.666   9.874  1.00  0.00    -0.201 OA
BRANCH  23  26
HETATM   26  N1  UNL     1       2.260   5.072  12.072  1.00  0.00    -0.324 N 
ATOM     27  H12 UNL     1       3.102   5.566  12.366  1.00  0.00     0.169 HD
ATOM     28  H11 UNL     1       1.580   4.620  12.685  1.00  0.00     0.169 HD
ENDBRANCH  23  26
ENDBRANCH   1  23
TORSDOF 8
ENDMDL
