MODEL 13
REMARK VINA RESULT: -7.342923083      2.971      4.096
REMARK  8 active torsions:
REMARK  status: ('A' for Active; 'I' for Inactive)
REMARK    1  A    between atoms: N1_1  and  S1_4 
REMARK    2  A    between atoms: S1_4  and  C1_7 
REMARK    3  A    between atoms: C4_10  and  C5_11 
REMARK    4  A    between atoms: C6_14  and  S2_15 
REMARK    5  A    between atoms: S2_15  and  N2_18 
REMARK    6  A    between atoms: N2_18  and  C7_20 
REMARK    7  A    between atoms: C7_20  and  C8_21 
REMARK    8  A    between atoms: C8_21  and  C9_22 
ROOT
HETATM    1  C1  UNL     1      -5.858   2.558  15.744  1.00  0.00     0.080 A 
HETATM    2  C2  UNL     1      -6.391   3.780  16.056  1.00  0.00     0.026 A 
HETATM    3  C3  UNL     1      -6.231   4.792  15.160  1.00  0.00     0.021 A 
HETATM    4  C4  UNL     1      -5.539   4.616  13.932  1.00  0.00     0.064 A 
HETATM    5  C6  UNL     1      -5.007   3.395  13.626  1.00  0.00     0.098 A 
HETATM    6  C15 UNL     1      -5.185   2.359  14.569  1.00  0.00     0.051 A 
ENDROOT
BRANCH   5   7
HETATM    7  S2  UNL     1      -4.032   3.083  12.239  1.00  0.00     0.263 S 
HETATM    8  O5  UNL     1      -3.352   1.714  12.465  1.00  0.00    -0.200 OA
HETATM    9  O6  UNL     1      -4.842   2.829  10.974  1.00  0.00    -0.200 OA
BRANCH   7  10
HETATM   10  N2  UNL     1      -2.791   4.188  11.928  1.00  0.00    -0.295 N 
ATOM     11  H2  UNL     1      -2.026   4.295  12.594  1.00  0.00     0.177 HD
BRANCH  10  12
HETATM   12  C7  UNL     1      -2.812   4.963  10.752  1.00  0.00     0.077 C 
BRANCH  12  13
HETATM   13  C8  UNL     1      -1.597   4.565   9.912  1.00  0.00     0.083 C 
BRANCH  13  14
HETATM   14  C9  UNL     1      -1.884   4.861   8.502  1.00  0.00    -0.053 A 
HETATM   15  C10 UNL     1      -3.190   5.101   8.095  1.00  0.00     0.007 A 
HETATM   16  C11 UNL     1      -3.471   5.382   6.796  1.00  0.00     0.001 A 
HETATM   17  C12 UNL     1      -2.476   5.437   5.851  1.00  0.00     0.000 A 
HETATM   18  C13 UNL     1      -1.180   5.197   6.273  1.00  0.00     0.001 A 
HETATM   19  C14 UNL     1      -0.892   4.913   7.577  1.00  0.00     0.007 A 
ENDBRANCH  13  14
ENDBRANCH  12  13
ENDBRANCH  10  12
ENDBRANCH   7  10
ENDBRANCH   5   7
BRANCH   4  20
HETATM   20  C5  UNL     1      -5.525   5.729  13.005  1.00  0.00     0.210 C 
HETATM   21  O3  UNL     1      -6.355   5.974  12.133  1.00  0.00    -0.644 OA
HETATM   22  O4  UNL     1      -4.460   6.650  13.080  1.00  0.00    -0.644 OA
ENDBRANCH   4  20
BRANCH   1  23
HETATM   23  S1  UNL     1      -6.070   1.264  16.899  1.00  0.00     0.256 S 
HETATM   24  O1  UNL     1      -4.832   0.443  16.950  1.00  0.00    -0.201 OA
HETATM   25  O2  UNL     1      -7.233   0.396  16.589  1.00  0.00    -0.201 OA
BRANCH  23  26
HETATM   26  N1  UNL     1      -6.329   1.996  18.448  1.00  0.00    -0.324 N 
ATOM     27  H12 UNL     1      -5.723   1.868  19.258  1.00  0.00     0.169 HD
ATOM     28  H11 UNL     1      -7.175   2.566  18.412  1.00  0.00     0.169 HD
ENDBRANCH  23  26
ENDBRANCH   1  23
TORSDOF 8
ENDMDL
