MODEL 2
REMARK VINA RESULT: -6.909024238      1.968      3.057
REMARK  9 active torsions:
REMARK  status: ('A' for Active; 'I' for Inactive)
REMARK    1  A    between atoms: C2_2  and  C3_3 
REMARK    2  A    between atoms: C3_3  and  C4_4 
REMARK    3  A    between atoms: C4_4  and  C5_5 
REMARK    4  A    between atoms: C5_5  and  N1_6 
REMARK    5  A    between atoms: N1_6  and  S1_8 
REMARK    6  A    between atoms: S1_8  and  C6_11 
REMARK    7  A    between atoms: C8_13  and  S2_14 
REMARK    8  A    between atoms: S2_14  and  N2_15 
REMARK    9  A    between atoms: C11_22  and  C12_23 
ROOT
HETATM    1  C6  UNL     1      -4.860   4.045  13.271  1.00  0.00     0.098 A 
HETATM    2  C7  UNL     1      -4.944   3.135  14.351  1.00  0.00     0.051 A 
HETATM    3  C8  UNL     1      -4.714   1.795  14.214  1.00  0.00     0.080 A 
HETATM    4  C9  UNL     1      -4.388   1.357  12.949  1.00  0.00     0.026 A 
HETATM    5  C10 UNL     1      -4.297   2.216  11.883  1.00  0.00     0.021 A 
HETATM    6  C11 UNL     1      -4.538   3.605  12.044  1.00  0.00     0.064 A 
ENDROOT
BRANCH   1   7
HETATM    7  S1  UNL     1      -5.316   5.690  13.609  1.00  0.00     0.263 S 
HETATM    8  O1  UNL     1      -6.535   6.020  12.723  1.00  0.00    -0.200 OA
HETATM    9  O2  UNL     1      -5.790   5.848  15.031  1.00  0.00    -0.200 OA
BRANCH   7  10
HETATM   10  N1  UNL     1      -4.026   6.735  13.203  1.00  0.00    -0.295 N 
ATOM     11  H1  UNL     1      -4.096   7.360  12.400  1.00  0.00     0.177 HD
BRANCH  10  12
HETATM   12  C5  UNL     1      -2.868   6.716  13.996  1.00  0.00     0.073 C 
BRANCH  12  13
HETATM   13  C4  UNL     1      -2.917   7.871  14.989  1.00  0.00     0.045 C 
BRANCH  13  14
HETATM   14  C3  UNL     1      -1.548   8.351  15.333  1.00  0.00     0.005 C 
BRANCH  14  15
HETATM   15  C2  UNL     1      -1.265   9.719  14.703  1.00  0.00    -0.004 C 
HETATM   16  C1  UNL     1       0.072  10.256  15.161  1.00  0.00     0.005 C 
ENDBRANCH  14  15
ENDBRANCH  13  14
ENDBRANCH  12  13
ENDBRANCH  10  12
ENDBRANCH   7  10
ENDBRANCH   1   7
BRANCH   6  17
HETATM   17  C12 UNL     1      -4.327   4.474  10.913  1.00  0.00     0.210 C 
HETATM   18  O5  UNL     1      -5.115   4.814  10.028  1.00  0.00    -0.644 OA
HETATM   19  O6  UNL     1      -3.031   5.030  10.779  1.00  0.00    -0.644 OA
ENDBRANCH   6  17
BRANCH   3  20
HETATM   20  S2  UNL     1      -4.818   0.669  15.549  1.00  0.00     0.256 S 
HETATM   21  O3  UNL     1      -3.580   0.846  16.389  1.00  0.00    -0.201 OA
HETATM   22  O4  UNL     1      -4.836  -0.747  15.048  1.00  0.00    -0.201 OA
BRANCH  20  23
HETATM   23  N2  UNL     1      -6.235   0.937  16.495  1.00  0.00    -0.324 N 
ATOM     24  H22 UNL     1      -6.894   0.198  16.741  1.00  0.00     0.169 HD
ATOM     25  H21 UNL     1      -6.322   1.916  16.769  1.00  0.00     0.169 HD
ENDBRANCH  20  23
ENDBRANCH   3  20
TORSDOF 9
ENDMDL
