MODEL 17
REMARK VINA RESULT: -6.201657347      3.082      6.184
REMARK  9 active torsions:
REMARK  status: ('A' for Active; 'I' for Inactive)
REMARK    1  A    between atoms: C2_2  and  C3_3 
REMARK    2  A    between atoms: C3_3  and  C4_4 
REMARK    3  A    between atoms: C4_4  and  C5_5 
REMARK    4  A    between atoms: C5_5  and  N1_6 
REMARK    5  A    between atoms: N1_6  and  S1_8 
REMARK    6  A    between atoms: S1_8  and  C6_11 
REMARK    7  A    between atoms: C8_13  and  S2_14 
REMARK    8  A    between atoms: S2_14  and  N2_15 
REMARK    9  A    between atoms: C11_22  and  C12_23 
ROOT
HETATM    1  C6  UNL     1      -4.468   4.696  12.522  1.00  0.00     0.098 A 
HETATM    2  C7  UNL     1      -4.127   4.809  11.154  1.00  0.00     0.051 A 
HETATM    3  C8  UNL     1      -4.719   5.707  10.312  1.00  0.00     0.080 A 
HETATM    4  C9  UNL     1      -5.684   6.520  10.864  1.00  0.00     0.026 A 
HETATM    5  C10 UNL     1      -6.034   6.436  12.189  1.00  0.00     0.021 A 
HETATM    6  C11 UNL     1      -5.408   5.498  13.050  1.00  0.00     0.064 A 
ENDROOT
BRANCH   1   7
HETATM    7  S1  UNL     1      -3.703   3.407  13.405  1.00  0.00     0.263 S 
HETATM    8  O1  UNL     1      -2.762   2.674  12.427  1.00  0.00    -0.200 OA
HETATM    9  O2  UNL     1      -2.817   3.941  14.501  1.00  0.00    -0.200 OA
BRANCH   7  10
HETATM   10  N1  UNL     1      -4.893   2.314  13.965  1.00  0.00    -0.295 N 
ATOM     11  H1  UNL     1      -5.836   2.639  14.182  1.00  0.00     0.177 HD
BRANCH  10  12
HETATM   12  C5  UNL     1      -4.547   0.963  14.122  1.00  0.00     0.073 C 
BRANCH  12  13
HETATM   13  C4  UNL     1      -4.532   0.614  15.605  1.00  0.00     0.045 C 
BRANCH  13  14
HETATM   14  C3  UNL     1      -5.039   1.744  16.436  1.00  0.00     0.005 C 
BRANCH  14  15
HETATM   15  C2  UNL     1      -5.997   1.249  17.524  1.00  0.00    -0.004 C 
HETATM   16  C1  UNL     1      -7.398   1.099  16.978  1.00  0.00     0.005 C 
ENDBRANCH  14  15
ENDBRANCH  13  14
ENDBRANCH  12  13
ENDBRANCH  10  12
ENDBRANCH   7  10
ENDBRANCH   1   7
BRANCH   6  17
HETATM   17  C12 UNL     1      -5.741   5.524  14.452  1.00  0.00     0.210 C 
HETATM   18  O5  UNL     1      -5.350   6.290  15.336  1.00  0.00    -0.644 OA
HETATM   19  O6  UNL     1      -6.648   4.534  14.903  1.00  0.00    -0.644 OA
ENDBRANCH   6  17
BRANCH   3  20
HETATM   20  S2  UNL     1      -4.299   5.847   8.618  1.00  0.00     0.256 S 
HETATM   21  O3  UNL     1      -5.547   6.248   7.874  1.00  0.00    -0.201 OA
HETATM   22  O4  UNL     1      -3.844   4.524   8.074  1.00  0.00    -0.201 OA
BRANCH  20  23
HETATM   23  N2  UNL     1      -3.047   7.006   8.369  1.00  0.00    -0.324 N 
ATOM     24  H22 UNL     1      -2.287   6.877   7.700  1.00  0.00     0.169 HD
ATOM     25  H21 UNL     1      -3.167   7.821   8.970  1.00  0.00     0.169 HD
ENDBRANCH  20  23
ENDBRANCH   3  20
TORSDOF 9
ENDMDL
