MODEL 12
REMARK VINA RESULT: -6.448759611      3.001      6.395
REMARK  9 active torsions:
REMARK  status: ('A' for Active; 'I' for Inactive)
REMARK    1  A    between atoms: C2_2  and  C3_3 
REMARK    2  A    between atoms: C3_3  and  C4_4 
REMARK    3  A    between atoms: C4_4  and  C5_5 
REMARK    4  A    between atoms: C5_5  and  N1_6 
REMARK    5  A    between atoms: N1_6  and  S1_8 
REMARK    6  A    between atoms: S1_8  and  C6_11 
REMARK    7  A    between atoms: C8_13  and  S2_14 
REMARK    8  A    between atoms: S2_14  and  N2_15 
REMARK    9  A    between atoms: C11_22  and  C12_23 
ROOT
HETATM    1  C6  UNL     1      -3.857   3.683  12.091  1.00  0.00     0.098 A 
HETATM    2  C7  UNL     1      -3.708   3.768  10.687  1.00  0.00     0.051 A 
HETATM    3  C8  UNL     1      -3.016   4.772  10.072  1.00  0.00     0.080 A 
HETATM    4  C9  UNL     1      -2.454   5.723  10.896  1.00  0.00     0.026 A 
HETATM    5  C10 UNL     1      -2.579   5.666  12.262  1.00  0.00     0.021 A 
HETATM    6  C11 UNL     1      -3.301   4.614  12.884  1.00  0.00     0.064 A 
ENDROOT
BRANCH   1   7
HETATM    7  S1  UNL     1      -4.883   2.409  12.684  1.00  0.00     0.263 S 
HETATM    8  O1  UNL     1      -6.031   3.073  13.472  1.00  0.00    -0.200 OA
HETATM    9  O2  UNL     1      -5.542   1.662  11.553  1.00  0.00    -0.200 OA
BRANCH   7  10
HETATM   10  N1  UNL     1      -3.990   1.399  13.735  1.00  0.00    -0.295 N 
ATOM     11  H1  UNL     1      -2.970   1.402  13.716  1.00  0.00     0.177 HD
BRANCH  10  12
HETATM   12  C5  UNL     1      -4.687   0.567  14.624  1.00  0.00     0.073 C 
BRANCH  12  13
HETATM   13  C4  UNL     1      -4.612   1.152  16.029  1.00  0.00     0.045 C 
BRANCH  13  14
HETATM   14  C3  UNL     1      -5.705   0.627  16.896  1.00  0.00     0.005 C 
BRANCH  14  15
HETATM   15  C2  UNL     1      -6.283   1.729  17.790  1.00  0.00    -0.004 C 
HETATM   16  C1  UNL     1      -6.907   2.825  16.956  1.00  0.00     0.005 C 
ENDBRANCH  14  15
ENDBRANCH  13  14
ENDBRANCH  12  13
ENDBRANCH  10  12
ENDBRANCH   7  10
ENDBRANCH   1   7
BRANCH   6  17
HETATM   17  C12 UNL     1      -3.313   4.548  14.324  1.00  0.00     0.210 C 
HETATM   18  O5  UNL     1      -2.630   3.855  15.083  1.00  0.00    -0.644 OA
HETATM   19  O6  UNL     1      -4.236   5.394  14.986  1.00  0.00    -0.644 OA
ENDBRANCH   6  17
BRANCH   3  20
HETATM   20  S2  UNL     1      -2.831   4.879   8.335  1.00  0.00     0.256 S 
HETATM   21  O3  UNL     1      -4.128   4.426   7.713  1.00  0.00    -0.201 OA
HETATM   22  O4  UNL     1      -1.746   3.958   7.859  1.00  0.00    -0.201 OA
BRANCH  20  23
HETATM   23  N2  UNL     1      -2.450   6.485   7.835  1.00  0.00    -0.324 N 
ATOM     24  H22 UNL     1      -1.568   6.947   8.055  1.00  0.00     0.169 HD
ATOM     25  H21 UNL     1      -3.213   6.901   7.300  1.00  0.00     0.169 HD
ENDBRANCH  20  23
ENDBRANCH   3  20
TORSDOF 9
ENDMDL
