MODEL 5
REMARK VINA RESULT: -6.780813904      1.655      2.912
REMARK  9 active torsions:
REMARK  status: ('A' for Active; 'I' for Inactive)
REMARK    1  A    between atoms: C2_2  and  C3_3 
REMARK    2  A    between atoms: C3_3  and  C4_4 
REMARK    3  A    between atoms: C4_4  and  C5_5 
REMARK    4  A    between atoms: C5_5  and  N1_6 
REMARK    5  A    between atoms: N1_6  and  S1_8 
REMARK    6  A    between atoms: S1_8  and  C6_11 
REMARK    7  A    between atoms: C8_13  and  S2_14 
REMARK    8  A    between atoms: S2_14  and  N2_15 
REMARK    9  A    between atoms: C11_22  and  C12_23 
ROOT
HETATM    1  C6  UNL     1      -5.039   3.458  14.283  1.00  0.00     0.098 A 
HETATM    2  C7  UNL     1      -5.689   2.911  15.413  1.00  0.00     0.051 A 
HETATM    3  C8  UNL     1      -5.676   1.576  15.704  1.00  0.00     0.080 A 
HETATM    4  C9  UNL     1      -4.987   0.765  14.830  1.00  0.00     0.026 A 
HETATM    5  C10 UNL     1      -4.344   1.267  13.726  1.00  0.00     0.021 A 
HETATM    6  C11 UNL     1      -4.366   2.657  13.440  1.00  0.00     0.064 A 
ENDROOT
BRANCH   1   7
HETATM    7  S1  UNL     1      -5.274   5.159  14.004  1.00  0.00     0.263 S 
HETATM    8  O1  UNL     1      -5.983   5.308  12.642  1.00  0.00    -0.200 OA
HETATM    9  O2  UNL     1      -6.212   5.759  15.020  1.00  0.00    -0.200 OA
BRANCH   7  10
HETATM   10  N1  UNL     1      -3.756   5.943  13.935  1.00  0.00    -0.295 N 
ATOM     11  H1  UNL     1      -3.043   5.756  14.640  1.00  0.00     0.177 HD
BRANCH  10  12
HETATM   12  C5  UNL     1      -3.511   6.849  12.892  1.00  0.00     0.073 C 
BRANCH  12  13
HETATM   13  C4  UNL     1      -2.573   7.944  13.383  1.00  0.00     0.045 C 
BRANCH  13  14
HETATM   14  C3  UNL     1      -2.581   8.041  14.871  1.00  0.00     0.005 C 
BRANCH  14  15
HETATM   15  C2  UNL     1      -1.411   8.888  15.379  1.00  0.00    -0.004 C 
HETATM   16  C1  UNL     1      -1.159  10.063  14.463  1.00  0.00     0.005 C 
ENDBRANCH  14  15
ENDBRANCH  13  14
ENDBRANCH  12  13
ENDBRANCH  10  12
ENDBRANCH   7  10
ENDBRANCH   1   7
BRANCH   6  17
HETATM   17  C12 UNL     1      -3.589   3.141  12.326  1.00  0.00     0.210 C 
HETATM   18  O5  UNL     1      -3.907   3.262  11.141  1.00  0.00    -0.644 OA
HETATM   19  O6  UNL     1      -2.261   3.543  12.612  1.00  0.00    -0.644 OA
ENDBRANCH   6  17
BRANCH   3  20
HETATM   20  S2  UNL     1      -6.481   0.897  17.102  1.00  0.00     0.256 S 
HETATM   21  O3  UNL     1      -5.950  -0.499  17.297  1.00  0.00    -0.201 OA
HETATM   22  O4  UNL     1      -7.961   0.799  16.867  1.00  0.00    -0.201 OA
BRANCH  20  23
HETATM   23  N2  UNL     1      -6.210   1.850  18.514  1.00  0.00    -0.324 N 
ATOM     24  H22 UNL     1      -6.048   2.857  18.489  1.00  0.00     0.169 HD
ATOM     25  H21 UNL     1      -6.234   1.281  19.360  1.00  0.00     0.169 HD
ENDBRANCH  20  23
ENDBRANCH   3  20
TORSDOF 9
ENDMDL
