MODEL 4
REMARK VINA RESULT: -7.520446415      2.650      5.229
REMARK  7 active torsions:
REMARK  status: ('A' for Active; 'I' for Inactive)
REMARK    1  A    between atoms: C3_3  and  C4_4 
REMARK    2  A    between atoms: C4_4  and  N1_5 
REMARK    3  A    between atoms: N1_5  and  S1_7 
REMARK    4  A    between atoms: S1_7  and  C5_10 
REMARK    5  A    between atoms: C7_12  and  S2_13 
REMARK    6  A    between atoms: S2_13  and  N2_14 
REMARK    7  A    between atoms: C10_21  and  C11_22 
ROOT
HETATM    1  C1  UNL     1      -1.192   9.702  15.213  1.00  0.00     0.112 C 
HETATM    2  C2  UNL     1      -1.837   8.428  14.955  1.00  0.00    -0.105 C 
HETATM    3  C3  UNL     1      -2.369   7.372  14.732  1.00  0.00    -0.061 C 
ENDROOT
BRANCH   3   4
HETATM    4  C4  UNL     1      -3.016   6.044  14.437  1.00  0.00     0.164 C 
BRANCH   4   5
HETATM    5  N1  UNL     1      -4.109   6.287  13.585  1.00  0.00    -0.283 N 
ATOM      6  H1  UNL     1      -4.053   6.975  12.833  1.00  0.00     0.178 HD
BRANCH   5   7
HETATM    7  S1  UNL     1      -5.505   5.407  13.851  1.00  0.00     0.264 S 
HETATM    8  O1  UNL     1      -6.130   5.961  15.165  1.00  0.00    -0.200 OA
HETATM    9  O2  UNL     1      -6.555   5.685  12.806  1.00  0.00    -0.200 OA
BRANCH   7  10
HETATM   10  C5  UNL     1      -5.302   3.684  14.092  1.00  0.00     0.098 A 
HETATM   11  C6  UNL     1      -5.773   3.108  15.279  1.00  0.00     0.051 A 
HETATM   12  C7  UNL     1      -5.606   1.806  15.647  1.00  0.00     0.080 A 
HETATM   13  C8  UNL     1      -4.909   0.997  14.767  1.00  0.00     0.026 A 
HETATM   14  C9  UNL     1      -4.427   1.503  13.592  1.00  0.00     0.021 A 
HETATM   15  C10 UNL     1      -4.621   2.859  13.239  1.00  0.00     0.064 A 
BRANCH  12  16
HETATM   16  S2  UNL     1      -6.232   1.162  17.162  1.00  0.00     0.256 S 
HETATM   17  O3  UNL     1      -7.531   0.445  16.928  1.00  0.00    -0.201 OA
HETATM   18  O4  UNL     1      -5.227   0.155  17.647  1.00  0.00    -0.201 OA
BRANCH  16  19
HETATM   19  N2  UNL     1      -6.374   2.386  18.360  1.00  0.00    -0.324 N 
ATOM     20  H22 UNL     1      -6.474   3.378  18.140  1.00  0.00     0.169 HD
ATOM     21  H21 UNL     1      -6.344   1.996  19.302  1.00  0.00     0.169 HD
ENDBRANCH  16  19
ENDBRANCH  12  16
BRANCH  15  22
HETATM   22  C11 UNL     1      -4.168   3.264  11.931  1.00  0.00     0.210 C 
HETATM   23  O5  UNL     1      -3.013   3.782  11.839  1.00  0.00    -0.644 OA
HETATM   24  O6  UNL     1      -4.879   3.130  10.780  1.00  0.00    -0.644 OA
ENDBRANCH  15  22
ENDBRANCH   7  10
ENDBRANCH   5   7
ENDBRANCH   4   5
ENDBRANCH   3   4
TORSDOF 7
ENDMDL
