MODEL 5
REMARK VINA RESULT: -7.483015039      1.395      1.462
REMARK  7 active torsions:
REMARK  status: ('A' for Active; 'I' for Inactive)
REMARK    1  A    between atoms: C3_3  and  C4_4 
REMARK    2  A    between atoms: C4_4  and  N1_5 
REMARK    3  A    between atoms: N1_5  and  S1_7 
REMARK    4  A    between atoms: S1_7  and  C5_10 
REMARK    5  A    between atoms: C7_12  and  S2_13 
REMARK    6  A    between atoms: S2_13  and  N2_14 
REMARK    7  A    between atoms: C10_21  and  C11_22 
ROOT
HETATM    1  C1  UNL     1      -3.603  -2.054  11.501  1.00  0.00     0.112 C 
HETATM    2  C2  UNL     1      -2.949  -0.816  11.121  1.00  0.00    -0.105 C 
HETATM    3  C3  UNL     1      -2.402   0.207  10.800  1.00  0.00    -0.061 C 
ENDROOT
BRANCH   3   4
HETATM    4  C4  UNL     1      -1.723   1.481  10.373  1.00  0.00     0.164 C 
BRANCH   4   5
HETATM    5  N1  UNL     1      -1.861   2.406  11.425  1.00  0.00    -0.283 N 
ATOM      6  H1  UNL     1      -1.187   2.440  12.191  1.00  0.00     0.178 HD
BRANCH   5   7
HETATM    7  S1  UNL     1      -3.168   3.446  11.372  1.00  0.00     0.264 S 
HETATM    8  O1  UNL     1      -2.584   4.881  11.230  1.00  0.00    -0.200 OA
HETATM    9  O2  UNL     1      -3.984   3.262  10.119  1.00  0.00    -0.200 OA
BRANCH   7  10
HETATM   10  C5  UNL     1      -4.196   3.472  12.791  1.00  0.00     0.098 A 
HETATM   11  C6  UNL     1      -4.193   2.363  13.647  1.00  0.00     0.051 A 
HETATM   12  C7  UNL     1      -5.003   2.201  14.732  1.00  0.00     0.080 A 
HETATM   13  C8  UNL     1      -5.898   3.222  14.997  1.00  0.00     0.026 A 
HETATM   14  C9  UNL     1      -5.945   4.329  14.198  1.00  0.00     0.021 A 
HETATM   15  C10 UNL     1      -5.089   4.468  13.081  1.00  0.00     0.064 A 
BRANCH  12  16
HETATM   16  S2  UNL     1      -4.934   0.771  15.759  1.00  0.00     0.256 S 
HETATM   17  O3  UNL     1      -4.891  -0.474  14.920  1.00  0.00    -0.201 OA
HETATM   18  O4  UNL     1      -3.645   0.858  16.527  1.00  0.00    -0.201 OA
BRANCH  16  19
HETATM   19  N2  UNL     1      -6.225   0.744  16.894  1.00  0.00    -0.324 N 
ATOM     20  H22 UNL     1      -7.131   0.317  16.703  1.00  0.00     0.169 HD
ATOM     21  H21 UNL     1      -5.967   1.204  17.767  1.00  0.00     0.169 HD
ENDBRANCH  16  19
ENDBRANCH  12  16
BRANCH  15  22
HETATM   22  C11 UNL     1      -5.144   5.720  12.368  1.00  0.00     0.210 C 
HETATM   23  O5  UNL     1      -5.898   5.789  11.349  1.00  0.00    -0.644 OA
HETATM   24  O6  UNL     1      -4.455   6.843  12.703  1.00  0.00    -0.644 OA
ENDBRANCH  15  22
ENDBRANCH   7  10
ENDBRANCH   5   7
ENDBRANCH   4   5
ENDBRANCH   3   4
TORSDOF 7
ENDMDL
