MODEL 1
REMARK VINA RESULT: -7.627818801      0.000      0.000
REMARK  7 active torsions:
REMARK  status: ('A' for Active; 'I' for Inactive)
REMARK    1  A    between atoms: C3_3  and  C4_4 
REMARK    2  A    between atoms: C4_4  and  N1_5 
REMARK    3  A    between atoms: N1_5  and  S1_7 
REMARK    4  A    between atoms: S1_7  and  C5_10 
REMARK    5  A    between atoms: C7_12  and  S2_13 
REMARK    6  A    between atoms: S2_13  and  N2_14 
REMARK    7  A    between atoms: C10_21  and  C11_22 
ROOT
HETATM    1  C1  UNL     1      -2.963  -3.077  11.465  1.00  0.00     0.112 C 
HETATM    2  C2  UNL     1      -3.570  -1.759  11.423  1.00  0.00    -0.105 C 
HETATM    3  C3  UNL     1      -4.066  -0.664  11.387  1.00  0.00    -0.061 C 
ENDROOT
BRANCH   3   4
HETATM    4  C4  UNL     1      -4.668   0.716  11.326  1.00  0.00     0.164 C 
BRANCH   4   5
HETATM    5  N1  UNL     1      -3.657   1.633  11.668  1.00  0.00    -0.283 N 
ATOM      6  H1  UNL     1      -2.681   1.344  11.738  1.00  0.00     0.178 HD
BRANCH   5   7
HETATM    7  S1  UNL     1      -4.117   3.214  11.957  1.00  0.00     0.264 S 
HETATM    8  O1  UNL     1      -2.809   4.057  11.969  1.00  0.00    -0.200 OA
HETATM    9  O2  UNL     1      -4.907   3.790  10.810  1.00  0.00    -0.200 OA
BRANCH   7  10
HETATM   10  C5  UNL     1      -4.915   3.524  13.486  1.00  0.00     0.098 A 
HETATM   11  C6  UNL     1      -4.951   2.505  14.446  1.00  0.00     0.051 A 
HETATM   12  C7  UNL     1      -5.611   2.565  15.638  1.00  0.00     0.080 A 
HETATM   13  C8  UNL     1      -6.299   3.735  15.908  1.00  0.00     0.026 A 
HETATM   14  C9  UNL     1      -6.298   4.764  15.008  1.00  0.00     0.021 A 
HETATM   15  C10 UNL     1      -5.601   4.670  13.782  1.00  0.00     0.064 A 
BRANCH  12  16
HETATM   16  S2  UNL     1      -5.605   1.235  16.792  1.00  0.00     0.256 S 
HETATM   17  O3  UNL     1      -6.602   0.187  16.387  1.00  0.00    -0.201 OA
HETATM   18  O4  UNL     1      -4.235   0.619  16.729  1.00  0.00    -0.201 OA
BRANCH  16  19
HETATM   19  N2  UNL     1      -5.862   1.789  18.399  1.00  0.00    -0.324 N 
ATOM     20  H22 UNL     1      -6.091   2.757  18.629  1.00  0.00     0.169 HD
ATOM     21  H21 UNL     1      -5.757   1.035  19.077  1.00  0.00     0.169 HD
ENDBRANCH  16  19
ENDBRANCH  12  16
BRANCH  15  22
HETATM   22  C11 UNL     1      -5.573   5.851  12.954  1.00  0.00     0.210 C 
HETATM   23  O5  UNL     1      -6.634   6.160  12.329  1.00  0.00    -0.644 OA
HETATM   24  O6  UNL     1      -4.500   6.669  12.793  1.00  0.00    -0.644 OA
ENDBRANCH  15  22
ENDBRANCH   7  10
ENDBRANCH   5   7
ENDBRANCH   4   5
ENDBRANCH   3   4
TORSDOF 7
ENDMDL
