MODEL 17
REMARK VINA RESULT: -6.634662494      2.669      4.432
REMARK  7 active torsions:
REMARK  status: ('A' for Active; 'I' for Inactive)
REMARK    1  A    between atoms: C3_3  and  C4_4 
REMARK    2  A    between atoms: C4_4  and  N1_5 
REMARK    3  A    between atoms: N1_5  and  S1_7 
REMARK    4  A    between atoms: S1_7  and  C5_10 
REMARK    5  A    between atoms: C7_12  and  S2_13 
REMARK    6  A    between atoms: S2_13  and  N2_14 
REMARK    7  A    between atoms: C10_21  and  C11_22 
ROOT
HETATM    1  C1  UNL     1       0.659   6.128  11.287  1.00  0.00     0.112 C 
HETATM    2  C2  UNL     1      -0.466   6.008  12.196  1.00  0.00    -0.105 C 
HETATM    3  C3  UNL     1      -1.403   5.905  12.943  1.00  0.00    -0.061 C 
ENDROOT
BRANCH   3   4
HETATM    4  C4  UNL     1      -2.583   5.754  13.866  1.00  0.00     0.164 C 
BRANCH   4   5
HETATM    5  N1  UNL     1      -3.748   5.900  13.090  1.00  0.00    -0.283 N 
ATOM      6  H1  UNL     1      -3.735   6.413  12.208  1.00  0.00     0.178 HD
BRANCH   5   7
HETATM    7  S1  UNL     1      -5.153   5.201  13.666  1.00  0.00     0.264 S 
HETATM    8  O1  UNL     1      -5.445   5.871  15.041  1.00  0.00    -0.200 OA
HETATM    9  O2  UNL     1      -6.349   5.565  12.826  1.00  0.00    -0.200 OA
BRANCH   7  10
HETATM   10  C5  UNL     1      -5.096   3.476  13.963  1.00  0.00     0.098 A 
HETATM   11  C6  UNL     1      -5.596   2.982  15.175  1.00  0.00     0.051 A 
HETATM   12  C7  UNL     1      -5.536   1.683  15.584  1.00  0.00     0.080 A 
HETATM   13  C8  UNL     1      -4.928   0.788  14.722  1.00  0.00     0.026 A 
HETATM   14  C9  UNL     1      -4.423   1.212  13.524  1.00  0.00     0.021 A 
HETATM   15  C10 UNL     1      -4.503   2.567  13.129  1.00  0.00     0.064 A 
BRANCH  12  16
HETATM   16  S2  UNL     1      -6.192   1.146  17.128  1.00  0.00     0.256 S 
HETATM   17  O3  UNL     1      -7.489   0.419  16.921  1.00  0.00    -0.201 OA
HETATM   18  O4  UNL     1      -5.200   0.170  17.697  1.00  0.00    -0.201 OA
BRANCH  16  19
HETATM   19  N2  UNL     1      -6.348   2.450  18.237  1.00  0.00    -0.324 N 
ATOM     20  H22 UNL     1      -6.515   3.414  17.950  1.00  0.00     0.169 HD
ATOM     21  H21 UNL     1      -6.252   2.135  19.203  1.00  0.00     0.169 HD
ENDBRANCH  16  19
ENDBRANCH  12  16
BRANCH  15  22
HETATM   22  C11 UNL     1      -4.039   2.888  11.802  1.00  0.00     0.210 C 
HETATM   23  O5  UNL     1      -2.793   3.073  11.640  1.00  0.00    -0.644 OA
HETATM   24  O6  UNL     1      -4.829   3.004  10.702  1.00  0.00    -0.644 OA
ENDBRANCH  15  22
ENDBRANCH   7  10
ENDBRANCH   5   7
ENDBRANCH   4   5
ENDBRANCH   3   4
TORSDOF 7
ENDMDL
