MODEL 10
REMARK VINA RESULT: -7.066197181      1.941      2.276
REMARK  7 active torsions:
REMARK  status: ('A' for Active; 'I' for Inactive)
REMARK    1  A    between atoms: C3_3  and  C4_4 
REMARK    2  A    between atoms: C4_4  and  N1_5 
REMARK    3  A    between atoms: N1_5  and  S1_7 
REMARK    4  A    between atoms: S1_7  and  C5_10 
REMARK    5  A    between atoms: C7_12  and  S2_13 
REMARK    6  A    between atoms: S2_13  and  N2_14 
REMARK    7  A    between atoms: C10_21  and  C11_22 
ROOT
HETATM    1  C1  UNL     1      -2.346  -1.105  11.084  1.00  0.00     0.112 C 
HETATM    2  C2  UNL     1      -2.078   0.311  10.906  1.00  0.00    -0.105 C 
HETATM    3  C3  UNL     1      -1.848   1.482  10.755  1.00  0.00    -0.061 C 
ENDROOT
BRANCH   3   4
HETATM    4  C4  UNL     1      -1.549   2.943  10.543  1.00  0.00     0.164 C 
BRANCH   4   5
HETATM    5  N1  UNL     1      -2.684   3.523   9.946  1.00  0.00    -0.283 N 
ATOM      6  H1  UNL     1      -2.622   4.004   9.048  1.00  0.00     0.178 HD
BRANCH   5   7
HETATM    7  S1  UNL     1      -4.136   3.397  10.764  1.00  0.00     0.264 S 
HETATM    8  O1  UNL     1      -5.013   4.593  10.291  1.00  0.00    -0.200 OA
HETATM    9  O2  UNL     1      -4.920   2.183  10.335  1.00  0.00    -0.200 OA
BRANCH   7  10
HETATM   10  C5  UNL     1      -4.055   3.506  12.511  1.00  0.00     0.098 A 
HETATM   11  C6  UNL     1      -4.364   2.373  13.273  1.00  0.00     0.051 A 
HETATM   12  C7  UNL     1      -4.435   2.331  14.634  1.00  0.00     0.080 A 
HETATM   13  C8  UNL     1      -4.179   3.512  15.306  1.00  0.00     0.026 A 
HETATM   14  C9  UNL     1      -3.869   4.651  14.615  1.00  0.00     0.021 A 
HETATM   15  C10 UNL     1      -3.802   4.659  13.202  1.00  0.00     0.064 A 
BRANCH  12  16
HETATM   16  S2  UNL     1      -4.832   0.859  15.516  1.00  0.00     0.256 S 
HETATM   17  O3  UNL     1      -4.900  -0.312  14.578  1.00  0.00    -0.201 OA
HETATM   18  O4  UNL     1      -3.701   0.617  16.477  1.00  0.00    -0.201 OA
BRANCH  16  19
HETATM   19  N2  UNL     1      -6.275   1.040  16.433  1.00  0.00    -0.324 N 
ATOM     20  H22 UNL     1      -6.283   1.266  17.428  1.00  0.00     0.169 HD
ATOM     21  H21 UNL     1      -7.105   0.895  15.859  1.00  0.00     0.169 HD
ENDBRANCH  16  19
ENDBRANCH  12  16
BRANCH  15  22
HETATM   22  C11 UNL     1      -3.361   5.882  12.577  1.00  0.00     0.210 C 
HETATM   23  O5  UNL     1      -4.129   6.891  12.645  1.00  0.00    -0.644 OA
HETATM   24  O6  UNL     1      -2.181   6.047  11.923  1.00  0.00    -0.644 OA
ENDBRANCH  15  22
ENDBRANCH   7  10
ENDBRANCH   5   7
ENDBRANCH   4   5
ENDBRANCH   3   4
TORSDOF 7
ENDMDL
