MODEL 1
REMARK VINA RESULT: -9.780511322      0.000      0.000
REMARK  7 active torsions:
REMARK  status: ('A' for Active; 'I' for Inactive)
REMARK    1  A    between atoms: N1_2  and  C2_4 
REMARK    2  A    between atoms: C3_7  and  O1_8 
REMARK    3  A    between atoms: O1_8  and  C4_9 
REMARK    4  A    between atoms: C4_9  and  C5_10 
REMARK    5  A    between atoms: C5_10  and  O2_11 
REMARK    6  A    between atoms: N5_21  and  C10_22 
REMARK    7  A    between atoms: C10_22  and  C11_23 
ROOT
HETATM    1  C2  UNL     1     -10.326   9.013 -20.428  1.00  0.00     0.135 A 
HETATM    2  N2  UNL     1      -9.494   8.833 -19.378  1.00  0.00    -0.306 N 
ATOM      3  H2  UNL     1      -9.362   7.886 -19.023  1.00  0.00     0.171 HD
HETATM    4  C3  UNL     1      -8.831   9.836 -18.779  1.00  0.00     0.226 A 
HETATM    5  N3  UNL     1      -8.974  11.103 -19.216  1.00  0.00    -0.306 N 
ATOM      6  H3  UNL     1      -8.473  11.869 -18.767  1.00  0.00     0.171 HD
HETATM    7  C7  UNL     1      -9.806  11.339 -20.275  1.00  0.00     0.146 A 
HETATM    8  C8  UNL     1     -10.487  10.314 -20.892  1.00  0.00     0.125 A 
HETATM    9  N4  UNL     1     -11.207  10.870 -21.883  1.00  0.00    -0.302 N 
ATOM     10  H4  UNL     1     -11.816  10.357 -22.520  1.00  0.00     0.171 HD
HETATM   11  C9  UNL     1     -11.009  12.197 -21.916  1.00  0.00     0.329 A 
HETATM   12  O3  UNL     1     -11.522  13.044 -22.715  1.00  0.00    -0.246 OA
HETATM   13  N5  UNL     1     -10.148  12.468 -20.926  1.00  0.00    -0.279 N 
ENDROOT
BRANCH  13  14
HETATM   14  C10 UNL     1      -9.642  13.781 -20.582  1.00  0.00     0.174 C 
BRANCH  14  15
HETATM   15  C11 UNL     1      -8.276  14.016 -21.110  1.00  0.00    -0.040 A 
HETATM   16  C12 UNL     1      -8.165  14.660 -22.323  1.00  0.00     0.009 A 
HETATM   17  C13 UNL     1      -6.913  14.898 -22.847  1.00  0.00     0.001 A 
HETATM   18  C14 UNL     1      -5.747  14.505 -22.186  1.00  0.00     0.000 A 
HETATM   19  C15 UNL     1      -5.880  13.863 -20.975  1.00  0.00     0.001 A 
HETATM   20  C16 UNL     1      -7.138  13.632 -20.464  1.00  0.00     0.009 A 
ENDBRANCH  14  15
ENDBRANCH  13  14
BRANCH   4  21
HETATM   21  O1  UNL     1      -7.998   9.527 -17.703  1.00  0.00    -0.320 OA
BRANCH  21  22
HETATM   22  C4  UNL     1      -7.382  10.558 -16.955  1.00  0.00     0.205 C 
BRANCH  22  23
HETATM   23  C5  UNL     1      -8.358  10.935 -15.865  1.00  0.00     0.193 C 
BRANCH  23  24
HETATM   24  O2  UNL     1      -8.941   9.871 -15.223  1.00  0.00    -0.394 OA
HETATM   25  C6  UNL     1      -8.366   9.621 -13.997  1.00  0.00     0.201 C 
ENDBRANCH  23  24
ENDBRANCH  22  23
ENDBRANCH  21  22
ENDBRANCH   4  21
BRANCH   1  26
HETATM   26  N1  UNL     1     -11.019   7.970 -21.054  1.00  0.00    -0.379 N 
HETATM   27  C1  UNL     1     -10.445   7.292 -22.193  1.00  0.00     0.147 C 
ATOM     28  H1  UNL     1     -11.934   7.687 -20.703  1.00  0.00     0.160 HD
ENDBRANCH   1  26
TORSDOF 7
ENDMDL
