MODEL 5
REMARK VINA RESULT: -8.452149944      2.407      4.877
REMARK  7 active torsions:
REMARK  status: ('A' for Active; 'I' for Inactive)
REMARK    1  A    between atoms: N1_2  and  C2_4 
REMARK    2  A    between atoms: C3_7  and  O1_8 
REMARK    3  A    between atoms: O1_8  and  C4_9 
REMARK    4  A    between atoms: C4_9  and  C5_10 
REMARK    5  A    between atoms: C5_10  and  O2_11 
REMARK    6  A    between atoms: N5_21  and  C10_22 
REMARK    7  A    between atoms: C10_22  and  C11_23 
ROOT
HETATM    1  C2  UNL     1      -8.042  11.065 -16.926  1.00  0.00     0.135 A 
HETATM    2  N2  UNL     1      -8.710  10.053 -17.523  1.00  0.00    -0.306 N 
ATOM      3  H2  UNL     1      -9.262   9.427 -16.937  1.00  0.00     0.171 HD
HETATM    4  C3  UNL     1      -8.683   9.827 -18.847  1.00  0.00     0.226 A 
HETATM    5  N3  UNL     1      -7.967  10.629 -19.659  1.00  0.00    -0.306 N 
ATOM      6  H3  UNL     1      -7.943  10.464 -20.665  1.00  0.00     0.171 HD
HETATM    7  C7  UNL     1      -7.272  11.668 -19.105  1.00  0.00     0.146 A 
HETATM    8  C8  UNL     1      -7.296  11.903 -17.748  1.00  0.00     0.125 A 
HETATM    9  N4  UNL     1      -6.524  12.982 -17.529  1.00  0.00    -0.302 N 
ATOM     10  H4  UNL     1      -6.350  13.398 -16.614  1.00  0.00     0.171 HD
HETATM   11  C9  UNL     1      -6.015  13.436 -18.685  1.00  0.00     0.329 A 
HETATM   12  O3  UNL     1      -5.246  14.433 -18.863  1.00  0.00    -0.246 OA
HETATM   13  N5  UNL     1      -6.483  12.621 -19.641  1.00  0.00    -0.279 N 
ENDROOT
BRANCH  13  14
HETATM   14  C10 UNL     1      -6.197  12.726 -21.056  1.00  0.00     0.174 C 
BRANCH  14  15
HETATM   15  C11 UNL     1      -7.137  13.634 -21.757  1.00  0.00    -0.040 A 
HETATM   16  C12 UNL     1      -6.602  14.723 -22.410  1.00  0.00     0.009 A 
HETATM   17  C13 UNL     1      -7.443  15.590 -23.074  1.00  0.00     0.001 A 
HETATM   18  C14 UNL     1      -8.826  15.401 -23.106  1.00  0.00     0.000 A 
HETATM   19  C15 UNL     1      -9.341  14.306 -22.447  1.00  0.00     0.001 A 
HETATM   20  C16 UNL     1      -8.488  13.449 -21.788  1.00  0.00     0.009 A 
ENDBRANCH  14  15
ENDBRANCH  13  14
BRANCH   4  21
HETATM   21  O1  UNL     1      -9.414   8.748 -19.348  1.00  0.00    -0.320 OA
BRANCH  21  22
HETATM   22  C4  UNL     1     -10.407   8.954 -20.334  1.00  0.00     0.205 C 
BRANCH  22  23
HETATM   23  C5  UNL     1      -9.919   8.259 -21.584  1.00  0.00     0.193 C 
BRANCH  23  24
HETATM   24  O2  UNL     1      -8.756   7.546 -21.425  1.00  0.00    -0.394 OA
HETATM   25  C6  UNL     1      -8.773   6.358 -22.119  1.00  0.00     0.201 C 
ENDBRANCH  23  24
ENDBRANCH  22  23
ENDBRANCH  21  22
ENDBRANCH   4  21
BRANCH   1  26
HETATM   26  N1  UNL     1      -8.068  11.302 -15.546  1.00  0.00    -0.379 N 
HETATM   27  C1  UNL     1      -9.060  10.663 -14.713  1.00  0.00     0.147 C 
ATOM     28  H1  UNL     1      -7.381  11.930 -15.127  1.00  0.00     0.160 HD
ENDBRANCH   1  26
TORSDOF 7
ENDMDL
