MODEL 4
REMARK VINA RESULT: -9.155984851      2.358      5.353
REMARK  7 active torsions:
REMARK  status: ('A' for Active; 'I' for Inactive)
REMARK    1  A    between atoms: N1_2  and  C2_4 
REMARK    2  A    between atoms: C3_7  and  O1_8 
REMARK    3  A    between atoms: O1_8  and  C4_9 
REMARK    4  A    between atoms: C4_9  and  C5_10 
REMARK    5  A    between atoms: C5_10  and  O2_11 
REMARK    6  A    between atoms: N5_21  and  C10_22 
REMARK    7  A    between atoms: C10_22  and  C11_23 
ROOT
HETATM    1  C2  UNL     1     -10.043   8.522 -21.398  1.00  0.00     0.135 A 
HETATM    2  N2  UNL     1     -10.640   8.910 -22.547  1.00  0.00    -0.306 N 
ATOM      3  H2  UNL     1     -10.989   8.189 -23.178  1.00  0.00     0.171 HD
HETATM    4  C3  UNL     1     -10.799  10.197 -22.900  1.00  0.00     0.226 A 
HETATM    5  N3  UNL     1     -10.354  11.182 -22.096  1.00  0.00    -0.306 N 
ATOM      6  H3  UNL     1     -10.471  12.161 -22.358  1.00  0.00     0.171 HD
HETATM    7  C7  UNL     1      -9.741  10.843 -20.922  1.00  0.00     0.146 A 
HETATM    8  C8  UNL     1      -9.577   9.525 -20.556  1.00  0.00     0.125 A 
HETATM    9  N4  UNL     1      -8.950   9.530 -19.366  1.00  0.00    -0.302 N 
ATOM     10  H4  UNL     1      -8.692   8.696 -18.840  1.00  0.00     0.171 HD
HETATM   11  C9  UNL     1      -8.712  10.790 -18.968  1.00  0.00     0.329 A 
HETATM   12  O3  UNL     1      -8.141  11.178 -17.900  1.00  0.00    -0.246 OA
HETATM   13  N5  UNL     1      -9.203  11.582 -19.932  1.00  0.00    -0.279 N 
ENDROOT
BRANCH  13  14
HETATM   14  C10 UNL     1      -9.173  13.029 -19.934  1.00  0.00     0.174 C 
BRANCH  14  15
HETATM   15  C11 UNL     1      -8.029  13.569 -20.709  1.00  0.00    -0.040 A 
HETATM   16  C12 UNL     1      -8.316  14.317 -21.830  1.00  0.00     0.009 A 
HETATM   17  C13 UNL     1      -7.280  14.836 -22.576  1.00  0.00     0.001 A 
HETATM   18  C14 UNL     1      -5.943  14.628 -22.233  1.00  0.00     0.000 A 
HETATM   19  C15 UNL     1      -5.677  13.878 -21.108  1.00  0.00     0.001 A 
HETATM   20  C16 UNL     1      -6.722  13.365 -20.373  1.00  0.00     0.009 A 
ENDBRANCH  14  15
ENDBRANCH  13  14
BRANCH   4  21
HETATM   21  O1  UNL     1     -11.432  10.475 -24.112  1.00  0.00    -0.320 OA
BRANCH  21  22
HETATM   22  C4  UNL     1     -10.902   9.980 -25.327  1.00  0.00     0.205 C 
BRANCH  22  23
HETATM   23  C5  UNL     1      -9.871  10.986 -25.784  1.00  0.00     0.193 C 
BRANCH  23  24
HETATM   24  O2  UNL     1      -9.102  10.576 -26.845  1.00  0.00    -0.394 OA
HETATM   25  C6  UNL     1      -8.752  11.620 -27.671  1.00  0.00     0.201 C 
ENDBRANCH  23  24
ENDBRANCH  22  23
ENDBRANCH  21  22
ENDBRANCH   4  21
BRANCH   1  26
HETATM   26  N1  UNL     1      -9.877   7.182 -21.027  1.00  0.00    -0.379 N 
HETATM   27  C1  UNL     1      -8.976   6.326 -21.765  1.00  0.00     0.147 C 
ATOM     28  H1  UNL     1     -10.394   6.807 -20.232  1.00  0.00     0.160 HD
ENDBRANCH   1  26
TORSDOF 7
ENDMDL
