MODEL 2
REMARK VINA RESULT: -9.371334882      0.901      1.390
REMARK  7 active torsions:
REMARK  status: ('A' for Active; 'I' for Inactive)
REMARK    1  A    between atoms: N1_2  and  C2_4 
REMARK    2  A    between atoms: C3_7  and  O1_8 
REMARK    3  A    between atoms: O1_8  and  C4_9 
REMARK    4  A    between atoms: C4_9  and  C5_10 
REMARK    5  A    between atoms: C5_10  and  O2_11 
REMARK    6  A    between atoms: N5_21  and  C10_22 
REMARK    7  A    between atoms: C10_22  and  C11_23 
ROOT
HETATM    1  C2  UNL     1     -10.370   8.905 -20.557  1.00  0.00     0.135 A 
HETATM    2  N2  UNL     1      -9.546   8.771 -19.494  1.00  0.00    -0.306 N 
ATOM      3  H2  UNL     1      -9.380   7.834 -19.126  1.00  0.00     0.171 HD
HETATM    4  C3  UNL     1      -8.934   9.807 -18.896  1.00  0.00     0.226 A 
HETATM    5  N3  UNL     1      -9.124  11.061 -19.350  1.00  0.00    -0.306 N 
ATOM      6  H3  UNL     1      -8.662  11.853 -18.902  1.00  0.00     0.171 HD
HETATM    7  C7  UNL     1      -9.949  11.251 -20.423  1.00  0.00     0.146 A 
HETATM    8  C8  UNL     1     -10.579  10.192 -21.038  1.00  0.00     0.125 A 
HETATM    9  N4  UNL     1     -11.307  10.707 -22.045  1.00  0.00    -0.302 N 
ATOM     10  H4  UNL     1     -11.885  10.162 -22.684  1.00  0.00     0.171 HD
HETATM   11  C9  UNL     1     -11.164  12.041 -22.090  1.00  0.00     0.329 A 
HETATM   12  O3  UNL     1     -11.700  12.857 -22.905  1.00  0.00    -0.246 OA
HETATM   13  N5  UNL     1     -10.329  12.358 -21.091  1.00  0.00    -0.279 N 
ENDROOT
BRANCH  13  14
HETATM   14  C10 UNL     1      -9.884  13.694 -20.754  1.00  0.00     0.174 C 
BRANCH  14  15
HETATM   15  C11 UNL     1      -8.549  14.005 -21.323  1.00  0.00    -0.040 A 
HETATM   16  C12 UNL     1      -8.509  14.729 -22.494  1.00  0.00     0.009 A 
HETATM   17  C13 UNL     1      -7.288  15.038 -23.053  1.00  0.00     0.001 A 
HETATM   18  C14 UNL     1      -6.084  14.639 -22.469  1.00  0.00     0.000 A 
HETATM   19  C15 UNL     1      -6.146  13.917 -21.298  1.00  0.00     0.001 A 
HETATM   20  C16 UNL     1      -7.373  13.615 -20.752  1.00  0.00     0.009 A 
ENDBRANCH  14  15
ENDBRANCH  13  14
BRANCH   4  21
HETATM   21  O1  UNL     1      -8.104   9.544 -17.805  1.00  0.00    -0.320 OA
BRANCH  21  22
HETATM   22  C4  UNL     1      -8.131  10.384 -16.667  1.00  0.00     0.205 C 
BRANCH  22  23
HETATM   23  C5  UNL     1      -6.853  11.190 -16.701  1.00  0.00     0.193 C 
BRANCH  23  24
HETATM   24  O2  UNL     1      -6.826  12.179 -17.652  1.00  0.00    -0.394 OA
HETATM   25  C6  UNL     1      -7.345  13.366 -17.187  1.00  0.00     0.201 C 
ENDBRANCH  23  24
ENDBRANCH  22  23
ENDBRANCH  21  22
ENDBRANCH   4  21
BRANCH   1  26
HETATM   26  N1  UNL     1     -11.010   7.826 -21.181  1.00  0.00    -0.379 N 
HETATM   27  C1  UNL     1     -10.399   7.170 -22.314  1.00  0.00     0.147 C 
ATOM     28  H1  UNL     1     -11.912   7.502 -20.833  1.00  0.00     0.160 HD
ENDBRANCH   1  26
TORSDOF 7
ENDMDL
