MODEL 6
REMARK VINA RESULT: -7.198090704      2.009      2.825
REMARK  1 active torsions:
REMARK  status: ('A' for Active; 'I' for Inactive)
REMARK    1  A    between atoms: N1_2  and  C2_4 
ROOT
HETATM    1  C2  UNL     1      15.610  18.499   5.539  1.00  0.00     0.135 A 
HETATM    2  N2  UNL     1      14.319  18.278   5.251  1.00  0.00    -0.306 N 
ATOM      3  H2  UNL     1      14.019  17.333   5.012  1.00  0.00     0.171 HD
HETATM    4  C3  UNL     1      13.408  19.268   5.268  1.00  0.00     0.226 A 
HETATM    5  N3  UNL     1      13.842  20.499   5.587  1.00  0.00    -0.306 N 
ATOM      6  H3  UNL     1      13.163  21.259   5.604  1.00  0.00     0.171 HD
HETATM    7  C4  UNL     1      15.101  20.779   5.880  1.00  0.00     0.146 A 
HETATM    8  C5  UNL     1      16.034  19.765   5.862  1.00  0.00     0.125 A 
HETATM    9  N4  UNL     1      17.216  20.337   6.196  1.00  0.00    -0.302 N 
ATOM     10  H4  UNL     1      18.119  19.869   6.278  1.00  0.00     0.171 HD
HETATM   11  C6  UNL     1      16.966  21.642   6.399  1.00  0.00     0.329 A 
HETATM   12  O1  UNL     1      17.879  22.440   6.726  1.00  0.00    -0.246 OA
HETATM   13  N5  UNL     1      15.657  21.931   6.207  1.00  0.00    -0.279 N 
HETATM   14  C7  UNL     1      14.901  23.156   6.302  1.00  0.00     0.174 C 
HETATM   15  C8  UNL     1      14.170  23.521   5.047  1.00  0.00    -0.037 A 
HETATM   16  C9  UNL     1      15.020  24.276   4.197  1.00  0.00     0.009 A 
HETATM   17  C10 UNL     1      14.644  24.754   2.974  1.00  0.00     0.003 A 
HETATM   18  C11 UNL     1      13.353  24.449   2.612  1.00  0.00     0.037 A 
HETATM   19  C12 UNL     1      12.473  23.706   3.417  1.00  0.00     0.069 A 
HETATM   20  C13 UNL     1      12.899  23.233   4.660  1.00  0.00     0.045 A 
HETATM   21  O2  UNL     1      11.249  23.557   2.801  1.00  0.00    -0.349 OA
HETATM   22  C14 UNL     1       9.922  23.793   3.059  1.00  0.00     0.201 C 
HETATM   23  C15 UNL     1       9.398  22.662   3.954  1.00  0.00     0.194 C 
HETATM   24  O3  UNL     1       9.713  21.420   3.463  1.00  0.00    -0.387 OA
HETATM   25  C16 UNL     1      10.152  20.549   4.477  1.00  0.00     0.194 C 
HETATM   26  C17 UNL     1      11.337  19.777   3.997  1.00  0.00     0.205 C 
HETATM   27  O4  UNL     1      12.069  19.128   4.986  1.00  0.00    -0.320 OA
ENDROOT
BRANCH   1  28
HETATM   28  N1  UNL     1      16.576  17.435   5.518  1.00  0.00    -0.379 N 
HETATM   29  C1  UNL     1      16.641  16.443   6.567  1.00  0.00     0.147 C 
ATOM     30  H1  UNL     1      17.234  17.379   4.741  1.00  0.00     0.160 HD
ENDBRANCH   1  28
TORSDOF 1
ENDMDL
