MODEL 2
REMARK VINA RESULT: -8.748561135      1.450      1.983
REMARK  1 active torsions:
REMARK  status: ('A' for Active; 'I' for Inactive)
REMARK    1  A    between atoms: N1_2  and  C2_4 
ROOT
HETATM    1  C2  UNL     1      13.178  19.879   4.529  1.00  0.00     0.135 A 
HETATM    2  N2  UNL     1      12.273  18.927   4.258  1.00  0.00    -0.306 N 
ATOM      3  H2  UNL     1      12.574  17.953   4.218  1.00  0.00     0.171 HD
HETATM    4  C3  UNL     1      10.979  19.221   4.039  1.00  0.00     0.226 A 
HETATM    5  N3  UNL     1      10.621  20.514   4.100  1.00  0.00    -0.306 N 
ATOM      6  H3  UNL     1       9.643  20.752   3.935  1.00  0.00     0.171 HD
HETATM    7  C4  UNL     1      11.468  21.497   4.361  1.00  0.00     0.146 A 
HETATM    8  C5  UNL     1      12.793  21.197   4.586  1.00  0.00     0.125 A 
HETATM    9  N4  UNL     1      13.411  22.379   4.823  1.00  0.00    -0.302 N 
ATOM     10  H4  UNL     1      14.401  22.520   5.027  1.00  0.00     0.171 HD
HETATM   11  C6  UNL     1      12.465  23.329   4.736  1.00  0.00     0.329 A 
HETATM   12  O1  UNL     1      12.737  24.543   4.910  1.00  0.00    -0.246 OA
HETATM   13  N5  UNL     1      11.252  22.797   4.450  1.00  0.00    -0.279 N 
HETATM   14  C7  UNL     1       9.947  23.379   4.260  1.00  0.00     0.174 C 
HETATM   15  C8  UNL     1       9.323  23.062   2.937  1.00  0.00    -0.037 A 
HETATM   16  C9  UNL     1       9.735  24.015   1.969  1.00  0.00     0.009 A 
HETATM   17  C10 UNL     1       9.337  23.995   0.663  1.00  0.00     0.003 A 
HETATM   18  C11 UNL     1       8.488  22.963   0.338  1.00  0.00     0.037 A 
HETATM   19  C12 UNL     1       8.051  21.996   1.258  1.00  0.00     0.069 A 
HETATM   20  C13 UNL     1       8.484  22.052   2.585  1.00  0.00     0.045 A 
HETATM   21  O2  UNL     1       7.209  21.087   0.655  1.00  0.00    -0.349 OA
HETATM   22  C14 UNL     1       5.947  20.573   0.819  1.00  0.00     0.201 C 
HETATM   23  C15 UNL     1       6.003  19.506   1.920  1.00  0.00     0.194 C 
HETATM   24  O3  UNL     1       7.009  18.597   1.715  1.00  0.00    -0.387 OA
HETATM   25  C16 UNL     1       7.703  18.300   2.903  1.00  0.00     0.194 C 
HETATM   26  C17 UNL     1       9.170  18.263   2.631  1.00  0.00     0.205 C 
HETATM   27  O4  UNL     1       9.988  18.309   3.757  1.00  0.00    -0.320 OA
ENDROOT
BRANCH   1  28
HETATM   28  N1  UNL     1      14.559  19.556   4.762  1.00  0.00    -0.379 N 
HETATM   29  C1  UNL     1      14.952  18.448   5.602  1.00  0.00     0.147 C 
ATOM     30  H1  UNL     1      15.282  20.125   4.322  1.00  0.00     0.160 HD
ENDBRANCH   1  28
TORSDOF 1
ENDMDL
