MODEL 3
REMARK VINA RESULT: -7.737342106      3.571      4.958
REMARK  1 active torsions:
REMARK  status: ('A' for Active; 'I' for Inactive)
REMARK    1  A    between atoms: N1_2  and  C2_4 
ROOT
HETATM    1  C2  UNL     1       8.820  18.910   2.857  1.00  0.00     0.135 A 
HETATM    2  N2  UNL     1       7.882  18.554   1.967  1.00  0.00    -0.306 N 
ATOM      3  H2  UNL     1       7.723  17.563   1.783  1.00  0.00     0.171 HD
HETATM    4  C3  UNL     1       7.144  19.468   1.311  1.00  0.00     0.226 A 
HETATM    5  N3  UNL     1       7.383  20.762   1.580  1.00  0.00    -0.306 N 
ATOM      6  H3  UNL     1       6.831  21.465   1.090  1.00  0.00     0.171 HD
HETATM    7  C4  UNL     1       8.294  21.174   2.447  1.00  0.00     0.146 A 
HETATM    8  C5  UNL     1       9.050  20.239   3.119  1.00  0.00     0.125 A 
HETATM    9  N4  UNL     1       9.885  20.939   3.923  1.00  0.00    -0.302 N 
ATOM     10  H4  UNL     1      10.583  20.555   4.561  1.00  0.00     0.171 HD
HETATM   11  C6  UNL     1       9.614  22.239   3.717  1.00  0.00     0.329 A 
HETATM   12  O1  UNL     1      10.236  23.143   4.329  1.00  0.00    -0.246 OA
HETATM   13  N5  UNL     1       8.628  22.401   2.802  1.00  0.00    -0.279 N 
HETATM   14  C7  UNL     1       7.987  23.568   2.250  1.00  0.00     0.174 C 
HETATM   15  C8  UNL     1       8.064  23.658   0.757  1.00  0.00    -0.037 A 
HETATM   16  C9  UNL     1       9.265  24.309   0.374  1.00  0.00     0.009 A 
HETATM   17  C10 UNL     1       9.627  24.540  -0.922  1.00  0.00     0.003 A 
HETATM   18  C11 UNL     1       8.726  24.090  -1.857  1.00  0.00     0.037 A 
HETATM   19  C12 UNL     1       7.523  23.441  -1.530  1.00  0.00     0.069 A 
HETATM   20  C13 UNL     1       7.193  23.222  -0.191  1.00  0.00     0.045 A 
HETATM   21  O2  UNL     1       6.821  23.103  -2.667  1.00  0.00    -0.349 OA
HETATM   22  C14 UNL     1       5.575  23.289  -3.211  1.00  0.00     0.201 C 
HETATM   23  C15 UNL     1       4.609  22.299  -2.547  1.00  0.00     0.194 C 
HETATM   24  O3  UNL     1       5.092  21.015  -2.554  1.00  0.00    -0.387 OA
HETATM   25  C16 UNL     1       4.881  20.366  -1.324  1.00  0.00     0.194 C 
HETATM   26  C17 UNL     1       6.107  19.605  -0.942  1.00  0.00     0.205 C 
HETATM   27  O4  UNL     1       6.165  19.190   0.386  1.00  0.00    -0.320 OA
ENDROOT
BRANCH   1  28
HETATM   28  N1  UNL     1       9.604  17.927   3.554  1.00  0.00    -0.379 N 
HETATM   29  C1  UNL     1       9.125  16.580   3.766  1.00  0.00     0.147 C 
ATOM     30  H1  UNL     1      10.524  18.187   3.908  1.00  0.00     0.160 HD
ENDBRANCH   1  28
TORSDOF 1
ENDMDL
