MODEL 4
REMARK VINA RESULT: -7.473363812      2.623      4.925
REMARK  1 active torsions:
REMARK  status: ('A' for Active; 'I' for Inactive)
REMARK    1  A    between atoms: N1_2  and  C2_4 
ROOT
HETATM    1  C2  UNL     1      11.063  19.191   4.446  1.00  0.00     0.135 A 
HETATM    2  N2  UNL     1      10.484  20.354   4.114  1.00  0.00    -0.306 N 
ATOM      3  H2  UNL     1       9.531  20.348   3.750  1.00  0.00     0.171 HD
HETATM    4  C3  UNL     1      11.124  21.530   4.249  1.00  0.00     0.226 A 
HETATM    5  N3  UNL     1      12.377  21.497   4.732  1.00  0.00    -0.306 N 
ATOM      6  H3  UNL     1      12.875  22.381   4.839  1.00  0.00     0.171 HD
HETATM    7  C4  UNL     1      13.002  20.382   5.075  1.00  0.00     0.146 A 
HETATM    8  C5  UNL     1      12.347  19.178   4.937  1.00  0.00     0.125 A 
HETATM    9  N4  UNL     1      13.215  18.227   5.357  1.00  0.00    -0.302 N 
ATOM     10  H4  UNL     1      13.050  17.221   5.389  1.00  0.00     0.171 HD
HETATM   11  C6  UNL     1      14.337  18.870   5.726  1.00  0.00     0.329 A 
HETATM   12  O1  UNL     1      15.334  18.246   6.166  1.00  0.00    -0.246 OA
HETATM   13  N5  UNL     1      14.219  20.209   5.556  1.00  0.00    -0.279 N 
HETATM   14  C7  UNL     1      15.118  21.310   5.801  1.00  0.00     0.174 C 
HETATM   15  C8  UNL     1      15.391  22.155   4.595  1.00  0.00    -0.037 A 
HETATM   16  C9  UNL     1      16.478  21.612   3.862  1.00  0.00     0.009 A 
HETATM   17  C10 UNL     1      16.965  22.155   2.708  1.00  0.00     0.003 A 
HETATM   18  C11 UNL     1      16.317  23.295   2.293  1.00  0.00     0.037 A 
HETATM   19  C12 UNL     1      15.237  23.871   2.982  1.00  0.00     0.069 A 
HETATM   20  C13 UNL     1      14.768  23.281   4.159  1.00  0.00     0.045 A 
HETATM   21  O2  UNL     1      14.788  25.003   2.336  1.00  0.00    -0.349 OA
HETATM   22  C14 UNL     1      14.557  26.329   2.606  1.00  0.00     0.201 C 
HETATM   23  C15 UNL     1      13.213  26.443   3.339  1.00  0.00     0.194 C 
HETATM   24  O3  UNL     1      12.209  25.767   2.694  1.00  0.00    -0.387 OA
HETATM   25  C16 UNL     1      11.399  25.046   3.591  1.00  0.00     0.194 C 
HETATM   26  C17 UNL     1      11.110  23.693   3.029  1.00  0.00     0.205 C 
HETATM   27  O4  UNL     1      10.605  22.764   3.935  1.00  0.00    -0.320 OA
ENDROOT
BRANCH   1  28
HETATM   28  N1  UNL     1      10.372  17.940   4.298  1.00  0.00    -0.379 N 
HETATM   29  C1  UNL     1       9.862  17.497   3.021  1.00  0.00     0.147 C 
ATOM     30  H1  UNL     1      10.238  17.347   5.117  1.00  0.00     0.160 HD
ENDBRANCH   1  28
TORSDOF 1
ENDMDL
