MODEL 4
REMARK VINA RESULT: -8.493500825      2.891      6.258
REMARK  5 active torsions:
REMARK  status: ('A' for Active; 'I' for Inactive)
REMARK       I    between atoms: N1_2  and  C2_4 
REMARK    1  A    between atoms: C2_4  and  C3_6 
REMARK    2  A    between atoms: C7_12  and  O2_13 
REMARK    3  A    between atoms: C9_15  and  O3_16 
REMARK    4  A    between atoms: C13_20  and  N3_21 
REMARK    5  A    between atoms: N3_21  and  C14_23 
ROOT
HETATM    1  C3  UNL     1      10.215  20.598   3.207  1.00  0.00     0.074 A 
HETATM    2  C4  UNL     1      10.406  20.575   4.586  1.00  0.00     0.107 A 
HETATM    3  N2  UNL     1      11.638  20.782   5.109  1.00  0.00    -0.364 N 
ATOM      4  H2  UNL     1      11.774  20.764   6.120  1.00  0.00     0.165 HD
HETATM    5  C5  UNL     1      12.670  21.008   4.307  1.00  0.00     0.047 A 
HETATM    6  C6  UNL     1      13.937  21.222   4.808  1.00  0.00     0.070 A 
HETATM    7  C7  UNL     1      15.025  21.457   3.995  1.00  0.00     0.103 A 
HETATM    8  C9  UNL     1      14.866  21.486   2.625  1.00  0.00     0.102 A 
HETATM    9  C11 UNL     1      13.613  21.275   2.117  1.00  0.00     0.055 A 
HETATM   10  C12 UNL     1      12.523  21.039   2.920  1.00  0.00     0.021 A 
HETATM   11  C13 UNL     1      11.283  20.832   2.366  1.00  0.00     0.062 A 
ENDROOT
BRANCH  11  12
HETATM   12  N3  UNL     1      11.086  20.854   0.981  1.00  0.00    -0.352 N 
ATOM     13  H3  UNL     1      11.320  20.007   0.463  1.00  0.00     0.166 HD
BRANCH  12  14
HETATM   14  C14 UNL     1      10.595  21.943   0.244  1.00  0.00     0.071 A 
HETATM   15  C15 UNL     1      11.117  23.216   0.345  1.00  0.00     0.034 A 
HETATM   16  C16 UNL     1      10.625  24.279  -0.385  1.00  0.00     0.026 A 
HETATM   17  C17 UNL     1       9.571  24.095  -1.259  1.00  0.00     0.037 A 
HETATM   18 CL1  UNL     1       8.934  25.442  -2.198  1.00  0.00    -0.084 Cl
HETATM   19  C18 UNL     1       9.036  22.832  -1.377  1.00  0.00     0.068 A 
HETATM   20  C19 UNL     1       9.548  21.768  -0.627  1.00  0.00     0.144 A 
HETATM   21  F1  UNL     1       8.995  20.541  -0.770  1.00  0.00    -0.204 F 
ENDBRANCH  12  14
ENDBRANCH  11  12
BRANCH   1  22
HETATM   22  C2  UNL     1       8.911  20.383   2.597  1.00  0.00     0.254 C 
HETATM   23  N1  UNL     1       7.937  21.412   2.594  1.00  0.00    -0.361 N 
HETATM   24  C1  UNL     1       6.614  21.207   1.982  1.00  0.00     0.149 C 
ATOM     25  H1  UNL     1       8.157  22.311   3.024  1.00  0.00     0.162 HD
HETATM   26  O1  UNL     1       8.612  19.287   2.059  1.00  0.00    -0.268 OA
ENDBRANCH   1  22
BRANCH   8  27
HETATM   27  O3  UNL     1      15.943  21.722   1.778  1.00  0.00    -0.353 OA
HETATM   28  C10 UNL     1      16.220  23.045   1.354  1.00  0.00     0.210 C 
ENDBRANCH   8  27
BRANCH   7  29
HETATM   29  O2  UNL     1      16.305  21.673   4.498  1.00  0.00    -0.353 OA
HETATM   30  C8  UNL     1      17.171  20.648   4.900  1.00  0.00     0.210 C 
ENDBRANCH   7  29
TORSDOF 5
ENDMDL
