MODEL 2
REMARK VINA RESULT: -9.870322687      3.423      6.077
REMARK  5 active torsions:
REMARK  status: ('A' for Active; 'I' for Inactive)
REMARK       I    between atoms: N1_2  and  C2_4 
REMARK    1  A    between atoms: C2_4  and  C3_6 
REMARK    2  A    between atoms: C7_12  and  O2_13 
REMARK    3  A    between atoms: C9_15  and  O3_16 
REMARK    4  A    between atoms: C13_20  and  N3_21 
REMARK    5  A    between atoms: N3_21  and  C14_23 
ROOT
HETATM    1  C3  UNL     1      16.492  19.478   5.593  1.00  0.00     0.074 A 
HETATM    2  C4  UNL     1      17.798  19.960   5.565  1.00  0.00     0.107 A 
HETATM    3  N2  UNL     1      18.171  20.873   4.635  1.00  0.00    -0.364 N 
ATOM      4  H2  UNL     1      19.129  21.223   4.619  1.00  0.00     0.165 HD
HETATM    5  C5  UNL     1      17.290  21.313   3.747  1.00  0.00     0.047 A 
HETATM    6  C6  UNL     1      17.637  22.241   2.789  1.00  0.00     0.070 A 
HETATM    7  C7  UNL     1      16.739  22.713   1.854  1.00  0.00     0.103 A 
HETATM    8  C9  UNL     1      15.439  22.254   1.858  1.00  0.00     0.102 A 
HETATM    9  C11 UNL     1      15.083  21.332   2.804  1.00  0.00     0.055 A 
HETATM   10  C12 UNL     1      15.972  20.856   3.739  1.00  0.00     0.021 A 
HETATM   11  C13 UNL     1      15.570  19.931   4.672  1.00  0.00     0.062 A 
ENDROOT
BRANCH  11  12
HETATM   12  N3  UNL     1      14.259  19.444   4.704  1.00  0.00    -0.352 N 
ATOM     13  H3  UNL     1      14.133  18.455   4.918  1.00  0.00     0.166 HD
BRANCH  12  14
HETATM   14  C14 UNL     1      13.101  20.201   4.465  1.00  0.00     0.071 A 
HETATM   15  C15 UNL     1      12.137  19.831   3.551  1.00  0.00     0.034 A 
HETATM   16  C16 UNL     1      11.003  20.585   3.325  1.00  0.00     0.026 A 
HETATM   17  C17 UNL     1      10.795  21.759   4.024  1.00  0.00     0.037 A 
HETATM   18 CL1  UNL     1       9.353  22.729   3.746  1.00  0.00    -0.084 Cl
HETATM   19  C18 UNL     1      11.745  22.146   4.942  1.00  0.00     0.068 A 
HETATM   20  C19 UNL     1      12.888  21.369   5.156  1.00  0.00     0.144 A 
HETATM   21  F1  UNL     1      13.800  21.782   6.067  1.00  0.00    -0.204 F 
ENDBRANCH  12  14
ENDBRANCH  11  12
BRANCH   1  22
HETATM   22  C2  UNL     1      16.044  18.498   6.570  1.00  0.00     0.254 C 
HETATM   23  N1  UNL     1      16.918  18.044   7.589  1.00  0.00    -0.361 N 
HETATM   24  C1  UNL     1      16.478  17.052   8.584  1.00  0.00     0.149 C 
ATOM     25  H1  UNL     1      17.868  18.412   7.634  1.00  0.00     0.162 HD
HETATM   26  O1  UNL     1      14.879  18.029   6.541  1.00  0.00    -0.268 OA
ENDBRANCH   1  22
BRANCH   8  27
HETATM   27  O3  UNL     1      14.510  22.710   0.930  1.00  0.00    -0.353 OA
HETATM   28  C10 UNL     1      13.334  21.955   0.691  1.00  0.00     0.210 C 
ENDBRANCH   8  27
BRANCH   7  29
HETATM   29  O2  UNL     1      17.087  23.650   0.886  1.00  0.00    -0.353 OA
HETATM   30  C8  UNL     1      18.380  24.168   0.726  1.00  0.00     0.210 C 
ENDBRANCH   7  29
TORSDOF 5
ENDMDL
