MODEL 1
REMARK VINA RESULT: -9.892476378      0.000      0.000
REMARK  5 active torsions:
REMARK  status: ('A' for Active; 'I' for Inactive)
REMARK       I    between atoms: N1_2  and  C2_4 
REMARK    1  A    between atoms: C2_4  and  C3_6 
REMARK    2  A    between atoms: C7_12  and  O2_13 
REMARK    3  A    between atoms: C9_15  and  O3_16 
REMARK    4  A    between atoms: C13_20  and  N3_21 
REMARK    5  A    between atoms: N3_21  and  C14_23 
ROOT
HETATM    1  C3  UNL     1      12.782  21.231   4.605  1.00  0.00     0.074 A 
HETATM    2  C4  UNL     1      11.725  21.638   5.415  1.00  0.00     0.107 A 
HETATM    3  N2  UNL     1      10.561  22.058   4.861  1.00  0.00    -0.364 N 
ATOM      4  H2  UNL     1       9.790  22.355   5.459  1.00  0.00     0.165 HD
HETATM    5  C5  UNL     1      10.425  22.082   3.543  1.00  0.00     0.047 A 
HETATM    6  C6  UNL     1       9.255  22.504   2.948  1.00  0.00     0.070 A 
HETATM    7  C7  UNL     1       9.089  22.540   1.580  1.00  0.00     0.103 A 
HETATM    8  C9  UNL     1      10.119  22.143   0.752  1.00  0.00     0.102 A 
HETATM    9  C11 UNL     1      11.285  21.722   1.331  1.00  0.00     0.055 A 
HETATM   10  C12 UNL     1      11.459  21.684   2.695  1.00  0.00     0.021 A 
HETATM   11  C13 UNL     1      12.648  21.254   3.232  1.00  0.00     0.062 A 
ENDROOT
BRANCH  11  12
HETATM   12  N3  UNL     1      13.713  20.845   2.422  1.00  0.00    -0.352 N 
ATOM     13  H3  UNL     1      13.670  19.901   2.037  1.00  0.00     0.166 HD
BRANCH  12  14
HETATM   14  C14 UNL     1      14.834  21.622   2.094  1.00  0.00     0.071 A 
HETATM   15  C15 UNL     1      16.014  21.577   2.808  1.00  0.00     0.034 A 
HETATM   16  C16 UNL     1      17.110  22.347   2.476  1.00  0.00     0.026 A 
HETATM   17  C17 UNL     1      17.057  23.205   1.394  1.00  0.00     0.037 A 
HETATM   18 CL1  UNL     1      18.449  24.192   0.959  1.00  0.00    -0.084 Cl
HETATM   19  C18 UNL     1      15.890  23.265   0.667  1.00  0.00     0.068 A 
HETATM   20  C19 UNL     1      14.789  22.477   1.021  1.00  0.00     0.144 A 
HETATM   21  F1  UNL     1      13.658  22.564   0.282  1.00  0.00    -0.204 F 
ENDBRANCH  12  14
ENDBRANCH  11  12
BRANCH   1  22
HETATM   22  C2  UNL     1      14.050  20.772   5.151  1.00  0.00     0.254 C 
HETATM   23  N1  UNL     1      14.389  19.396   5.127  1.00  0.00    -0.361 N 
HETATM   24  C1  UNL     1      15.668  18.917   5.677  1.00  0.00     0.149 C 
ATOM     25  H1  UNL     1      13.736  18.726   4.722  1.00  0.00     0.162 HD
HETATM   26  O1  UNL     1      14.876  21.574   5.655  1.00  0.00    -0.268 OA
ENDBRANCH   1  22
BRANCH   8  27
HETATM   27  O3  UNL     1       9.984  22.166  -0.631  1.00  0.00    -0.353 OA
HETATM   28  C10 UNL     1      10.398  23.313  -1.353  1.00  0.00     0.210 C 
ENDBRANCH   8  27
BRANCH   7  29
HETATM   29  O2  UNL     1       7.909  22.965   0.978  1.00  0.00    -0.353 OA
HETATM   30  C8  UNL     1       6.733  23.259   1.680  1.00  0.00     0.210 C 
ENDBRANCH   7  29
TORSDOF 5
ENDMDL
