MODEL 3
REMARK VINA RESULT: -8.527116511      2.706      3.752
REMARK  5 active torsions:
REMARK  status: ('A' for Active; 'I' for Inactive)
REMARK       I    between atoms: N1_2  and  C2_4 
REMARK    1  A    between atoms: C2_4  and  C3_6 
REMARK    2  A    between atoms: C7_12  and  O2_13 
REMARK    3  A    between atoms: C9_15  and  O3_16 
REMARK    4  A    between atoms: C13_20  and  N3_21 
REMARK    5  A    between atoms: N3_21  and  C14_23 
ROOT
HETATM    1  C3  UNL     1       9.488  20.906   2.019  1.00  0.00     0.074 A 
HETATM    2  C4  UNL     1       8.267  21.521   2.284  1.00  0.00     0.107 A 
HETATM    3  N2  UNL     1       7.866  22.588   1.551  1.00  0.00    -0.364 N 
ATOM      4  H2  UNL     1       6.970  23.035   1.748  1.00  0.00     0.165 HD
HETATM    5  C5  UNL     1       8.637  23.051   0.577  1.00  0.00     0.047 A 
HETATM    6  C6  UNL     1       8.258  24.134  -0.187  1.00  0.00     0.070 A 
HETATM    7  C7  UNL     1       9.042  24.635  -1.204  1.00  0.00     0.103 A 
HETATM    8  C9  UNL     1      10.257  24.046  -1.489  1.00  0.00     0.102 A 
HETATM    9  C11 UNL     1      10.643  22.970  -0.738  1.00  0.00     0.055 A 
HETATM   10  C12 UNL     1       9.867  22.465   0.279  1.00  0.00     0.021 A 
HETATM   11  C13 UNL     1      10.295  21.382   1.008  1.00  0.00     0.062 A 
ENDROOT
BRANCH  11  12
HETATM   12  N3  UNL     1      11.522  20.761   0.746  1.00  0.00    -0.352 N 
ATOM     13  H3  UNL     1      11.494  19.826   0.340  1.00  0.00     0.166 HD
BRANCH  12  14
HETATM   14  C14 UNL     1      12.787  21.316   0.994  1.00  0.00     0.071 A 
HETATM   15  C15 UNL     1      13.392  22.217   0.143  1.00  0.00     0.034 A 
HETATM   16  C16 UNL     1      14.637  22.756   0.397  1.00  0.00     0.026 A 
HETATM   17  C17 UNL     1      15.329  22.401   1.540  1.00  0.00     0.037 A 
HETATM   18 CL1  UNL     1      16.918  23.082   1.878  1.00  0.00    -0.084 Cl
HETATM   19  C18 UNL     1      14.743  21.504   2.404  1.00  0.00     0.068 A 
HETATM   20  C19 UNL     1      13.481  20.969   2.127  1.00  0.00     0.144 A 
HETATM   21  F1  UNL     1      12.937  20.090   3.001  1.00  0.00    -0.204 F 
ENDBRANCH  12  14
ENDBRANCH  11  12
BRANCH   1  22
HETATM   22  C2  UNL     1       9.962  19.758   2.777  1.00  0.00     0.254 C 
HETATM   23  N1  UNL     1      10.043  19.811   4.191  1.00  0.00    -0.361 N 
HETATM   24  C1  UNL     1      10.522  18.658   4.971  1.00  0.00     0.149 C 
ATOM     25  H1  UNL     1       9.763  20.663   4.677  1.00  0.00     0.162 HD
HETATM   26  O1  UNL     1      10.312  18.694   2.207  1.00  0.00    -0.268 OA
ENDBRANCH   1  22
BRANCH   8  27
HETATM   27  O3  UNL     1      11.071  24.526  -2.508  1.00  0.00    -0.353 OA
HETATM   28  C10 UNL     1      12.138  25.404  -2.194  1.00  0.00     0.210 C 
ENDBRANCH   8  27
BRANCH   7  29
HETATM   29  O2  UNL     1       8.662  25.729  -1.976  1.00  0.00    -0.353 OA
HETATM   30  C8  UNL     1       7.827  25.643  -3.098  1.00  0.00     0.210 C 
ENDBRANCH   7  29
TORSDOF 5
ENDMDL
