MODEL 4
REMARK VINA RESULT: -5.996018518      2.454      3.625
REMARK  4 active torsions:
REMARK  status: ('A' for Active; 'I' for Inactive)
REMARK    1  A    between atoms: C2_2  and  C3_3 
REMARK    2  A    between atoms: C8_9  and  C9_10 
REMARK    3  A    between atoms: C9_10  and  C10_11 
REMARK    4  A    between atoms: C10_11  and  N1_12 
ROOT
HETATM    1  C3  UNL     1     124.057 101.111 -45.092  1.00  0.00    -0.030 A 
HETATM    2  C4  UNL     1     124.988 100.675 -44.181  1.00  0.00     0.028 A 
HETATM    3  C5  UNL     1     125.555 101.501 -43.230  1.00  0.00     0.012 A 
HETATM    4 BR1  UNL     1     126.854 100.843 -41.969  1.00  0.00    -0.051 Br
HETATM    5  C6  UNL     1     125.148 102.817 -43.221  1.00  0.00     0.033 A 
HETATM    6  C7  UNL     1     124.208 103.321 -44.118  1.00  0.00     0.001 A 
HETATM    7  C8  UNL     1     123.642 104.560 -44.325  1.00  0.00    -0.022 A 
HETATM    8  C11 UNL     1     122.758 104.444 -45.386  1.00  0.00     0.013 A 
HETATM    9  C12 UNL     1     121.918 105.556 -45.955  1.00  0.00     0.068 C 
HETATM   10  N2  UNL     1     122.817 103.161 -45.779  1.00  0.00    -0.358 N 
ATOM     11  H2  UNL     1     122.271 102.772 -46.548  1.00  0.00     0.166 HD
HETATM   12  C13 UNL     1     123.682 102.453 -45.037  1.00  0.00     0.049 A 
ENDROOT
BRANCH   7  13
HETATM   13  C9  UNL     1     123.938 105.763 -43.543  1.00  0.00     0.068 C 
BRANCH  13  14
HETATM   14  C10 UNL     1     123.680 105.592 -42.062  1.00  0.00     0.234 C 
BRANCH  14  15
HETATM   15  N1  UNL     1     124.423 106.616 -41.339  1.00  0.00    -0.079 N 
ATOM     16  H13 UNL     1     124.831 107.315 -41.959  1.00  0.00     0.274 HD
ATOM     17  H12 UNL     1     123.814 107.237 -40.807  1.00  0.00     0.274 HD
ATOM     18  H11 UNL     1     125.122 106.159 -40.752  1.00  0.00     0.274 HD
ENDBRANCH  14  15
ENDBRANCH  13  14
ENDBRANCH   7  13
BRANCH   1  19
HETATM   19  C2  UNL     1     123.427 100.247 -46.115  1.00  0.00     0.036 C 
HETATM   20  C1  UNL     1     124.390  99.739 -47.127  1.00  0.00     0.010 C 
ENDBRANCH   1  19
TORSDOF 4
ENDMDL
