MODEL 7
REMARK VINA RESULT: -5.905863595      2.002      4.560
REMARK  4 active torsions:
REMARK  status: ('A' for Active; 'I' for Inactive)
REMARK    1  A    between atoms: C2_2  and  C3_3 
REMARK    2  A    between atoms: C8_9  and  C9_10 
REMARK    3  A    between atoms: C9_10  and  C10_11 
REMARK    4  A    between atoms: C10_11  and  N1_12 
ROOT
HETATM    1  C3  UNL     1     122.848 103.266 -45.614  1.00  0.00    -0.030 A 
HETATM    2  C4  UNL     1     122.728 102.294 -46.577  1.00  0.00     0.028 A 
HETATM    3  C5  UNL     1     123.283 101.035 -46.450  1.00  0.00     0.012 A 
HETATM    4 BR1  UNL     1     123.083  99.702 -47.825  1.00  0.00    -0.051 Br
HETATM    5  C6  UNL     1     123.984 100.774 -45.293  1.00  0.00     0.033 A 
HETATM    6  C7  UNL     1     124.143 101.718 -44.279  1.00  0.00     0.001 A 
HETATM    7  C8  UNL     1     124.780 101.720 -43.058  1.00  0.00    -0.022 A 
HETATM    8  C11 UNL     1     124.590 102.970 -42.490  1.00  0.00     0.013 A 
HETATM    9  C12 UNL     1     125.116 103.416 -41.151  1.00  0.00     0.068 C 
HETATM   10  N2  UNL     1     123.858 103.670 -43.372  1.00  0.00    -0.358 N 
ATOM     11  H2  UNL     1     123.557 104.635 -43.229  1.00  0.00     0.166 HD
HETATM   12  C13 UNL     1     123.569 102.947 -44.464  1.00  0.00     0.049 A 
ENDROOT
BRANCH   7  13
HETATM   13  C9  UNL     1     125.512 100.587 -42.486  1.00  0.00     0.068 C 
BRANCH  13  14
HETATM   14  C10 UNL     1     127.002 100.651 -42.739  1.00  0.00     0.234 C 
BRANCH  14  15
HETATM   15  N1  UNL     1     127.691 100.668 -41.454  1.00  0.00    -0.079 N 
ATOM     16  H13 UNL     1     128.048 101.593 -41.215  1.00  0.00     0.274 HD
ATOM     17  H12 UNL     1     127.053 100.555 -40.667  1.00  0.00     0.274 HD
ATOM     18  H11 UNL     1     128.424  99.958 -41.468  1.00  0.00     0.274 HD
ENDBRANCH  14  15
ENDBRANCH  13  14
ENDBRANCH   7  13
BRANCH   1  19
HETATM   19  C2  UNL     1     122.257 104.618 -45.720  1.00  0.00     0.036 C 
HETATM   20  C1  UNL     1     121.353 104.774 -46.889  1.00  0.00     0.010 C 
ENDBRANCH   1  19
TORSDOF 4
ENDMDL
