MODEL 4
REMARK VINA RESULT: -5.151472246      4.090      6.400
REMARK  3 active torsions:
REMARK  status: ('A' for Active; 'I' for Inactive)
REMARK    1  A    between atoms: C1_2  and  C2_4 
REMARK    2  A    between atoms: C5_8  and  N1_9 
REMARK    3  A    between atoms: C11_16  and  O3_17 
ROOT
HETATM    1  C2  UNL     1      91.773  96.127 -42.207  1.00  0.00     0.076 A 
HETATM    2  C3  UNL     1      91.123  95.848 -43.406  1.00  0.00     0.042 A 
HETATM    3  C4  UNL     1      90.751  96.861 -44.260  1.00  0.00     0.036 A 
HETATM    4  I1  UNL     1      89.773  96.440 -46.065  1.00  0.00    -0.042 I 
HETATM    5  C5  UNL     1      91.028  98.162 -43.916  1.00  0.00     0.074 A 
HETATM    6  C10 UNL     1      91.677  98.458 -42.719  1.00  0.00     0.069 A 
HETATM    7  I2  UNL     1      92.057 100.488 -42.280  1.00  0.00    -0.039 I 
HETATM    8  C11 UNL     1      92.054  97.454 -41.859  1.00  0.00     0.101 A 
ENDROOT
BRANCH   5   9
HETATM    9  N1  UNL     1      90.632  99.189 -44.814  1.00  0.00    -0.330 N 
HETATM   10  C6  UNL     1      91.323  99.719 -45.835  1.00  0.00     0.097 A 
HETATM   11  C7  UNL     1      90.600 100.698 -46.475  1.00  0.00     0.019 A 
HETATM   12  C8  UNL     1      89.399 100.768 -45.805  1.00  0.00     0.019 A 
HETATM   13  C9  UNL     1      89.438  99.837 -44.792  1.00  0.00     0.097 A 
ENDBRANCH   5   9
BRANCH   8  14
HETATM   14  O3  UNL     1      92.694  97.761 -40.684  1.00  0.00    -0.358 OA
ATOM     15  H3  UNL     1      92.659  98.639 -40.319  1.00  0.00     0.217 HD
ENDBRANCH   8  14
BRANCH   1  16
HETATM   16  C1  UNL     1      92.157  95.048 -41.323  1.00  0.00     0.212 C 
HETATM   17  O1  UNL     1      93.371  94.852 -41.069  1.00  0.00    -0.644 OA
HETATM   18  O2  UNL     1      91.253  94.193 -40.721  1.00  0.00    -0.644 OA
ENDBRANCH   1  16
TORSDOF 3
ENDMDL
