MODEL 3
REMARK VINA RESULT: -5.167389873      3.990      6.275
REMARK  3 active torsions:
REMARK  status: ('A' for Active; 'I' for Inactive)
REMARK    1  A    between atoms: C1_2  and  C2_4 
REMARK    2  A    between atoms: C5_8  and  N1_9 
REMARK    3  A    between atoms: C11_16  and  O3_17 
ROOT
HETATM    1  C2  UNL     1      91.746  95.960 -42.217  1.00  0.00     0.076 A 
HETATM    2  C3  UNL     1      91.130  95.682 -43.435  1.00  0.00     0.042 A 
HETATM    3  C4  UNL     1      90.743  96.698 -44.278  1.00  0.00     0.036 A 
HETATM    4  I1  UNL     1      89.816  96.279 -46.110  1.00  0.00    -0.042 I 
HETATM    5  C5  UNL     1      90.972  98.001 -43.906  1.00  0.00     0.074 A 
HETATM    6  C10 UNL     1      91.586  98.295 -42.691  1.00  0.00     0.069 A 
HETATM    7  I2  UNL     1      91.893 100.328 -42.209  1.00  0.00    -0.039 I 
HETATM    8  C11 UNL     1      91.977  97.289 -41.841  1.00  0.00     0.101 A 
ENDROOT
BRANCH   5   9
HETATM    9  N1  UNL     1      90.563  99.030 -44.794  1.00  0.00    -0.330 N 
HETATM   10  C6  UNL     1      89.386  99.673 -44.845  1.00  0.00     0.097 A 
HETATM   11  C7  UNL     1      89.369 100.611 -45.850  1.00  0.00     0.019 A 
HETATM   12  C8  UNL     1      90.608 100.537 -46.445  1.00  0.00     0.019 A 
HETATM   13  C9  UNL     1      91.324  99.564 -45.785  1.00  0.00     0.097 A 
ENDBRANCH   5   9
BRANCH   8  14
HETATM   14  O3  UNL     1      92.583  97.595 -40.647  1.00  0.00    -0.358 OA
ATOM     15  H3  UNL     1      93.281  98.237 -40.599  1.00  0.00     0.217 HD
ENDBRANCH   8  14
BRANCH   1  16
HETATM   16  C1  UNL     1      92.146  94.878 -41.344  1.00  0.00     0.212 C 
HETATM   17  O1  UNL     1      91.271  94.157 -40.803  1.00  0.00    -0.644 OA
HETATM   18  O2  UNL     1      93.463  94.575 -41.055  1.00  0.00    -0.644 OA
ENDBRANCH   1  16
TORSDOF 3
ENDMDL
