MODEL 1
REMARK VINA RESULT: -5.899016767      0.000      0.000
REMARK  3 active torsions:
REMARK  status: ('A' for Active; 'I' for Inactive)
REMARK    1  A    between atoms: C1_2  and  C2_4 
REMARK    2  A    between atoms: C5_8  and  N1_9 
REMARK    3  A    between atoms: C11_16  and  O3_17 
ROOT
HETATM    1  C2  UNL     1      90.540  95.905 -45.119  1.00  0.00     0.076 A 
HETATM    2  C3  UNL     1      90.702  94.692 -45.781  1.00  0.00     0.042 A 
HETATM    3  C4  UNL     1      91.322  93.628 -45.165  1.00  0.00     0.036 A 
HETATM    4  I1  UNL     1      91.565  91.802 -46.163  1.00  0.00    -0.042 I 
HETATM    5  C5  UNL     1      91.784  93.776 -43.879  1.00  0.00     0.074 A 
HETATM    6  C10 UNL     1      91.630  94.985 -43.203  1.00  0.00     0.069 A 
HETATM    7  I2  UNL     1      92.375  95.112 -41.232  1.00  0.00    -0.039 I 
HETATM    8  C11 UNL     1      91.012  96.053 -43.808  1.00  0.00     0.101 A 
ENDROOT
BRANCH   5   9
HETATM    9  N1  UNL     1      92.421  92.664 -43.267  1.00  0.00    -0.330 N 
HETATM   10  C6  UNL     1      91.866  91.666 -42.563  1.00  0.00     0.097 A 
HETATM   11  C7  UNL     1      92.814  90.770 -42.129  1.00  0.00     0.019 A 
HETATM   12  C8  UNL     1      94.017  91.250 -42.596  1.00  0.00     0.019 A 
HETATM   13  C9  UNL     1      93.756  92.410 -43.290  1.00  0.00     0.097 A 
ENDBRANCH   5   9
BRANCH   8  14
HETATM   14  O3  UNL     1      90.867  97.237 -43.128  1.00  0.00    -0.358 OA
ATOM     15  H3  UNL     1      91.475  97.956 -43.258  1.00  0.00     0.217 HD
ENDBRANCH   8  14
BRANCH   1  16
HETATM   16  C1  UNL     1      89.885  97.012 -45.782  1.00  0.00     0.212 C 
HETATM   17  O1  UNL     1      89.927  97.101 -47.034  1.00  0.00    -0.644 OA
HETATM   18  O2  UNL     1      89.196  98.006 -45.113  1.00  0.00    -0.644 OA
ENDBRANCH   1  16
TORSDOF 3
ENDMDL
