MODEL 5
REMARK VINA RESULT: -5.030770888      3.255      5.441
REMARK  3 active torsions:
REMARK  status: ('A' for Active; 'I' for Inactive)
REMARK    1  A    between atoms: C1_2  and  C2_4 
REMARK    2  A    between atoms: C5_8  and  N1_9 
REMARK    3  A    between atoms: C11_16  and  O3_17 
ROOT
HETATM    1  C2  UNL     1      92.294  91.579 -42.672  1.00  0.00     0.076 A 
HETATM    2  C3  UNL     1      91.963  91.574 -44.025  1.00  0.00     0.042 A 
HETATM    3  C4  UNL     1      91.602  92.736 -44.668  1.00  0.00     0.036 A 
HETATM    4  I1  UNL     1      91.104  92.727 -46.703  1.00  0.00    -0.042 I 
HETATM    5  C5  UNL     1      91.571  93.912 -43.958  1.00  0.00     0.074 A 
HETATM    6  C10 UNL     1      91.899  93.933 -42.604  1.00  0.00     0.069 A 
HETATM    7  I2  UNL     1      91.820  95.790 -41.601  1.00  0.00    -0.039 I 
HETATM    8  C11 UNL     1      92.261  92.779 -41.952  1.00  0.00     0.101 A 
ENDROOT
BRANCH   5   9
HETATM    9  N1  UNL     1      91.195  95.096 -44.645  1.00  0.00    -0.330 N 
HETATM   10  C6  UNL     1      89.966  95.509 -44.990  1.00  0.00     0.097 A 
HETATM   11  C7  UNL     1      90.007  96.714 -45.649  1.00  0.00     0.019 A 
HETATM   12  C8  UNL     1      91.339  97.058 -45.707  1.00  0.00     0.019 A 
HETATM   13  C9  UNL     1      92.050  96.055 -45.088  1.00  0.00     0.097 A 
ENDBRANCH   5   9
BRANCH   8  14
HETATM   14  O3  UNL     1      92.582  92.817 -40.617  1.00  0.00    -0.358 OA
ATOM     15  H3  UNL     1      91.992  93.202 -39.979  1.00  0.00     0.217 HD
ENDBRANCH   8  14
BRANCH   1  16
HETATM   16  C1  UNL     1      92.671  90.347 -42.014  1.00  0.00     0.212 C 
HETATM   17  O1  UNL     1      93.861  90.173 -41.650  1.00  0.00    -0.644 OA
HETATM   18  O2  UNL     1      91.786  89.318 -41.750  1.00  0.00    -0.644 OA
ENDBRANCH   1  16
TORSDOF 3
ENDMDL
