MODEL 15
REMARK VINA RESULT: -5.564924026      3.876      4.880
REMARK  1 active torsions:
REMARK  status: ('A' for Active; 'I' for Inactive)
REMARK    1  A    between atoms: C3_4  and  C4_5 
ROOT
HETATM    1  N1  UNL     1      87.726  91.342 -42.651  1.00  0.00    -0.100 NA
HETATM    2  C1  UNL     1      88.889  92.153 -42.576  1.00  0.00     0.072 A 
HETATM    3  C2  UNL     1      88.784  93.494 -42.245  1.00  0.00     0.044 A 
HETATM    4  C3  UNL     1      89.882  94.332 -42.163  1.00  0.00     0.051 A 
HETATM    5  C5  UNL     1      91.114  93.753 -42.429  1.00  0.00     0.037 A 
HETATM    6  C6  UNL     1      91.237  92.424 -42.756  1.00  0.00     0.037 A 
HETATM    7 BR1  UNL     1      92.948  91.620 -43.109  1.00  0.00    -0.049 Br
HETATM    8  C7  UNL     1      90.130  91.598 -42.838  1.00  0.00     0.087 A 
HETATM    9  N2  UNL     1      90.274  90.210 -43.183  1.00  0.00    -0.099 NA
ENDROOT
BRANCH   4  10
HETATM   10  C4  UNL     1      89.745  95.773 -41.773  1.00  0.00     0.417 C 
HETATM   11  F1  UNL     1      89.946  96.583 -42.881  1.00  0.00    -0.166 F 
HETATM   12  F2  UNL     1      88.508  96.027 -41.232  1.00  0.00    -0.166 F 
HETATM   13  F3  UNL     1      90.753  96.099 -40.846  1.00  0.00    -0.166 F 
ENDBRANCH   4  10
TORSDOF 1
ENDMDL
