MODEL 3
REMARK VINA RESULT: -6.633051184      2.976      3.381
REMARK  1 active torsions:
REMARK  status: ('A' for Active; 'I' for Inactive)
REMARK    1  A    between atoms: C3_4  and  C4_5 
ROOT
HETATM    1  N1  UNL     1      89.611  91.825 -43.474  1.00  0.00    -0.100 NA
HETATM    2  C1  UNL     1      90.545  90.984 -42.812  1.00  0.00     0.072 A 
HETATM    3  C2  UNL     1      91.827  91.436 -42.550  1.00  0.00     0.044 A 
HETATM    4  C3  UNL     1      92.779  90.658 -41.913  1.00  0.00     0.051 A 
HETATM    5  C5  UNL     1      92.377  89.384 -41.542  1.00  0.00     0.037 A 
HETATM    6  C6  UNL     1      91.108  88.920 -41.792  1.00  0.00     0.037 A 
HETATM    7 BR1  UNL     1      90.549  87.157 -41.262  1.00  0.00    -0.049 Br
HETATM    8  C7  UNL     1      90.167  89.707 -42.431  1.00  0.00     0.087 A 
HETATM    9  N2  UNL     1      88.845  89.208 -42.688  1.00  0.00    -0.099 NA
ENDROOT
BRANCH   4  10
HETATM   10  C4  UNL     1      94.151  91.182 -41.614  1.00  0.00     0.417 C 
HETATM   11  F1  UNL     1      94.857  90.255 -40.861  1.00  0.00    -0.166 F 
HETATM   12  F2  UNL     1      94.840  91.463 -42.768  1.00  0.00    -0.166 F 
HETATM   13  F3  UNL     1      94.040  92.342 -40.823  1.00  0.00    -0.166 F 
ENDBRANCH   4  10
TORSDOF 1
ENDMDL
