MODEL 10
REMARK VINA RESULT: -5.985302969      2.035      2.584
REMARK  1 active torsions:
REMARK  status: ('A' for Active; 'I' for Inactive)
REMARK    1  A    between atoms: C3_4  and  C4_5 
ROOT
HETATM    1  N1  UNL     1      90.616  94.146 -43.096  1.00  0.00    -0.100 NA
HETATM    2  C1  UNL     1      91.090  92.864 -42.709  1.00  0.00     0.072 A 
HETATM    3  C2  UNL     1      92.407  92.698 -42.314  1.00  0.00     0.044 A 
HETATM    4  C3  UNL     1      92.924  91.471 -41.933  1.00  0.00     0.051 A 
HETATM    5  C5  UNL     1      92.043  90.401 -41.963  1.00  0.00     0.037 A 
HETATM    6  C6  UNL     1      90.732  90.548 -42.350  1.00  0.00     0.037 A 
HETATM    7 BR1  UNL     1      89.509  89.065 -42.376  1.00  0.00    -0.049 Br
HETATM    8  C7  UNL     1      90.229  91.780 -42.731  1.00  0.00     0.087 A 
HETATM    9  N2  UNL     1      88.857  91.918 -43.135  1.00  0.00    -0.099 NA
ENDROOT
BRANCH   4  10
HETATM   10  C4  UNL     1      94.345  91.324 -41.480  1.00  0.00     0.417 C 
HETATM   11  F1  UNL     1      94.509  90.110 -40.828  1.00  0.00    -0.166 F 
HETATM   12  F2  UNL     1      95.216  91.402 -42.539  1.00  0.00    -0.166 F 
HETATM   13  F3  UNL     1      94.637  92.329 -40.539  1.00  0.00    -0.166 F 
ENDBRANCH   4  10
TORSDOF 1
ENDMDL
