MODEL 5
REMARK VINA RESULT: -6.630730904      2.965      3.375
REMARK  1 active torsions:
REMARK  status: ('A' for Active; 'I' for Inactive)
REMARK    1  A    between atoms: C3_4  and  C4_5 
ROOT
HETATM    1  N1  UNL     1      89.631  91.839 -43.458  1.00  0.00    -0.100 NA
HETATM    2  C1  UNL     1      90.565  91.000 -42.794  1.00  0.00     0.072 A 
HETATM    3  C2  UNL     1      91.840  91.462 -42.513  1.00  0.00     0.044 A 
HETATM    4  C3  UNL     1      92.792  90.686 -41.874  1.00  0.00     0.051 A 
HETATM    5  C5  UNL     1      92.398  89.404 -41.520  1.00  0.00     0.037 A 
HETATM    6  C6  UNL     1      91.137  88.931 -41.789  1.00  0.00     0.037 A 
HETATM    7 BR1  UNL     1      90.589  87.158 -41.283  1.00  0.00    -0.049 Br
HETATM    8  C7  UNL     1      90.195  89.716 -42.431  1.00  0.00     0.087 A 
HETATM    9  N2  UNL     1      88.880  89.207 -42.707  1.00  0.00    -0.099 NA
ENDROOT
BRANCH   4  10
HETATM   10  C4  UNL     1      94.156  91.220 -41.554  1.00  0.00     0.417 C 
HETATM   11  F1  UNL     1      94.854  91.463 -42.728  1.00  0.00    -0.166 F 
HETATM   12  F2  UNL     1      94.078  92.374 -40.814  1.00  0.00    -0.166 F 
HETATM   13  F3  UNL     1      94.881  90.241 -40.848  1.00  0.00    -0.166 F 
ENDBRANCH   4  10
TORSDOF 1
ENDMDL
