MODEL 18
REMARK VINA RESULT: -5.514350414      6.271      6.587
REMARK  1 active torsions:
REMARK  status: ('A' for Active; 'I' for Inactive)
REMARK    1  A    between atoms: C3_4  and  C4_5 
ROOT
HETATM    1  N1  UNL     1      86.688  85.059 -40.613  1.00  0.00    -0.100 NA
HETATM    2  C1  UNL     1      87.496  86.160 -41.002  1.00  0.00     0.072 A 
HETATM    3  C2  UNL     1      88.875  86.082 -40.905  1.00  0.00     0.044 A 
HETATM    4  C3  UNL     1      89.710  87.126 -41.265  1.00  0.00     0.051 A 
HETATM    5  C5  UNL     1      89.088  88.271 -41.737  1.00  0.00     0.037 A 
HETATM    6  C6  UNL     1      87.721  88.365 -41.841  1.00  0.00     0.037 A 
HETATM    7 BR1  UNL     1      86.861  89.950 -42.512  1.00  0.00    -0.049 Br
HETATM    8  C7  UNL     1      86.897  87.315 -41.476  1.00  0.00     0.087 A 
HETATM    9  N2  UNL     1      85.469  87.428 -41.590  1.00  0.00    -0.099 NA
ENDROOT
BRANCH   4  10
HETATM   10  C4  UNL     1      91.202  87.004 -41.179  1.00  0.00     0.417 C 
HETATM   11  F1  UNL     1      91.581  86.759 -39.867  1.00  0.00    -0.166 F 
HETATM   12  F2  UNL     1      91.668  86.000 -41.992  1.00  0.00    -0.166 F 
HETATM   13  F3  UNL     1      91.787  88.232 -41.545  1.00  0.00    -0.166 F 
ENDBRANCH   4  10
TORSDOF 1
ENDMDL
