MODEL 13
REMARK VINA RESULT: -5.740963293      3.834      4.477
REMARK  1 active torsions:
REMARK  status: ('A' for Active; 'I' for Inactive)
REMARK    1  A    between atoms: C3_4  and  C4_5 
ROOT
HETATM    1  N1  UNL     1      94.099  90.620 -41.491  1.00  0.00    -0.100 NA
HETATM    2  C1  UNL     1      92.753  90.374 -41.869  1.00  0.00     0.072 A 
HETATM    3  C2  UNL     1      92.141  89.179 -41.529  1.00  0.00     0.044 A 
HETATM    4  C3  UNL     1      90.834  88.883 -41.877  1.00  0.00     0.051 A 
HETATM    5  C5  UNL     1      90.156  89.859 -42.591  1.00  0.00     0.037 A 
HETATM    6  C6  UNL     1      90.747  91.051 -42.935  1.00  0.00     0.037 A 
HETATM    7 BR1  UNL     1      89.798  92.410 -43.912  1.00  0.00    -0.049 Br
HETATM    8  C7  UNL     1      92.055  91.333 -42.583  1.00  0.00     0.087 A 
HETATM    9  N2  UNL     1      92.660  92.583 -42.951  1.00  0.00    -0.099 NA
ENDROOT
BRANCH   4  10
HETATM   10  C4  UNL     1      90.184  87.595 -41.470  1.00  0.00     0.417 C 
HETATM   11  F1  UNL     1      89.876  87.628 -40.118  1.00  0.00    -0.166 F 
HETATM   12  F2  UNL     1      89.045  87.359 -42.199  1.00  0.00    -0.166 F 
HETATM   13  F3  UNL     1      91.099  86.539 -41.649  1.00  0.00    -0.166 F 
ENDBRANCH   4  10
TORSDOF 1
ENDMDL
