MODEL 17
REMARK VINA RESULT: -5.530001291      4.264      4.698
REMARK  1 active torsions:
REMARK  status: ('A' for Active; 'I' for Inactive)
REMARK    1  A    between atoms: C3_4  and  C4_5 
ROOT
HETATM    1  N1  UNL     1      87.453  89.954 -42.475  1.00  0.00    -0.100 NA
HETATM    2  C1  UNL     1      88.841  89.691 -42.330  1.00  0.00     0.072 A 
HETATM    3  C2  UNL     1      89.775  90.618 -42.760  1.00  0.00     0.044 A 
HETATM    4  C3  UNL     1      91.139  90.412 -42.649  1.00  0.00     0.051 A 
HETATM    5  C5  UNL     1      91.531  89.213 -42.073  1.00  0.00     0.037 A 
HETATM    6  C6  UNL     1      90.618  88.282 -41.639  1.00  0.00     0.037 A 
HETATM    7 BR1  UNL     1      91.164  86.626 -40.826  1.00  0.00    -0.049 Br
HETATM    8  C7  UNL     1      89.256  88.500 -41.758  1.00  0.00     0.087 A 
HETATM    9  N2  UNL     1      88.313  87.517 -41.301  1.00  0.00    -0.099 NA
ENDROOT
BRANCH   4  10
HETATM   10  C4  UNL     1      92.130  91.445 -43.095  1.00  0.00     0.417 C 
HETATM   11  F1  UNL     1      92.234  91.433 -44.478  1.00  0.00    -0.166 F 
HETATM   12  F2  UNL     1      91.768  92.699 -42.668  1.00  0.00    -0.166 F 
HETATM   13  F3  UNL     1      93.402  91.112 -42.591  1.00  0.00    -0.166 F 
ENDBRANCH   4  10
TORSDOF 1
ENDMDL
