MODEL 1
REMARK VINA RESULT: -12.428687897      0.000      0.000
REMARK  5 active torsions:
REMARK  status: ('A' for Active; 'I' for Inactive)
REMARK       I    between atoms: C1_2  and  N1_3 
REMARK    1  A    between atoms: C1_2  and  C18_29 
REMARK    2  A    between atoms: N1_3  and  C2_5 
REMARK    3  A    between atoms: N2_12  and  S1_13 
REMARK    4  A    between atoms: S1_13  and  C9_16 
REMARK    5  A    between atoms: C13_20  and  C14_21 
ROOT
HETATM    1  C2  UNL     1      -8.952 -28.155 -29.137  1.00  0.00     0.035 A 
HETATM    2  C3  UNL     1      -8.228 -28.141 -30.294  1.00  0.00     0.032 A 
HETATM    3  C4  UNL     1      -7.755 -29.354 -30.803  1.00  0.00     0.039 A 
HETATM    4  C5  UNL     1      -8.014 -30.535 -30.155  1.00  0.00     0.076 A 
HETATM    5  C6  UNL     1      -8.746 -30.580 -28.979  1.00  0.00    -0.004 A 
HETATM    6  C7  UNL     1      -9.193 -29.366 -28.510  1.00  0.00     0.041 A 
HETATM    7  C8  UNL     1      -9.115 -31.728 -28.133  1.00  0.00     0.176 C 
HETATM    8  N2  UNL     1      -8.995 -32.987 -28.758  1.00  0.00    -0.300 N 
HETATM    9  C16 UNL     1      -9.308 -33.039 -30.164  1.00  0.00     0.162 C 
HETATM   10  C17 UNL     1      -8.040 -32.960 -31.011  1.00  0.00     0.196 C 
HETATM   11  O4  UNL     1      -7.482 -31.666 -30.782  1.00  0.00    -0.349 OA
ENDROOT
BRANCH   8  12
HETATM   12  S1  UNL     1      -7.705 -33.991 -28.320  1.00  0.00     0.261 S 
HETATM   13  O2  UNL     1      -6.363 -33.316 -28.482  1.00  0.00    -0.200 OA
HETATM   14  O3  UNL     1      -7.753 -35.241 -29.168  1.00  0.00    -0.200 OA
BRANCH  12  15
HETATM   15  C9  UNL     1      -7.797 -34.544 -26.658  1.00  0.00     0.080 A 
HETATM   16  C10 UNL     1      -8.849 -34.244 -25.861  1.00  0.00     0.025 A 
HETATM   17  C11 UNL     1      -8.898 -34.757 -24.559  1.00  0.00     0.002 A 
HETATM   18  C12 UNL     1      -7.871 -35.558 -24.116  1.00  0.00     0.016 A 
HETATM   19  C13 UNL     1      -6.806 -35.848 -24.959  1.00  0.00     0.049 A 
HETATM   20  C15 UNL     1      -6.737 -35.358 -26.233  1.00  0.00     0.041 A 
BRANCH  19  21
HETATM   21  C14 UNL     1      -5.730 -36.734 -24.457  1.00  0.00     0.417 C 
HETATM   22  F1  UNL     1      -4.946 -37.138 -25.531  1.00  0.00    -0.166 F 
HETATM   23  F2  UNL     1      -4.960 -36.086 -23.532  1.00  0.00    -0.166 F 
HETATM   24  F3  UNL     1      -6.327 -37.876 -23.884  1.00  0.00    -0.166 F 
ENDBRANCH  19  21
ENDBRANCH  12  15
ENDBRANCH   8  12
BRANCH   1  25
HETATM   25  N1  UNL     1      -9.428 -26.918 -28.555  1.00  0.00    -0.323 N 
HETATM   26  C1  UNL     1     -10.580 -26.222 -29.005  1.00  0.00     0.261 C 
HETATM   27  O1  UNL     1     -11.170 -26.757 -29.990  1.00  0.00    -0.267 OA
ATOM     28  H1  UNL     1      -8.903 -26.523 -27.775  1.00  0.00     0.169 HD
BRANCH  26  29
HETATM   29  C18 UNL     1     -11.113 -24.988 -28.442  1.00  0.00     0.092 A 
HETATM   30  C19 UNL     1     -10.597 -23.752 -28.610  1.00  0.00     0.133 A 
HETATM   31  F4  UNL     1      -9.473 -23.557 -29.340  1.00  0.00    -0.205 F 
HETATM   32  C20 UNL     1     -11.228 -22.650 -28.016  1.00  0.00     0.043 A 
HETATM   33  C21 UNL     1     -12.374 -22.800 -27.258  1.00  0.00     0.005 A 
HETATM   34  C22 UNL     1     -12.900 -24.059 -27.086  1.00  0.00     0.025 A 
HETATM   35  C23 UNL     1     -12.276 -25.129 -27.672  1.00  0.00     0.052 A 
HETATM   36 CL1  UNL     1     -12.986 -26.715 -27.404  1.00  0.00    -0.083 Cl
ENDBRANCH  26  29
ENDBRANCH   1  25
TORSDOF 5
ENDMDL
