MODEL 2
REMARK VINA RESULT: -11.909843740      1.400      1.745
REMARK  5 active torsions:
REMARK  status: ('A' for Active; 'I' for Inactive)
REMARK       I    between atoms: C1_2  and  N1_3 
REMARK    1  A    between atoms: C1_2  and  C18_29 
REMARK    2  A    between atoms: N1_3  and  C2_5 
REMARK    3  A    between atoms: N2_12  and  S1_13 
REMARK    4  A    between atoms: S1_13  and  C9_16 
REMARK    5  A    between atoms: C13_20  and  C14_21 
ROOT
HETATM    1  C2  UNL     1      -9.279 -27.930 -28.503  1.00  0.00     0.035 A 
HETATM    2  C3  UNL     1      -8.612 -27.828 -29.690  1.00  0.00     0.032 A 
HETATM    3  C4  UNL     1      -8.161 -28.999 -30.307  1.00  0.00     0.039 A 
HETATM    4  C5  UNL     1      -8.385 -30.225 -29.733  1.00  0.00     0.076 A 
HETATM    5  C6  UNL     1      -9.059 -30.359 -28.529  1.00  0.00    -0.004 A 
HETATM    6  C7  UNL     1      -9.484 -29.184 -27.953  1.00  0.00     0.041 A 
HETATM    7  C8  UNL     1      -9.382 -31.566 -27.750  1.00  0.00     0.176 C 
HETATM    8  N2  UNL     1      -9.290 -32.776 -28.469  1.00  0.00    -0.300 N 
HETATM    9  C16 UNL     1      -9.672 -32.730 -29.857  1.00  0.00     0.162 C 
HETATM   10  C17 UNL     1      -8.447 -32.583 -30.758  1.00  0.00     0.196 C 
HETATM   11  O4  UNL     1      -7.881 -31.305 -30.465  1.00  0.00    -0.349 OA
ENDROOT
BRANCH   8  12
HETATM   12  S1  UNL     1      -7.977 -33.801 -28.167  1.00  0.00     0.261 S 
HETATM   13  O2  UNL     1      -6.646 -33.117 -28.376  1.00  0.00    -0.200 OA
HETATM   14  O3  UNL     1      -8.080 -35.003 -29.077  1.00  0.00    -0.200 OA
BRANCH  12  15
HETATM   15  C9  UNL     1      -7.966 -34.444 -26.535  1.00  0.00     0.080 A 
HETATM   16  C10 UNL     1      -8.971 -34.198 -25.662  1.00  0.00     0.025 A 
HETATM   17  C11 UNL     1      -8.939 -34.781 -24.390  1.00  0.00     0.002 A 
HETATM   18  C12 UNL     1      -7.882 -35.594 -24.052  1.00  0.00     0.016 A 
HETATM   19  C13 UNL     1      -6.867 -35.827 -24.971  1.00  0.00     0.049 A 
HETATM   20  C15 UNL     1      -6.877 -35.269 -26.218  1.00  0.00     0.041 A 
BRANCH  19  21
HETATM   21  C14 UNL     1      -5.756 -36.728 -24.582  1.00  0.00     0.417 C 
HETATM   22  F1  UNL     1      -6.292 -37.876 -24.011  1.00  0.00    -0.166 F 
HETATM   23  F2  UNL     1      -4.994 -37.056 -25.668  1.00  0.00    -0.166 F 
HETATM   24  F3  UNL     1      -4.971 -36.069 -23.613  1.00  0.00    -0.166 F 
ENDBRANCH  19  21
ENDBRANCH  12  15
ENDBRANCH   8  12
BRANCH   1  25
HETATM   25  N1  UNL     1      -9.728 -26.740 -27.811  1.00  0.00    -0.323 N 
HETATM   26  C1  UNL     1     -11.007 -26.152 -27.995  1.00  0.00     0.261 C 
HETATM   27  O1  UNL     1     -11.742 -26.739 -28.844  1.00  0.00    -0.267 OA
ATOM     28  H1  UNL     1      -9.087 -26.298 -27.152  1.00  0.00     0.169 HD
BRANCH  26  29
HETATM   29  C18 UNL     1     -11.516 -24.971 -27.310  1.00  0.00     0.092 A 
HETATM   30  C19 UNL     1     -12.412 -24.965 -26.300  1.00  0.00     0.133 A 
HETATM   31  F4  UNL     1     -12.948 -26.118 -25.834  1.00  0.00    -0.205 F 
HETATM   32  C20 UNL     1     -12.802 -23.747 -25.725  1.00  0.00     0.043 A 
HETATM   33  C21 UNL     1     -12.286 -22.544 -26.172  1.00  0.00     0.005 A 
HETATM   34  C22 UNL     1     -11.374 -22.549 -27.200  1.00  0.00     0.025 A 
HETATM   35  C23 UNL     1     -10.999 -23.746 -27.754  1.00  0.00     0.052 A 
HETATM   36 CL1  UNL     1      -9.840 -23.689 -29.076  1.00  0.00    -0.083 Cl
ENDBRANCH  26  29
ENDBRANCH   1  25
TORSDOF 5
ENDMDL
