MODEL 3
REMARK VINA RESULT: -11.244645535      3.504     10.563
REMARK  5 active torsions:
REMARK  status: ('A' for Active; 'I' for Inactive)
REMARK       I    between atoms: C1_2  and  N1_3 
REMARK    1  A    between atoms: C1_2  and  C18_29 
REMARK    2  A    between atoms: N1_3  and  C2_5 
REMARK    3  A    between atoms: N2_12  and  S1_13 
REMARK    4  A    between atoms: S1_13  and  C9_16 
REMARK    5  A    between atoms: C13_20  and  C14_21 
ROOT
HETATM    1  C2  UNL     1      -6.783 -32.925 -28.725  1.00  0.00     0.035 A 
HETATM    2  C3  UNL     1      -6.251 -32.852 -29.980  1.00  0.00     0.032 A 
HETATM    3  C4  UNL     1      -6.756 -31.897 -30.868  1.00  0.00     0.039 A 
HETATM    4  C5  UNL     1      -7.765 -31.049 -30.485  1.00  0.00     0.076 A 
HETATM    5  C6  UNL     1      -8.324 -31.100 -29.218  1.00  0.00    -0.004 A 
HETATM    6  C7  UNL     1      -7.801 -32.055 -28.376  1.00  0.00     0.041 A 
HETATM    7  C8  UNL     1      -9.410 -30.301 -28.626  1.00  0.00     0.176 C 
HETATM    8  N2  UNL     1      -9.708 -29.106 -29.314  1.00  0.00    -0.300 N 
HETATM    9  C16 UNL     1      -8.595 -28.416 -29.916  1.00  0.00     0.162 C 
HETATM   10  C17 UNL     1      -8.479 -28.755 -31.401  1.00  0.00     0.196 C 
HETATM   11  O4  UNL     1      -8.165 -30.145 -31.475  1.00  0.00    -0.349 OA
ENDROOT
BRANCH   8  12
HETATM   12  S1  UNL     1     -11.123 -29.033 -30.239  1.00  0.00     0.261 S 
HETATM   13  O2  UNL     1     -11.873 -30.345 -30.259  1.00  0.00    -0.200 OA
HETATM   14  O3  UNL     1     -10.761 -28.631 -31.650  1.00  0.00    -0.200 OA
BRANCH  12  15
HETATM   15  C9  UNL     1     -12.252 -27.814 -29.676  1.00  0.00     0.080 A 
HETATM   16  C10 UNL     1     -12.080 -27.170 -28.497  1.00  0.00     0.025 A 
HETATM   17  C11 UNL     1     -12.981 -26.166 -28.121  1.00  0.00     0.002 A 
HETATM   18  C12 UNL     1     -14.026 -25.855 -28.961  1.00  0.00     0.016 A 
HETATM   19  C13 UNL     1     -14.173 -26.534 -30.163  1.00  0.00     0.049 A 
HETATM   20  C15 UNL     1     -13.307 -27.517 -30.551  1.00  0.00     0.041 A 
BRANCH  19  21
HETATM   21  C14 UNL     1     -15.296 -26.156 -31.054  1.00  0.00     0.417 C 
HETATM   22  F1  UNL     1     -14.778 -25.565 -32.199  1.00  0.00    -0.166 F 
HETATM   23  F2  UNL     1     -16.041 -27.253 -31.387  1.00  0.00    -0.166 F 
HETATM   24  F3  UNL     1     -16.095 -25.208 -30.381  1.00  0.00    -0.166 F 
ENDBRANCH  19  21
ENDBRANCH  12  15
ENDBRANCH   8  12
BRANCH   1  25
HETATM   25  N1  UNL     1      -6.316 -33.925 -27.789  1.00  0.00    -0.323 N 
HETATM   26  C1  UNL     1      -6.893 -35.215 -27.653  1.00  0.00     0.261 C 
HETATM   27  O1  UNL     1      -7.886 -35.432 -28.409  1.00  0.00    -0.267 OA
ATOM     28  H1  UNL     1      -5.524 -33.689 -27.191  1.00  0.00     0.169 HD
BRANCH  26  29
HETATM   29  C18 UNL     1      -6.449 -36.264 -26.744  1.00  0.00     0.092 A 
HETATM   30  C19 UNL     1      -5.725 -37.352 -27.083  1.00  0.00     0.133 A 
HETATM   31  F4  UNL     1      -5.351 -37.572 -28.365  1.00  0.00    -0.205 F 
HETATM   32  C20 UNL     1      -5.356 -38.275 -26.094  1.00  0.00     0.043 A 
HETATM   33  C21 UNL     1      -5.720 -38.096 -24.772  1.00  0.00     0.005 A 
HETATM   34  C22 UNL     1      -6.458 -36.989 -24.427  1.00  0.00     0.025 A 
HETATM   35  C23 UNL     1      -6.812 -36.092 -25.401  1.00  0.00     0.052 A 
HETATM   36 CL1  UNL     1      -7.768 -34.703 -24.902  1.00  0.00    -0.083 Cl
ENDBRANCH  26  29
ENDBRANCH   1  25
TORSDOF 5
ENDMDL
