MODEL 3
REMARK VINA RESULT: -8.153848823      2.528      6.191
REMARK  6 active torsions:
REMARK  status: ('A' for Active; 'I' for Inactive)
REMARK    1  A    between atoms: C1_2  and  C2_4 
REMARK    2  A    between atoms: N2_6  and  C4_7 
REMARK    3  A    between atoms: C5_9  and  C6_10 
REMARK    4  A    between atoms: C6_10  and  O3_11 
REMARK    5  A    between atoms: C7_13  and  O4_14 
REMARK    6  A    between atoms: C8_16  and  O5_17 
ROOT
HETATM    1  C2  UNL     1      10.917  -8.259  -5.751  1.00  0.00     0.062 A 
HETATM    2  C3  UNL     1      10.355  -6.993  -5.519  1.00  0.00     0.113 A 
HETATM    3  N2  UNL     1      10.757  -6.550  -4.346  1.00  0.00    -0.311 N 
HETATM    4  C9  UNL     1      11.560  -7.469  -3.795  1.00  0.00     0.125 A 
HETATM    5  N3  UNL     1      12.239  -7.537  -2.623  1.00  0.00    -0.338 N 
ATOM      6  H3  UNL     1      12.165  -6.751  -1.976  1.00  0.00     0.168 HD
HETATM    7  C10 UNL     1      13.002  -8.582  -2.269  1.00  0.00     0.183 A 
HETATM    8  N4  UNL     1      13.099  -9.617  -3.121  1.00  0.00    -0.340 N 
ATOM      9  H4  UNL     1      13.676 -10.416  -2.862  1.00  0.00     0.167 HD
HETATM   10  C11 UNL     1      12.463  -9.633  -4.300  1.00  0.00     0.132 A 
HETATM   11  N5  UNL     1      12.633 -10.764  -5.113  1.00  0.00    -0.082 NA
HETATM   12  C12 UNL     1      11.682  -8.560  -4.655  1.00  0.00     0.066 A 
ENDROOT
BRANCH   3  13
HETATM   13  C4  UNL     1      10.418  -5.293  -3.712  1.00  0.00     0.261 C 
HETATM   14  O2  UNL     1      11.546  -4.635  -3.206  1.00  0.00    -0.353 OA
HETATM   15  C5  UNL     1      10.947  -3.547  -2.561  1.00  0.00     0.179 C 
HETATM   16  C7  UNL     1       9.779  -4.111  -1.789  1.00  0.00     0.182 C 
HETATM   17  C8  UNL     1       9.595  -5.479  -2.459  1.00  0.00     0.198 C 
BRANCH  15  18
HETATM   18  C6  UNL     1      11.928  -2.814  -1.678  1.00  0.00     0.198 C 
BRANCH  18  19
HETATM   19  O3  UNL     1      11.471  -2.612  -0.399  1.00  0.00    -0.398 OA
ATOM     20  H3  UNL     1      11.853  -1.853   0.024  1.00  0.00     0.209 HD
ENDBRANCH  18  19
ENDBRANCH  15  18
BRANCH  16  21
HETATM   21  O4  UNL     1       8.675  -3.287  -2.079  1.00  0.00    -0.390 OA
ATOM     22  H4  UNL     1       8.166  -3.229  -1.279  1.00  0.00     0.210 HD
ENDBRANCH  16  21
BRANCH  17  23
HETATM   23  O5  UNL     1       8.285  -5.699  -2.822  1.00  0.00    -0.388 OA
ATOM     24  H5  UNL     1       8.236  -5.750  -3.769  1.00  0.00     0.210 HD
ENDBRANCH  17  23
ENDBRANCH   3  13
BRANCH   1  25
HETATM   25  C1  UNL     1      10.688  -9.039  -6.948  1.00  0.00     0.267 C 
HETATM   26  N1  UNL     1       9.580  -9.819  -7.276  1.00  0.00    -0.057 NA
HETATM   27  O1  UNL     1      11.611  -9.037  -7.861  1.00  0.00    -0.271 OA
ENDBRANCH   1  25
TORSDOF 6
ENDMDL
