MODEL 18
REMARK VINA RESULT: -7.519315999      5.926      9.563
REMARK  6 active torsions:
REMARK  status: ('A' for Active; 'I' for Inactive)
REMARK    1  A    between atoms: C1_2  and  C2_4 
REMARK    2  A    between atoms: N2_6  and  C4_7 
REMARK    3  A    between atoms: C5_9  and  C6_10 
REMARK    4  A    between atoms: C6_10  and  O3_11 
REMARK    5  A    between atoms: C7_13  and  O4_14 
REMARK    6  A    between atoms: C8_16  and  O5_17 
ROOT
HETATM    1  C2  UNL     1      17.010 -11.578  -9.503  1.00  0.00     0.062 A 
HETATM    2  C3  UNL     1      15.800 -11.125  -8.951  1.00  0.00     0.113 A 
HETATM    3  N2  UNL     1      15.159 -10.406  -9.848  1.00  0.00    -0.311 N 
HETATM    4  C9  UNL     1      15.893 -10.364 -10.967  1.00  0.00     0.125 A 
HETATM    5  N3  UNL     1      15.721  -9.779 -12.178  1.00  0.00    -0.338 N 
ATOM      6  H3  UNL     1      14.870  -9.239 -12.337  1.00  0.00     0.168 HD
HETATM    7  C10 UNL     1      16.611  -9.873 -13.179  1.00  0.00     0.183 A 
HETATM    8  N4  UNL     1      17.732 -10.584 -12.969  1.00  0.00    -0.340 N 
ATOM      9  H4  UNL     1      18.414 -10.660 -13.723  1.00  0.00     0.167 HD
HETATM   10  C11 UNL     1      17.982 -11.195 -11.804  1.00  0.00     0.132 A 
HETATM   11  N5  UNL     1      19.184 -11.911 -11.693  1.00  0.00    -0.082 NA
HETATM   12  C12 UNL     1      17.067 -11.094 -10.784  1.00  0.00     0.066 A 
ENDROOT
BRANCH   3  13
HETATM   13  C4  UNL     1      13.877  -9.748  -9.701  1.00  0.00     0.261 C 
HETATM   14  O2  UNL     1      13.753  -9.101  -8.467  1.00  0.00    -0.353 OA
HETATM   15  C5  UNL     1      12.424  -8.665  -8.531  1.00  0.00     0.179 C 
HETATM   16  C7  UNL     1      11.626  -9.837  -9.047  1.00  0.00     0.182 C 
HETATM   17  C8  UNL     1      12.727 -10.725  -9.642  1.00  0.00     0.198 C 
BRANCH  15  18
HETATM   18  C6  UNL     1      11.934  -8.172  -7.191  1.00  0.00     0.198 C 
BRANCH  18  19
HETATM   19  O3  UNL     1      12.941  -7.743  -6.362  1.00  0.00    -0.398 OA
ATOM     20  H3  UNL     1      12.932  -6.806  -6.208  1.00  0.00     0.209 HD
ENDBRANCH  18  19
ENDBRANCH  15  18
BRANCH  16  21
HETATM   21  O4  UNL     1      10.808  -9.339 -10.079  1.00  0.00    -0.390 OA
ATOM     22  H4  UNL     1      11.231  -9.576 -10.896  1.00  0.00     0.210 HD
ENDBRANCH  16  21
BRANCH  17  23
HETATM   23  O5  UNL     1      12.424 -11.127 -10.924  1.00  0.00    -0.388 OA
ATOM     24  H5  UNL     1      13.197 -11.019 -11.467  1.00  0.00     0.210 HD
ENDBRANCH  17  23
ENDBRANCH   3  13
BRANCH   1  25
HETATM   25  C1  UNL     1      17.965 -12.400  -8.793  1.00  0.00     0.267 C 
HETATM   26  N1  UNL     1      18.736 -13.454  -9.282  1.00  0.00    -0.057 NA
HETATM   27  O1  UNL     1      18.162 -12.155  -7.533  1.00  0.00    -0.271 OA
ENDBRANCH   1  25
TORSDOF 6
ENDMDL
