MODEL 2
REMARK VINA RESULT: -8.441675837      2.680      6.317
REMARK  6 active torsions:
REMARK  status: ('A' for Active; 'I' for Inactive)
REMARK    1  A    between atoms: C1_2  and  C2_4 
REMARK    2  A    between atoms: N2_6  and  C4_7 
REMARK    3  A    between atoms: C5_9  and  C6_10 
REMARK    4  A    between atoms: C6_10  and  O3_11 
REMARK    5  A    between atoms: C7_13  and  O4_14 
REMARK    6  A    between atoms: C8_16  and  O5_17 
ROOT
HETATM    1  C2  UNL     1      12.400  -8.377  -6.858  1.00  0.00     0.062 A 
HETATM    2  C3  UNL     1      11.797  -7.501  -5.940  1.00  0.00     0.113 A 
HETATM    3  N2  UNL     1      11.911  -8.000  -4.727  1.00  0.00    -0.311 N 
HETATM    4  C9  UNL     1      12.561  -9.168  -4.805  1.00  0.00     0.125 A 
HETATM    5  N3  UNL     1      12.944 -10.089  -3.887  1.00  0.00    -0.338 N 
ATOM      6  H3  UNL     1      12.719  -9.917  -2.907  1.00  0.00     0.168 HD
HETATM    7  C10 UNL     1      13.604 -11.216  -4.199  1.00  0.00     0.183 A 
HETATM    8  N4  UNL     1      13.900 -11.443  -5.489  1.00  0.00    -0.340 N 
ATOM      9  H4  UNL     1      14.400 -12.297  -5.737  1.00  0.00     0.167 HD
HETATM   10  C11 UNL     1      13.560 -10.587  -6.461  1.00  0.00     0.132 A 
HETATM   11  N5  UNL     1      13.919 -10.923  -7.776  1.00  0.00    -0.082 NA
HETATM   12  C12 UNL     1      12.885  -9.436  -6.135  1.00  0.00     0.066 A 
ENDROOT
BRANCH   3  13
HETATM   13  C4  UNL     1      11.431  -7.428  -3.487  1.00  0.00     0.261 C 
HETATM   14  O2  UNL     1      10.431  -6.471  -3.698  1.00  0.00    -0.353 OA
HETATM   15  C5  UNL     1      10.236  -6.004  -2.393  1.00  0.00     0.179 C 
HETATM   16  C7  UNL     1      11.614  -5.791  -1.816  1.00  0.00     0.182 C 
HETATM   17  C8  UNL     1      12.485  -6.606  -2.782  1.00  0.00     0.198 C 
BRANCH  15  18
HETATM   18  C6  UNL     1       9.396  -4.749  -2.370  1.00  0.00     0.198 C 
BRANCH  18  19
HETATM   19  O3  UNL     1       8.169  -4.899  -2.968  1.00  0.00    -0.398 OA
ATOM     20  H3  UNL     1       7.757  -4.075  -3.200  1.00  0.00     0.209 HD
ENDBRANCH  18  19
ENDBRANCH  15  18
BRANCH  16  21
HETATM   21  O4  UNL     1      11.614  -6.401  -0.547  1.00  0.00    -0.390 OA
ATOM     22  H4  UNL     1      12.069  -7.228  -0.646  1.00  0.00     0.210 HD
ENDBRANCH  16  21
BRANCH  17  23
HETATM   23  O5  UNL     1      13.333  -7.459  -2.111  1.00  0.00    -0.388 OA
ATOM     24  H5  UNL     1      14.128  -7.560  -2.622  1.00  0.00     0.210 HD
ENDBRANCH  17  23
ENDBRANCH   3  13
BRANCH   1  25
HETATM   25  C1  UNL     1      12.460  -8.140  -8.283  1.00  0.00     0.267 C 
HETATM   26  N1  UNL     1      11.837  -8.850  -9.308  1.00  0.00    -0.057 NA
HETATM   27  O1  UNL     1      13.178  -7.143  -8.705  1.00  0.00    -0.271 OA
ENDBRANCH   1  25
TORSDOF 6
ENDMDL
