MODEL 1
REMARK VINA RESULT: -8.665888938      0.000      0.000
REMARK  6 active torsions:
REMARK  status: ('A' for Active; 'I' for Inactive)
REMARK    1  A    between atoms: C1_2  and  C2_4 
REMARK    2  A    between atoms: N2_6  and  C4_7 
REMARK    3  A    between atoms: C5_9  and  C6_10 
REMARK    4  A    between atoms: C6_10  and  O3_11 
REMARK    5  A    between atoms: C7_13  and  O4_14 
REMARK    6  A    between atoms: C8_16  and  O5_17 
ROOT
HETATM    1  C2  UNL     1      10.326  -5.561  -3.531  1.00  0.00     0.062 A 
HETATM    2  C3  UNL     1      10.586  -6.446  -4.591  1.00  0.00     0.113 A 
HETATM    3  N2  UNL     1      11.882  -6.665  -4.663  1.00  0.00    -0.311 N 
HETATM    4  C9  UNL     1      12.488  -5.965  -3.697  1.00  0.00     0.125 A 
HETATM    5  N3  UNL     1      13.781  -5.820  -3.316  1.00  0.00    -0.338 N 
ATOM      6  H3  UNL     1      14.497  -6.327  -3.836  1.00  0.00     0.168 HD
HETATM    7  C10 UNL     1      14.169  -5.044  -2.291  1.00  0.00     0.183 A 
HETATM    8  N4  UNL     1      13.226  -4.376  -1.606  1.00  0.00    -0.340 N 
ATOM      9  H4  UNL     1      13.511  -3.784  -0.826  1.00  0.00     0.167 HD
HETATM   10  C11 UNL     1      11.926  -4.462  -1.913  1.00  0.00     0.132 A 
HETATM   11  N5  UNL     1      11.025  -3.721  -1.132  1.00  0.00    -0.082 NA
HETATM   12  C12 UNL     1      11.535  -5.257  -2.964  1.00  0.00     0.066 A 
ENDROOT
BRANCH   3  13
HETATM   13  C4  UNL     1      12.585  -7.510  -5.606  1.00  0.00     0.261 C 
HETATM   14  O2  UNL     1      12.157  -7.302  -6.923  1.00  0.00    -0.353 OA
HETATM   15  C5  UNL     1      12.883  -8.294  -7.593  1.00  0.00     0.179 C 
HETATM   16  C7  UNL     1      12.745  -9.546  -6.762  1.00  0.00     0.182 C 
HETATM   17  C8  UNL     1      12.269  -8.976  -5.419  1.00  0.00     0.198 C 
BRANCH  15  18
HETATM   18  C6  UNL     1      12.394  -8.480  -9.010  1.00  0.00     0.198 C 
BRANCH  18  19
HETATM   19  O3  UNL     1      13.402  -8.480  -9.942  1.00  0.00    -0.398 OA
ATOM     20  H3  UNL     1      13.177  -8.021 -10.743  1.00  0.00     0.209 HD
ENDBRANCH  18  19
ENDBRANCH  15  18
BRANCH  16  21
HETATM   21  O4  UNL     1      14.042 -10.075  -6.620  1.00  0.00    -0.390 OA
ATOM     22  H4  UNL     1      14.147 -10.287  -5.700  1.00  0.00     0.210 HD
ENDBRANCH  16  21
BRANCH  17  23
HETATM   23  O5  UNL     1      13.015  -9.456  -4.365  1.00  0.00    -0.388 OA
ATOM     24  H5  UNL     1      12.646 -10.285  -4.085  1.00  0.00     0.210 HD
ENDBRANCH  17  23
ENDBRANCH   3  13
BRANCH   1  25
HETATM   25  C1  UNL     1       9.004  -5.104  -3.165  1.00  0.00     0.267 C 
HETATM   26  N1  UNL     1       8.384  -3.896  -3.483  1.00  0.00    -0.057 NA
HETATM   27  O1  UNL     1       8.263  -5.893  -2.447  1.00  0.00    -0.271 OA
ENDBRANCH   1  25
TORSDOF 6
ENDMDL
