MODEL 1
REMARK VINA RESULT: -9.464805045      0.000      0.000
REMARK  8 active torsions:
REMARK  status: ('A' for Active; 'I' for Inactive)
REMARK    1  A    between atoms: C5_12  and  N5_13 
REMARK    2  A    between atoms: N5_13  and  C6_15 
REMARK    3  A    between atoms: C6_15  and  C7_16 
REMARK    4  A    between atoms: N7_27  and  C16_28 
REMARK    5  A    between atoms: C17_30  and  C18_31 
REMARK    6  A    between atoms: C18_31  and  O2_32 
REMARK    7  A    between atoms: C19_34  and  O3_35 
REMARK    8  A    between atoms: C20_37  and  O4_38 
ROOT
HETATM    1  N1  UNL     1       5.292   7.215 -11.533  1.00  0.00    -0.080 NA
HETATM    2  C1  UNL     1       4.662   7.882 -10.453  1.00  0.00     0.148 A 
HETATM    3  N2  UNL     1       3.434   8.392 -10.636  1.00  0.00    -0.339 N 
ATOM      4  H2  UNL     1       2.970   8.296 -11.539  1.00  0.00     0.167 HD
HETATM    5  C2  UNL     1       2.816   9.031  -9.621  1.00  0.00     0.183 A 
HETATM    6  N3  UNL     1       3.449   9.136  -8.456  1.00  0.00    -0.336 N 
ATOM      7  H3  UNL     1       2.973   9.621  -7.695  1.00  0.00     0.168 HD
HETATM    8  C3  UNL     1       4.691   8.639  -8.217  1.00  0.00     0.158 A 
HETATM    9  C4  UNL     1       5.311   7.995  -9.241  1.00  0.00     0.135 A 
HETATM   10  N4  UNL     1       6.495   7.588  -8.818  1.00  0.00    -0.184 N 
ATOM     11  H4  UNL     1       7.193   7.075  -9.357  1.00  0.00     0.184 HD
HETATM   12  C5  UNL     1       6.598   7.986  -7.524  1.00  0.00     0.685 A 
HETATM   13  N7  UNL     1       5.508   8.628  -7.139  1.00  0.00    -0.136 N 
ENDROOT
BRANCH  12  14
HETATM   14  N5  UNL     1       7.752   7.714  -6.746  1.00  0.00    -0.221 N 
ATOM     15  H5  UNL     1       8.343   8.497  -6.465  1.00  0.00     0.178 HD
BRANCH  14  16
HETATM   16  C6  UNL     1       8.128   6.400  -6.335  1.00  0.00     0.176 C 
BRANCH  16  17
HETATM   17  C7  UNL     1       7.718   6.055  -4.953  1.00  0.00    -0.039 A 
HETATM   18  C8  UNL     1       7.024   6.875  -4.116  1.00  0.00     0.011 A 
HETATM   19  C9  UNL     1       6.695   6.427  -2.833  1.00  0.00     0.031 A 
HETATM   20  C10 UNL     1       7.053   5.173  -2.384  1.00  0.00     0.042 A 
HETATM   21  N6  UNL     1       6.735   4.747  -1.148  1.00  0.00    -0.365 N 
HETATM   22  C14 UNL     1       7.756   4.345  -3.232  1.00  0.00    -0.009 A 
HETATM   23  C11 UNL     1       7.083   3.522  -0.704  1.00  0.00     0.088 A 
ATOM     24  H6  UNL     1       6.215   5.369  -0.529  1.00  0.00     0.165 HD
HETATM   25  C12 UNL     1       7.790   2.642  -1.512  1.00  0.00     0.018 A 
HETATM   26  C13 UNL     1       8.118   3.077  -2.780  1.00  0.00     0.015 A 
HETATM   27  C15 UNL     1       8.076   4.795  -4.497  1.00  0.00     0.022 A 
ENDBRANCH  16  17
ENDBRANCH  14  16
ENDBRANCH  12  14
BRANCH  13  28
HETATM   28  C16 UNL     1       5.171   9.214  -5.892  1.00  0.00     0.279 C 
HETATM   29  O1  UNL     1       3.817   9.496  -5.740  1.00  0.00    -0.353 OA
HETATM   30  C17 UNL     1       3.694  10.447  -4.765  1.00  0.00     0.179 C 
HETATM   31  C19 UNL     1       5.050  10.964  -4.377  1.00  0.00     0.182 C 
HETATM   32  C20 UNL     1       5.916  10.454  -5.514  1.00  0.00     0.199 C 
BRANCH  30  33
HETATM   33  C18 UNL     1       2.815  11.565  -5.336  1.00  0.00     0.198 C 
BRANCH  33  34
HETATM   34  O2  UNL     1       2.283  11.156  -6.557  1.00  0.00    -0.398 OA
ATOM     35  H2  UNL     1       1.515  11.679  -6.757  1.00  0.00     0.209 HD
ENDBRANCH  33  34
ENDBRANCH  30  33
BRANCH  31  36
HETATM   36  O3  UNL     1       5.439  10.357  -3.184  1.00  0.00    -0.390 OA
ATOM     37  H3  UNL     1       6.052   9.658  -3.381  1.00  0.00     0.210 HD
ENDBRANCH  31  36
BRANCH  32  38
HETATM   38  O4  UNL     1       7.219  10.242  -5.130  1.00  0.00    -0.388 OA
ATOM     39  H4  UNL     1       7.641  10.996  -4.735  1.00  0.00     0.210 HD
ENDBRANCH  32  38
ENDBRANCH  13  28
TORSDOF 8
ENDMDL
