MODEL 11
REMARK VINA RESULT: -8.983325592      3.098      6.335
REMARK  8 active torsions:
REMARK  status: ('A' for Active; 'I' for Inactive)
REMARK    1  A    between atoms: C5_12  and  N5_13 
REMARK    2  A    between atoms: N5_13  and  C6_15 
REMARK    3  A    between atoms: C6_15  and  C7_16 
REMARK    4  A    between atoms: N7_27  and  C16_28 
REMARK    5  A    between atoms: C17_30  and  C18_31 
REMARK    6  A    between atoms: C18_31  and  O2_32 
REMARK    7  A    between atoms: C19_34  and  O3_35 
REMARK    8  A    between atoms: C20_37  and  O4_38 
ROOT
HETATM    1  N1  UNL     1       1.069  10.498  -9.023  1.00  0.00    -0.080 NA
HETATM    2  C1  UNL     1       2.258   9.872  -9.473  1.00  0.00     0.148 A 
HETATM    3  N2  UNL     1       2.455   9.732 -10.793  1.00  0.00    -0.339 N 
ATOM      4  H2  UNL     1       1.756  10.074 -11.453  1.00  0.00     0.167 HD
HETATM    5  C2  UNL     1       3.580   9.138 -11.244  1.00  0.00     0.183 A 
HETATM    6  N3  UNL     1       4.470   8.707 -10.356  1.00  0.00    -0.336 N 
ATOM      7  H3  UNL     1       5.318   8.260 -10.706  1.00  0.00     0.168 HD
HETATM    8  C3  UNL     1       4.322   8.823  -9.010  1.00  0.00     0.158 A 
HETATM    9  C4  UNL     1       3.188   9.421  -8.559  1.00  0.00     0.135 A 
HETATM   10  N4  UNL     1       3.227   9.441  -7.238  1.00  0.00    -0.184 N 
ATOM     11  H4  UNL     1       2.520   9.825  -6.611  1.00  0.00     0.184 HD
HETATM   12  C5  UNL     1       4.395   8.849  -6.880  1.00  0.00     0.685 A 
HETATM   13  N7  UNL     1       5.077   8.466  -7.946  1.00  0.00    -0.136 N 
ENDROOT
BRANCH  12  14
HETATM   14  N5  UNL     1       4.773   8.696  -5.522  1.00  0.00    -0.221 N 
ATOM     15  H5  UNL     1       4.203   8.096  -4.925  1.00  0.00     0.178 HD
BRANCH  14  16
HETATM   16  C6  UNL     1       5.909   9.340  -4.948  1.00  0.00     0.176 C 
BRANCH  16  17
HETATM   17  C7  UNL     1       5.671  10.746  -4.542  1.00  0.00    -0.039 A 
HETATM   18  C8  UNL     1       4.444  11.313  -4.377  1.00  0.00     0.011 A 
HETATM   19  C9  UNL     1       4.355  12.654  -3.987  1.00  0.00     0.031 A 
HETATM   20  C10 UNL     1       5.476  13.425  -3.765  1.00  0.00     0.042 A 
HETATM   21  N6  UNL     1       5.385  14.714  -3.391  1.00  0.00    -0.365 N 
HETATM   22  C14 UNL     1       6.716  12.849  -3.934  1.00  0.00    -0.009 A 
HETATM   23  C11 UNL     1       6.479  15.472  -3.173  1.00  0.00     0.088 A 
ATOM     24  H6  UNL     1       4.462  15.130  -3.269  1.00  0.00     0.165 HD
HETATM   25  C12 UNL     1       7.756  14.950  -3.326  1.00  0.00     0.018 A 
HETATM   26  C13 UNL     1       7.852  13.628  -3.709  1.00  0.00     0.015 A 
HETATM   27  C15 UNL     1       6.795  11.526  -4.318  1.00  0.00     0.022 A 
ENDBRANCH  16  17
ENDBRANCH  14  16
ENDBRANCH  12  14
BRANCH  13  28
HETATM   28  C16 UNL     1       6.333   7.817  -8.057  1.00  0.00     0.279 C 
HETATM   29  O1  UNL     1       6.487   6.721  -7.213  1.00  0.00    -0.353 OA
HETATM   30  C17 UNL     1       7.827   6.493  -7.064  1.00  0.00     0.179 C 
HETATM   31  C19 UNL     1       8.612   7.610  -7.689  1.00  0.00     0.182 C 
HETATM   32  C20 UNL     1       7.546   8.673  -7.879  1.00  0.00     0.199 C 
BRANCH  30  33
HETATM   33  C18 UNL     1       8.101   6.394  -5.559  1.00  0.00     0.198 C 
BRANCH  33  34
HETATM   34  O2  UNL     1       8.863   5.255  -5.302  1.00  0.00    -0.398 OA
ATOM     35  H2  UNL     1       9.197   5.294  -4.413  1.00  0.00     0.209 HD
ENDBRANCH  33  34
ENDBRANCH  30  33
BRANCH  31  36
HETATM   36  O3  UNL     1       9.082   7.191  -8.932  1.00  0.00    -0.390 OA
ATOM     37  H3  UNL     1       8.576   7.621  -9.612  1.00  0.00     0.210 HD
ENDBRANCH  31  36
BRANCH  32  38
HETATM   38  O4  UNL     1       7.816   9.506  -8.938  1.00  0.00    -0.388 OA
ATOM     39  H4  UNL     1       8.435  10.201  -8.745  1.00  0.00     0.210 HD
ENDBRANCH  32  38
ENDBRANCH  13  28
TORSDOF 8
ENDMDL
