MODEL 3
REMARK VINA RESULT: -9.353610875      1.535      2.060
REMARK  8 active torsions:
REMARK  status: ('A' for Active; 'I' for Inactive)
REMARK    1  A    between atoms: C5_12  and  N5_13 
REMARK    2  A    between atoms: N5_13  and  C6_15 
REMARK    3  A    between atoms: C6_15  and  C7_16 
REMARK    4  A    between atoms: N7_27  and  C16_28 
REMARK    5  A    between atoms: C17_30  and  C18_31 
REMARK    6  A    between atoms: C18_31  and  O2_32 
REMARK    7  A    between atoms: C19_34  and  O3_35 
REMARK    8  A    between atoms: C20_37  and  O4_38 
ROOT
HETATM    1  N1  UNL     1       6.345   7.053 -10.085  1.00  0.00    -0.080 NA
HETATM    2  C1  UNL     1       5.520   7.849  -9.251  1.00  0.00     0.148 A 
HETATM    3  N2  UNL     1       4.482   8.498  -9.800  1.00  0.00    -0.339 N 
ATOM      4  H2  UNL     1       4.297   8.415 -10.799  1.00  0.00     0.167 HD
HETATM    5  C2  UNL     1       3.683   9.262  -9.025  1.00  0.00     0.183 A 
HETATM    6  N3  UNL     1       3.953   9.347  -7.726  1.00  0.00    -0.336 N 
ATOM      7  H3  UNL     1       3.344   9.927  -7.148  1.00  0.00     0.168 HD
HETATM    8  C3  UNL     1       4.989   8.712  -7.119  1.00  0.00     0.158 A 
HETATM    9  C4  UNL     1       5.791   7.943  -7.902  1.00  0.00     0.135 A 
HETATM   10  N4  UNL     1       6.731   7.413  -7.138  1.00  0.00    -0.184 N 
ATOM     11  H4  UNL     1       7.481   6.789  -7.437  1.00  0.00     0.184 HD
HETATM   12  C5  UNL     1       6.500   7.863  -5.879  1.00  0.00     0.685 A 
HETATM   13  N7  UNL     1       5.443   8.655  -5.845  1.00  0.00    -0.136 N 
ENDROOT
BRANCH  12  14
HETATM   14  N5  UNL     1       7.325   7.489  -4.787  1.00  0.00    -0.221 N 
ATOM     15  H5  UNL     1       8.297   7.797  -4.787  1.00  0.00     0.178 HD
BRANCH  14  16
HETATM   16  C6  UNL     1       6.862   6.704  -3.689  1.00  0.00     0.176 C 
BRANCH  16  17
HETATM   17  C7  UNL     1       7.325   5.295  -3.711  1.00  0.00    -0.039 A 
HETATM   18  C8  UNL     1       8.475   4.861  -4.298  1.00  0.00     0.011 A 
HETATM   19  C9  UNL     1       8.800   3.502  -4.245  1.00  0.00     0.031 A 
HETATM   20  C10 UNL     1       7.989   2.581  -3.616  1.00  0.00     0.042 A 
HETATM   21  N6  UNL     1       8.306   1.275  -3.569  1.00  0.00    -0.365 N 
HETATM   22  C14 UNL     1       6.826   3.023  -3.024  1.00  0.00    -0.009 A 
HETATM   23  C11 UNL     1       7.516   0.370  -2.955  1.00  0.00     0.088 A 
ATOM     24  H6  UNL     1       9.170   0.959  -4.011  1.00  0.00     0.165 HD
HETATM   25  C12 UNL     1       6.332   0.753  -2.340  1.00  0.00     0.018 A 
HETATM   26  C13 UNL     1       6.005   2.093  -2.387  1.00  0.00     0.015 A 
HETATM   27  C15 UNL     1       6.513   4.366  -3.080  1.00  0.00     0.022 A 
ENDBRANCH  16  17
ENDBRANCH  14  16
ENDBRANCH  12  14
BRANCH  13  28
HETATM   28  C16 UNL     1       4.835   9.343  -4.764  1.00  0.00     0.279 C 
HETATM   29  O1  UNL     1       3.531   9.761  -5.013  1.00  0.00    -0.353 OA
HETATM   30  C17 UNL     1       3.243  10.775  -4.142  1.00  0.00     0.179 C 
HETATM   31  C19 UNL     1       4.483  11.182  -3.399  1.00  0.00     0.182 C 
HETATM   32  C20 UNL     1       5.573  10.526  -4.226  1.00  0.00     0.199 C 
BRANCH  30  33
HETATM   33  C18 UNL     1       2.685  11.936  -4.972  1.00  0.00     0.198 C 
BRANCH  33  34
HETATM   34  O2  UNL     1       2.335  11.472  -6.239  1.00  0.00    -0.398 OA
ATOM     35  H2  UNL     1       3.047  11.643  -6.844  1.00  0.00     0.209 HD
ENDBRANCH  33  34
ENDBRANCH  30  33
BRANCH  31  36
HETATM   36  O3  UNL     1       4.455  10.613  -2.127  1.00  0.00    -0.390 OA
ATOM     37  H3  UNL     1       5.299  10.747  -1.712  1.00  0.00     0.210 HD
ENDBRANCH  31  36
BRANCH  32  38
HETATM   38  O4  UNL     1       6.685  10.214  -3.481  1.00  0.00    -0.388 OA
ATOM     39  H4  UNL     1       7.205  10.964  -3.217  1.00  0.00     0.210 HD
ENDBRANCH  32  38
ENDBRANCH  13  28
TORSDOF 8
ENDMDL
