MODEL 2
REMARK VINA RESULT: -9.439579728      4.207      6.162
REMARK  8 active torsions:
REMARK  status: ('A' for Active; 'I' for Inactive)
REMARK    1  A    between atoms: C5_12  and  N5_13 
REMARK    2  A    between atoms: N5_13  and  C6_15 
REMARK    3  A    between atoms: C6_15  and  C7_16 
REMARK    4  A    between atoms: N7_27  and  C16_28 
REMARK    5  A    between atoms: C17_30  and  C18_31 
REMARK    6  A    between atoms: C18_31  and  O2_32 
REMARK    7  A    between atoms: C19_34  and  O3_35 
REMARK    8  A    between atoms: C20_37  and  O4_38 
ROOT
HETATM    1  N1  UNL     1       9.732  14.381  -5.138  1.00  0.00    -0.080 NA
HETATM    2  C1  UNL     1       8.766  14.668  -4.141  1.00  0.00     0.148 A 
HETATM    3  N2  UNL     1       8.706  15.911  -3.638  1.00  0.00    -0.339 N 
ATOM      4  H2  UNL     1       9.347  16.630  -3.973  1.00  0.00     0.167 HD
HETATM    5  C2  UNL     1       7.794  16.206  -2.688  1.00  0.00     0.183 A 
HETATM    6  N3  UNL     1       6.972  15.245  -2.276  1.00  0.00    -0.336 N 
ATOM      7  H3  UNL     1       6.286  15.478  -1.557  1.00  0.00     0.168 HD
HETATM    8  C3  UNL     1       6.990  13.972  -2.751  1.00  0.00     0.158 A 
HETATM    9  C4  UNL     1       7.909  13.678  -3.707  1.00  0.00     0.135 A 
HETATM   10  N4  UNL     1       7.770  12.406  -4.038  1.00  0.00    -0.184 N 
ATOM     11  H4  UNL     1       8.316  11.891  -4.730  1.00  0.00     0.184 HD
HETATM   12  C5  UNL     1       6.757  11.920  -3.276  1.00  0.00     0.685 A 
HETATM   13  N7  UNL     1       6.267  12.859  -2.486  1.00  0.00    -0.136 N 
ENDROOT
BRANCH  12  14
HETATM   14  N5  UNL     1       6.330  10.571  -3.370  1.00  0.00    -0.221 N 
ATOM     15  H5  UNL     1       6.203  10.042  -2.507  1.00  0.00     0.178 HD
BRANCH  14  16
HETATM   16  C6  UNL     1       6.069   9.916  -4.610  1.00  0.00     0.176 C 
BRANCH  16  17
HETATM   17  C7  UNL     1       6.684   8.572  -4.730  1.00  0.00    -0.039 A 
HETATM   18  C8  UNL     1       7.447   8.154  -5.777  1.00  0.00     0.011 A 
HETATM   19  C9  UNL     1       7.973   6.858  -5.768  1.00  0.00     0.031 A 
HETATM   20  C10 UNL     1       7.742   5.984  -4.726  1.00  0.00     0.042 A 
HETATM   21  N6  UNL     1       8.250   4.739  -4.722  1.00  0.00    -0.365 N 
HETATM   22  C14 UNL     1       6.969   6.410  -3.668  1.00  0.00    -0.009 A 
HETATM   23  C11 UNL     1       8.027   3.880  -3.707  1.00  0.00     0.088 A 
ATOM     24  H6  UNL     1       8.821   4.434  -5.511  1.00  0.00     0.165 HD
HETATM   25  C12 UNL     1       7.257   4.250  -2.612  1.00  0.00     0.018 A 
HETATM   26  C13 UNL     1       6.734   5.527  -2.614  1.00  0.00     0.015 A 
HETATM   27  C15 UNL     1       6.454   7.690  -3.686  1.00  0.00     0.022 A 
ENDBRANCH  16  17
ENDBRANCH  14  16
ENDBRANCH  12  14
BRANCH  13  28
HETATM   28  C16 UNL     1       5.218  12.813  -1.533  1.00  0.00     0.279 C 
HETATM   29  O1  UNL     1       4.950  11.540  -1.039  1.00  0.00    -0.353 OA
HETATM   30  C17 UNL     1       3.679  11.545  -0.534  1.00  0.00     0.179 C 
HETATM   31  C19 UNL     1       2.994  12.836  -0.880  1.00  0.00     0.182 C 
HETATM   32  C20 UNL     1       3.907  13.396  -1.954  1.00  0.00     0.199 C 
BRANCH  30  33
HETATM   33  C18 UNL     1       2.947  10.345  -1.146  1.00  0.00     0.198 C 
BRANCH  33  34
HETATM   34  O2  UNL     1       3.802   9.682  -2.024  1.00  0.00    -0.398 OA
ATOM     35  H2  UNL     1       4.163  10.306  -2.644  1.00  0.00     0.209 HD
ENDBRANCH  33  34
ENDBRANCH  30  33
BRANCH  31  36
HETATM   36  O3  UNL     1       3.016  13.672   0.235  1.00  0.00    -0.390 OA
ATOM     37  H3  UNL     1       3.872  13.616   0.644  1.00  0.00     0.210 HD
ENDBRANCH  31  36
BRANCH  32  38
HETATM   38  O4  UNL     1       3.884  14.770  -2.002  1.00  0.00    -0.388 OA
ATOM     39  H4  UNL     1       4.081  15.138  -2.856  1.00  0.00     0.210 HD
ENDBRANCH  32  38
ENDBRANCH  13  28
TORSDOF 8
ENDMDL
