MODEL 2
REMARK VINA RESULT: -5.489857654      0.108      1.714
REMARK  3 active torsions:
REMARK  status: ('A' for Active; 'I' for Inactive)
REMARK    1  A    between atoms: N1_1  and  C1_5 
REMARK    2  A    between atoms: C1_5  and  C2_6 
REMARK    3  A    between atoms: C2_6  and  S1_7 
ROOT
HETATM    1  C1  UNL     1      24.496 141.595 146.082  1.00  0.00     0.247 C 
ENDROOT
BRANCH   1   2
HETATM    2  N1  UNL     1      24.051 140.619 145.134  1.00  0.00    -0.078 N 
ATOM      3  H13 UNL     1      23.331 140.998 144.518  1.00  0.00     0.274 HD
ATOM      4  H12 UNL     1      24.768 140.422 144.436  1.00  0.00     0.274 HD
ATOM      5  H11 UNL     1      23.735 139.767 145.596  1.00  0.00     0.274 HD
ENDBRANCH   1   2
BRANCH   1   6
HETATM    6  C2  UNL     1      24.098 143.013 145.657  1.00  0.00     0.192 C 
BRANCH   6   7
HETATM    7  S1  UNL     1      25.072 143.543 144.305  1.00  0.00     0.103 S 
HETATM    8  O1  UNL     1      26.517 143.945 144.993  1.00  0.00    -0.595 OA
HETATM    9  O2  UNL     1      24.454 144.883 143.684  1.00  0.00    -0.595 OA
HETATM   10  O3  UNL     1      25.288 142.441 143.243  1.00  0.00    -0.595 OA
ENDBRANCH   6   7
ENDBRANCH   1   6
TORSDOF 3
ENDMDL
