MODEL 1
REMARK VINA RESULT: -5.519387489      0.000      0.000
REMARK  3 active torsions:
REMARK  status: ('A' for Active; 'I' for Inactive)
REMARK    1  A    between atoms: N1_1  and  C1_5 
REMARK    2  A    between atoms: C1_5  and  C2_6 
REMARK    3  A    between atoms: C2_6  and  S1_7 
ROOT
HETATM    1  C1  UNL     1      24.412 141.542 146.037  1.00  0.00     0.247 C 
ENDROOT
BRANCH   1   2
HETATM    2  N1  UNL     1      24.074 140.549 145.063  1.00  0.00    -0.078 N 
ATOM      3  H13 UNL     1      24.548 140.718 144.176  1.00  0.00     0.274 HD
ATOM      4  H12 UNL     1      24.487 139.645 145.292  1.00  0.00     0.274 HD
ATOM      5  H11 UNL     1      23.065 140.477 144.938  1.00  0.00     0.274 HD
ENDBRANCH   1   2
BRANCH   1   6
HETATM    6  C2  UNL     1      23.994 142.943 145.579  1.00  0.00     0.192 C 
BRANCH   6   7
HETATM    7  S1  UNL     1      25.102 143.548 144.369  1.00  0.00     0.103 S 
HETATM    8  O1  UNL     1      24.326 144.866 143.748  1.00  0.00    -0.595 OA
HETATM    9  O2  UNL     1      25.247 142.483 143.183  1.00  0.00    -0.595 OA
HETATM   10  O3  UNL     1      26.467 143.974 144.955  1.00  0.00    -0.595 OA
ENDBRANCH   6   7
ENDBRANCH   1   6
TORSDOF 3
ENDMDL
