MODEL 3
REMARK VINA RESULT: -5.389945163      0.094      1.707
REMARK  3 active torsions:
REMARK  status: ('A' for Active; 'I' for Inactive)
REMARK    1  A    between atoms: N1_1  and  C1_5 
REMARK    2  A    between atoms: C1_5  and  C2_6 
REMARK    3  A    between atoms: C2_6  and  S1_7 
ROOT
HETATM    1  C1  UNL     1      24.495 141.573 145.997  1.00  0.00     0.247 C 
ENDROOT
BRANCH   1   2
HETATM    2  N1  UNL     1      24.088 140.541 145.093  1.00  0.00    -0.078 N 
ATOM      3  H13 UNL     1      23.693 139.743 145.591  1.00  0.00     0.274 HD
ATOM      4  H12 UNL     1      23.264 140.816 144.559  1.00  0.00     0.274 HD
ATOM      5  H11 UNL     1      24.852 140.258 144.481  1.00  0.00     0.274 HD
ENDBRANCH   1   2
BRANCH   1   6
HETATM    6  C2  UNL     1      23.982 142.946 145.549  1.00  0.00     0.192 C 
BRANCH   6   7
HETATM    7  S1  UNL     1      25.053 143.640 144.354  1.00  0.00     0.103 S 
HETATM    8  O1  UNL     1      25.236 142.436 143.240  1.00  0.00    -0.595 OA
HETATM    9  O2  UNL     1      26.491 143.907 145.003  1.00  0.00    -0.595 OA
HETATM   10  O3  UNL     1      24.467 144.898 143.671  1.00  0.00    -0.595 OA
ENDBRANCH   6   7
ENDBRANCH   1   6
TORSDOF 3
ENDMDL
