MODEL 17
REMARK VINA RESULT: -3.061624787      7.556      7.910
REMARK  3 active torsions:
REMARK  status: ('A' for Active; 'I' for Inactive)
REMARK    1  A    between atoms: N1_1  and  C1_5 
REMARK    2  A    between atoms: C1_5  and  C2_6 
REMARK    3  A    between atoms: C2_6  and  S1_7 
ROOT
HETATM    1  C1  UNL     1      27.887 137.795 147.918  1.00  0.00     0.247 C 
ENDROOT
BRANCH   1   2
HETATM    2  N1  UNL     1      28.383 138.986 147.297  1.00  0.00    -0.078 N 
ATOM      3  H13 UNL     1      28.715 139.658 147.989  1.00  0.00     0.274 HD
ATOM      4  H12 UNL     1      29.262 138.814 146.809  1.00  0.00     0.274 HD
ATOM      5  H11 UNL     1      27.688 139.401 146.677  1.00  0.00     0.274 HD
ENDBRANCH   1   2
BRANCH   1   6
HETATM    6  C2  UNL     1      27.099 136.932 146.927  1.00  0.00     0.192 C 
BRANCH   6   7
HETATM    7  S1  UNL     1      28.143 135.738 146.189  1.00  0.00     0.103 S 
HETATM    8  O1  UNL     1      29.650 136.398 146.318  1.00  0.00    -0.595 OA
HETATM    9  O2  UNL     1      27.811 135.617 144.628  1.00  0.00    -0.595 OA
HETATM   10  O3  UNL     1      28.107 134.372 146.912  1.00  0.00    -0.595 OA
ENDBRANCH   6   7
ENDBRANCH   1   6
TORSDOF 3
ENDMDL
