MODEL 4
REMARK VINA RESULT: -4.859946787      1.393      2.154
REMARK  3 active torsions:
REMARK  status: ('A' for Active; 'I' for Inactive)
REMARK    1  A    between atoms: N1_1  and  C1_5 
REMARK    2  A    between atoms: C1_5  and  C2_6 
REMARK    3  A    between atoms: C2_6  and  S1_7 
ROOT
HETATM    1  C1  UNL     1      25.413 142.073 146.586  1.00  0.00     0.247 C 
ENDROOT
BRANCH   1   2
HETATM    2  N1  UNL     1      24.751 140.939 146.017  1.00  0.00    -0.078 N 
ATOM      3  H13 UNL     1      25.037 140.072 146.472  1.00  0.00     0.274 HD
ATOM      4  H12 UNL     1      23.760 140.925 146.258  1.00  0.00     0.274 HD
ATOM      5  H11 UNL     1      24.890 140.893 145.008  1.00  0.00     0.274 HD
ENDBRANCH   1   2
BRANCH   1   6
HETATM    6  C2  UNL     1      25.875 143.055 145.504  1.00  0.00     0.192 C 
BRANCH   6   7
HETATM    7  S1  UNL     1      24.646 143.232 144.273  1.00  0.00     0.103 S 
HETATM    8  O1  UNL     1      25.132 142.202 143.078  1.00  0.00    -0.595 OA
HETATM    9  O2  UNL     1      24.692 144.713 143.668  1.00  0.00    -0.595 OA
HETATM   10  O3  UNL     1      23.234 142.835 144.762  1.00  0.00    -0.595 OA
ENDBRANCH   6   7
ENDBRANCH   1   6
TORSDOF 3
ENDMDL
