MODEL 5
REMARK VINA RESULT: -4.828145286      1.398      1.803
REMARK  3 active torsions:
REMARK  status: ('A' for Active; 'I' for Inactive)
REMARK    1  A    between atoms: N1_1  and  C1_5 
REMARK    2  A    between atoms: C1_5  and  C2_6 
REMARK    3  A    between atoms: C2_6  and  S1_7 
ROOT
HETATM    1  C1  UNL     1      25.374 142.100 146.591  1.00  0.00     0.247 C 
ENDROOT
BRANCH   1   2
HETATM    2  N1  UNL     1      24.752 140.945 146.019  1.00  0.00    -0.078 N 
ATOM      3  H13 UNL     1      24.969 140.102 146.552  1.00  0.00     0.274 HD
ATOM      4  H12 UNL     1      23.741 140.960 146.153  1.00  0.00     0.274 HD
ATOM      5  H11 UNL     1      24.997 140.838 145.035  1.00  0.00     0.274 HD
ENDBRANCH   1   2
BRANCH   1   6
HETATM    6  C2  UNL     1      25.807 143.097 145.511  1.00  0.00     0.192 C 
BRANCH   6   7
HETATM    7  S1  UNL     1      24.681 143.079 144.173  1.00  0.00     0.103 S 
HETATM    8  O1  UNL     1      24.722 144.626 143.602  1.00  0.00    -0.595 OA
HETATM    9  O2  UNL     1      23.198 142.813 144.714  1.00  0.00    -0.595 OA
HETATM   10  O3  UNL     1      25.088 142.097 143.051  1.00  0.00    -0.595 OA
ENDBRANCH   6   7
ENDBRANCH   1   6
TORSDOF 3
ENDMDL
