MODEL 18
REMARK VINA RESULT: -2.883138151      7.658      8.199
REMARK  3 active torsions:
REMARK  status: ('A' for Active; 'I' for Inactive)
REMARK    1  A    between atoms: N1_1  and  C1_5 
REMARK    2  A    between atoms: C1_5  and  C2_6 
REMARK    3  A    between atoms: C2_6  and  S1_7 
ROOT
HETATM    1  C1  UNL     1      27.125 136.678 148.052  1.00  0.00     0.247 C 
ENDROOT
BRANCH   1   2
HETATM    2  N1  UNL     1      26.779 137.604 147.017  1.00  0.00    -0.078 N 
ATOM      3  H13 UNL     1      26.262 138.402 147.386  1.00  0.00     0.274 HD
ATOM      4  H12 UNL     1      27.600 138.096 146.666  1.00  0.00     0.274 HD
ATOM      5  H11 UNL     1      26.268 137.146 146.262  1.00  0.00     0.274 HD
ENDBRANCH   1   2
BRANCH   1   6
HETATM    6  C2  UNL     1      27.505 135.309 147.478  1.00  0.00     0.192 C 
BRANCH   6   7
HETATM    7  S1  UNL     1      28.721 135.483 146.233  1.00  0.00     0.103 S 
HETATM    8  O1  UNL     1      27.845 135.683 144.850  1.00  0.00    -0.595 OA
HETATM    9  O2  UNL     1      29.541 134.116 146.081  1.00  0.00    -0.595 OA
HETATM   10  O3  UNL     1      29.642 136.706 146.450  1.00  0.00    -0.595 OA
ENDBRANCH   6   7
ENDBRANCH   1   6
TORSDOF 3
ENDMDL
