MODEL 16
REMARK VINA RESULT: -3.069823937      7.520      7.967
REMARK  3 active torsions:
REMARK  status: ('A' for Active; 'I' for Inactive)
REMARK    1  A    between atoms: N1_1  and  C1_5 
REMARK    2  A    between atoms: C1_5  and  C2_6 
REMARK    3  A    between atoms: C2_6  and  S1_7 
ROOT
HETATM    1  C1  UNL     1      27.802 137.831 147.937  1.00  0.00     0.247 C 
ENDROOT
BRANCH   1   2
HETATM    2  N1  UNL     1      28.341 138.980 147.276  1.00  0.00    -0.078 N 
ATOM      3  H13 UNL     1      27.610 139.648 147.031  1.00  0.00     0.274 HD
ATOM      4  H12 UNL     1      28.878 139.563 147.918  1.00  0.00     0.274 HD
ATOM      5  H11 UNL     1      28.893 138.717 146.460  1.00  0.00     0.274 HD
ENDBRANCH   1   2
BRANCH   1   6
HETATM    6  C2  UNL     1      27.044 136.926 146.960  1.00  0.00     0.192 C 
BRANCH   6   7
HETATM    7  S1  UNL     1      28.151 135.855 146.132  1.00  0.00     0.103 S 
HETATM    8  O1  UNL     1      28.042 134.443 146.980  1.00  0.00    -0.595 OA
HETATM    9  O2  UNL     1      29.650 136.391 146.296  1.00  0.00    -0.595 OA
HETATM   10  O3  UNL     1      27.766 135.608 144.656  1.00  0.00    -0.595 OA
ENDBRANCH   6   7
ENDBRANCH   1   6
TORSDOF 3
ENDMDL
