MODEL 8
REMARK VINA RESULT: -8.586359729      3.933      6.262
REMARK  6 active torsions:
REMARK  status: ('A' for Active; 'I' for Inactive)
REMARK    1  A    between atoms: O1_2  and  C2_3 
REMARK    2  A    between atoms: C8_10  and  C9_11 
REMARK    3  A    between atoms: C12_16  and  N3_17 
REMARK    4  A    between atoms: N3_17  and  C13_19 
REMARK    5  A    between atoms: C16_22  and  N4_23 
REMARK    6  A    between atoms: C21_29  and  O3_30 
ROOT
HETATM    1  C2  UNL     1     -10.490 -55.272 -29.014  1.00  0.00     0.079 A 
HETATM    2  C3  UNL     1     -11.119 -55.321 -27.792  1.00  0.00     0.039 A 
HETATM    3  C4  UNL     1     -10.841 -54.309 -26.872  1.00  0.00     0.025 A 
HETATM    4  C5  UNL     1      -9.966 -53.289 -27.163  1.00  0.00     0.045 A 
HETATM    5  C6  UNL     1      -9.684 -52.238 -26.194  1.00  0.00     0.099 C 
HETATM    6  N1  UNL     1      -9.440 -51.405 -25.420  1.00  0.00    -0.191 NA
HETATM    7  C7  UNL     1      -9.363 -53.288 -28.404  1.00  0.00     0.037 A 
HETATM    8  C8  UNL     1      -9.604 -54.264 -29.349  1.00  0.00     0.009 A 
ENDROOT
BRANCH   8   9
HETATM    9  C9  UNL     1      -8.947 -54.232 -30.661  1.00  0.00    -0.018 A 
HETATM   10  C10 UNL     1      -7.580 -54.077 -30.700  1.00  0.00     0.029 A 
HETATM   11  C11 UNL     1      -6.956 -54.049 -31.954  1.00  0.00     0.090 A 
HETATM   12  N2  UNL     1      -7.690 -54.171 -33.074  1.00  0.00    -0.352 N 
HETATM   13  C12 UNL     1      -9.011 -54.322 -33.090  1.00  0.00     0.106 A 
ATOM     14  H2  UNL     1      -7.202 -54.147 -33.969  1.00  0.00     0.166 HD
HETATM   15  C24 UNL     1      -9.630 -54.350 -31.847  1.00  0.00     0.060 A 
BRANCH  13  16
HETATM   16  N3  UNL     1      -9.827 -54.453 -34.242  1.00  0.00    -0.342 N 
ATOM     17  H3  UNL     1      -9.905 -53.632 -34.841  1.00  0.00     0.167 HD
BRANCH  16  18
HETATM   18  C13 UNL     1     -10.541 -55.598 -34.646  1.00  0.00     0.036 A 
HETATM   19  C14 UNL     1      -9.934 -56.450 -35.548  1.00  0.00     0.032 A 
HETATM   20  C15 UNL     1     -10.602 -57.567 -35.982  1.00  0.00     0.034 A 
HETATM   21  C16 UNL     1     -11.893 -57.859 -35.525  1.00  0.00     0.064 A 
HETATM   22  C21 UNL     1     -12.482 -56.999 -34.626  1.00  0.00     0.096 A 
HETATM   23  C23 UNL     1     -11.805 -55.864 -34.185  1.00  0.00     0.068 A 
BRANCH  21  24
HETATM   24  N4  UNL     1     -12.520 -59.011 -36.048  1.00  0.00    -0.375 N 
HETATM   25  C17 UNL     1     -12.125 -60.343 -35.557  1.00  0.00     0.149 C 
HETATM   26  C18 UNL     1     -13.397 -61.131 -35.294  1.00  0.00     0.187 C 
HETATM   27  O2  UNL     1     -14.325 -61.073 -36.298  1.00  0.00    -0.388 OA
HETATM   28  C19 UNL     1     -14.747 -59.729 -36.449  1.00  0.00     0.187 C 
HETATM   29  C20 UNL     1     -13.532 -59.034 -37.077  1.00  0.00     0.149 C 
ENDBRANCH  21  24
BRANCH  22  30
HETATM   30  O3  UNL     1     -13.754 -57.256 -34.151  1.00  0.00    -0.354 OA
HETATM   31  C22 UNL     1     -13.975 -58.145 -33.074  1.00  0.00     0.210 C 
ENDBRANCH  22  30
ENDBRANCH  16  18
ENDBRANCH  13  16
ENDBRANCH   8   9
BRANCH   1  32
HETATM   32  O1  UNL     1     -10.726 -56.240 -29.956  1.00  0.00    -0.355 OA
HETATM   33  C1  UNL     1     -11.949 -56.486 -30.584  1.00  0.00     0.210 C 
ENDBRANCH   1  32
TORSDOF 6
ENDMDL
