MODEL 9
REMARK VINA RESULT: -8.534227619      3.050      6.099
REMARK  6 active torsions:
REMARK  status: ('A' for Active; 'I' for Inactive)
REMARK    1  A    between atoms: O1_2  and  C2_3 
REMARK    2  A    between atoms: C8_10  and  C9_11 
REMARK    3  A    between atoms: C12_16  and  N3_17 
REMARK    4  A    between atoms: N3_17  and  C13_19 
REMARK    5  A    between atoms: C16_22  and  N4_23 
REMARK    6  A    between atoms: C21_29  and  O3_30 
ROOT
HETATM    1  C2  UNL     1     -10.396 -53.658 -26.737  1.00  0.00     0.079 A 
HETATM    2  C3  UNL     1     -11.293 -53.764 -25.700  1.00  0.00     0.039 A 
HETATM    3  C4  UNL     1     -12.285 -54.742 -25.789  1.00  0.00     0.025 A 
HETATM    4  C5  UNL     1     -12.377 -55.580 -26.875  1.00  0.00     0.045 A 
HETATM    5  C6  UNL     1     -13.417 -56.597 -26.958  1.00  0.00     0.099 C 
HETATM    6  N1  UNL     1     -14.254 -57.400 -27.039  1.00  0.00    -0.191 NA
HETATM    7  C7  UNL     1     -11.452 -55.430 -27.888  1.00  0.00     0.037 A 
HETATM    8  C8  UNL     1     -10.452 -54.480 -27.848  1.00  0.00     0.009 A 
ENDROOT
BRANCH   8   9
HETATM    9  C9  UNL     1      -9.482 -54.350 -28.941  1.00  0.00    -0.018 A 
HETATM   10  C10 UNL     1      -8.179 -54.036 -28.621  1.00  0.00     0.029 A 
HETATM   11  C11 UNL     1      -7.255 -53.914 -29.666  1.00  0.00     0.090 A 
HETATM   12  N2  UNL     1      -7.649 -54.101 -30.938  1.00  0.00    -0.352 N 
HETATM   13  C12 UNL     1      -8.892 -54.404 -31.299  1.00  0.00     0.106 A 
ATOM     14  H2  UNL     1      -6.949 -54.005 -31.673  1.00  0.00     0.166 HD
HETATM   15  C24 UNL     1      -9.809 -54.526 -30.264  1.00  0.00     0.060 A 
BRANCH  13  16
HETATM   16  N3  UNL     1      -9.356 -54.610 -32.624  1.00  0.00    -0.342 N 
ATOM     17  H3  UNL     1      -8.786 -54.216 -33.372  1.00  0.00     0.167 HD
BRANCH  16  18
HETATM   18  C13 UNL     1     -10.518 -55.301 -33.015  1.00  0.00     0.036 A 
HETATM   19  C14 UNL     1     -10.474 -56.019 -34.194  1.00  0.00     0.032 A 
HETATM   20  C15 UNL     1     -11.590 -56.693 -34.622  1.00  0.00     0.034 A 
HETATM   21  C16 UNL     1     -12.778 -56.664 -33.881  1.00  0.00     0.064 A 
HETATM   22  C21 UNL     1     -12.804 -55.944 -32.708  1.00  0.00     0.096 A 
HETATM   23  C23 UNL     1     -11.671 -55.259 -32.273  1.00  0.00     0.068 A 
BRANCH  21  24
HETATM   24  N4  UNL     1     -13.889 -57.358 -34.410  1.00  0.00    -0.375 N 
HETATM   25  C17 UNL     1     -14.676 -56.752 -35.498  1.00  0.00     0.149 C 
HETATM   26  C18 UNL     1     -14.920 -57.828 -36.542  1.00  0.00     0.187 C 
HETATM   27  O2  UNL     1     -15.346 -59.027 -36.040  1.00  0.00    -0.388 OA
HETATM   28  C19 UNL     1     -14.336 -59.552 -35.196  1.00  0.00     0.187 C 
HETATM   29  C20 UNL     1     -14.380 -58.639 -33.964  1.00  0.00     0.149 C 
ENDBRANCH  21  24
BRANCH  22  30
HETATM   30  O3  UNL     1     -13.957 -55.894 -31.949  1.00  0.00    -0.354 OA
HETATM   31  C22 UNL     1     -13.914 -55.918 -30.536  1.00  0.00     0.210 C 
ENDBRANCH  22  30
ENDBRANCH  16  18
ENDBRANCH  13  16
ENDBRANCH   8   9
BRANCH   1  32
HETATM   32  O1  UNL     1      -9.401 -52.715 -26.702  1.00  0.00    -0.355 OA
HETATM   33  C1  UNL     1      -9.403 -51.557 -25.921  1.00  0.00     0.210 C 
ENDBRANCH   1  32
TORSDOF 6
ENDMDL
