MODEL 2
REMARK VINA RESULT: -9.206580289      0.949      1.797
REMARK  6 active torsions:
REMARK  status: ('A' for Active; 'I' for Inactive)
REMARK    1  A    between atoms: O1_2  and  C2_3 
REMARK    2  A    between atoms: C8_10  and  C9_11 
REMARK    3  A    between atoms: C12_16  and  N3_17 
REMARK    4  A    between atoms: N3_17  and  C13_19 
REMARK    5  A    between atoms: C16_22  and  N4_23 
REMARK    6  A    between atoms: C21_29  and  O3_30 
ROOT
HETATM    1  C2  UNL     1      -9.342 -54.465 -30.274  1.00  0.00     0.079 A 
HETATM    2  C3  UNL     1      -8.504 -54.541 -31.362  1.00  0.00     0.039 A 
HETATM    3  C4  UNL     1      -7.179 -54.134 -31.196  1.00  0.00     0.025 A 
HETATM    4  C5  UNL     1      -6.710 -53.670 -29.990  1.00  0.00     0.045 A 
HETATM    5  C6  UNL     1      -5.324 -53.249 -29.830  1.00  0.00     0.099 C 
HETATM    6  N1  UNL     1      -4.225 -52.895 -29.698  1.00  0.00    -0.191 NA
HETATM    7  C7  UNL     1      -7.594 -53.614 -28.932  1.00  0.00     0.037 A 
HETATM    8  C8  UNL     1      -8.913 -54.004 -29.042  1.00  0.00     0.009 A 
ENDROOT
BRANCH   8   9
HETATM    9  C9  UNL     1      -9.826 -53.935 -27.896  1.00  0.00    -0.018 A 
HETATM   10  C10 UNL     1      -9.862 -52.770 -27.162  1.00  0.00     0.029 A 
HETATM   11  C11 UNL     1     -10.736 -52.707 -26.069  1.00  0.00     0.090 A 
HETATM   12  N2  UNL     1     -11.507 -53.766 -25.762  1.00  0.00    -0.352 N 
HETATM   13  C12 UNL     1     -11.508 -54.911 -26.436  1.00  0.00     0.106 A 
ATOM     14  H2  UNL     1     -12.132 -53.684 -24.960  1.00  0.00     0.166 HD
HETATM   15  C24 UNL     1     -10.643 -54.974 -27.520  1.00  0.00     0.060 A 
BRANCH  13  16
HETATM   16  N3  UNL     1     -12.300 -56.053 -26.152  1.00  0.00    -0.342 N 
ATOM     17  H3  UNL     1     -12.131 -56.514 -25.258  1.00  0.00     0.167 HD
BRANCH  16  18
HETATM   18  C13 UNL     1     -13.296 -56.617 -26.972  1.00  0.00     0.036 A 
HETATM   19  C14 UNL     1     -13.325 -56.240 -28.301  1.00  0.00     0.032 A 
HETATM   20  C15 UNL     1     -14.290 -56.752 -29.132  1.00  0.00     0.034 A 
HETATM   21  C16 UNL     1     -15.249 -57.652 -28.653  1.00  0.00     0.064 A 
HETATM   22  C21 UNL     1     -15.205 -58.017 -27.327  1.00  0.00     0.096 A 
HETATM   23  C23 UNL     1     -14.226 -57.498 -26.482  1.00  0.00     0.068 A 
BRANCH  21  24
HETATM   24  N4  UNL     1     -16.226 -58.105 -29.567  1.00  0.00    -0.375 N 
HETATM   25  C17 UNL     1     -15.822 -58.936 -30.714  1.00  0.00     0.149 C 
HETATM   26  C18 UNL     1     -16.801 -60.093 -30.811  1.00  0.00     0.187 C 
HETATM   27  O2  UNL     1     -18.119 -59.738 -30.717  1.00  0.00    -0.388 OA
HETATM   28  C19 UNL     1     -18.345 -59.167 -29.440  1.00  0.00     0.187 C 
HETATM   29  C20 UNL     1     -17.637 -57.808 -29.518  1.00  0.00     0.149 C 
ENDBRANCH  21  24
BRANCH  22  30
HETATM   30  O3  UNL     1     -16.134 -58.905 -26.819  1.00  0.00    -0.354 OA
HETATM   31  C22 UNL     1     -16.615 -58.795 -25.494  1.00  0.00     0.210 C 
ENDBRANCH  22  30
ENDBRANCH  16  18
ENDBRANCH  13  16
ENDBRANCH   8   9
BRANCH   1  32
HETATM   32  O1  UNL     1     -10.653 -54.850 -30.379  1.00  0.00    -0.355 OA
HETATM   33  C1  UNL     1     -11.366 -55.001 -31.571  1.00  0.00     0.210 C 
ENDBRANCH   1  32
TORSDOF 6
ENDMDL
