MODEL 7
REMARK VINA RESULT: -8.607062386      2.320      4.495
REMARK  6 active torsions:
REMARK  status: ('A' for Active; 'I' for Inactive)
REMARK    1  A    between atoms: O1_2  and  C2_3 
REMARK    2  A    between atoms: C8_10  and  C9_11 
REMARK    3  A    between atoms: C12_16  and  N3_17 
REMARK    4  A    between atoms: N3_17  and  C13_19 
REMARK    5  A    between atoms: C16_22  and  N4_23 
REMARK    6  A    between atoms: C21_29  and  O3_30 
ROOT
HETATM    1  C2  UNL     1      -7.819 -53.942 -29.717  1.00  0.00     0.079 A 
HETATM    2  C3  UNL     1      -7.393 -53.654 -28.442  1.00  0.00     0.039 A 
HETATM    3  C4  UNL     1      -8.350 -53.614 -27.426  1.00  0.00     0.025 A 
HETATM    4  C5  UNL     1      -9.680 -53.853 -27.677  1.00  0.00     0.045 A 
HETATM    5  C6  UNL     1     -10.670 -53.809 -26.608  1.00  0.00     0.099 C 
HETATM    6  N1  UNL     1     -11.467 -53.759 -25.764  1.00  0.00    -0.191 NA
HETATM    7  C7  UNL     1     -10.053 -54.138 -28.974  1.00  0.00     0.037 A 
HETATM    8  C8  UNL     1      -9.147 -54.190 -30.015  1.00  0.00     0.009 A 
ENDROOT
BRANCH   8   9
HETATM    9  C9  UNL     1      -9.576 -54.498 -31.383  1.00  0.00    -0.018 A 
HETATM   10  C10 UNL     1      -8.740 -54.153 -32.421  1.00  0.00     0.029 A 
HETATM   11  C11 UNL     1      -9.151 -54.451 -33.726  1.00  0.00     0.090 A 
HETATM   12  N2  UNL     1     -10.334 -55.057 -33.937  1.00  0.00    -0.352 N 
HETATM   13  C12 UNL     1     -11.176 -55.409 -32.971  1.00  0.00     0.106 A 
ATOM     14  H2  UNL     1     -10.601 -55.259 -34.900  1.00  0.00     0.166 HD
HETATM   15  C24 UNL     1     -10.769 -55.115 -31.677  1.00  0.00     0.060 A 
BRANCH  13  16
HETATM   16  N3  UNL     1     -12.431 -56.047 -33.143  1.00  0.00    -0.342 N 
ATOM     17  H3  UNL     1     -12.799 -56.081 -34.094  1.00  0.00     0.167 HD
BRANCH  16  18
HETATM   18  C13 UNL     1     -13.223 -56.640 -32.141  1.00  0.00     0.036 A 
HETATM   19  C14 UNL     1     -13.841 -57.840 -32.434  1.00  0.00     0.032 A 
HETATM   20  C15 UNL     1     -14.636 -58.443 -31.493  1.00  0.00     0.034 A 
HETATM   21  C16 UNL     1     -14.833 -57.860 -30.235  1.00  0.00     0.064 A 
HETATM   22  C21 UNL     1     -14.209 -56.665 -29.960  1.00  0.00     0.096 A 
HETATM   23  C23 UNL     1     -13.401 -56.051 -30.915  1.00  0.00     0.068 A 
BRANCH  21  24
HETATM   24  N4  UNL     1     -15.693 -58.530 -29.337  1.00  0.00    -0.375 N 
HETATM   25  C17 UNL     1     -15.156 -59.595 -28.472  1.00  0.00     0.149 C 
HETATM   26  C18 UNL     1     -15.698 -59.365 -27.071  1.00  0.00     0.187 C 
HETATM   27  O2  UNL     1     -17.041 -59.113 -27.011  1.00  0.00    -0.388 OA
HETATM   28  C19 UNL     1     -17.310 -57.912 -27.714  1.00  0.00     0.187 C 
HETATM   29  C20 UNL     1     -17.109 -58.299 -29.185  1.00  0.00     0.149 C 
ENDBRANCH  21  24
BRANCH  22  30
HETATM   30  O3  UNL     1     -14.377 -56.061 -28.728  1.00  0.00    -0.354 OA
HETATM   31  C22 UNL     1     -13.459 -56.266 -27.673  1.00  0.00     0.210 C 
ENDBRANCH  22  30
ENDBRANCH  16  18
ENDBRANCH  13  16
ENDBRANCH   8   9
BRANCH   1  32
HETATM   32  O1  UNL     1      -6.923 -53.994 -30.754  1.00  0.00    -0.355 OA
HETATM   33  C1  UNL     1      -5.535 -53.888 -30.638  1.00  0.00     0.210 C 
ENDBRANCH   1  32
TORSDOF 6
ENDMDL
