MODEL 1
REMARK VINA RESULT: -9.654476841      0.000      0.000
REMARK  6 active torsions:
REMARK  status: ('A' for Active; 'I' for Inactive)
REMARK    1  A    between atoms: O1_2  and  C2_3 
REMARK    2  A    between atoms: C8_10  and  C9_11 
REMARK    3  A    between atoms: C12_16  and  N3_17 
REMARK    4  A    between atoms: N3_17  and  C13_19 
REMARK    5  A    between atoms: C16_22  and  N4_23 
REMARK    6  A    between atoms: C21_29  and  O3_30 
ROOT
HETATM    1  C2  UNL     1      -8.915 -54.393 -30.167  1.00  0.00     0.079 A 
HETATM    2  C3  UNL     1      -7.997 -54.442 -31.190  1.00  0.00     0.039 A 
HETATM    3  C4  UNL     1      -6.712 -53.958 -30.940  1.00  0.00     0.025 A 
HETATM    4  C5  UNL     1      -6.359 -53.446 -29.714  1.00  0.00     0.045 A 
HETATM    5  C6  UNL     1      -5.013 -52.944 -29.464  1.00  0.00     0.099 C 
HETATM    6  N1  UNL     1      -3.947 -52.527 -29.262  1.00  0.00    -0.191 NA
HETATM    7  C7  UNL     1      -7.318 -53.421 -28.723  1.00  0.00     0.037 A 
HETATM    8  C8  UNL     1      -8.603 -53.887 -28.919  1.00  0.00     0.009 A 
ENDROOT
BRANCH   8   9
HETATM    9  C9  UNL     1      -9.598 -53.849 -27.842  1.00  0.00    -0.018 A 
HETATM   10  C10 UNL     1      -9.713 -52.693 -27.102  1.00  0.00     0.029 A 
HETATM   11  C11 UNL     1     -10.666 -52.659 -26.077  1.00  0.00     0.090 A 
HETATM   12  N2  UNL     1     -11.436 -53.736 -25.838  1.00  0.00    -0.352 N 
HETATM   13  C12 UNL     1     -11.364 -54.874 -26.521  1.00  0.00     0.106 A 
ATOM     14  H2  UNL     1     -12.120 -53.675 -25.083  1.00  0.00     0.166 HD
HETATM   15  C24 UNL     1     -10.420 -54.908 -27.538  1.00  0.00     0.060 A 
BRANCH  13  16
HETATM   16  N3  UNL     1     -12.151 -56.034 -26.307  1.00  0.00    -0.342 N 
ATOM     17  H3  UNL     1     -11.942 -56.578 -25.470  1.00  0.00     0.167 HD
BRANCH  16  18
HETATM   18  C13 UNL     1     -13.192 -56.513 -27.126  1.00  0.00     0.036 A 
HETATM   19  C14 UNL     1     -14.174 -57.284 -26.535  1.00  0.00     0.032 A 
HETATM   20  C15 UNL     1     -15.196 -57.786 -27.300  1.00  0.00     0.034 A 
HETATM   21  C16 UNL     1     -15.260 -57.530 -28.674  1.00  0.00     0.064 A 
HETATM   22  C21 UNL     1     -14.273 -56.760 -29.247  1.00  0.00     0.096 A 
HETATM   23  C23 UNL     1     -13.235 -56.250 -28.471  1.00  0.00     0.068 A 
BRANCH  21  24
HETATM   24  N4  UNL     1     -16.328 -58.113 -29.393  1.00  0.00    -0.375 N 
HETATM   25  C17 UNL     1     -16.071 -59.266 -30.273  1.00  0.00     0.149 C 
HETATM   26  C18 UNL     1     -17.157 -60.295 -30.009  1.00  0.00     0.187 C 
HETATM   27  O2  UNL     1     -18.428 -59.790 -29.977  1.00  0.00    -0.388 OA
HETATM   28  C19 UNL     1     -18.524 -58.868 -28.905  1.00  0.00     0.187 C 
HETATM   29  C20 UNL     1     -17.700 -57.666 -29.385  1.00  0.00     0.149 C 
ENDBRANCH  21  24
BRANCH  22  30
HETATM   30  O3  UNL     1     -14.305 -56.484 -30.601  1.00  0.00    -0.354 OA
HETATM   31  C22 UNL     1     -13.498 -57.195 -31.519  1.00  0.00     0.210 C 
ENDBRANCH  22  30
ENDBRANCH  16  18
ENDBRANCH  13  16
ENDBRANCH   8   9
BRANCH   1  32
HETATM   32  O1  UNL     1     -10.192 -54.854 -30.358  1.00  0.00    -0.355 OA
HETATM   33  C1  UNL     1     -10.967 -54.659 -31.503  1.00  0.00     0.210 C 
ENDBRANCH   1  32
TORSDOF 6
ENDMDL
