MODEL 1
REMARK VINA RESULT: -8.040026078      0.000      0.000
REMARK  3 active torsions:
REMARK  status: ('A' for Active; 'I' for Inactive)
REMARK    1  A    between atoms: C1_2  and  C2_3 
REMARK    2  A    between atoms: C1_2  and  C8_9 
REMARK    3  A    between atoms: N1_21  and  O3_22 
ROOT
HETATM    1  C8  UNL     1     -21.552   0.316  -4.547  1.00  0.00     0.026 A 
HETATM    2  C9  UNL     1     -20.930   1.537  -4.851  1.00  0.00     0.017 A 
HETATM    3  C10 UNL     1     -20.780   2.020  -6.118  1.00  0.00     0.019 A 
HETATM    4  C11 UNL     1     -21.268   1.263  -7.148  1.00  0.00     0.046 A 
HETATM    5  C12 UNL     1     -21.890   0.055  -6.941  1.00  0.00     0.007 A 
HETATM    6  C13 UNL     1     -22.377  -0.707  -7.970  1.00  0.00     0.046 A 
HETATM    7  C14 UNL     1     -22.994  -1.922  -7.740  1.00  0.00     0.018 A 
HETATM    8  C15 UNL     1     -23.141  -2.407  -6.466  1.00  0.00     0.002 A 
HETATM    9  C16 UNL     1     -22.648  -1.630  -5.423  1.00  0.00     0.013 A 
HETATM   10  C17 UNL     1     -22.032  -0.417  -5.637  1.00  0.00    -0.010 A 
HETATM   11  C18 UNL     1     -22.240  -0.237  -9.368  1.00  0.00     0.285 A 
HETATM   12  O2  UNL     1     -22.688  -0.943 -10.305  1.00  0.00    -0.265 OA
HETATM   13  N1  UNL     1     -21.600   1.009  -9.618  1.00  0.00    -0.148 N 
HETATM   14  C19 UNL     1     -21.120   1.751  -8.512  1.00  0.00     0.285 A 
HETATM   15  O4  UNL     1     -20.555   2.854  -8.739  1.00  0.00    -0.265 OA
ENDROOT
BRANCH   1  16
HETATM   16  C1  UNL     1     -21.709  -0.101  -3.172  1.00  0.00     0.193 C 
HETATM   17  O1  UNL     1     -22.726   0.185  -2.525  1.00  0.00    -0.287 OA
BRANCH  16  18
HETATM   18  C2  UNL     1     -20.676  -0.875  -2.498  1.00  0.00     0.015 A 
HETATM   19  C3  UNL     1     -20.844  -1.462  -1.272  1.00  0.00     0.015 A 
HETATM   20  C4  UNL     1     -19.852  -2.195  -0.644  1.00  0.00     0.001 A 
HETATM   21  C5  UNL     1     -18.614  -2.357  -1.269  1.00  0.00     0.000 A 
HETATM   22  C6  UNL     1     -18.422  -1.773  -2.509  1.00  0.00     0.001 A 
HETATM   23  C7  UNL     1     -19.427  -1.051  -3.106  1.00  0.00     0.015 A 
ENDBRANCH  16  18
ENDBRANCH   1  16
BRANCH  13  24
HETATM   24  O3  UNL     1     -21.463   1.461 -10.884  1.00  0.00    -0.277 OA
ATOM     25  H3  UNL     1     -21.788   2.321 -11.123  1.00  0.00     0.245 HD
ENDBRANCH  13  24
TORSDOF 3
ENDMDL
