MODEL 5
REMARK VINA RESULT: -7.924106824      1.822      2.983
REMARK  3 active torsions:
REMARK  status: ('A' for Active; 'I' for Inactive)
REMARK    1  A    between atoms: C1_2  and  C2_3 
REMARK    2  A    between atoms: C1_2  and  C8_9 
REMARK    3  A    between atoms: N1_21  and  O3_22 
ROOT
HETATM    1  C8  UNL     1     -21.675   0.550  -4.535  1.00  0.00     0.026 A 
HETATM    2  C9  UNL     1     -21.033   1.721  -4.967  1.00  0.00     0.017 A 
HETATM    3  C10 UNL     1     -20.820   2.032  -6.277  1.00  0.00     0.019 A 
HETATM    4  C11 UNL     1     -21.260   1.144  -7.221  1.00  0.00     0.046 A 
HETATM    5  C12 UNL     1     -21.896  -0.027  -6.886  1.00  0.00     0.007 A 
HETATM    6  C13 UNL     1     -22.335  -0.921  -7.827  1.00  0.00     0.046 A 
HETATM    7  C14 UNL     1     -22.967  -2.095  -7.469  1.00  0.00     0.018 A 
HETATM    8  C15 UNL     1     -23.179  -2.408  -6.151  1.00  0.00     0.002 A 
HETATM    9  C16 UNL     1     -22.734  -1.498  -5.197  1.00  0.00     0.013 A 
HETATM   10  C17 UNL     1     -22.104  -0.323  -5.540  1.00  0.00    -0.010 A 
HETATM   11  C18 UNL     1     -22.127  -0.639  -9.267  1.00  0.00     0.285 A 
HETATM   12  O2  UNL     1     -22.533  -1.465 -10.124  1.00  0.00    -0.265 OA
HETATM   13  N1  UNL     1     -21.472   0.564  -9.649  1.00  0.00    -0.148 N 
HETATM   14  C19 UNL     1     -21.043   1.446  -8.628  1.00  0.00     0.285 A 
HETATM   15  O4  UNL     1     -20.463   2.512  -8.972  1.00  0.00    -0.265 OA
ENDROOT
BRANCH   1  16
HETATM   16  C1  UNL     1     -21.901   0.318  -3.126  1.00  0.00     0.193 C 
HETATM   17  O1  UNL     1     -21.193  -0.467  -2.481  1.00  0.00    -0.287 OA
BRANCH  16  18
HETATM   18  C2  UNL     1     -22.970   1.003  -2.413  1.00  0.00     0.015 A 
HETATM   19  C3  UNL     1     -22.818   1.572  -1.177  1.00  0.00     0.015 A 
HETATM   20  C4  UNL     1     -23.845   2.220  -0.513  1.00  0.00     0.001 A 
HETATM   21  C5  UNL     1     -25.104   2.310  -1.110  1.00  0.00     0.000 A 
HETATM   22  C6  UNL     1     -25.281   1.743  -2.359  1.00  0.00     0.001 A 
HETATM   23  C7  UNL     1     -24.241   1.106  -2.993  1.00  0.00     0.015 A 
ENDBRANCH  16  18
ENDBRANCH   1  16
BRANCH  13  24
HETATM   24  O3  UNL     1     -21.271   0.844 -10.956  1.00  0.00    -0.277 OA
ATOM     25  H3  UNL     1     -20.451   1.231 -11.241  1.00  0.00     0.245 HD
ENDBRANCH  13  24
TORSDOF 3
ENDMDL
