MODEL 2
REMARK VINA RESULT: -7.995892055      1.945      3.997
REMARK  3 active torsions:
REMARK  status: ('A' for Active; 'I' for Inactive)
REMARK    1  A    between atoms: C1_2  and  C2_3 
REMARK    2  A    between atoms: C1_2  and  C8_9 
REMARK    3  A    between atoms: N1_21  and  O3_22 
ROOT
HETATM    1  C8  UNL     1     -21.988  -0.293  -4.550  1.00  0.00     0.026 A 
HETATM    2  C9  UNL     1     -22.617  -1.502  -4.886  1.00  0.00     0.017 A 
HETATM    3  C10 UNL     1     -22.769  -1.950  -6.164  1.00  0.00     0.019 A 
HETATM    4  C11 UNL     1     -22.277  -1.170  -7.175  1.00  0.00     0.046 A 
HETATM    5  C12 UNL     1     -21.648   0.029  -6.937  1.00  0.00     0.007 A 
HETATM    6  C13 UNL     1     -21.158   0.815  -7.945  1.00  0.00     0.046 A 
HETATM    7  C14 UNL     1     -20.534   2.019  -7.684  1.00  0.00     0.018 A 
HETATM    8  C15 UNL     1     -20.384   2.471  -6.398  1.00  0.00     0.002 A 
HETATM    9  C16 UNL     1     -20.881   1.670  -5.376  1.00  0.00     0.013 A 
HETATM   10  C17 UNL     1     -21.504   0.466  -5.621  1.00  0.00    -0.010 A 
HETATM   11  C18 UNL     1     -21.298   0.381  -9.355  1.00  0.00     0.285 A 
HETATM   12  O2  UNL     1     -20.845   1.110 -10.274  1.00  0.00    -0.265 OA
HETATM   13  N1  UNL     1     -21.944  -0.854  -9.637  1.00  0.00    -0.148 N 
HETATM   14  C19 UNL     1     -22.428  -1.621  -8.550  1.00  0.00     0.285 A 
HETATM   15  O4  UNL     1     -22.999  -2.716  -8.806  1.00  0.00    -0.265 OA
ENDROOT
BRANCH   1  16
HETATM   16  C1  UNL     1     -21.828   0.088  -3.165  1.00  0.00     0.193 C 
HETATM   17  O1  UNL     1     -20.819  -0.233  -2.521  1.00  0.00    -0.287 OA
BRANCH  16  18
HETATM   18  C2  UNL     1     -22.849   0.865  -2.476  1.00  0.00     0.015 A 
HETATM   19  C3  UNL     1     -22.667   1.436  -1.244  1.00  0.00     0.015 A 
HETATM   20  C4  UNL     1     -23.648   2.172  -0.602  1.00  0.00     0.001 A 
HETATM   21  C5  UNL     1     -24.887   2.356  -1.218  1.00  0.00     0.000 A 
HETATM   22  C6  UNL     1     -25.093   1.789  -2.463  1.00  0.00     0.001 A 
HETATM   23  C7  UNL     1     -24.099   1.063  -3.075  1.00  0.00     0.015 A 
ENDBRANCH  16  18
ENDBRANCH   1  16
BRANCH  13  24
HETATM   24  O3  UNL     1     -22.084  -1.272 -10.915  1.00  0.00    -0.277 OA
ATOM     25  H3  UNL     1     -21.321  -1.520 -11.423  1.00  0.00     0.245 HD
ENDBRANCH  13  24
TORSDOF 3
ENDMDL
