MODEL 12
REMARK VINA RESULT: -7.553406348      2.746      6.768
REMARK  3 active torsions:
REMARK  status: ('A' for Active; 'I' for Inactive)
REMARK    1  A    between atoms: C1_2  and  C2_3 
REMARK    2  A    between atoms: C1_2  and  C8_9 
REMARK    3  A    between atoms: N1_21  and  O3_22 
ROOT
HETATM    1  C8  UNL     1     -22.256   0.266  -6.013  1.00  0.00     0.026 A 
HETATM    2  C9  UNL     1     -21.229  -0.627  -5.670  1.00  0.00     0.017 A 
HETATM    3  C10 UNL     1     -20.858  -0.903  -4.387  1.00  0.00     0.019 A 
HETATM    4  C11 UNL     1     -21.533  -0.269  -3.380  1.00  0.00     0.046 A 
HETATM    5  C12 UNL     1     -22.550   0.622  -3.625  1.00  0.00     0.007 A 
HETATM    6  C13 UNL     1     -23.225   1.263  -2.620  1.00  0.00     0.046 A 
HETATM    7  C14 UNL     1     -24.241   2.159  -2.890  1.00  0.00     0.018 A 
HETATM    8  C15 UNL     1     -24.611   2.438  -4.180  1.00  0.00     0.002 A 
HETATM    9  C16 UNL     1     -23.925   1.785  -5.199  1.00  0.00     0.013 A 
HETATM   10  C17 UNL     1     -22.911   0.888  -4.945  1.00  0.00    -0.010 A 
HETATM   11  C18 UNL     1     -22.864   1.006  -1.207  1.00  0.00     0.285 A 
HETATM   12  O2  UNL     1     -23.488   1.600  -0.291  1.00  0.00    -0.265 OA
HETATM   13  N1  UNL     1     -21.815   0.091  -0.917  1.00  0.00    -0.148 N 
HETATM   14  C19 UNL     1     -21.157  -0.540  -2.000  1.00  0.00     0.285 A 
HETATM   15  O4  UNL     1     -20.228  -1.352  -1.738  1.00  0.00    -0.265 OA
ENDROOT
BRANCH   1  16
HETATM   16  C1  UNL     1     -22.616   0.468  -7.398  1.00  0.00     0.193 C 
HETATM   17  O1  UNL     1     -23.210   1.491  -7.766  1.00  0.00    -0.287 OA
BRANCH  16  18
HETATM   18  C2  UNL     1     -22.290  -0.525  -8.413  1.00  0.00     0.015 A 
HETATM   19  C3  UNL     1     -22.743  -1.817  -8.385  1.00  0.00     0.015 A 
HETATM   20  C4  UNL     1     -22.424  -2.749  -9.357  1.00  0.00     0.001 A 
HETATM   21  C5  UNL     1     -21.605  -2.378 -10.426  1.00  0.00     0.000 A 
HETATM   22  C6  UNL     1     -21.138  -1.077 -10.476  1.00  0.00     0.001 A 
HETATM   23  C7  UNL     1     -21.472  -0.175  -9.494  1.00  0.00     0.015 A 
ENDBRANCH  16  18
ENDBRANCH   1  16
BRANCH  13  24
HETATM   24  O3  UNL     1     -21.466  -0.161   0.365  1.00  0.00    -0.277 OA
ATOM     25  H3  UNL     1     -20.669  -0.639   0.558  1.00  0.00     0.245 HD
ENDBRANCH  13  24
TORSDOF 3
ENDMDL
