MODEL 11
REMARK VINA RESULT: -7.689879630      2.755      6.905
REMARK  3 active torsions:
REMARK  status: ('A' for Active; 'I' for Inactive)
REMARK    1  A    between atoms: C1_2  and  C2_3 
REMARK    2  A    between atoms: C1_2  and  C8_9 
REMARK    3  A    between atoms: N1_21  and  O3_22 
ROOT
HETATM    1  C8  UNL     1     -22.353   0.369  -6.251  1.00  0.00     0.026 A 
HETATM    2  C9  UNL     1     -21.346  -0.594  -6.417  1.00  0.00     0.017 A 
HETATM    3  C10 UNL     1     -20.686  -1.190  -5.383  1.00  0.00     0.019 A 
HETATM    4  C11 UNL     1     -21.033  -0.823  -4.112  1.00  0.00     0.046 A 
HETATM    5  C12 UNL     1     -22.007   0.113  -3.858  1.00  0.00     0.007 A 
HETATM    6  C13 UNL     1     -22.354   0.487  -2.587  1.00  0.00     0.046 A 
HETATM    7  C14 UNL     1     -23.333   1.433  -2.354  1.00  0.00     0.018 A 
HETATM    8  C15 UNL     1     -23.994   2.034  -3.395  1.00  0.00     0.002 A 
HETATM    9  C16 UNL     1     -23.640   1.651  -4.684  1.00  0.00     0.013 A 
HETATM   10  C17 UNL     1     -22.668   0.708  -4.931  1.00  0.00    -0.010 A 
HETATM   11  C18 UNL     1     -21.669  -0.124  -1.424  1.00  0.00     0.285 A 
HETATM   12  O2  UNL     1     -21.994   0.226  -0.261  1.00  0.00    -0.265 OA
HETATM   13  N1  UNL     1     -20.655  -1.095  -1.650  1.00  0.00    -0.148 N 
HETATM   14  C19 UNL     1     -20.343  -1.439  -2.987  1.00  0.00     0.285 A 
HETATM   15  O4  UNL     1     -19.444  -2.301  -3.183  1.00  0.00    -0.265 OA
ENDROOT
BRANCH   1  16
HETATM   16  C1  UNL     1     -23.034   0.919  -7.401  1.00  0.00     0.193 C 
HETATM   17  O1  UNL     1     -23.995   1.691  -7.273  1.00  0.00    -0.287 OA
BRANCH  16  18
HETATM   18  C2  UNL     1     -22.613   0.586  -8.755  1.00  0.00     0.015 A 
HETATM   19  C3  UNL     1     -22.547  -0.694  -9.238  1.00  0.00     0.015 A 
HETATM   20  C4  UNL     1     -22.144  -0.993 -10.528  1.00  0.00     0.001 A 
HETATM   21  C5  UNL     1     -21.785   0.040 -11.396  1.00  0.00     0.000 A 
HETATM   22  C6  UNL     1     -21.846   1.341 -10.930  1.00  0.00     0.001 A 
HETATM   23  C7  UNL     1     -22.250   1.606  -9.643  1.00  0.00     0.015 A 
ENDBRANCH  16  18
ENDBRANCH   1  16
BRANCH  13  24
HETATM   24  O3  UNL     1     -20.016  -1.667  -0.606  1.00  0.00    -0.277 OA
ATOM     25  H3  UNL     1     -19.122  -1.420  -0.399  1.00  0.00     0.245 HD
ENDBRANCH  13  24
TORSDOF 3
ENDMDL
