MODEL 6
REMARK VINA RESULT: -8.676890831      2.492      7.408
REMARK  3 active torsions:
REMARK  status: ('A' for Active; 'I' for Inactive)
REMARK    1  A    between atoms: N1_2  and  S1_4 
REMARK    2  A    between atoms: S1_4  and  C2_7 
REMARK    3  A    between atoms: C6_11  and  C7_12 
ROOT
HETATM    1  C2  UNL     1      11.151  -7.380  -4.275  1.00  0.00     0.080 A 
HETATM    2  C3  UNL     1      10.562  -6.598  -5.251  1.00  0.00     0.025 A 
HETATM    3  C4  UNL     1       9.887  -7.245  -6.271  1.00  0.00     0.002 A 
HETATM    4  C5  UNL     1       9.797  -8.627  -6.326  1.00  0.00     0.014 A 
HETATM    5  C6  UNL     1      10.378  -9.401  -5.364  1.00  0.00    -0.001 A 
HETATM    6  C14 UNL     1      11.051  -8.743  -4.347  1.00  0.00     0.039 A 
ENDROOT
BRANCH   5   7
HETATM    7  C7  UNL     1      10.319 -10.860  -5.365  1.00  0.00     0.087 A 
HETATM    8  C8  UNL     1       9.213 -11.624  -5.674  1.00  0.00     0.057 A 
HETATM    9  C9  UNL     1       9.549 -12.964  -5.562  1.00  0.00     0.065 A 
HETATM   10  C10 UNL     1      10.894 -12.931  -5.176  1.00  0.00     0.074 A 
HETATM   11  C13 UNL     1       8.915 -14.242  -5.731  1.00  0.00     0.257 A 
HETATM   12  O3  UNL     1      11.287 -11.689  -5.077  1.00  0.00    -0.313 OA
HETATM   13  C11 UNL     1      11.646 -14.184  -4.947  1.00  0.00     0.110 A 
HETATM   14  C12 UNL     1      10.839 -15.387  -5.166  1.00  0.00     0.070 A 
HETATM   15  N2  UNL     1       9.617 -15.456  -5.515  1.00  0.00    -0.336 N 
ATOM     16  H2  UNL     1       9.156 -16.357  -5.638  1.00  0.00     0.168 HD
HETATM   17  O4  UNL     1       7.712 -14.281  -6.076  1.00  0.00    -0.267 OA
ENDBRANCH   5   7
BRANCH   1  18
HETATM   18  S1  UNL     1      12.032  -6.689  -2.932  1.00  0.00     0.258 S 
HETATM   19  O1  UNL     1      13.467  -7.141  -2.950  1.00  0.00    -0.201 OA
HETATM   20  O2  UNL     1      12.002  -5.198  -3.049  1.00  0.00    -0.201 OA
BRANCH  18  21
HETATM   21  N1  UNL     1      11.307  -7.242  -1.479  1.00  0.00    -0.320 N 
HETATM   22  C1  UNL     1      12.255  -7.354  -0.403  1.00  0.00     0.159 C 
ATOM     23  H1  UNL     1      10.316  -7.465  -1.388  1.00  0.00     0.171 HD
ENDBRANCH  18  21
ENDBRANCH   1  18
TORSDOF 3
ENDMDL
