MODEL 2
REMARK VINA RESULT: -10.401257228      1.163      1.345
REMARK  3 active torsions:
REMARK  status: ('A' for Active; 'I' for Inactive)
REMARK    1  A    between atoms: N1_2  and  S1_4 
REMARK    2  A    between atoms: S1_4  and  C2_7 
REMARK    3  A    between atoms: C6_11  and  C7_12 
ROOT
HETATM    1  C2  UNL     1       9.772 -10.434  -5.464  1.00  0.00     0.080 A 
HETATM    2  C3  UNL     1       9.049  -9.802  -6.457  1.00  0.00     0.025 A 
HETATM    3  C4  UNL     1       9.049  -8.418  -6.470  1.00  0.00     0.002 A 
HETATM    4  C5  UNL     1       9.745  -7.679  -5.526  1.00  0.00     0.014 A 
HETATM    5  C6  UNL     1      10.459  -8.301  -4.544  1.00  0.00    -0.001 A 
HETATM    6  C14 UNL     1      10.453  -9.686  -4.541  1.00  0.00     0.039 A 
ENDROOT
BRANCH   5   7
HETATM    7  C7  UNL     1      11.213  -7.580  -3.522  1.00  0.00     0.087 A 
HETATM    8  C8  UNL     1      12.011  -6.476  -3.735  1.00  0.00     0.057 A 
HETATM    9  C9  UNL     1      12.557  -6.078  -2.524  1.00  0.00     0.065 A 
HETATM   10  C10 UNL     1      12.035  -7.003  -1.612  1.00  0.00     0.074 A 
HETATM   11  C13 UNL     1      13.435  -5.052  -2.034  1.00  0.00     0.257 A 
HETATM   12  O3  UNL     1      11.265  -7.848  -2.244  1.00  0.00    -0.313 OA
HETATM   13  C11 UNL     1      12.381  -6.926  -0.176  1.00  0.00     0.110 A 
HETATM   14  C12 UNL     1      13.286  -5.819   0.139  1.00  0.00     0.070 A 
HETATM   15  N2  UNL     1      13.780  -4.961  -0.661  1.00  0.00    -0.336 N 
ATOM     16  H2  UNL     1      14.406  -4.229  -0.325  1.00  0.00     0.168 HD
HETATM   17  O4  UNL     1      13.907  -4.221  -2.843  1.00  0.00    -0.267 OA
ENDBRANCH   5   7
BRANCH   1  18
HETATM   18  S1  UNL     1       9.856 -12.175  -5.335  1.00  0.00     0.258 S 
HETATM   19  O1  UNL     1       8.799 -12.689  -4.394  1.00  0.00    -0.201 OA
HETATM   20  O2  UNL     1       9.620 -12.773  -6.687  1.00  0.00    -0.201 OA
BRANCH  18  21
HETATM   21  N1  UNL     1      11.394 -12.589  -4.701  1.00  0.00    -0.320 N 
HETATM   22  C1  UNL     1      12.240 -13.216  -5.682  1.00  0.00     0.159 C 
ATOM     23  H1  UNL     1      11.678 -12.411  -3.738  1.00  0.00     0.171 HD
ENDBRANCH  18  21
ENDBRANCH   1  18
TORSDOF 3
ENDMDL
