MODEL 8
REMARK VINA RESULT: -7.992336021      2.788      7.255
REMARK  3 active torsions:
REMARK  status: ('A' for Active; 'I' for Inactive)
REMARK    1  A    between atoms: N1_2  and  S1_4 
REMARK    2  A    between atoms: S1_4  and  C2_7 
REMARK    3  A    between atoms: C6_11  and  C7_12 
ROOT
HETATM    1  C2  UNL     1      11.202  -7.436  -4.307  1.00  0.00     0.080 A 
HETATM    2  C3  UNL     1      10.453  -6.714  -5.217  1.00  0.00     0.025 A 
HETATM    3  C4  UNL     1       9.841  -7.414  -6.242  1.00  0.00     0.002 A 
HETATM    4  C5  UNL     1       9.965  -8.789  -6.365  1.00  0.00     0.014 A 
HETATM    5  C6  UNL     1      10.704  -9.503  -5.467  1.00  0.00    -0.001 A 
HETATM    6  C14 UNL     1      11.313  -8.793  -4.445  1.00  0.00     0.039 A 
ENDROOT
BRANCH   5   7
HETATM    7  C7  UNL     1      10.874 -10.951  -5.541  1.00  0.00     0.087 A 
HETATM    8  C8  UNL     1      11.602 -11.632  -6.495  1.00  0.00     0.057 A 
HETATM    9  C9  UNL     1      11.525 -12.991  -6.231  1.00  0.00     0.065 A 
HETATM   10  C10 UNL     1      10.723 -13.055  -5.085  1.00  0.00     0.074 A 
HETATM   11  C13 UNL     1      12.021 -14.217  -6.791  1.00  0.00     0.257 A 
HETATM   12  O3  UNL     1      10.375 -11.847  -4.731  1.00  0.00    -0.313 OA
HETATM   13  C11 UNL     1      10.392 -14.357  -4.466  1.00  0.00     0.110 A 
HETATM   14  C12 UNL     1      10.983 -15.496  -5.173  1.00  0.00     0.070 A 
HETATM   15  N2  UNL     1      11.715 -15.477  -6.214  1.00  0.00    -0.336 N 
ATOM     16  H2  UNL     1      12.072 -16.341  -6.621  1.00  0.00     0.168 HD
HETATM   17  O4  UNL     1      12.739 -14.169  -7.815  1.00  0.00    -0.267 OA
ENDBRANCH   5   7
BRANCH   1  18
HETATM   18  S1  UNL     1      12.026  -6.675  -2.966  1.00  0.00     0.258 S 
HETATM   19  O1  UNL     1      13.471  -7.095  -2.924  1.00  0.00    -0.201 OA
HETATM   20  O2  UNL     1      11.968  -5.190  -3.141  1.00  0.00    -0.201 OA
BRANCH  18  21
HETATM   21  N1  UNL     1      11.269  -7.188  -1.515  1.00  0.00    -0.320 N 
HETATM   22  C1  UNL     1      12.220  -7.617  -0.524  1.00  0.00     0.159 C 
ATOM     23  H1  UNL     1      10.260  -7.189  -1.371  1.00  0.00     0.171 HD
ENDBRANCH  18  21
ENDBRANCH   1  18
TORSDOF 3
ENDMDL
