MODEL 3
REMARK VINA RESULT: -10.147103933      1.203      1.338
REMARK  3 active torsions:
REMARK  status: ('A' for Active; 'I' for Inactive)
REMARK    1  A    between atoms: N1_2  and  S1_4 
REMARK    2  A    between atoms: S1_4  and  C2_7 
REMARK    3  A    between atoms: C6_11  and  C7_12 
ROOT
HETATM    1  C2  UNL     1      10.075 -10.477  -5.631  1.00  0.00     0.080 A 
HETATM    2  C3  UNL     1       9.206  -9.870  -6.518  1.00  0.00     0.025 A 
HETATM    3  C4  UNL     1       9.040  -8.500  -6.419  1.00  0.00     0.002 A 
HETATM    4  C5  UNL     1       9.715  -7.749  -5.469  1.00  0.00     0.014 A 
HETATM    5  C6  UNL     1      10.573  -8.347  -4.592  1.00  0.00    -0.001 A 
HETATM    6  C14 UNL     1      10.732  -9.718  -4.700  1.00  0.00     0.039 A 
ENDROOT
BRANCH   5   7
HETATM    7  C7  UNL     1      11.313  -7.612  -3.570  1.00  0.00     0.087 A 
HETATM    8  C8  UNL     1      12.082  -6.486  -3.781  1.00  0.00     0.057 A 
HETATM    9  C9  UNL     1      12.624  -6.082  -2.571  1.00  0.00     0.065 A 
HETATM   10  C10 UNL     1      12.130  -7.024  -1.661  1.00  0.00     0.074 A 
HETATM   11  C13 UNL     1      13.479  -5.037  -2.080  1.00  0.00     0.257 A 
HETATM   12  O3  UNL     1      11.379  -7.885  -2.294  1.00  0.00    -0.313 OA
HETATM   13  C11 UNL     1      12.481  -6.946  -0.226  1.00  0.00     0.110 A 
HETATM   14  C12 UNL     1      13.360  -5.818   0.090  1.00  0.00     0.070 A 
HETATM   15  N2  UNL     1      13.828  -4.944  -0.707  1.00  0.00    -0.336 N 
ATOM     16  H2  UNL     1      14.437  -4.198  -0.370  1.00  0.00     0.168 HD
HETATM   17  O4  UNL     1      13.925  -4.189  -2.886  1.00  0.00    -0.267 OA
ENDBRANCH   5   7
BRANCH   1  18
HETATM   18  S1  UNL     1      10.375 -12.199  -5.649  1.00  0.00     0.258 S 
HETATM   19  O1  UNL     1       9.966 -12.796  -6.968  1.00  0.00    -0.201 OA
HETATM   20  O2  UNL     1      11.840 -12.438  -5.453  1.00  0.00    -0.201 OA
BRANCH  18  21
HETATM   21  N1  UNL     1       9.429 -12.917  -4.412  1.00  0.00    -0.320 N 
HETATM   22  C1  UNL     1      10.139 -13.953  -3.711  1.00  0.00     0.159 C 
ATOM     23  H1  UNL     1       8.471 -12.641  -4.197  1.00  0.00     0.171 HD
ENDBRANCH  18  21
ENDBRANCH   1  18
TORSDOF 3
ENDMDL
