MODEL 1
REMARK VINA RESULT: -10.433272951      0.000      0.000
REMARK  3 active torsions:
REMARK  status: ('A' for Active; 'I' for Inactive)
REMARK    1  A    between atoms: N1_2  and  S1_4 
REMARK    2  A    between atoms: S1_4  and  C2_7 
REMARK    3  A    between atoms: C6_11  and  C7_12 
ROOT
HETATM    1  C2  UNL     1       9.730 -10.403  -5.455  1.00  0.00     0.080 A 
HETATM    2  C3  UNL     1       9.022  -9.764  -6.455  1.00  0.00     0.025 A 
HETATM    3  C4  UNL     1       9.044  -8.381  -6.475  1.00  0.00     0.002 A 
HETATM    4  C5  UNL     1       9.746  -7.648  -5.531  1.00  0.00     0.014 A 
HETATM    5  C6  UNL     1      10.445  -8.277  -4.542  1.00  0.00    -0.001 A 
HETATM    6  C14 UNL     1      10.416  -9.661  -4.531  1.00  0.00     0.039 A 
ENDROOT
BRANCH   5   7
HETATM    7  C7  UNL     1      11.203  -7.563  -3.518  1.00  0.00     0.087 A 
HETATM    8  C8  UNL     1      12.007  -6.462  -3.729  1.00  0.00     0.057 A 
HETATM    9  C9  UNL     1      12.557  -6.070  -2.518  1.00  0.00     0.065 A 
HETATM   10  C10 UNL     1      12.032  -6.995  -1.608  1.00  0.00     0.074 A 
HETATM   11  C13 UNL     1      13.442  -5.051  -2.027  1.00  0.00     0.257 A 
HETATM   12  O3  UNL     1      11.257  -7.834  -2.241  1.00  0.00    -0.313 OA
HETATM   13  C11 UNL     1      12.380  -6.924  -0.172  1.00  0.00     0.110 A 
HETATM   14  C12 UNL     1      13.292  -5.823   0.145  1.00  0.00     0.070 A 
HETATM   15  N2  UNL     1      13.789  -4.965  -0.654  1.00  0.00    -0.336 N 
ATOM     16  H2  UNL     1      14.419  -4.237  -0.317  1.00  0.00     0.168 HD
HETATM   17  O4  UNL     1      13.916  -4.219  -2.834  1.00  0.00    -0.267 OA
ENDBRANCH   5   7
BRANCH   1  18
HETATM   18  S1  UNL     1       9.784 -12.145  -5.316  1.00  0.00     0.258 S 
HETATM   19  O1  UNL     1      11.143 -12.598  -4.855  1.00  0.00    -0.201 OA
HETATM   20  O2  UNL     1       8.769 -12.583  -4.308  1.00  0.00    -0.201 OA
BRANCH  18  21
HETATM   21  N1  UNL     1       9.488 -12.811  -6.869  1.00  0.00    -0.320 N 
HETATM   22  C1  UNL     1       8.265 -13.566  -6.916  1.00  0.00     0.159 C 
ATOM     23  H1  UNL     1      10.109 -12.686  -7.668  1.00  0.00     0.171 HD
ENDBRANCH  18  21
ENDBRANCH   1  18
TORSDOF 3
ENDMDL
