MODEL 4
REMARK VINA RESULT: -9.889402903      1.052      1.675
REMARK  3 active torsions:
REMARK  status: ('A' for Active; 'I' for Inactive)
REMARK    1  A    between atoms: N1_2  and  S1_4 
REMARK    2  A    between atoms: S1_4  and  C2_7 
REMARK    3  A    between atoms: C6_11  and  C7_12 
ROOT
HETATM    1  C2  UNL     1       9.927 -10.084  -5.562  1.00  0.00     0.080 A 
HETATM    2  C3  UNL     1       9.146  -9.463  -6.518  1.00  0.00     0.025 A 
HETATM    3  C4  UNL     1       9.129  -8.079  -6.533  1.00  0.00     0.002 A 
HETATM    4  C5  UNL     1       9.864  -7.329  -5.629  1.00  0.00     0.014 A 
HETATM    5  C6  UNL     1      10.635  -7.941  -4.683  1.00  0.00    -0.001 A 
HETATM    6  C14 UNL     1      10.645  -9.326  -4.676  1.00  0.00     0.039 A 
ENDROOT
BRANCH   5   7
HETATM    7  C7  UNL     1      11.431  -7.209  -3.703  1.00  0.00     0.087 A 
HETATM    8  C8  UNL     1      11.434  -7.425  -2.340  1.00  0.00     0.057 A 
HETATM    9  C9  UNL     1      12.315  -6.534  -1.747  1.00  0.00     0.065 A 
HETATM   10  C10 UNL     1      12.814  -5.801  -2.830  1.00  0.00     0.074 A 
HETATM   11  C13 UNL     1      12.788  -6.218  -0.428  1.00  0.00     0.257 A 
HETATM   12  O3  UNL     1      12.269  -6.233  -3.935  1.00  0.00    -0.313 OA
HETATM   13  C11 UNL     1      13.807  -4.724  -2.620  1.00  0.00     0.110 A 
HETATM   14  C12 UNL     1      14.171  -4.543  -1.213  1.00  0.00     0.070 A 
HETATM   15  N2  UNL     1      13.739  -5.189  -0.205  1.00  0.00    -0.336 N 
ATOM     16  H2  UNL     1      14.067  -4.973   0.736  1.00  0.00     0.168 HD
HETATM   17  O4  UNL     1      12.347  -6.868   0.546  1.00  0.00    -0.267 OA
ENDBRANCH   5   7
BRANCH   1  18
HETATM   18  S1  UNL     1      10.037 -11.824  -5.434  1.00  0.00     0.258 S 
HETATM   19  O1  UNL     1      11.367 -12.231  -4.857  1.00  0.00    -0.201 OA
HETATM   20  O2  UNL     1       8.955 -12.312  -4.523  1.00  0.00    -0.201 OA
BRANCH  18  21
HETATM   21  N1  UNL     1       9.905 -12.483  -7.011  1.00  0.00    -0.320 N 
HETATM   22  C1  UNL     1       8.670 -13.194  -7.206  1.00  0.00     0.159 C 
ATOM     23  H1  UNL     1      10.621 -12.383  -7.730  1.00  0.00     0.171 HD
ENDBRANCH  18  21
ENDBRANCH   1  18
TORSDOF 3
ENDMDL
