MODEL 7
REMARK VINA RESULT: -8.055694600      2.806      7.376
REMARK  3 active torsions:
REMARK  status: ('A' for Active; 'I' for Inactive)
REMARK    1  A    between atoms: N1_2  and  S1_4 
REMARK    2  A    between atoms: S1_4  and  C2_7 
REMARK    3  A    between atoms: C6_11  and  C7_12 
ROOT
HETATM    1  C2  UNL     1      11.206  -7.473  -4.336  1.00  0.00     0.080 A 
HETATM    2  C3  UNL     1      10.409  -6.764  -5.214  1.00  0.00     0.025 A 
HETATM    3  C4  UNL     1       9.801  -7.466  -6.240  1.00  0.00     0.002 A 
HETATM    4  C5  UNL     1       9.975  -8.833  -6.393  1.00  0.00     0.014 A 
HETATM    5  C6  UNL     1      10.762  -9.535  -5.527  1.00  0.00    -0.001 A 
HETATM    6  C14 UNL     1      11.366  -8.822  -4.505  1.00  0.00     0.039 A 
ENDROOT
BRANCH   5   7
HETATM    7  C7  UNL     1      10.986 -10.973  -5.635  1.00  0.00     0.087 A 
HETATM    8  C8  UNL     1      10.435 -11.941  -4.820  1.00  0.00     0.057 A 
HETATM    9  C9  UNL     1      10.884 -13.185  -5.234  1.00  0.00     0.065 A 
HETATM   10  C10 UNL     1      11.715 -12.885  -6.320  1.00  0.00     0.074 A 
HETATM   11  C13 UNL     1      10.718 -14.561  -4.857  1.00  0.00     0.257 A 
HETATM   12  O3  UNL     1      11.737 -11.593  -6.506  1.00  0.00    -0.313 OA
HETATM   13  C11 UNL     1      12.407 -13.962  -7.063  1.00  0.00     0.110 A 
HETATM   14  C12 UNL     1      12.120 -15.299  -6.537  1.00  0.00     0.070 A 
HETATM   15  N2  UNL     1      11.372 -15.609  -5.554  1.00  0.00    -0.336 N 
ATOM     16  H2  UNL     1      11.247 -16.582  -5.276  1.00  0.00     0.168 HD
HETATM   17  O4  UNL     1       9.977 -14.838  -3.887  1.00  0.00    -0.267 OA
ENDBRANCH   5   7
BRANCH   1  18
HETATM   18  S1  UNL     1      12.031  -6.707  -2.998  1.00  0.00     0.258 S 
HETATM   19  O1  UNL     1      13.477  -7.120  -2.960  1.00  0.00    -0.201 OA
HETATM   20  O2  UNL     1      11.964  -5.223  -3.174  1.00  0.00    -0.201 OA
BRANCH  18  21
HETATM   21  N1  UNL     1      11.281  -7.223  -1.545  1.00  0.00    -0.320 N 
HETATM   22  C1  UNL     1      12.236  -7.643  -0.555  1.00  0.00     0.159 C 
ATOM     23  H1  UNL     1      10.272  -7.232  -1.398  1.00  0.00     0.171 HD
ENDBRANCH  18  21
ENDBRANCH   1  18
TORSDOF 3
ENDMDL
