MODEL 11
REMARK VINA RESULT: -7.709222277      2.034      6.824
REMARK  3 active torsions:
REMARK  status: ('A' for Active; 'I' for Inactive)
REMARK    1  A    between atoms: O1_2  and  C2_3 
REMARK    2  A    between atoms: C2_3  and  C3_5 
REMARK    3  A    between atoms: C6_10  and  C7_11 
ROOT
HETATM    1  C3  UNL     1      13.981 -28.184   5.803  1.00  0.00     0.055 A 
HETATM    2  C4  UNL     1      13.574 -29.465   6.117  1.00  0.00     0.105 A 
HETATM    3  N1  UNL     1      14.009 -30.475   5.336  1.00  0.00    -0.373 N 
ATOM      4  H1  UNL     1      13.712 -31.425   5.561  1.00  0.00     0.164 HD
HETATM    5  C5  UNL     1      14.808 -30.292   4.280  1.00  0.00     0.101 A 
HETATM    6  C6  UNL     1      15.221 -29.015   3.958  1.00  0.00     0.014 A 
HETATM    7  C14 UNL     1      14.806 -27.969   4.719  1.00  0.00     0.034 A 
ENDROOT
BRANCH   6   8
HETATM    8  C7  UNL     1      16.102 -28.813   2.794  1.00  0.00     0.088 A 
HETATM    9  C8  UNL     1      16.585 -29.830   1.993  1.00  0.00     0.058 A 
HETATM   10  C9  UNL     1      17.356 -29.212   1.037  1.00  0.00     0.068 A 
HETATM   11  C10 UNL     1      18.105 -29.665  -0.041  1.00  0.00     0.258 A 
HETATM   12  C13 UNL     1      17.319 -27.855   1.286  1.00  0.00     0.093 A 
HETATM   13  O3  UNL     1      18.171 -30.897  -0.309  1.00  0.00    -0.267 OA
HETATM   14  N2  UNL     1      18.768 -28.779  -0.810  1.00  0.00    -0.333 N 
HETATM   15  C11 UNL     1      18.733 -27.468  -0.572  1.00  0.00     0.094 A 
ATOM     16  H2  UNL     1      19.315 -29.122  -1.599  1.00  0.00     0.168 HD
HETATM   17  C12 UNL     1      18.010 -26.953   0.481  1.00  0.00     0.055 A 
HETATM   18  O4  UNL     1      16.557 -27.680   2.343  1.00  0.00    -0.309 OA
ENDBRANCH   6   8
BRANCH   1  19
HETATM   19  C2  UNL     1      13.533 -27.046   6.626  1.00  0.00     0.294 C 
HETATM   20  O2  UNL     1      14.375 -26.349   7.218  1.00  0.00    -0.259 OA
BRANCH  19  21
HETATM   21  O1  UNL     1      12.191 -26.764   6.734  1.00  0.00    -0.322 OA
HETATM   22  C1  UNL     1      11.354 -26.521   5.610  1.00  0.00     0.213 C 
ENDBRANCH  19  21
ENDBRANCH   1  19
TORSDOF 3
ENDMDL
