MODEL 1
REMARK VINA RESULT: -8.590648519      0.000      0.000
REMARK  3 active torsions:
REMARK  status: ('A' for Active; 'I' for Inactive)
REMARK    1  A    between atoms: O1_2  and  C2_3 
REMARK    2  A    between atoms: C2_3  and  C3_5 
REMARK    3  A    between atoms: C6_10  and  C7_11 
ROOT
HETATM    1  C3  UNL     1      17.683 -27.917   0.059  1.00  0.00     0.055 A 
HETATM    2  C4  UNL     1      17.876 -29.243  -0.275  1.00  0.00     0.105 A 
HETATM    3  N1  UNL     1      17.412 -30.181   0.576  1.00  0.00    -0.373 N 
ATOM      4  H1  UNL     1      17.550 -31.164   0.337  1.00  0.00     0.164 HD
HETATM    5  C5  UNL     1      16.780 -29.888   1.717  1.00  0.00     0.101 A 
HETATM    6  C6  UNL     1      16.583 -28.565   2.060  1.00  0.00     0.014 A 
HETATM    7  C14 UNL     1      17.035 -27.589   1.232  1.00  0.00     0.034 A 
ENDROOT
BRANCH   6   8
HETATM    8  C7  UNL     1      15.888 -28.241   3.318  1.00  0.00     0.088 A 
HETATM    9  C8  UNL     1      15.201 -29.158   4.090  1.00  0.00     0.058 A 
HETATM   10  C9  UNL     1      14.712 -28.446   5.160  1.00  0.00     0.068 A 
HETATM   11  C10 UNL     1      13.952 -28.777   6.274  1.00  0.00     0.258 A 
HETATM   12  C13 UNL     1      15.111 -27.134   5.005  1.00  0.00     0.093 A 
HETATM   13  O3  UNL     1      13.561 -29.964   6.460  1.00  0.00    -0.267 OA
HETATM   14  N2  UNL     1      13.627 -27.821   7.166  1.00  0.00    -0.333 N 
HETATM   15  C11 UNL     1      14.012 -26.553   7.019  1.00  0.00     0.094 A 
ATOM     16  H2  UNL     1      13.068 -28.075   7.980  1.00  0.00     0.168 HD
HETATM   17  C12 UNL     1      14.767 -26.159   5.937  1.00  0.00     0.055 A 
HETATM   18  O4  UNL     1      15.807 -27.076   3.891  1.00  0.00    -0.309 OA
ENDBRANCH   6   8
BRANCH   1  19
HETATM   19  C2  UNL     1      18.172 -26.854  -0.837  1.00  0.00     0.294 C 
HETATM   20  O2  UNL     1      18.196 -27.050  -2.064  1.00  0.00    -0.259 OA
BRANCH  19  21
HETATM   21  O1  UNL     1      18.597 -25.655  -0.313  1.00  0.00    -0.322 OA
HETATM   22  C1  UNL     1      18.243 -24.393  -0.867  1.00  0.00     0.213 C 
ENDBRANCH  19  21
ENDBRANCH   1  19
TORSDOF 3
ENDMDL
