MODEL 10
REMARK VINA RESULT: -7.901736744      2.011      6.842
REMARK  3 active torsions:
REMARK  status: ('A' for Active; 'I' for Inactive)
REMARK    1  A    between atoms: O1_2  and  C2_3 
REMARK    2  A    between atoms: C2_3  and  C3_5 
REMARK    3  A    between atoms: C6_10  and  C7_11 
ROOT
HETATM    1  C3  UNL     1      13.376 -28.258   5.181  1.00  0.00     0.055 A 
HETATM    2  C4  UNL     1      12.965 -29.518   5.566  1.00  0.00     0.105 A 
HETATM    3  N1  UNL     1      13.538 -30.581   4.963  1.00  0.00    -0.373 N 
ATOM      4  H1  UNL     1      13.239 -31.516   5.241  1.00  0.00     0.164 HD
HETATM    5  C5  UNL     1      14.477 -30.469   4.019  1.00  0.00     0.101 A 
HETATM    6  C6  UNL     1      14.895 -29.212   3.627  1.00  0.00     0.014 A 
HETATM    7  C14 UNL     1      14.344 -28.116   4.208  1.00  0.00     0.034 A 
ENDROOT
BRANCH   6   8
HETATM    8  C7  UNL     1      15.930 -29.088   2.586  1.00  0.00     0.088 A 
HETATM    9  C8  UNL     1      16.480 -27.890   2.169  1.00  0.00     0.058 A 
HETATM   10  C9  UNL     1      17.394 -28.222   1.198  1.00  0.00     0.068 A 
HETATM   11  C10 UNL     1      18.263 -27.491   0.399  1.00  0.00     0.258 A 
HETATM   12  C13 UNL     1      17.371 -29.595   1.055  1.00  0.00     0.093 A 
HETATM   13  O3  UNL     1      18.320 -26.232   0.491  1.00  0.00    -0.267 OA
HETATM   14  N2  UNL     1      19.053 -28.131  -0.484  1.00  0.00    -0.333 N 
HETATM   15  C11 UNL     1      19.033 -29.457  -0.623  1.00  0.00     0.094 A 
ATOM     16  H2  UNL     1      19.688 -27.585  -1.066  1.00  0.00     0.168 HD
HETATM   17  C12 UNL     1      18.195 -30.240   0.138  1.00  0.00     0.055 A 
HETATM   18  O4  UNL     1      16.481 -30.053   1.908  1.00  0.00    -0.309 OA
ENDBRANCH   6   8
BRANCH   1  19
HETATM   19  C2  UNL     1      12.780 -27.065   5.810  1.00  0.00     0.294 C 
HETATM   20  O2  UNL     1      11.718 -26.602   5.359  1.00  0.00    -0.259 OA
BRANCH  19  21
HETATM   21  O1  UNL     1      13.400 -26.475   6.887  1.00  0.00    -0.322 OA
HETATM   22  C1  UNL     1      14.776 -26.114   6.891  1.00  0.00     0.213 C 
ENDBRANCH  19  21
ENDBRANCH   1  19
TORSDOF 3
ENDMDL
