MODEL 4
REMARK VINA RESULT: -8.434514700      1.712      2.208
REMARK  3 active torsions:
REMARK  status: ('A' for Active; 'I' for Inactive)
REMARK    1  A    between atoms: O1_2  and  C2_3 
REMARK    2  A    between atoms: C2_3  and  C3_5 
REMARK    3  A    between atoms: C6_10  and  C7_11 
ROOT
HETATM    1  C3  UNL     1      17.512 -30.524   0.594  1.00  0.00     0.055 A 
HETATM    2  C4  UNL     1      16.810 -31.636   0.175  1.00  0.00     0.105 A 
HETATM    3  N1  UNL     1      15.690 -31.966   0.850  1.00  0.00    -0.373 N 
ATOM      4  H1  UNL     1      15.164 -32.786   0.546  1.00  0.00     0.164 HD
HETATM    5  C5  UNL     1      15.233 -31.272   1.896  1.00  0.00     0.101 A 
HETATM    6  C6  UNL     1      15.929 -30.158   2.324  1.00  0.00     0.014 A 
HETATM    7  C14 UNL     1      17.062 -29.791   1.672  1.00  0.00     0.034 A 
ENDROOT
BRANCH   6   8
HETATM    8  C7  UNL     1      15.427 -29.392   3.478  1.00  0.00     0.088 A 
HETATM    9  C8  UNL     1      14.665 -29.927   4.500  1.00  0.00     0.058 A 
HETATM   10  C9  UNL     1      14.416 -28.883   5.359  1.00  0.00     0.068 A 
HETATM   11  C10 UNL     1      13.721 -28.761   6.555  1.00  0.00     0.258 A 
HETATM   12  C13 UNL     1      15.026 -27.760   4.838  1.00  0.00     0.093 A 
HETATM   13  O3  UNL     1      13.145 -29.759   7.072  1.00  0.00    -0.267 OA
HETATM   14  N2  UNL     1      13.660 -27.564   7.170  1.00  0.00    -0.333 N 
HETATM   15  C11 UNL     1      14.248 -26.478   6.669  1.00  0.00     0.094 A 
ATOM     16  H2  UNL     1      13.146 -27.485   8.047  1.00  0.00     0.168 HD
HETATM   17  C12 UNL     1      14.953 -26.531   5.487  1.00  0.00     0.055 A 
HETATM   18  O4  UNL     1      15.611 -28.127   3.719  1.00  0.00    -0.309 OA
ENDBRANCH   6   8
BRANCH   1  19
HETATM   19  C2  UNL     1      18.743 -30.122  -0.110  1.00  0.00     0.294 C 
HETATM   20  O2  UNL     1      19.668 -30.941  -0.243  1.00  0.00    -0.259 OA
BRANCH  19  21
HETATM   21  O1  UNL     1      18.860 -28.847  -0.614  1.00  0.00    -0.322 OA
HETATM   22  C1  UNL     1      18.031 -28.342  -1.655  1.00  0.00     0.213 C 
ENDBRANCH  19  21
ENDBRANCH   1  19
TORSDOF 3
ENDMDL
