MODEL 9
REMARK VINA RESULT: -7.952029058      1.278      1.697
REMARK  3 active torsions:
REMARK  status: ('A' for Active; 'I' for Inactive)
REMARK    1  A    between atoms: O1_2  and  C2_3 
REMARK    2  A    between atoms: C2_3  and  C3_5 
REMARK    3  A    between atoms: C6_10  and  C7_11 
ROOT
HETATM    1  C3  UNL     1      17.693 -27.606   0.163  1.00  0.00     0.055 A 
HETATM    2  C4  UNL     1      18.136 -28.903   0.003  1.00  0.00     0.105 A 
HETATM    3  N1  UNL     1      17.682 -29.836   0.866  1.00  0.00    -0.373 N 
ATOM      4  H1  UNL     1      18.005 -30.798   0.754  1.00  0.00     0.164 HD
HETATM    5  C5  UNL     1      16.831 -29.562   1.859  1.00  0.00     0.101 A 
HETATM    6  C6  UNL     1      16.383 -28.267   2.027  1.00  0.00     0.014 A 
HETATM    7  C14 UNL     1      16.815 -27.298   1.181  1.00  0.00     0.034 A 
ENDROOT
BRANCH   6   8
HETATM    8  C7  UNL     1      15.445 -27.965   3.123  1.00  0.00     0.088 A 
HETATM    9  C8  UNL     1      15.750 -27.182   4.220  1.00  0.00     0.058 A 
HETATM   10  C9  UNL     1      14.608 -27.157   4.985  1.00  0.00     0.068 A 
HETATM   11  C10 UNL     1      14.265 -26.558   6.190  1.00  0.00     0.258 A 
HETATM   12  C13 UNL     1      13.656 -27.917   4.336  1.00  0.00     0.093 A 
HETATM   13  O3  UNL     1      15.102 -25.854   6.822  1.00  0.00    -0.267 OA
HETATM   14  N2  UNL     1      13.027 -26.731   6.690  1.00  0.00    -0.333 N 
HETATM   15  C11 UNL     1      12.105 -27.464   6.066  1.00  0.00     0.094 A 
ATOM     16  H2  UNL     1      12.786 -26.287   7.576  1.00  0.00     0.168 HD
HETATM   17  C12 UNL     1      12.380 -28.084   4.867  1.00  0.00     0.055 A 
HETATM   18  O4  UNL     1      14.213 -28.370   3.235  1.00  0.00    -0.309 OA
ENDBRANCH   6   8
BRANCH   1  19
HETATM   19  C2  UNL     1      18.160 -26.550  -0.754  1.00  0.00     0.294 C 
HETATM   20  O2  UNL     1      18.215 -26.780  -1.975  1.00  0.00    -0.259 OA
BRANCH  19  21
HETATM   21  O1  UNL     1      18.531 -25.323  -0.256  1.00  0.00    -0.322 OA
HETATM   22  C1  UNL     1      18.174 -24.092  -0.874  1.00  0.00     0.213 C 
ENDBRANCH  19  21
ENDBRANCH   1  19
TORSDOF 3
ENDMDL
