MODEL 12
REMARK VINA RESULT: -7.708893857      1.664      7.270
REMARK  3 active torsions:
REMARK  status: ('A' for Active; 'I' for Inactive)
REMARK    1  A    between atoms: O1_2  and  C2_3 
REMARK    2  A    between atoms: C2_3  and  C3_5 
REMARK    3  A    between atoms: C6_10  and  C7_11 
ROOT
HETATM    1  C3  UNL     1      13.682 -28.413   5.359  1.00  0.00     0.055 A 
HETATM    2  C4  UNL     1      13.601 -27.092   5.750  1.00  0.00     0.105 A 
HETATM    3  N1  UNL     1      14.374 -26.194   5.105  1.00  0.00    -0.373 N 
ATOM      4  H1  UNL     1      14.320 -25.215   5.388  1.00  0.00     0.164 HD
HETATM    5  C5  UNL     1      15.207 -26.523   4.113  1.00  0.00     0.101 A 
HETATM    6  C6  UNL     1      15.296 -27.842   3.714  1.00  0.00     0.014 A 
HETATM    7  C14 UNL     1      14.535 -28.778   4.338  1.00  0.00     0.034 A 
ENDROOT
BRANCH   6   8
HETATM    8  C7  UNL     1      16.214 -28.206   2.621  1.00  0.00     0.088 A 
HETATM    9  C8  UNL     1      16.916 -27.296   1.854  1.00  0.00     0.058 A 
HETATM   10  C9  UNL     1      17.643 -28.048   0.962  1.00  0.00     0.068 A 
HETATM   11  C10 UNL     1      18.533 -27.743  -0.059  1.00  0.00     0.258 A 
HETATM   12  C13 UNL     1      17.363 -29.377   1.212  1.00  0.00     0.093 A 
HETATM   13  O3  UNL     1      18.821 -26.543  -0.327  1.00  0.00    -0.267 OA
HETATM   14  N2  UNL     1      19.094 -28.739  -0.772  1.00  0.00    -0.333 N 
HETATM   15  C11 UNL     1      18.826 -30.022  -0.533  1.00  0.00     0.094 A 
ATOM     16  H2  UNL     1      19.746 -28.503  -1.520  1.00  0.00     0.168 HD
HETATM   17  C12 UNL     1      17.953 -30.393   0.466  1.00  0.00     0.055 A 
HETATM   18  O4  UNL     1      16.507 -29.406   2.210  1.00  0.00    -0.309 OA
ENDBRANCH   6   8
BRANCH   1  19
HETATM   19  C2  UNL     1      12.859 -29.433   6.033  1.00  0.00     0.294 C 
HETATM   20  O2  UNL     1      13.162 -29.805   7.180  1.00  0.00    -0.259 OA
BRANCH  19  21
HETATM   21  O1  UNL     1      11.764 -29.964   5.393  1.00  0.00    -0.322 OA
HETATM   22  C1  UNL     1      11.841 -30.622   4.134  1.00  0.00     0.213 C 
ENDBRANCH  19  21
ENDBRANCH   1  19
TORSDOF 3
ENDMDL
