MODEL 6
REMARK VINA RESULT: -8.297856376      1.252      1.528
REMARK  3 active torsions:
REMARK  status: ('A' for Active; 'I' for Inactive)
REMARK    1  A    between atoms: O1_2  and  C2_3 
REMARK    2  A    between atoms: C2_3  and  C3_5 
REMARK    3  A    between atoms: C6_10  and  C7_11 
ROOT
HETATM    1  C3  UNL     1      17.649 -29.192   0.316  1.00  0.00     0.055 A 
HETATM    2  C4  UNL     1      17.508 -30.540   0.054  1.00  0.00     0.105 A 
HETATM    3  N1  UNL     1      16.779 -31.278   0.917  1.00  0.00    -0.373 N 
ATOM      4  H1  UNL     1      16.670 -32.275   0.731  1.00  0.00     0.164 HD
HETATM    5  C5  UNL     1      16.193 -30.767   2.005  1.00  0.00     0.101 A 
HETATM    6  C6  UNL     1      16.329 -29.419   2.275  1.00  0.00     0.014 A 
HETATM    7  C14 UNL     1      17.054 -28.640   1.432  1.00  0.00     0.034 A 
ENDROOT
BRANCH   6   8
HETATM    8  C7  UNL     1      15.684 -28.855   3.474  1.00  0.00     0.088 A 
HETATM    9  C8  UNL     1      14.945 -29.588   4.383  1.00  0.00     0.058 A 
HETATM   10  C9  UNL     1      14.531 -28.687   5.334  1.00  0.00     0.068 A 
HETATM   11  C10 UNL     1      13.770 -28.785   6.491  1.00  0.00     0.258 A 
HETATM   12  C13 UNL     1      15.026 -27.448   4.978  1.00  0.00     0.093 A 
HETATM   13  O3  UNL     1      13.294 -29.896   6.859  1.00  0.00    -0.267 OA
HETATM   14  N2  UNL     1      13.536 -27.682   7.229  1.00  0.00    -0.333 N 
HETATM   15  C11 UNL     1      14.013 -26.485   6.888  1.00  0.00     0.094 A 
ATOM     16  H2  UNL     1      12.975 -27.765   8.077  1.00  0.00     0.168 HD
HETATM   17  C12 UNL     1      14.775 -26.320   5.753  1.00  0.00     0.055 A 
HETATM   18  O4  UNL     1      15.703 -27.613   3.863  1.00  0.00    -0.309 OA
ENDBRANCH   6   8
BRANCH   1  19
HETATM   19  C2  UNL     1      18.435 -28.343  -0.597  1.00  0.00     0.294 C 
HETATM   20  O2  UNL     1      19.019 -27.340  -0.151  1.00  0.00    -0.259 OA
BRANCH  19  21
HETATM   21  O1  UNL     1      18.518 -28.664  -1.932  1.00  0.00    -0.322 OA
HETATM   22  C1  UNL     1      17.705 -28.059  -2.931  1.00  0.00     0.213 C 
ENDBRANCH  19  21
ENDBRANCH   1  19
TORSDOF 3
ENDMDL
