MODEL 3
REMARK VINA RESULT: -8.838751762      2.168      3.785
REMARK  17 active torsions:
REMARK  status: ('A' for Active; 'I' for Inactive)
REMARK       I    between atoms: C2_2  and  N1_4 
REMARK    1  A    between atoms: N1_4  and  C3_6 
REMARK    2  A    between atoms: C4_7  and  O2_8 
REMARK    3  A    between atoms: C6_12  and  O3_13 
REMARK    4  A    between atoms: C6_12  and  C16_37 
REMARK    5  A    between atoms: O3_13  and  P1_14 
REMARK    6  A    between atoms: P1_14  and  O6_17 
REMARK    7  A    between atoms: O6_17  and  C7_18 
REMARK    8  A    between atoms: C7_18  and  C8_19 
REMARK    9  A    between atoms: C9_21  and  N2_22 
REMARK   10  A    between atoms: C14_31  and  O9_32 
REMARK   11  A    between atoms: C15_34  and  O10_35 
REMARK   12  A    between atoms: C17_41  and  C18_42 
REMARK   13  A    between atoms: C18_42  and  O14_43 
REMARK   14  A    between atoms: C18_42  and  C19_45 
REMARK   15  A    between atoms: C19_45  and  O15_46 
REMARK   16  A    between atoms: C19_45  and  C20_48 
REMARK   17  A    between atoms: C20_48  and  O16_49 
ROOT
HETATM    1  C3  UNL     1       3.229 -15.323  -4.394  1.00  0.00     0.147 C 
HETATM    2  C4  UNL     1       2.872 -15.860  -5.773  1.00  0.00     0.183 C 
HETATM    3  C5  UNL     1       3.752 -17.044  -6.062  1.00  0.00     0.275 C 
HETATM    4  F1  UNL     1       3.697 -17.285  -7.437  1.00  0.00    -0.240 F 
HETATM    5  C6  UNL     1       5.202 -16.594  -5.800  1.00  0.00     0.299 C 
HETATM    6  O13 UNL     1       5.396 -16.356  -4.468  1.00  0.00    -0.334 OA
HETATM    7  C17 UNL     1       4.255 -16.202  -3.740  1.00  0.00     0.182 C 
ENDROOT
BRANCH   5   8
HETATM    8  O3  UNL     1       5.266 -15.387  -6.512  1.00  0.00    -0.238 OA
BRANCH   8   9
HETATM    9  P1  UNL     1       6.561 -14.491  -6.162  1.00  0.00     0.411 P 
HETATM   10  O4  UNL     1       7.696 -15.298  -5.490  1.00  0.00    -0.624 OA
HETATM   11  O5  UNL     1       6.150 -13.303  -4.999  1.00  0.00    -0.624 OA
BRANCH   9  12
HETATM   12  O6  UNL     1       7.283 -13.739  -7.500  1.00  0.00    -0.287 OA
BRANCH  12  13
HETATM   13  C7  UNL     1       8.462 -13.049  -6.922  1.00  0.00     0.216 C 
BRANCH  13  14
HETATM   14  C8  UNL     1       9.463 -13.383  -7.910  1.00  0.00     0.180 C 
HETATM   15  O7  UNL     1       9.195 -14.249  -8.965  1.00  0.00    -0.353 OA
HETATM   16  C9  UNL     1      10.557 -14.583  -9.222  1.00  0.00     0.263 C 
HETATM   17  C14 UNL     1      11.297 -13.223  -9.229  1.00  0.00     0.198 C 
HETATM   18  C15 UNL     1      10.169 -12.309  -8.681  1.00  0.00     0.182 C 
BRANCH  16  19
HETATM   19  N2  UNL     1      10.761 -15.090 -10.549  1.00  0.00    -0.280 N 
HETATM   20  C10 UNL     1       9.758 -14.901 -11.450  1.00  0.00     0.102 A 
HETATM   21  C11 UNL     1       9.965 -15.243 -12.759  1.00  0.00     0.062 A 
HETATM   22  C12 UNL     1      11.201 -15.771 -13.097  1.00  0.00     0.121 A 
HETATM   23  N3  UNL     1      11.477 -16.079 -14.457  1.00  0.00    -0.083 NA
HETATM   24  N4  UNL     1      12.201 -15.965 -12.188  1.00  0.00    -0.297 N 
HETATM   25  C13 UNL     1      11.930 -15.606 -10.920  1.00  0.00     0.329 A 
ATOM     26  H4  UNL     1      13.103 -16.361 -12.455  1.00  0.00     0.171 HD
HETATM   27  O8  UNL     1      12.830 -15.768 -10.054  1.00  0.00    -0.246 OA
ENDBRANCH  16  19
BRANCH  17  28
HETATM   28  O9  UNL     1      12.281 -13.268  -8.285  1.00  0.00    -0.388 OA
ATOM     29  H9  UNL     1      11.881 -13.138  -7.433  1.00  0.00     0.210 HD
ENDBRANCH  17  28
BRANCH  18  30
HETATM   30  O10 UNL     1      10.654 -11.262  -7.962  1.00  0.00    -0.390 OA
ATOM     31  H10 UNL     1      10.548 -10.399  -8.344  1.00  0.00     0.210 HD
ENDBRANCH  18  30
ENDBRANCH  13  14
ENDBRANCH  12  13
ENDBRANCH   9  12
ENDBRANCH   8   9
ENDBRANCH   5   8
BRANCH   5  32
HETATM   32  C16 UNL     1       6.051 -17.658  -6.304  1.00  0.00     0.242 C 
HETATM   33  O11 UNL     1       6.311 -18.656  -5.546  1.00  0.00    -0.644 OA
HETATM   34  O12 UNL     1       6.636 -17.732  -7.550  1.00  0.00    -0.644 OA
ENDBRANCH   5  32
BRANCH   2  35
HETATM   35  O2  UNL     1       3.213 -14.837  -6.673  1.00  0.00    -0.390 OA
ATOM     36  H2  UNL     1       2.407 -14.619  -7.127  1.00  0.00     0.210 HD
ENDBRANCH   2  35
BRANCH   7  37
HETATM   37  C18 UNL     1       4.493 -15.743  -2.341  1.00  0.00     0.180 C 
BRANCH  37  38
HETATM   38  O14 UNL     1       5.778 -15.277  -2.113  1.00  0.00    -0.390 OA
ATOM     39  H14 UNL     1       6.224 -15.710  -1.394  1.00  0.00     0.210 HD
ENDBRANCH  37  38
BRANCH  37  40
HETATM   40  C19 UNL     1       3.998 -16.618  -1.241  1.00  0.00     0.173 C 
BRANCH  40  41
HETATM   41  O15 UNL     1       2.804 -17.246  -1.418  1.00  0.00    -0.391 OA
ATOM     42  H15 UNL     1       2.013 -16.754  -1.230  1.00  0.00     0.210 HD
ENDBRANCH  40  41
BRANCH  40  43
HETATM   43  C20 UNL     1       4.110 -15.909   0.107  1.00  0.00     0.198 C 
BRANCH  43  44
HETATM   44  O16 UNL     1       3.998 -14.521  -0.034  1.00  0.00    -0.398 OA
ATOM     45  H16 UNL     1       4.826 -14.086   0.137  1.00  0.00     0.209 HD
ENDBRANCH  43  44
ENDBRANCH  40  43
ENDBRANCH  37  40
ENDBRANCH   7  37
BRANCH   1  46
HETATM   46  N1  UNL     1       2.069 -15.334  -3.524  1.00  0.00    -0.352 N 
HETATM   47  C2  UNL     1       1.138 -14.267  -3.470  1.00  0.00     0.214 C 
HETATM   48  C1  UNL     1      -0.042 -14.322  -2.538  1.00  0.00     0.117 C 
HETATM   49  O1  UNL     1       1.281 -13.255  -4.205  1.00  0.00    -0.274 OA
ATOM     50  H1  UNL     1       1.916 -16.145  -2.924  1.00  0.00     0.163 HD
ENDBRANCH   1  46
TORSDOF 17
ENDMDL
