MODEL 1
REMARK VINA RESULT: -9.033614246      0.000      0.000
REMARK  17 active torsions:
REMARK  status: ('A' for Active; 'I' for Inactive)
REMARK       I    between atoms: C2_2  and  N1_4 
REMARK    1  A    between atoms: N1_4  and  C3_6 
REMARK    2  A    between atoms: C4_7  and  O2_8 
REMARK    3  A    between atoms: C6_12  and  O3_13 
REMARK    4  A    between atoms: C6_12  and  C16_37 
REMARK    5  A    between atoms: O3_13  and  P1_14 
REMARK    6  A    between atoms: P1_14  and  O6_17 
REMARK    7  A    between atoms: O6_17  and  C7_18 
REMARK    8  A    between atoms: C7_18  and  C8_19 
REMARK    9  A    between atoms: C9_21  and  N2_22 
REMARK   10  A    between atoms: C14_31  and  O9_32 
REMARK   11  A    between atoms: C15_34  and  O10_35 
REMARK   12  A    between atoms: C17_41  and  C18_42 
REMARK   13  A    between atoms: C18_42  and  O14_43 
REMARK   14  A    between atoms: C18_42  and  C19_45 
REMARK   15  A    between atoms: C19_45  and  O15_46 
REMARK   16  A    between atoms: C19_45  and  C20_48 
REMARK   17  A    between atoms: C20_48  and  O16_49 
ROOT
HETATM    1  C3  UNL     1       5.918 -17.549  -5.860  1.00  0.00     0.147 C 
HETATM    2  C4  UNL     1       7.320 -17.919  -5.395  1.00  0.00     0.183 C 
HETATM    3  C5  UNL     1       7.621 -17.148  -4.141  1.00  0.00     0.275 C 
HETATM    4  F1  UNL     1       9.003 -17.190  -3.942  1.00  0.00    -0.240 F 
HETATM    5  C6  UNL     1       7.313 -15.669  -4.444  1.00  0.00     0.299 C 
HETATM    6  O13 UNL     1       5.970 -15.488  -4.628  1.00  0.00    -0.334 OA
HETATM    7  C17 UNL     1       5.265 -16.628  -4.871  1.00  0.00     0.182 C 
ENDROOT
BRANCH   5   8
HETATM    8  O3  UNL     1       7.988 -15.474  -5.657  1.00  0.00    -0.238 OA
BRANCH   8   9
HETATM    9  P1  UNL     1       7.757 -14.015  -6.306  1.00  0.00     0.411 P 
HETATM   10  O4  UNL     1       6.829 -13.112  -5.459  1.00  0.00    -0.624 OA
HETATM   11  O5  UNL     1       6.935 -14.167  -7.801  1.00  0.00    -0.624 OA
BRANCH   9  12
HETATM   12  O6  UNL     1       9.171 -13.109  -6.534  1.00  0.00    -0.287 OA
BRANCH  12  13
HETATM   13  C7  UNL     1      10.255 -14.117  -6.434  1.00  0.00     0.216 C 
BRANCH  13  14
HETATM   14  C8  UNL     1      10.733 -14.113  -7.799  1.00  0.00     0.180 C 
HETATM   15  O7  UNL     1      10.262 -15.017  -8.745  1.00  0.00    -0.353 OA
HETATM   16  C9  UNL     1      11.383 -14.901  -9.620  1.00  0.00     0.263 C 
HETATM   17  C14 UNL     1      11.621 -13.377  -9.748  1.00  0.00     0.198 C 
HETATM   18  C15 UNL     1      10.669 -12.869  -8.632  1.00  0.00     0.182 C 
BRANCH  16  19
HETATM   19  N2  UNL     1      11.083 -15.315 -10.960  1.00  0.00    -0.280 N 
HETATM   20  C10 UNL     1       9.783 -15.246 -11.359  1.00  0.00     0.102 A 
HETATM   21  C11 UNL     1       9.472 -15.496 -12.667  1.00  0.00     0.062 A 
HETATM   22  C12 UNL     1      10.514 -15.812 -13.526  1.00  0.00     0.121 A 
HETATM   23  N3  UNL     1      10.241 -16.016 -14.905  1.00  0.00    -0.083 NA
HETATM   24  N4  UNL     1      11.816 -15.887 -13.120  1.00  0.00    -0.297 N 
HETATM   25  C13 UNL     1      12.049 -15.627 -11.820  1.00  0.00     0.329 A 
ATOM     26  H4  UNL     1      12.569 -16.126 -13.766  1.00  0.00     0.171 HD
HETATM   27  O8  UNL     1      13.239 -15.684 -11.411  1.00  0.00    -0.246 OA
ENDBRANCH  16  19
BRANCH  17  28
HETATM   28  O9  UNL     1      12.898 -13.109  -9.348  1.00  0.00    -0.388 OA
ATOM     29  H9  UNL     1      13.291 -12.523  -9.983  1.00  0.00     0.210 HD
ENDBRANCH  17  28
BRANCH  18  30
HETATM   30  O10 UNL     1      11.116 -11.724  -8.052  1.00  0.00    -0.390 OA
ATOM     31  H10 UNL     1      11.095 -10.940  -8.587  1.00  0.00     0.210 HD
ENDBRANCH  18  30
ENDBRANCH  13  14
ENDBRANCH  12  13
ENDBRANCH   9  12
ENDBRANCH   8   9
ENDBRANCH   5   8
BRANCH   5  32
HETATM   32  C16 UNL     1       7.826 -14.912  -3.318  1.00  0.00     0.242 C 
HETATM   33  O11 UNL     1       7.044 -14.644  -2.341  1.00  0.00    -0.644 OA
HETATM   34  O12 UNL     1       9.107 -14.425  -3.161  1.00  0.00    -0.644 OA
ENDBRANCH   5  32
BRANCH   2  35
HETATM   35  O2  UNL     1       8.182 -17.460  -6.404  1.00  0.00    -0.390 OA
ATOM     36  H2  UNL     1       8.139 -18.115  -7.092  1.00  0.00     0.210 HD
ENDBRANCH   2  35
BRANCH   7  37
HETATM   37  C18 UNL     1       3.849 -16.384  -5.269  1.00  0.00     0.180 C 
BRANCH  37  38
HETATM   38  O14 UNL     1       3.697 -15.968  -6.582  1.00  0.00    -0.390 OA
ATOM     39  H14 UNL     1       2.987 -15.350  -6.711  1.00  0.00     0.210 HD
ENDBRANCH  37  38
BRANCH  37  40
HETATM   40  C19 UNL     1       2.995 -15.612  -4.322  1.00  0.00     0.173 C 
BRANCH  40  41
HETATM   41  O15 UNL     1       1.906 -16.237  -3.796  1.00  0.00    -0.391 OA
ATOM     42  H15 UNL     1       1.804 -16.228  -2.852  1.00  0.00     0.210 HD
ENDBRANCH  40  41
BRANCH  40  43
HETATM   43  C20 UNL     1       2.682 -14.227  -4.881  1.00  0.00     0.198 C 
BRANCH  43  44
HETATM   44  O16 UNL     1       3.837 -13.444  -4.992  1.00  0.00    -0.398 OA
ATOM     45  H16 UNL     1       3.650 -12.524  -4.849  1.00  0.00     0.209 HD
ENDBRANCH  43  44
ENDBRANCH  40  43
ENDBRANCH  37  40
ENDBRANCH   7  37
BRANCH   1  46
HETATM   46  N1  UNL     1       5.075 -18.727  -5.937  1.00  0.00    -0.352 N 
HETATM   47  C2  UNL     1       4.798 -19.396  -7.155  1.00  0.00     0.214 C 
HETATM   48  C1  UNL     1       3.904 -20.606  -7.182  1.00  0.00     0.117 C 
HETATM   49  O1  UNL     1       5.297 -18.989  -8.237  1.00  0.00    -0.274 OA
ATOM     50  H1  UNL     1       4.665 -19.091  -5.076  1.00  0.00     0.163 HD
ENDBRANCH   1  46
TORSDOF 17
ENDMDL
