MODEL 2
REMARK VINA RESULT: -8.870353331      1.062      1.135
REMARK  17 active torsions:
REMARK  status: ('A' for Active; 'I' for Inactive)
REMARK       I    between atoms: C2_2  and  N1_4 
REMARK    1  A    between atoms: N1_4  and  C3_6 
REMARK    2  A    between atoms: C4_7  and  O2_8 
REMARK    3  A    between atoms: C6_12  and  O3_13 
REMARK    4  A    between atoms: C6_12  and  C16_37 
REMARK    5  A    between atoms: O3_13  and  P1_14 
REMARK    6  A    between atoms: P1_14  and  O6_17 
REMARK    7  A    between atoms: O6_17  and  C7_18 
REMARK    8  A    between atoms: C7_18  and  C8_19 
REMARK    9  A    between atoms: C9_21  and  N2_22 
REMARK   10  A    between atoms: C14_31  and  O9_32 
REMARK   11  A    between atoms: C15_34  and  O10_35 
REMARK   12  A    between atoms: C17_41  and  C18_42 
REMARK   13  A    between atoms: C18_42  and  O14_43 
REMARK   14  A    between atoms: C18_42  and  C19_45 
REMARK   15  A    between atoms: C19_45  and  O15_46 
REMARK   16  A    between atoms: C19_45  and  C20_48 
REMARK   17  A    between atoms: C20_48  and  O16_49 
ROOT
HETATM    1  C3  UNL     1       5.129 -17.615  -4.953  1.00  0.00     0.147 C 
HETATM    2  C4  UNL     1       6.603 -17.953  -4.780  1.00  0.00     0.183 C 
HETATM    3  C5  UNL     1       7.156 -17.101  -3.672  1.00  0.00     0.275 C 
HETATM    4  F1  UNL     1       8.550 -17.128  -3.774  1.00  0.00    -0.240 F 
HETATM    5  C6  UNL     1       6.768 -15.645  -3.994  1.00  0.00     0.299 C 
HETATM    6  O13 UNL     1       5.415 -15.479  -3.895  1.00  0.00    -0.334 OA
HETATM    7  C17 UNL     1       4.691 -16.632  -3.907  1.00  0.00     0.182 C 
ENDROOT
BRANCH   5   8
HETATM    8  O3  UNL     1       7.163 -15.529  -5.335  1.00  0.00    -0.238 OA
BRANCH   8   9
HETATM    9  P1  UNL     1       6.513 -14.265  -6.100  1.00  0.00     0.411 P 
HETATM   10  O4  UNL     1       6.260 -13.056  -5.169  1.00  0.00    -0.624 OA
HETATM   11  O5  UNL     1       4.956 -14.675  -6.681  1.00  0.00    -0.624 OA
BRANCH   9  12
HETATM   12  O6  UNL     1       7.446 -13.655  -7.377  1.00  0.00    -0.287 OA
BRANCH  12  13
HETATM   13  C7  UNL     1       8.724 -13.274  -6.729  1.00  0.00     0.216 C 
BRANCH  13  14
HETATM   14  C8  UNL     1       9.647 -13.532  -7.812  1.00  0.00     0.180 C 
HETATM   15  O7  UNL     1       9.341 -14.413  -8.844  1.00  0.00    -0.353 OA
HETATM   16  C9  UNL     1      10.692 -14.647  -9.235  1.00  0.00     0.263 C 
HETATM   17  C14 UNL     1      11.328 -13.237  -9.301  1.00  0.00     0.198 C 
HETATM   18  C15 UNL     1      10.195 -12.409  -8.638  1.00  0.00     0.182 C 
BRANCH  16  19
HETATM   19  N2  UNL     1      10.803 -15.135 -10.579  1.00  0.00    -0.280 N 
HETATM   20  C10 UNL     1       9.736 -14.943 -11.403  1.00  0.00     0.102 A 
HETATM   21  C11 UNL     1       9.850 -15.266 -12.727  1.00  0.00     0.062 A 
HETATM   22  C12 UNL     1      11.062 -15.780 -13.161  1.00  0.00     0.121 A 
HETATM   23  N3  UNL     1      11.240 -16.069 -14.542  1.00  0.00    -0.083 NA
HETATM   24  N4  UNL     1      12.127 -15.978 -12.330  1.00  0.00    -0.297 N 
HETATM   25  C13 UNL     1      11.946 -15.637 -11.040  1.00  0.00     0.329 A 
ATOM     26  H4  UNL     1      13.010 -16.363 -12.667  1.00  0.00     0.171 HD
HETATM   27  O8  UNL     1      12.908 -15.803 -10.245  1.00  0.00    -0.246 OA
ENDBRANCH  16  19
BRANCH  17  28
HETATM   28  O9  UNL     1      12.399 -13.212  -8.456  1.00  0.00    -0.388 OA
ATOM     29  H9  UNL     1      13.108 -12.750  -8.888  1.00  0.00     0.210 HD
ENDBRANCH  17  28
BRANCH  18  30
HETATM   30  O10 UNL     1      10.671 -11.331  -7.960  1.00  0.00    -0.390 OA
ATOM     31  H10 UNL     1      11.569 -11.381  -7.657  1.00  0.00     0.210 HD
ENDBRANCH  18  30
ENDBRANCH  13  14
ENDBRANCH  12  13
ENDBRANCH   9  12
ENDBRANCH   8   9
ENDBRANCH   5   8
BRANCH   5  32
HETATM   32  C16 UNL     1       7.500 -14.815  -3.056  1.00  0.00     0.242 C 
HETATM   33  O11 UNL     1       7.011 -14.614  -1.891  1.00  0.00    -0.644 OA
HETATM   34  O12 UNL     1       8.711 -14.191  -3.271  1.00  0.00    -0.644 OA
ENDBRANCH   5  32
BRANCH   2  35
HETATM   35  O2  UNL     1       7.221 -17.560  -5.978  1.00  0.00    -0.390 OA
ATOM     36  H2  UNL     1       7.747 -16.801  -5.756  1.00  0.00     0.210 HD
ENDBRANCH   2  35
BRANCH   7  37
HETATM   37  C18 UNL     1       3.219 -16.416  -4.004  1.00  0.00     0.180 C 
BRANCH  37  38
HETATM   38  O14 UNL     1       2.729 -16.448  -5.300  1.00  0.00    -0.390 OA
ATOM     39  H14 UNL     1       1.959 -16.994  -5.408  1.00  0.00     0.210 HD
ENDBRANCH  37  38
BRANCH  37  40
HETATM   40  C19 UNL     1       2.635 -15.306  -3.199  1.00  0.00     0.173 C 
BRANCH  40  41
HETATM   41  O15 UNL     1       1.753 -15.632  -2.215  1.00  0.00    -0.391 OA
ATOM     42  H15 UNL     1       1.434 -14.932  -1.657  1.00  0.00     0.210 HD
ENDBRANCH  40  41
BRANCH  40  43
HETATM   43  C20 UNL     1       2.136 -14.184  -4.105  1.00  0.00     0.198 C 
BRANCH  43  44
HETATM   44  O16 UNL     1       3.199 -13.493  -4.699  1.00  0.00    -0.398 OA
ATOM     45  H16 UNL     1       3.049 -13.353  -5.627  1.00  0.00     0.209 HD
ENDBRANCH  43  44
ENDBRANCH  40  43
ENDBRANCH  37  40
ENDBRANCH   7  37
BRANCH   1  46
HETATM   46  N1  UNL     1       4.308 -18.797  -4.771  1.00  0.00    -0.352 N 
HETATM   47  C2  UNL     1       4.002 -19.691  -5.827  1.00  0.00     0.214 C 
HETATM   48  C1  UNL     1       3.132 -20.895  -5.588  1.00  0.00     0.117 C 
HETATM   49  O1  UNL     1       4.456 -19.493  -6.984  1.00  0.00    -0.274 OA
ATOM     50  H1  UNL     1       3.934 -18.993  -3.842  1.00  0.00     0.163 HD
ENDBRANCH   1  46
TORSDOF 17
ENDMDL
