MODEL 5
REMARK VINA RESULT: -6.922876280      2.192      6.453
REMARK  6 active torsions:
REMARK  status: ('A' for Active; 'I' for Inactive)
REMARK    1  A    between atoms: C7_7  and  O1_8 
REMARK    2  A    between atoms: O1_8  and  C8_9 
REMARK    3  A    between atoms: C8_9  and  C9_10 
REMARK    4  A    between atoms: C9_10  and  C10_11 
REMARK    5  A    between atoms: C10_11  and  C11_12 
REMARK    6  A    between atoms: C11_12  and  C14_15 
ROOT
HETATM    1  O1  UNL     1      -0.826   1.459   7.282  1.00  0.00    -0.351 OA
ENDROOT
BRANCH   1   2
HETATM    2  C7  UNL     1      -0.516   0.749   8.380  1.00  0.00     0.075 A 
HETATM    3  C5  UNL     1       0.009   1.411   9.504  1.00  0.00    -0.029 A 
HETATM    4  C4  UNL     1       0.314   0.650  10.602  1.00  0.00     0.010 A 
HETATM    5  C6  UNL     1       0.212   2.896   9.463  1.00  0.00     0.051 C 
HETATM    6  C3  UNL     1       0.140  -0.705  10.671  1.00  0.00     0.007 A 
HETATM    7  C2  UNL     1      -0.370  -1.372   9.585  1.00  0.00    -0.059 A 
HETATM    8  C1  UNL     1      -0.585  -2.856   9.596  1.00  0.00     0.048 C 
HETATM    9  C15 UNL     1      -0.687  -0.606   8.454  1.00  0.00     0.044 A 
ENDBRANCH   1   2
BRANCH   1  10
HETATM   10  C8  UNL     1      -0.933   1.212   5.941  1.00  0.00     0.175 C 
BRANCH  10  11
HETATM   11  C9  UNL     1       0.287   0.825   5.195  1.00  0.00     0.028 C 
BRANCH  11  12
HETATM   12  C10 UNL     1       0.437   1.264   3.797  1.00  0.00     0.022 C 
BRANCH  12  13
HETATM   13  C11 UNL     1       0.938   0.315   2.776  1.00  0.00     0.041 C 
HETATM   14  C12 UNL     1       0.903  -1.099   3.440  1.00  0.00     0.026 C 
HETATM   15  C13 UNL     1       2.358   0.530   2.358  1.00  0.00     0.026 C 
BRANCH  13  16
HETATM   16  C14 UNL     1       0.074   0.171   1.585  1.00  0.00     0.181 C 
HETATM   17  O2  UNL     1       0.550   0.372   0.449  1.00  0.00    -0.647 OA
HETATM   18  O3  UNL     1      -1.246  -0.182   1.705  1.00  0.00    -0.647 OA
ENDBRANCH  13  16
ENDBRANCH  12  13
ENDBRANCH  11  12
ENDBRANCH  10  11
ENDBRANCH   1  10
TORSDOF 6
ENDMDL
