MODEL 1
REMARK VINA RESULT: -7.109200239      0.000      0.000
REMARK  6 active torsions:
REMARK  status: ('A' for Active; 'I' for Inactive)
REMARK    1  A    between atoms: C7_7  and  O1_8 
REMARK    2  A    between atoms: O1_8  and  C8_9 
REMARK    3  A    between atoms: C8_9  and  C9_10 
REMARK    4  A    between atoms: C9_10  and  C10_11 
REMARK    5  A    between atoms: C10_11  and  C11_12 
REMARK    6  A    between atoms: C11_12  and  C14_15 
ROOT
HETATM    1  O1  UNL     1       0.315  -1.341   6.064  1.00  0.00    -0.351 OA
ENDROOT
BRANCH   1   2
HETATM    2  C7  UNL     1       0.076  -0.317   5.228  1.00  0.00     0.075 A 
HETATM    3  C5  UNL     1       0.681  -0.308   3.959  1.00  0.00    -0.029 A 
HETATM    4  C4  UNL     1       0.412   0.756   3.137  1.00  0.00     0.010 A 
HETATM    5  C6  UNL     1       1.580  -1.439   3.556  1.00  0.00     0.051 C 
HETATM    6  C3  UNL     1      -0.402   1.802   3.474  1.00  0.00     0.007 A 
HETATM    7  C2  UNL     1      -1.003   1.814   4.709  1.00  0.00    -0.059 A 
HETATM    8  C1  UNL     1      -1.906   2.931   5.139  1.00  0.00     0.048 C 
HETATM    9  C15 UNL     1      -0.737   0.732   5.560  1.00  0.00     0.044 A 
ENDBRANCH   1   2
BRANCH   1  10
HETATM   10  C8  UNL     1       1.314  -1.702   6.926  1.00  0.00     0.175 C 
BRANCH  10  11
HETATM   11  C9  UNL     1       1.166  -1.365   8.361  1.00  0.00     0.028 C 
BRANCH  11  12
HETATM   12  C10 UNL     1       1.276   0.043   8.778  1.00  0.00     0.022 C 
BRANCH  12  13
HETATM   13  C11 UNL     1       0.093   0.746   9.324  1.00  0.00     0.041 C 
HETATM   14  C12 UNL     1       0.205   0.646  10.879  1.00  0.00     0.026 C 
HETATM   15  C13 UNL     1      -1.224   0.129   8.974  1.00  0.00     0.026 C 
BRANCH  13  16
HETATM   16  C14 UNL     1       0.058   2.201   9.062  1.00  0.00     0.181 C 
HETATM   17  O2  UNL     1      -0.888   2.688   8.411  1.00  0.00    -0.647 OA
HETATM   18  O3  UNL     1       1.051   3.028   9.523  1.00  0.00    -0.647 OA
ENDBRANCH  13  16
ENDBRANCH  12  13
ENDBRANCH  11  12
ENDBRANCH  10  11
ENDBRANCH   1  10
TORSDOF 6
ENDMDL
