MODEL 2
REMARK VINA RESULT: -7.105980709      1.826      3.771
REMARK  6 active torsions:
REMARK  status: ('A' for Active; 'I' for Inactive)
REMARK    1  A    between atoms: C7_7  and  O1_8 
REMARK    2  A    between atoms: O1_8  and  C8_9 
REMARK    3  A    between atoms: C8_9  and  C9_10 
REMARK    4  A    between atoms: C9_10  and  C10_11 
REMARK    5  A    between atoms: C10_11  and  C11_12 
REMARK    6  A    between atoms: C11_12  and  C14_15 
ROOT
HETATM    1  O1  UNL     1      -0.385   1.359   6.024  1.00  0.00    -0.351 OA
ENDROOT
BRANCH   1   2
HETATM    2  C7  UNL     1      -0.124   0.328   5.203  1.00  0.00     0.075 A 
HETATM    3  C5  UNL     1      -0.712   0.297   3.927  1.00  0.00    -0.029 A 
HETATM    4  C4  UNL     1      -0.421  -0.774   3.122  1.00  0.00     0.010 A 
HETATM    5  C6  UNL     1      -1.617   1.413   3.499  1.00  0.00     0.051 C 
HETATM    6  C3  UNL     1       0.399  -1.807   3.482  1.00  0.00     0.007 A 
HETATM    7  C2  UNL     1       0.984  -1.798   4.725  1.00  0.00    -0.059 A 
HETATM    8  C1  UNL     1       1.893  -2.899   5.181  1.00  0.00     0.048 C 
HETATM    9  C15 UNL     1       0.695  -0.708   5.560  1.00  0.00     0.044 A 
ENDBRANCH   1   2
BRANCH   1  10
HETATM   10  C8  UNL     1      -1.365   1.687   6.921  1.00  0.00     0.175 C 
BRANCH  10  11
HETATM   11  C9  UNL     1      -1.157   1.352   8.349  1.00  0.00     0.028 C 
BRANCH  11  12
HETATM   12  C10 UNL     1      -1.266  -0.054   8.774  1.00  0.00     0.022 C 
BRANCH  12  13
HETATM   13  C11 UNL     1      -0.082  -0.750   9.328  1.00  0.00     0.041 C 
HETATM   14  C12 UNL     1      -0.190  -0.626  10.882  1.00  0.00     0.026 C 
HETATM   15  C13 UNL     1       1.235  -0.141   8.965  1.00  0.00     0.026 C 
BRANCH  13  16
HETATM   16  C14 UNL     1      -0.051  -2.209   9.088  1.00  0.00     0.181 C 
HETATM   17  O2  UNL     1       0.879  -2.704   8.421  1.00  0.00    -0.647 OA
HETATM   18  O3  UNL     1      -1.029  -3.031   9.588  1.00  0.00    -0.647 OA
ENDBRANCH  13  16
ENDBRANCH  12  13
ENDBRANCH  11  12
ENDBRANCH  10  11
ENDBRANCH   1  10
TORSDOF 6
ENDMDL
