MODEL 6
REMARK VINA RESULT: -6.895434629      1.560      2.513
REMARK  6 active torsions:
REMARK  status: ('A' for Active; 'I' for Inactive)
REMARK    1  A    between atoms: C7_7  and  O1_8 
REMARK    2  A    between atoms: O1_8  and  C8_9 
REMARK    3  A    between atoms: C8_9  and  C9_10 
REMARK    4  A    between atoms: C9_10  and  C10_11 
REMARK    5  A    between atoms: C10_11  and  C11_12 
REMARK    6  A    between atoms: C11_12  and  C14_15 
ROOT
HETATM    1  O1  UNL     1       0.805  -0.799   5.368  1.00  0.00    -0.351 OA
ENDROOT
BRANCH   1   2
HETATM    2  C7  UNL     1      -0.063  -0.720   4.345  1.00  0.00     0.075 A 
HETATM    3  C5  UNL     1      -0.817   0.453   4.170  1.00  0.00    -0.029 A 
HETATM    4  C4  UNL     1      -1.692   0.492   3.115  1.00  0.00     0.010 A 
HETATM    5  C6  UNL     1      -0.640   1.599   5.122  1.00  0.00     0.051 C 
HETATM    6  C3  UNL     1      -1.877  -0.534   2.230  1.00  0.00     0.007 A 
HETATM    7  C2  UNL     1      -1.152  -1.690   2.383  1.00  0.00    -0.059 A 
HETATM    8  C1  UNL     1      -1.307  -2.851   1.448  1.00  0.00     0.048 C 
HETATM    9  C15 UNL     1      -0.252  -1.744   3.457  1.00  0.00     0.044 A 
ENDBRANCH   1   2
BRANCH   1  10
HETATM   10  C8  UNL     1       1.164  -1.744   6.290  1.00  0.00     0.175 C 
BRANCH  10  11
HETATM   11  C9  UNL     1       1.311  -1.330   7.705  1.00  0.00     0.028 C 
BRANCH  11  12
HETATM   12  C10 UNL     1       1.275   0.105   8.035  1.00  0.00     0.022 C 
BRANCH  12  13
HETATM   13  C11 UNL     1       0.142   0.654   8.815  1.00  0.00     0.041 C 
HETATM   14  C12 UNL     1       0.380   0.218  10.297  1.00  0.00     0.026 C 
HETATM   15  C13 UNL     1      -1.201   0.109   8.445  1.00  0.00     0.026 C 
BRANCH  13  16
HETATM   16  C14 UNL     1       0.091   2.130   8.882  1.00  0.00     0.181 C 
HETATM   17  O2  UNL     1      -0.874   2.737   8.375  1.00  0.00    -0.647 OA
HETATM   18  O3  UNL     1       1.088   2.847   9.492  1.00  0.00    -0.647 OA
ENDBRANCH  13  16
ENDBRANCH  12  13
ENDBRANCH  11  12
ENDBRANCH  10  11
ENDBRANCH   1  10
TORSDOF 6
ENDMDL
