MODEL 15
REMARK VINA RESULT: -6.832515471      1.842      6.210
REMARK  6 active torsions:
REMARK  status: ('A' for Active; 'I' for Inactive)
REMARK    1  A    between atoms: C7_7  and  O1_8 
REMARK    2  A    between atoms: O1_8  and  C8_9 
REMARK    3  A    between atoms: C8_9  and  C9_10 
REMARK    4  A    between atoms: C9_10  and  C10_11 
REMARK    5  A    between atoms: C10_11  and  C11_12 
REMARK    6  A    between atoms: C11_12  and  C14_15 
ROOT
HETATM    1  O1  UNL     1      -0.278   1.522   7.303  1.00  0.00    -0.351 OA
ENDROOT
BRANCH   1   2
HETATM    2  C7  UNL     1      -0.198   0.787   8.425  1.00  0.00     0.075 A 
HETATM    3  C5  UNL     1       0.103   1.422   9.643  1.00  0.00    -0.029 A 
HETATM    4  C4  UNL     1       0.178   0.636  10.764  1.00  0.00     0.010 A 
HETATM    5  C6  UNL     1       0.325   2.904   9.674  1.00  0.00     0.051 C 
HETATM    6  C3  UNL     1      -0.019  -0.717  10.770  1.00  0.00     0.007 A 
HETATM    7  C2  UNL     1      -0.313  -1.357   9.591  1.00  0.00    -0.059 A 
HETATM    8  C1  UNL     1      -0.540  -2.838   9.530  1.00  0.00     0.048 C 
HETATM    9  C15 UNL     1      -0.393  -0.566   8.436  1.00  0.00     0.044 A 
ENDBRANCH   1   2
BRANCH   1  10
HETATM   10  C8  UNL     1      -1.176   1.672   6.281  1.00  0.00     0.175 C 
BRANCH  10  11
HETATM   11  C9  UNL     1      -0.791   1.207   4.928  1.00  0.00     0.028 C 
BRANCH  11  12
HETATM   12  C10 UNL     1       0.449   0.428   4.768  1.00  0.00     0.022 C 
BRANCH  12  13
HETATM   13  C11 UNL     1       0.639  -0.416   3.567  1.00  0.00     0.041 C 
HETATM   14  C12 UNL     1       1.134  -1.805   4.084  1.00  0.00     0.026 C 
HETATM   15  C13 UNL     1       1.694   0.061   2.621  1.00  0.00     0.026 C 
BRANCH  13  16
HETATM   16  C14 UNL     1      -0.601  -0.733   2.827  1.00  0.00     0.181 C 
HETATM   17  O2  UNL     1      -1.339  -1.656   3.227  1.00  0.00    -0.647 OA
HETATM   18  O3  UNL     1      -0.957  -0.028   1.705  1.00  0.00    -0.647 OA
ENDBRANCH  13  16
ENDBRANCH  12  13
ENDBRANCH  11  12
ENDBRANCH  10  11
ENDBRANCH   1  10
TORSDOF 6
ENDMDL
