MODEL 4
REMARK VINA RESULT: -7.812424211      5.016      9.224
REMARK  9 active torsions:
REMARK  status: ('A' for Active; 'I' for Inactive)
REMARK       I    between atoms: C1_2  and  N1_3 
REMARK    1  A    between atoms: C1_2  and  O7_20 
REMARK    2  A    between atoms: N1_3  and  C2_5 
REMARK    3  A    between atoms: C3_6  and  O2_7 
REMARK    4  A    between atoms: C4_10  and  C5_11 
REMARK    5  A    between atoms: C5_11  and  O4_12 
REMARK    6  A    between atoms: C6_14  and  O5_15 
REMARK    7  A    between atoms: C7_17  and  O6_18 
REMARK    8  A    between atoms: O7_20  and  C8_21 
REMARK    9  A    between atoms: C8_21  and  C9_22 
ROOT
HETATM    1  C2  UNL     1     -20.985 -10.322  -5.460  1.00  0.00     0.173 C 
HETATM    2  C3  UNL     1     -21.066 -11.823  -5.467  1.00  0.00     0.282 C 
HETATM    3  O3  UNL     1     -20.115 -12.449  -4.714  1.00  0.00    -0.349 OA
HETATM    4  C4  UNL     1     -19.736 -11.803  -3.572  1.00  0.00     0.179 C 
HETATM    5  C6  UNL     1     -20.818 -10.885  -3.088  1.00  0.00     0.180 C 
HETATM    6  C7  UNL     1     -20.926  -9.749  -4.066  1.00  0.00     0.177 C 
ENDROOT
BRANCH   1   7
HETATM    7  N1  UNL     1     -19.867  -9.878  -6.264  1.00  0.00    -0.325 N 
HETATM    8  C1  UNL     1     -20.050  -8.912  -7.290  1.00  0.00     0.361 C 
HETATM    9  O1  UNL     1     -21.203  -8.462  -7.472  1.00  0.00    -0.238 OA
ATOM     10  H1  UNL     1     -18.938 -10.261  -6.092  1.00  0.00     0.165 HD
BRANCH   8  11
HETATM   11  O7  UNL     1     -19.011  -8.457  -8.084  1.00  0.00    -0.299 OA
BRANCH  11  12
HETATM   12  C8  UNL     1     -18.022  -7.566  -7.666  1.00  0.00     0.219 C 
BRANCH  12  13
HETATM   13  C9  UNL     1     -16.688  -7.796  -8.237  1.00  0.00    -0.034 A 
HETATM   14  C10 UNL     1     -16.127  -9.016  -8.497  1.00  0.00     0.009 A 
HETATM   15  C11 UNL     1     -14.846  -9.096  -9.039  1.00  0.00     0.001 A 
HETATM   16  C12 UNL     1     -14.109  -7.970  -9.329  1.00  0.00     0.000 A 
HETATM   17  C13 UNL     1     -14.674  -6.732  -9.067  1.00  0.00     0.001 A 
HETATM   18  C14 UNL     1     -15.933  -6.667  -8.534  1.00  0.00     0.009 A 
ENDBRANCH  12  13
ENDBRANCH  11  12
ENDBRANCH   8  11
ENDBRANCH   1   7
BRANCH   2  19
HETATM   19  O2  UNL     1     -22.375 -12.234  -5.179  1.00  0.00    -0.369 OA
ATOM     20  H2  UNL     1     -22.570 -12.074  -4.264  1.00  0.00     0.212 HD
ENDBRANCH   2  19
BRANCH   6  21
HETATM   21  O6  UNL     1     -22.007  -8.913  -3.793  1.00  0.00    -0.391 OA
ATOM     22  H6  UNL     1     -21.871  -8.032  -4.124  1.00  0.00     0.210 HD
ENDBRANCH   6  21
BRANCH   5  23
HETATM   23  O5  UNL     1     -20.515 -10.338  -1.843  1.00  0.00    -0.390 OA
ATOM     24  H5  UNL     1     -20.531  -9.388  -1.860  1.00  0.00     0.210 HD
ENDBRANCH   5  23
BRANCH   4  25
HETATM   25  C5  UNL     1     -19.305 -12.803  -2.522  1.00  0.00     0.198 C 
BRANCH  25  26
HETATM   26  O4  UNL     1     -18.076 -12.341  -2.017  1.00  0.00    -0.398 OA
ATOM     27  H4  UNL     1     -17.427 -12.992  -2.256  1.00  0.00     0.209 HD
ENDBRANCH  25  26
ENDBRANCH   4  25
TORSDOF 9
ENDMDL
