MODEL 5
REMARK VINA RESULT: -7.705354336      4.324      8.561
REMARK  9 active torsions:
REMARK  status: ('A' for Active; 'I' for Inactive)
REMARK       I    between atoms: C1_2  and  N1_3 
REMARK    1  A    between atoms: C1_2  and  O7_20 
REMARK    2  A    between atoms: N1_3  and  C2_5 
REMARK    3  A    between atoms: C3_6  and  O2_7 
REMARK    4  A    between atoms: C4_10  and  C5_11 
REMARK    5  A    between atoms: C5_11  and  O4_12 
REMARK    6  A    between atoms: C6_14  and  O5_15 
REMARK    7  A    between atoms: C7_17  and  O6_18 
REMARK    8  A    between atoms: O7_20  and  C8_21 
REMARK    9  A    between atoms: C8_21  and  C9_22 
ROOT
HETATM    1  C2  UNL     1     -20.904  -9.685  -4.858  1.00  0.00     0.173 C 
HETATM    2  C3  UNL     1     -22.109  -9.263  -4.063  1.00  0.00     0.282 C 
HETATM    3  O3  UNL     1     -23.253  -9.944  -4.360  1.00  0.00    -0.349 OA
HETATM    4  C4  UNL     1     -23.097 -11.259  -4.693  1.00  0.00     0.179 C 
HETATM    5  C6  UNL     1     -21.833 -11.817  -4.110  1.00  0.00     0.180 C 
HETATM    6  C7  UNL     1     -20.678 -11.176  -4.824  1.00  0.00     0.177 C 
ENDROOT
BRANCH   1   7
HETATM    7  N1  UNL     1     -21.002  -9.194  -6.216  1.00  0.00    -0.325 N 
HETATM    8  C1  UNL     1     -19.889  -8.576  -6.846  1.00  0.00     0.361 C 
HETATM    9  O1  UNL     1     -18.828  -8.473  -6.191  1.00  0.00    -0.238 OA
ATOM     10  H1  UNL     1     -21.880  -9.293  -6.725  1.00  0.00     0.165 HD
BRANCH   8  11
HETATM   11  O7  UNL     1     -19.936  -8.092  -8.142  1.00  0.00    -0.299 OA
BRANCH  11  12
HETATM   12  C8  UNL     1     -18.830  -7.634  -8.860  1.00  0.00     0.219 C 
BRANCH  12  13
HETATM   13  C9  UNL     1     -18.129  -8.654  -9.651  1.00  0.00    -0.034 A 
HETATM   14  C10 UNL     1     -16.837  -9.062  -9.468  1.00  0.00     0.009 A 
HETATM   15  C11 UNL     1     -16.287 -10.041 -10.293  1.00  0.00     0.001 A 
HETATM   16  C12 UNL     1     -17.013 -10.625 -11.307  1.00  0.00     0.000 A 
HETATM   17  C13 UNL     1     -18.323 -10.215 -11.496  1.00  0.00     0.001 A 
HETATM   18  C14 UNL     1     -18.850  -9.252 -10.678  1.00  0.00     0.009 A 
ENDBRANCH  12  13
ENDBRANCH  11  12
ENDBRANCH   8  11
ENDBRANCH   1   7
BRANCH   2  19
HETATM   19  O2  UNL     1     -21.799  -9.245  -2.697  1.00  0.00    -0.369 OA
ATOM     20  H2  UNL     1     -22.192  -8.485  -2.286  1.00  0.00     0.212 HD
ENDBRANCH   2  19
BRANCH   6  21
HETATM   21  O6  UNL     1     -19.449 -11.510  -4.256  1.00  0.00    -0.391 OA
ATOM     22  H6  UNL     1     -19.170 -10.876  -3.606  1.00  0.00     0.210 HD
ENDBRANCH   6  21
BRANCH   5  23
HETATM   23  O5  UNL     1     -21.735 -13.193  -4.306  1.00  0.00    -0.390 OA
ATOM     24  H5  UNL     1     -22.556 -13.568  -4.604  1.00  0.00     0.210 HD
ENDBRANCH   5  23
BRANCH   4  25
HETATM   25  C5  UNL     1     -24.323 -12.052  -4.297  1.00  0.00     0.198 C 
BRANCH  25  26
HETATM   26  O4  UNL     1     -24.180 -12.342  -2.928  1.00  0.00    -0.398 OA
ATOM     27  H4  UNL     1     -24.817 -13.018  -2.730  1.00  0.00     0.209 HD
ENDBRANCH  25  26
ENDBRANCH   4  25
TORSDOF 9
ENDMDL
