MODEL 18
REMARK VINA RESULT: -7.411296910      1.839      2.946
REMARK  9 active torsions:
REMARK  status: ('A' for Active; 'I' for Inactive)
REMARK       I    between atoms: C1_2  and  N1_3 
REMARK    1  A    between atoms: C1_2  and  O7_20 
REMARK    2  A    between atoms: N1_3  and  C2_5 
REMARK    3  A    between atoms: C3_6  and  O2_7 
REMARK    4  A    between atoms: C4_10  and  C5_11 
REMARK    5  A    between atoms: C5_11  and  O4_12 
REMARK    6  A    between atoms: C6_14  and  O5_15 
REMARK    7  A    between atoms: C7_17  and  O6_18 
REMARK    8  A    between atoms: O7_20  and  C8_21 
REMARK    9  A    between atoms: C8_21  and  C9_22 
ROOT
HETATM    1  C2  UNL     1     -22.821 -10.614  -5.489  1.00  0.00     0.173 C 
HETATM    2  C3  UNL     1     -22.624  -9.694  -6.661  1.00  0.00     0.282 C 
HETATM    3  O3  UNL     1     -21.637  -8.765  -6.497  1.00  0.00    -0.349 OA
HETATM    4  C4  UNL     1     -20.553  -9.167  -5.770  1.00  0.00     0.179 C 
HETATM    5  C6  UNL     1     -20.399 -10.658  -5.811  1.00  0.00     0.180 C 
HETATM    6  C7  UNL     1     -21.535 -11.257  -5.032  1.00  0.00     0.177 C 
ENDROOT
BRANCH   1   7
HETATM    7  N1  UNL     1     -23.478  -9.913  -4.407  1.00  0.00    -0.325 N 
HETATM    8  C1  UNL     1     -24.877 -10.044  -4.202  1.00  0.00     0.361 C 
HETATM    9  O1  UNL     1     -25.518 -10.782  -4.984  1.00  0.00    -0.238 OA
ATOM     10  H1  UNL     1     -22.930  -9.318  -3.785  1.00  0.00     0.165 HD
BRANCH   8  11
HETATM   11  O7  UNL     1     -25.549  -9.393  -3.181  1.00  0.00    -0.299 OA
BRANCH  11  12
HETATM   12  C8  UNL     1     -26.193 -10.031  -2.120  1.00  0.00     0.219 C 
BRANCH  12  13
HETATM   13  C9  UNL     1     -27.384 -10.809  -2.485  1.00  0.00    -0.034 A 
HETATM   14  C10 UNL     1     -27.462 -12.174  -2.545  1.00  0.00     0.009 A 
HETATM   15  C11 UNL     1     -28.657 -12.792  -2.910  1.00  0.00     0.001 A 
HETATM   16  C12 UNL     1     -29.784 -12.065  -3.219  1.00  0.00     0.000 A 
HETATM   17  C13 UNL     1     -29.709 -10.682  -3.160  1.00  0.00     0.001 A 
HETATM   18  C14 UNL     1     -28.530 -10.088  -2.800  1.00  0.00     0.009 A 
ENDBRANCH  12  13
ENDBRANCH  11  12
ENDBRANCH   8  11
ENDBRANCH   1   7
BRANCH   2  19
HETATM   19  O2  UNL     1     -22.507 -10.440  -7.841  1.00  0.00    -0.369 OA
ATOM     20  H2  UNL     1     -21.778 -10.118  -8.357  1.00  0.00     0.212 HD
ENDBRANCH   2  19
BRANCH   6  21
HETATM   21  O6  UNL     1     -21.576 -12.647  -5.132  1.00  0.00    -0.391 OA
ATOM     22  H6  UNL     1     -21.202 -13.072  -4.369  1.00  0.00     0.210 HD
ENDBRANCH   6  21
BRANCH   5  23
HETATM   23  O5  UNL     1     -19.213 -11.074  -5.209  1.00  0.00    -0.390 OA
ATOM     24  H5  UNL     1     -18.751 -11.711  -5.741  1.00  0.00     0.210 HD
ENDBRANCH   5  23
BRANCH   4  25
HETATM   25  C5  UNL     1     -19.311  -8.439  -6.233  1.00  0.00     0.198 C 
BRANCH  25  26
HETATM   26  O4  UNL     1     -18.740  -9.233  -7.245  1.00  0.00    -0.398 OA
ATOM     27  H4  UNL     1     -18.036  -9.722  -6.836  1.00  0.00     0.209 HD
ENDBRANCH  25  26
ENDBRANCH   4  25
TORSDOF 9
ENDMDL
