MODEL 7
REMARK VINA RESULT: -7.699048588      4.493      7.761
REMARK  9 active torsions:
REMARK  status: ('A' for Active; 'I' for Inactive)
REMARK       I    between atoms: C1_2  and  N1_3 
REMARK    1  A    between atoms: C1_2  and  O7_20 
REMARK    2  A    between atoms: N1_3  and  C2_5 
REMARK    3  A    between atoms: C3_6  and  O2_7 
REMARK    4  A    between atoms: C4_10  and  C5_11 
REMARK    5  A    between atoms: C5_11  and  O4_12 
REMARK    6  A    between atoms: C6_14  and  O5_15 
REMARK    7  A    between atoms: C7_17  and  O6_18 
REMARK    8  A    between atoms: O7_20  and  C8_21 
REMARK    9  A    between atoms: C8_21  and  C9_22 
ROOT
HETATM    1  C2  UNL     1     -21.858 -10.457  -4.577  1.00  0.00     0.173 C 
HETATM    2  C3  UNL     1     -21.602 -11.929  -4.748  1.00  0.00     0.282 C 
HETATM    3  O3  UNL     1     -20.313 -12.313  -4.520  1.00  0.00    -0.349 OA
HETATM    4  C4  UNL     1     -19.648 -11.626  -3.545  1.00  0.00     0.179 C 
HETATM    5  C6  UNL     1     -20.606 -11.028  -2.558  1.00  0.00     0.180 C 
HETATM    6  C7  UNL     1     -21.356  -9.929  -3.256  1.00  0.00     0.177 C 
ENDROOT
BRANCH   1   7
HETATM    7  N1  UNL     1     -21.301  -9.719  -5.690  1.00  0.00    -0.325 N 
HETATM    8  C1  UNL     1     -22.146  -9.172  -6.692  1.00  0.00     0.361 C 
HETATM    9  O1  UNL     1     -23.380  -9.347  -6.579  1.00  0.00    -0.238 OA
ATOM     10  H1  UNL     1     -20.291  -9.592  -5.756  1.00  0.00     0.165 HD
BRANCH   8  11
HETATM   11  O7  UNL     1     -21.659  -8.459  -7.775  1.00  0.00    -0.299 OA
BRANCH  11  12
HETATM   12  C8  UNL     1     -20.682  -8.921  -8.658  1.00  0.00     0.219 C 
BRANCH  12  13
HETATM   13  C9  UNL     1     -19.337  -8.369  -8.451  1.00  0.00    -0.034 A 
HETATM   14  C10 UNL     1     -18.477  -8.710  -7.444  1.00  0.00     0.009 A 
HETATM   15  C11 UNL     1     -17.224  -8.105  -7.358  1.00  0.00     0.001 A 
HETATM   16  C12 UNL     1     -16.812  -7.158  -8.269  1.00  0.00     0.000 A 
HETATM   17  C13 UNL     1     -17.681  -6.810  -9.291  1.00  0.00     0.001 A 
HETATM   18  C14 UNL     1     -18.909  -7.411  -9.363  1.00  0.00     0.009 A 
ENDBRANCH  12  13
ENDBRANCH  11  12
ENDBRANCH   8  11
ENDBRANCH   1   7
BRANCH   2  19
HETATM   19  O2  UNL     1     -22.548 -12.667  -4.025  1.00  0.00    -0.369 OA
ATOM     20  H2  UNL     1     -22.118 -13.366  -3.548  1.00  0.00     0.212 HD
ENDBRANCH   2  19
BRANCH   6  21
HETATM   21  O6  UNL     1     -22.382  -9.404  -2.473  1.00  0.00    -0.391 OA
ATOM     22  H6  UNL     1     -22.291  -9.638  -1.557  1.00  0.00     0.210 HD
ENDBRANCH   6  21
BRANCH   5  23
HETATM   23  O5  UNL     1     -19.943 -10.458  -1.473  1.00  0.00    -0.390 OA
ATOM     24  H5  UNL     1     -20.367  -9.661  -1.178  1.00  0.00     0.210 HD
ENDBRANCH   5  23
BRANCH   4  25
HETATM   25  C5  UNL     1     -18.612 -12.513  -2.890  1.00  0.00     0.198 C 
BRANCH  25  26
HETATM   26  O4  UNL     1     -19.324 -13.451  -2.121  1.00  0.00    -0.398 OA
ATOM     27  H4  UNL     1     -19.644 -14.107  -2.728  1.00  0.00     0.209 HD
ENDBRANCH  25  26
ENDBRANCH   4  25
TORSDOF 9
ENDMDL
