MODEL 2
REMARK VINA RESULT: -9.302668441      1.444      4.796
REMARK  15 active torsions:
REMARK  status: ('A' for Active; 'I' for Inactive)
REMARK    1  A    between atoms: N1_2  and  C2_5 
REMARK    2  A    between atoms: C6_11  and  O3_12 
REMARK    3  A    between atoms: O3_12  and  C7_13 
REMARK       I    between atoms: C7_13  and  N2_15 
REMARK    4  A    between atoms: N2_15  and  C8_17 
REMARK    5  A    between atoms: C8_17  and  C9_18 
REMARK    6  A    between atoms: C8_17  and  C16_25 
REMARK    7  A    between atoms: C9_18  and  C10_19 
REMARK    8  A    between atoms: C16_25  and  O5_26 
REMARK    9  A    between atoms: C16_25  and  C17_28 
REMARK   10  A    between atoms: C17_28  and  N3_29 
REMARK   11  A    between atoms: N3_29  and  C18_30 
REMARK   12  A    between atoms: N3_29  and  S1_34 
REMARK   13  A    between atoms: C18_30  and  C19_31 
REMARK   14  A    between atoms: S1_34  and  C22_37 
REMARK   15  A    between atoms: C25_40  and  O8_41 
ROOT
HETATM    1  C8  UNL     1      16.433  24.595  16.363  1.00  0.00     0.120 C 
ENDROOT
BRANCH   1   2
HETATM    2  N2  UNL     1      17.266  25.746  16.078  1.00  0.00    -0.329 N 
HETATM    3  C7  UNL     1      18.587  25.670  15.561  1.00  0.00     0.361 C 
HETATM    4  O4  UNL     1      19.059  24.524  15.339  1.00  0.00    -0.238 OA
ATOM      5  H2  UNL     1      16.878  26.672  16.261  1.00  0.00     0.165 HD
BRANCH   3   6
HETATM    6  O3  UNL     1      19.331  26.833  15.311  1.00  0.00    -0.296 OA
BRANCH   6   7
HETATM    7  C6  UNL     1      20.477  26.697  14.500  1.00  0.00     0.168 C 
HETATM    8  C5  UNL     1      20.687  27.899  13.598  1.00  0.00     0.204 C 
HETATM    9  O2  UNL     1      22.020  28.233  13.693  1.00  0.00    -0.358 OA
HETATM   10  C4  UNL     1      22.338  28.038  15.033  1.00  0.00     0.268 C 
HETATM   11  O1  UNL     1      21.623  28.860  15.878  1.00  0.00    -0.359 OA
HETATM   12  C29 UNL     1      21.743  26.669  15.313  1.00  0.00     0.105 C 
HETATM   13  C3  UNL     1      21.549  28.196  17.109  1.00  0.00     0.204 C 
HETATM   14  C2  UNL     1      21.475  26.735  16.798  1.00  0.00     0.220 C 
BRANCH  14  15
HETATM   15  N1  UNL     1      22.519  25.982  17.467  1.00  0.00    -0.072 N 
HETATM   16  C1  UNL     1      23.191  26.783  18.472  1.00  0.00     0.267 C 
ATOM     17  H12 UNL     1      23.181  25.588  16.798  1.00  0.00     0.277 HD
ATOM     18  H11 UNL     1      22.158  25.113  17.861  1.00  0.00     0.277 HD
ENDBRANCH  14  15
ENDBRANCH   6   7
ENDBRANCH   3   6
ENDBRANCH   1   2
BRANCH   1  19
HETATM   19  C9  UNL     1      16.677  23.531  15.381  1.00  0.00     0.066 C 
BRANCH  19  20
HETATM   20  C10 UNL     1      15.434  22.806  14.958  1.00  0.00    -0.056 A 
HETATM   21  C11 UNL     1      15.518  21.770  14.019  1.00  0.00     0.007 A 
HETATM   22  C12 UNL     1      14.415  21.064  13.587  1.00  0.00     0.001 A 
HETATM   23  C13 UNL     1      13.165  21.373  14.088  1.00  0.00     0.000 A 
HETATM   24  C14 UNL     1      13.097  22.393  15.010  1.00  0.00     0.001 A 
HETATM   25  C15 UNL     1      14.193  23.112  15.453  1.00  0.00     0.007 A 
ENDBRANCH  19  20
ENDBRANCH   1  19
BRANCH   1  26
HETATM   26  C16 UNL     1      16.447  24.278  17.815  1.00  0.00     0.155 C 
BRANCH  26  27
HETATM   27  O5  UNL     1      15.600  25.273  18.393  1.00  0.00    -0.392 OA
ATOM     28  H5  UNL     1      15.402  24.932  19.257  1.00  0.00     0.210 HD
ENDBRANCH  26  27
BRANCH  26  29
HETATM   29  C17 UNL     1      17.769  24.531  18.512  1.00  0.00     0.141 C 
BRANCH  29  30
HETATM   30  N3  UNL     1      18.000  23.528  19.520  1.00  0.00    -0.204 NA
BRANCH  30  31
HETATM   31  C18 UNL     1      18.939  23.828  20.520  1.00  0.00     0.111 C 
BRANCH  31  32
HETATM   32  C19 UNL     1      20.169  24.475  19.978  1.00  0.00    -0.009 C 
HETATM   33  C20 UNL     1      21.366  23.521  20.008  1.00  0.00     0.011 C 
HETATM   34  C21 UNL     1      20.573  25.653  20.819  1.00  0.00     0.011 C 
ENDBRANCH  31  32
ENDBRANCH  30  31
BRANCH  30  35
HETATM   35  S1  UNL     1      18.159  21.960  18.842  1.00  0.00     0.243 S 
HETATM   36  O6  UNL     1      18.779  21.958  17.481  1.00  0.00    -0.206 OA
HETATM   37  O7  UNL     1      19.000  21.067  19.723  1.00  0.00    -0.206 OA
BRANCH  35  38
HETATM   38  C22 UNL     1      16.587  21.185  18.706  1.00  0.00     0.074 A 
HETATM   39  C23 UNL     1      16.236  20.453  17.609  1.00  0.00     0.027 A 
HETATM   40  C24 UNL     1      14.982  19.838  17.509  1.00  0.00     0.038 A 
HETATM   41  C25 UNL     1      14.073  19.963  18.529  1.00  0.00     0.068 A 
HETATM   42  C27 UNL     1      14.427  20.702  19.637  1.00  0.00     0.038 A 
HETATM   43  C28 UNL     1      15.660  21.298  19.716  1.00  0.00     0.027 A 
BRANCH  41  44
HETATM   44  O8  UNL     1      12.805  19.360  18.467  1.00  0.00    -0.356 OA
HETATM   45  C26 UNL     1      11.961  19.719  17.393  1.00  0.00     0.210 C 
ENDBRANCH  41  44
ENDBRANCH  35  38
ENDBRANCH  30  35
ENDBRANCH  29  30
ENDBRANCH  26  29
ENDBRANCH   1  26
TORSDOF 15
ENDMDL
