MODEL 3
REMARK VINA RESULT: -9.286451071      0.995      1.419
REMARK  15 active torsions:
REMARK  status: ('A' for Active; 'I' for Inactive)
REMARK    1  A    between atoms: N1_2  and  C2_5 
REMARK    2  A    between atoms: C6_11  and  O3_12 
REMARK    3  A    between atoms: O3_12  and  C7_13 
REMARK       I    between atoms: C7_13  and  N2_15 
REMARK    4  A    between atoms: N2_15  and  C8_17 
REMARK    5  A    between atoms: C8_17  and  C9_18 
REMARK    6  A    between atoms: C8_17  and  C16_25 
REMARK    7  A    between atoms: C9_18  and  C10_19 
REMARK    8  A    between atoms: C16_25  and  O5_26 
REMARK    9  A    between atoms: C16_25  and  C17_28 
REMARK   10  A    between atoms: C17_28  and  N3_29 
REMARK   11  A    between atoms: N3_29  and  C18_30 
REMARK   12  A    between atoms: N3_29  and  S1_34 
REMARK   13  A    between atoms: C18_30  and  C19_31 
REMARK   14  A    between atoms: S1_34  and  C22_37 
REMARK   15  A    between atoms: C25_40  and  O8_41 
ROOT
HETATM    1  C8  UNL     1      17.706  24.570  18.267  1.00  0.00     0.120 C 
ENDROOT
BRANCH   1   2
HETATM    2  N2  UNL     1      18.547  25.635  17.758  1.00  0.00    -0.329 N 
HETATM    3  C7  UNL     1      19.614  25.444  16.839  1.00  0.00     0.361 C 
HETATM    4  O4  UNL     1      19.839  24.268  16.447  1.00  0.00    -0.238 OA
ATOM      5  H2  UNL     1      18.361  26.585  18.081  1.00  0.00     0.165 HD
BRANCH   3   6
HETATM    6  O3  UNL     1      20.384  26.528  16.392  1.00  0.00    -0.296 OA
BRANCH   6   7
HETATM    7  C6  UNL     1      20.594  26.633  15.001  1.00  0.00     0.168 C 
HETATM    8  C5  UNL     1      19.839  27.801  14.394  1.00  0.00     0.204 C 
HETATM    9  O2  UNL     1      20.726  28.454  13.567  1.00  0.00    -0.358 OA
HETATM   10  C4  UNL     1      21.938  28.413  14.247  1.00  0.00     0.268 C 
HETATM   11  O1  UNL     1      21.898  29.080  15.454  1.00  0.00    -0.359 OA
HETATM   12  C29 UNL     1      22.026  26.957  14.670  1.00  0.00     0.105 C 
HETATM   13  C3  UNL     1      22.868  28.484  16.270  1.00  0.00     0.204 C 
HETATM   14  C2  UNL     1      22.898  27.034  15.901  1.00  0.00     0.220 C 
BRANCH  14  15
HETATM   15  N1  UNL     1      24.228  26.594  15.525  1.00  0.00    -0.072 N 
HETATM   16  C1  UNL     1      25.221  27.619  15.789  1.00  0.00     0.267 C 
ATOM     17  H12 UNL     1      24.258  26.286  14.553  1.00  0.00     0.277 HD
ATOM     18  H11 UNL     1      24.471  25.713  15.977  1.00  0.00     0.277 HD
ENDBRANCH  14  15
ENDBRANCH   6   7
ENDBRANCH   3   6
ENDBRANCH   1   2
BRANCH   1  19
HETATM   19  C9  UNL     1      17.994  24.324  19.685  1.00  0.00     0.066 C 
BRANCH  19  20
HETATM   20  C10 UNL     1      19.453  24.145  19.981  1.00  0.00    -0.056 A 
HETATM   21  C11 UNL     1      20.180  25.194  20.560  1.00  0.00     0.007 A 
HETATM   22  C12 UNL     1      21.523  25.094  20.857  1.00  0.00     0.001 A 
HETATM   23  C13 UNL     1      22.201  23.923  20.581  1.00  0.00     0.000 A 
HETATM   24  C14 UNL     1      21.475  22.901  20.012  1.00  0.00     0.001 A 
HETATM   25  C15 UNL     1      20.127  22.984  19.707  1.00  0.00     0.007 A 
ENDBRANCH  19  20
ENDBRANCH   1  19
BRANCH   1  26
HETATM   26  C16 UNL     1      16.301  24.746  17.817  1.00  0.00     0.155 C 
BRANCH  26  27
HETATM   27  O5  UNL     1      15.753  25.675  18.754  1.00  0.00    -0.392 OA
ATOM     28  H5  UNL     1      14.839  25.739  18.505  1.00  0.00     0.210 HD
ENDBRANCH  26  27
BRANCH  26  29
HETATM   29  C17 UNL     1      15.413  23.531  18.005  1.00  0.00     0.141 C 
BRANCH  29  30
HETATM   30  N3  UNL     1      15.850  22.458  17.148  1.00  0.00    -0.204 NA
BRANCH  30  31
HETATM   31  C18 UNL     1      15.188  22.309  15.919  1.00  0.00     0.111 C 
BRANCH  31  32
HETATM   32  C19 UNL     1      16.132  22.172  14.772  1.00  0.00    -0.009 C 
HETATM   33  C20 UNL     1      17.027  23.405  14.631  1.00  0.00     0.011 C 
HETATM   34  C21 UNL     1      15.387  22.064  13.471  1.00  0.00     0.011 C 
ENDBRANCH  31  32
ENDBRANCH  30  31
BRANCH  30  35
HETATM   35  S1  UNL     1      16.080  20.996  18.015  1.00  0.00     0.243 S 
HETATM   36  O6  UNL     1      16.956  20.013  17.305  1.00  0.00    -0.206 OA
HETATM   37  O7  UNL     1      16.696  21.255  19.369  1.00  0.00    -0.206 OA
BRANCH  35  38
HETATM   38  C22 UNL     1      14.537  20.208  18.315  1.00  0.00     0.074 A 
HETATM   39  C23 UNL     1      14.150  19.837  19.569  1.00  0.00     0.027 A 
HETATM   40  C24 UNL     1      12.917  19.210  19.800  1.00  0.00     0.038 A 
HETATM   41  C25 UNL     1      12.069  18.958  18.752  1.00  0.00     0.068 A 
HETATM   42  C27 UNL     1      12.461  19.333  17.485  1.00  0.00     0.038 A 
HETATM   43  C28 UNL     1      13.671  19.945  17.279  1.00  0.00     0.027 A 
BRANCH  41  44
HETATM   44  O8  UNL     1      10.825  18.332  18.942  1.00  0.00    -0.356 OA
HETATM   45  C26 UNL     1      10.361  17.473  17.922  1.00  0.00     0.210 C 
ENDBRANCH  41  44
ENDBRANCH  35  38
ENDBRANCH  30  35
ENDBRANCH  29  30
ENDBRANCH  26  29
ENDBRANCH   1  26
TORSDOF 15
ENDMDL
