MODEL 5
REMARK VINA RESULT: -9.267420897      2.299     10.561
REMARK  15 active torsions:
REMARK  status: ('A' for Active; 'I' for Inactive)
REMARK    1  A    between atoms: N1_2  and  C2_5 
REMARK    2  A    between atoms: C6_11  and  O3_12 
REMARK    3  A    between atoms: O3_12  and  C7_13 
REMARK       I    between atoms: C7_13  and  N2_15 
REMARK    4  A    between atoms: N2_15  and  C8_17 
REMARK    5  A    between atoms: C8_17  and  C9_18 
REMARK    6  A    between atoms: C8_17  and  C16_25 
REMARK    7  A    between atoms: C9_18  and  C10_19 
REMARK    8  A    between atoms: C16_25  and  O5_26 
REMARK    9  A    between atoms: C16_25  and  C17_28 
REMARK   10  A    between atoms: C17_28  and  N3_29 
REMARK   11  A    between atoms: N3_29  and  C18_30 
REMARK   12  A    between atoms: N3_29  and  S1_34 
REMARK   13  A    between atoms: C18_30  and  C19_31 
REMARK   14  A    between atoms: S1_34  and  C22_37 
REMARK   15  A    between atoms: C25_40  and  O8_41 
ROOT
HETATM    1  C8  UNL     1      14.739  22.700  16.829  1.00  0.00     0.120 C 
ENDROOT
BRANCH   1   2
HETATM    2  N2  UNL     1      13.918  21.609  17.314  1.00  0.00    -0.329 N 
HETATM    3  C7  UNL     1      14.322  20.246  17.326  1.00  0.00     0.361 C 
HETATM    4  O4  UNL     1      15.469  19.977  16.883  1.00  0.00    -0.238 OA
ATOM      5  H2  UNL     1      12.988  21.833  17.670  1.00  0.00     0.165 HD
BRANCH   3   6
HETATM    6  O3  UNL     1      13.468  19.246  17.814  1.00  0.00    -0.296 OA
BRANCH   6   7
HETATM    7  C6  UNL     1      13.893  18.547  18.963  1.00  0.00     0.168 C 
HETATM    8  C5  UNL     1      13.920  19.432  20.194  1.00  0.00     0.204 C 
HETATM    9  O2  UNL     1      13.317  18.717  21.206  1.00  0.00    -0.358 OA
HETATM   10  C4  UNL     1      12.261  18.055  20.588  1.00  0.00     0.268 C 
HETATM   11  O1  UNL     1      11.329  18.917  20.050  1.00  0.00    -0.359 OA
HETATM   12  C29 UNL     1      12.923  17.465  19.355  1.00  0.00     0.105 C 
HETATM   13  C3  UNL     1      10.714  18.231  18.995  1.00  0.00     0.204 C 
HETATM   14  C2  UNL     1      11.765  17.353  18.393  1.00  0.00     0.220 C 
BRANCH  14  15
HETATM   15  N1  UNL     1      11.357  15.962  18.355  1.00  0.00    -0.072 N 
HETATM   16  C1  UNL     1      10.968  15.558  17.017  1.00  0.00     0.267 C 
ATOM     17  H12 UNL     1      10.619  15.771  19.033  1.00  0.00     0.277 HD
ATOM     18  H11 UNL     1      12.081  15.350  18.734  1.00  0.00     0.277 HD
ENDBRANCH  14  15
ENDBRANCH   6   7
ENDBRANCH   3   6
ENDBRANCH   1   2
BRANCH   1  19
HETATM   19  C9  UNL     1      14.162  23.270  15.605  1.00  0.00     0.066 C 
BRANCH  19  20
HETATM   20  C10 UNL     1      13.610  22.240  14.664  1.00  0.00    -0.056 A 
HETATM   21  C11 UNL     1      12.226  22.040  14.585  1.00  0.00     0.007 A 
HETATM   22  C12 UNL     1      11.654  21.110  13.742  1.00  0.00     0.001 A 
HETATM   23  C13 UNL     1      12.459  20.333  12.932  1.00  0.00     0.000 A 
HETATM   24  C14 UNL     1      13.818  20.539  13.021  1.00  0.00     0.001 A 
HETATM   25  C15 UNL     1      14.408  21.467  13.861  1.00  0.00     0.007 A 
ENDBRANCH  19  20
ENDBRANCH   1  19
BRANCH   1  26
HETATM   26  C16 UNL     1      15.139  23.596  17.944  1.00  0.00     0.155 C 
BRANCH  26  27
HETATM   27  O5  UNL     1      14.048  24.513  18.057  1.00  0.00    -0.392 OA
ATOM     28  H5  UNL     1      14.286  25.061  18.796  1.00  0.00     0.210 HD
ENDBRANCH  26  27
BRANCH  26  29
HETATM   29  C17 UNL     1      16.306  24.515  17.639  1.00  0.00     0.141 C 
BRANCH  29  30
HETATM   30  N3  UNL     1      17.534  23.762  17.598  1.00  0.00    -0.204 NA
BRANCH  30  31
HETATM   31  C18 UNL     1      18.409  23.904  18.687  1.00  0.00     0.111 C 
BRANCH  31  32
HETATM   32  C19 UNL     1      18.448  22.691  19.554  1.00  0.00    -0.009 C 
HETATM   33  C20 UNL     1      19.884  22.319  19.936  1.00  0.00     0.011 C 
HETATM   34  C21 UNL     1      17.902  21.493  18.830  1.00  0.00     0.011 C 
ENDBRANCH  31  32
ENDBRANCH  30  31
BRANCH  30  35
HETATM   35  S1  UNL     1      18.290  23.846  16.061  1.00  0.00     0.243 S 
HETATM   36  O6  UNL     1      19.274  22.746  15.818  1.00  0.00    -0.206 OA
HETATM   37  O7  UNL     1      17.270  23.794  14.948  1.00  0.00    -0.206 OA
BRANCH  35  38
HETATM   38  C22 UNL     1      19.147  25.370  15.878  1.00  0.00     0.074 A 
HETATM   39  C23 UNL     1      20.021  25.823  16.823  1.00  0.00     0.027 A 
HETATM   40  C24 UNL     1      20.702  27.038  16.669  1.00  0.00     0.038 A 
HETATM   41  C25 UNL     1      20.497  27.802  15.548  1.00  0.00     0.068 A 
HETATM   42  C27 UNL     1      19.614  27.344  14.594  1.00  0.00     0.038 A 
HETATM   43  C28 UNL     1      18.957  26.152  14.763  1.00  0.00     0.027 A 
BRANCH  41  44
HETATM   44  O8  UNL     1      21.161  29.025  15.356  1.00  0.00    -0.356 OA
HETATM   45  C26 UNL     1      22.571  29.002  15.286  1.00  0.00     0.210 C 
ENDBRANCH  41  44
ENDBRANCH  35  38
ENDBRANCH  30  35
ENDBRANCH  29  30
ENDBRANCH  26  29
ENDBRANCH   1  26
TORSDOF 15
ENDMDL
