MODEL 1
REMARK VINA RESULT: -9.410753226      0.000      0.000
REMARK  15 active torsions:
REMARK  status: ('A' for Active; 'I' for Inactive)
REMARK    1  A    between atoms: N1_2  and  C2_5 
REMARK    2  A    between atoms: C6_11  and  O3_12 
REMARK    3  A    between atoms: O3_12  and  C7_13 
REMARK       I    between atoms: C7_13  and  N2_15 
REMARK    4  A    between atoms: N2_15  and  C8_17 
REMARK    5  A    between atoms: C8_17  and  C9_18 
REMARK    6  A    between atoms: C8_17  and  C16_25 
REMARK    7  A    between atoms: C9_18  and  C10_19 
REMARK    8  A    between atoms: C16_25  and  O5_26 
REMARK    9  A    between atoms: C16_25  and  C17_28 
REMARK   10  A    between atoms: C17_28  and  N3_29 
REMARK   11  A    between atoms: N3_29  and  C18_30 
REMARK   12  A    between atoms: N3_29  and  S1_34 
REMARK   13  A    between atoms: C18_30  and  C19_31 
REMARK   14  A    between atoms: S1_34  and  C22_37 
REMARK   15  A    between atoms: C25_40  and  O8_41 
ROOT
HETATM    1  C8  UNL     1      18.103  24.790  18.268  1.00  0.00     0.120 C 
ENDROOT
BRANCH   1   2
HETATM    2  N2  UNL     1      18.910  25.868  17.733  1.00  0.00    -0.329 N 
HETATM    3  C7  UNL     1      19.808  25.729  16.640  1.00  0.00     0.361 C 
HETATM    4  O4  UNL     1      19.905  24.592  16.109  1.00  0.00    -0.238 OA
ATOM      5  H2  UNL     1      18.828  26.786  18.169  1.00  0.00     0.165 HD
BRANCH   3   6
HETATM    6  O3  UNL     1      20.556  26.823  16.179  1.00  0.00    -0.296 OA
BRANCH   6   7
HETATM    7  C6  UNL     1      20.894  26.834  14.810  1.00  0.00     0.168 C 
HETATM    8  C5  UNL     1      20.304  28.028  14.083  1.00  0.00     0.204 C 
HETATM    9  O2  UNL     1      21.315  28.557  13.311  1.00  0.00    -0.358 OA
HETATM   10  C4  UNL     1      22.455  28.448  14.099  1.00  0.00     0.268 C 
HETATM   11  O1  UNL     1      22.372  29.180  15.265  1.00  0.00    -0.359 OA
HETATM   12  C29 UNL     1      22.373  27.015  14.595  1.00  0.00     0.105 C 
HETATM   13  C3  UNL     1      23.210  28.546  16.193  1.00  0.00     0.204 C 
HETATM   14  C2  UNL     1      23.139  27.082  15.895  1.00  0.00     0.220 C 
BRANCH  14  15
HETATM   15  N1  UNL     1      24.451  26.509  15.662  1.00  0.00    -0.072 N 
HETATM   16  C1  UNL     1      25.507  27.443  16.005  1.00  0.00     0.267 C 
ATOM     17  H12 UNL     1      24.546  26.173  14.704  1.00  0.00     0.277 HD
ATOM     18  H11 UNL     1      24.563  25.622  16.153  1.00  0.00     0.277 HD
ENDBRANCH  14  15
ENDBRANCH   6   7
ENDBRANCH   3   6
ENDBRANCH   1   2
BRANCH   1  19
HETATM   19  C9  UNL     1      18.377  24.607  19.699  1.00  0.00     0.066 C 
BRANCH  19  20
HETATM   20  C10 UNL     1      19.838  24.503  20.023  1.00  0.00    -0.056 A 
HETATM   21  C11 UNL     1      20.473  25.543  20.714  1.00  0.00     0.007 A 
HETATM   22  C12 UNL     1      21.812  25.510  21.043  1.00  0.00     0.001 A 
HETATM   23  C13 UNL     1      22.579  24.418  20.686  1.00  0.00     0.000 A 
HETATM   24  C14 UNL     1      21.942  23.404  20.007  1.00  0.00     0.001 A 
HETATM   25  C15 UNL     1      20.600  23.420  19.669  1.00  0.00     0.007 A 
ENDBRANCH  19  20
ENDBRANCH   1  19
BRANCH   1  26
HETATM   26  C16 UNL     1      16.700  24.894  17.792  1.00  0.00     0.155 C 
BRANCH  26  27
HETATM   27  O5  UNL     1      15.989  25.402  18.923  1.00  0.00    -0.392 OA
ATOM     28  H5  UNL     1      16.383  26.253  19.078  1.00  0.00     0.210 HD
ENDBRANCH  26  27
BRANCH  26  29
HETATM   29  C17 UNL     1      16.009  23.567  17.543  1.00  0.00     0.141 C 
BRANCH  29  30
HETATM   30  N3  UNL     1      16.789  22.763  16.637  1.00  0.00    -0.204 NA
BRANCH  30  31
HETATM   31  C18 UNL     1      16.333  22.664  15.313  1.00  0.00     0.111 C 
BRANCH  31  32
HETATM   32  C19 UNL     1      14.898  22.263  15.228  1.00  0.00    -0.009 C 
HETATM   33  C20 UNL     1      14.688  21.144  14.204  1.00  0.00     0.011 C 
HETATM   34  C21 UNL     1      14.047  23.407  14.754  1.00  0.00     0.011 C 
ENDBRANCH  31  32
ENDBRANCH  30  31
BRANCH  30  35
HETATM   35  S1  UNL     1      17.257  21.271  17.343  1.00  0.00     0.243 S 
HETATM   36  O6  UNL     1      17.729  20.261  16.345  1.00  0.00    -0.206 OA
HETATM   37  O7  UNL     1      18.368  21.467  18.347  1.00  0.00    -0.206 OA
BRANCH  35  38
HETATM   38  C22 UNL     1      15.914  20.556  18.222  1.00  0.00     0.074 A 
HETATM   39  C23 UNL     1      15.156  19.554  17.690  1.00  0.00     0.027 A 
HETATM   40  C24 UNL     1      14.087  18.988  18.399  1.00  0.00     0.038 A 
HETATM   41  C25 UNL     1      13.784  19.440  19.658  1.00  0.00     0.068 A 
HETATM   42  C27 UNL     1      14.549  20.452  20.195  1.00  0.00     0.038 A 
HETATM   43  C28 UNL     1      15.591  20.993  19.486  1.00  0.00     0.027 A 
BRANCH  41  44
HETATM   44  O8  UNL     1      12.721  18.898  20.400  1.00  0.00    -0.356 OA
HETATM   45  C26 UNL     1      11.625  18.366  19.685  1.00  0.00     0.210 C 
ENDBRANCH  41  44
ENDBRANCH  35  38
ENDBRANCH  30  35
ENDBRANCH  29  30
ENDBRANCH  26  29
ENDBRANCH   1  26
TORSDOF 15
ENDMDL
