MODEL 20
REMARK VINA RESULT: -8.971777808      2.712      9.708
REMARK  14 active torsions:
REMARK  status: ('A' for Active; 'I' for Inactive)
REMARK    1  A    between atoms: N1_2  and  C2_5 
REMARK    2  A    between atoms: C6_11  and  O3_12 
REMARK    3  A    between atoms: O3_12  and  C7_13 
REMARK       I    between atoms: C7_13  and  N2_15 
REMARK    4  A    between atoms: N2_15  and  C8_17 
REMARK    5  A    between atoms: C8_17  and  C9_18 
REMARK    6  A    between atoms: C8_17  and  C16_25 
REMARK    7  A    between atoms: C9_18  and  C10_19 
REMARK    8  A    between atoms: C16_25  and  O5_26 
REMARK    9  A    between atoms: C16_25  and  C17_28 
REMARK   10  A    between atoms: C17_28  and  N3_29 
REMARK   11  A    between atoms: N3_29  and  C18_30 
REMARK   12  A    between atoms: N3_29  and  S1_34 
REMARK   13  A    between atoms: C18_30  and  C19_31 
REMARK   14  A    between atoms: S1_34  and  C22_37 
ROOT
HETATM    1  C8  UNL     1      17.776  24.123  18.737  1.00  0.00     0.121 C 
ENDROOT
BRANCH   1   2
HETATM    2  N2  UNL     1      18.674  25.082  18.126  1.00  0.00    -0.329 N 
HETATM    3  C7  UNL     1      19.587  24.778  17.084  1.00  0.00     0.361 C 
HETATM    4  O4  UNL     1      19.564  23.556  16.696  1.00  0.00    -0.238 OA
ATOM      5  H2  UNL     1      18.647  26.042  18.470  1.00  0.00     0.165 HD
BRANCH   3   6
HETATM    6  O3  UNL     1      20.454  25.666  16.489  1.00  0.00    -0.296 OA
BRANCH   6   7
HETATM    7  C6  UNL     1      21.195  26.562  17.269  1.00  0.00     0.168 C 
HETATM    8  C5  UNL     1      22.086  25.858  18.269  1.00  0.00     0.204 C 
HETATM    9  O2  UNL     1      22.957  26.887  18.622  1.00  0.00    -0.358 OA
HETATM   10  C4  UNL     1      23.315  27.547  17.453  1.00  0.00     0.268 C 
HETATM   11  O1  UNL     1      24.313  26.827  16.836  1.00  0.00    -0.359 OA
HETATM   12  C28 UNL     1      22.099  27.479  16.524  1.00  0.00     0.105 C 
HETATM   13  C3  UNL     1      24.158  27.035  15.484  1.00  0.00     0.204 C 
HETATM   14  C2  UNL     1      22.643  26.968  15.235  1.00  0.00     0.220 C 
BRANCH  14  15
HETATM   15  N1  UNL     1      22.396  27.898  14.126  1.00  0.00    -0.072 N 
HETATM   16  C1  UNL     1      21.002  28.025  13.823  1.00  0.00     0.267 C 
ATOM     17  H12 UNL     1      22.930  27.634  13.298  1.00  0.00     0.277 HD
ATOM     18  H11 UNL     1      22.818  28.809  14.308  1.00  0.00     0.277 HD
ENDBRANCH  14  15
ENDBRANCH   6   7
ENDBRANCH   3   6
ENDBRANCH   1   2
BRANCH   1  19
HETATM   19  C9  UNL     1      18.039  24.026  20.198  1.00  0.00     0.066 C 
BRANCH  19  20
HETATM   20  C10 UNL     1      19.467  23.860  20.568  1.00  0.00    -0.056 A 
HETATM   21  C11 UNL     1      20.139  22.675  20.294  1.00  0.00     0.007 A 
HETATM   22  C12 UNL     1      21.466  22.520  20.609  1.00  0.00     0.001 A 
HETATM   23  C13 UNL     1      22.120  23.583  21.211  1.00  0.00     0.000 A 
HETATM   24  C14 UNL     1      21.471  24.762  21.488  1.00  0.00     0.001 A 
HETATM   25  C15 UNL     1      20.142  24.901  21.164  1.00  0.00     0.007 A 
ENDBRANCH  19  20
ENDBRANCH   1  19
BRANCH   1  26
HETATM   26  C16 UNL     1      16.368  24.256  18.296  1.00  0.00     0.160 C 
BRANCH  26  27
HETATM   27  O5  UNL     1      15.850  25.422  18.925  1.00  0.00    -0.392 OA
ATOM     28  H5  UNL     1      15.067  25.156  19.391  1.00  0.00     0.210 HD
ENDBRANCH  26  27
BRANCH  26  29
HETATM   29  C17 UNL     1      15.474  23.118  18.627  1.00  0.00     0.174 C 
BRANCH  29  30
HETATM   30  N3  UNL     1      15.613  22.035  17.690  1.00  0.00    -0.283 N 
BRANCH  30  31
HETATM   31  C18 UNL     1      15.813  22.414  16.355  1.00  0.00     0.080 C 
BRANCH  31  32
HETATM   32  C19 UNL     1      14.720  22.232  15.375  1.00  0.00     0.017 C 
HETATM   33  C20 UNL     1      13.562  21.402  15.874  1.00  0.00     0.015 C 
HETATM   34  C21 UNL     1      15.305  21.437  14.193  1.00  0.00     0.015 C 
ENDBRANCH  31  32
ENDBRANCH  30  31
BRANCH  30  35
HETATM   35  S1  UNL     1      16.358  20.660  18.291  1.00  0.00     0.264 S 
HETATM   36  O6  UNL     1      17.605  20.840  19.055  1.00  0.00    -0.200 OA
HETATM   37  O7  UNL     1      16.680  19.735  17.118  1.00  0.00    -0.200 OA
BRANCH  35  38
HETATM   38  C22 UNL     1      15.250  19.732  19.288  1.00  0.00     0.080 A 
HETATM   39  C23 UNL     1      14.914  20.043  20.569  1.00  0.00     0.027 A 
HETATM   40  C24 UNL     1      14.027  19.222  21.260  1.00  0.00     0.028 A 
HETATM   41  C25 UNL     1      13.477  18.101  20.688  1.00  0.00     0.046 A 
HETATM   42  N4  UNL     1      12.578  17.250  21.374  1.00  0.00    -0.102 NA
HETATM   43  C26 UNL     1      13.829  17.789  19.374  1.00  0.00     0.028 A 
HETATM   44  C27 UNL     1      14.699  18.601  18.706  1.00  0.00     0.027 A 
ENDBRANCH  35  38
ENDBRANCH  30  35
ENDBRANCH  29  30
ENDBRANCH  26  29
ENDBRANCH   1  26
TORSDOF 14
ENDMDL
