MODEL 1
REMARK VINA RESULT: -9.788507966      0.000      0.000
REMARK  14 active torsions:
REMARK  status: ('A' for Active; 'I' for Inactive)
REMARK    1  A    between atoms: N1_2  and  C2_5 
REMARK    2  A    between atoms: C6_11  and  O3_12 
REMARK    3  A    between atoms: O3_12  and  C7_13 
REMARK       I    between atoms: C7_13  and  N2_15 
REMARK    4  A    between atoms: N2_15  and  C8_17 
REMARK    5  A    between atoms: C8_17  and  C9_18 
REMARK    6  A    between atoms: C8_17  and  C16_25 
REMARK    7  A    between atoms: C9_18  and  C10_19 
REMARK    8  A    between atoms: C16_25  and  O5_26 
REMARK    9  A    between atoms: C16_25  and  C17_28 
REMARK   10  A    between atoms: C17_28  and  N3_29 
REMARK   11  A    between atoms: N3_29  and  C18_30 
REMARK   12  A    between atoms: N3_29  and  S1_34 
REMARK   13  A    between atoms: C18_30  and  C19_31 
REMARK   14  A    between atoms: S1_34  and  C22_37 
ROOT
HETATM    1  C8  UNL     1      16.220  22.785  17.403  1.00  0.00     0.121 C 
ENDROOT
BRANCH   1   2
HETATM    2  N2  UNL     1      15.283  21.694  17.575  1.00  0.00    -0.329 N 
HETATM    3  C7  UNL     1      15.648  20.364  17.909  1.00  0.00     0.361 C 
HETATM    4  O4  UNL     1      16.908  20.182  18.061  1.00  0.00    -0.238 OA
ATOM      5  H2  UNL     1      14.291  21.897  17.448  1.00  0.00     0.165 HD
BRANCH   3   6
HETATM    6  O3  UNL     1      14.781  19.308  18.073  1.00  0.00    -0.296 OA
BRANCH   6   7
HETATM    7  C6  UNL     1      14.625  18.710  19.330  1.00  0.00     0.168 C 
HETATM    8  C5  UNL     1      14.295  19.716  20.411  1.00  0.00     0.204 C 
HETATM    9  O2  UNL     1      13.824  18.879  21.421  1.00  0.00    -0.358 OA
HETATM   10  C4  UNL     1      12.993  17.939  20.827  1.00  0.00     0.268 C 
HETATM   11  O1  UNL     1      11.756  18.511  20.637  1.00  0.00    -0.359 OA
HETATM   12  C28 UNL     1      13.563  17.673  19.429  1.00  0.00     0.105 C 
HETATM   13  C3  UNL     1      11.228  17.923  19.509  1.00  0.00     0.204 C 
HETATM   14  C2  UNL     1      12.397  17.831  18.516  1.00  0.00     0.220 C 
BRANCH  14  15
HETATM   15  N1  UNL     1      12.142  16.615  17.734  1.00  0.00    -0.072 N 
HETATM   16  C1  UNL     1      10.804  16.132  17.900  1.00  0.00     0.267 C 
ATOM     17  H12 UNL     1      12.824  15.888  17.950  1.00  0.00     0.277 HD
ATOM     18  H11 UNL     1      12.363  16.758  16.749  1.00  0.00     0.277 HD
ENDBRANCH  14  15
ENDBRANCH   6   7
ENDBRANCH   3   6
ENDBRANCH   1   2
BRANCH   1  19
HETATM   19  C9  UNL     1      16.040  23.416  16.069  1.00  0.00     0.066 C 
BRANCH  19  20
HETATM   20  C10 UNL     1      15.186  22.652  15.125  1.00  0.00    -0.056 A 
HETATM   21  C11 UNL     1      13.812  22.859  15.083  1.00  0.00     0.007 A 
HETATM   22  C12 UNL     1      13.017  22.176  14.197  1.00  0.00     0.001 A 
HETATM   23  C13 UNL     1      13.624  21.271  13.341  1.00  0.00     0.000 A 
HETATM   24  C14 UNL     1      14.980  21.055  13.369  1.00  0.00     0.001 A 
HETATM   25  C15 UNL     1      15.763  21.749  14.262  1.00  0.00     0.007 A 
ENDBRANCH  19  20
ENDBRANCH   1  19
BRANCH   1  26
HETATM   26  C16 UNL     1      16.322  23.678  18.581  1.00  0.00     0.160 C 
BRANCH  26  27
HETATM   27  O5  UNL     1      15.184  24.530  18.549  1.00  0.00    -0.392 OA
ATOM     28  H5  UNL     1      14.435  23.997  18.789  1.00  0.00     0.210 HD
ENDBRANCH  26  27
BRANCH  26  29
HETATM   29  C17 UNL     1      17.535  24.531  18.646  1.00  0.00     0.174 C 
BRANCH  29  30
HETATM   30  N3  UNL     1      18.734  23.782  18.375  1.00  0.00    -0.283 N 
BRANCH  30  31
HETATM   31  C18 UNL     1      19.530  24.275  17.331  1.00  0.00     0.080 C 
BRANCH  31  32
HETATM   32  C19 UNL     1      19.343  25.666  16.867  1.00  0.00     0.017 C 
HETATM   33  C20 UNL     1      19.322  25.828  15.366  1.00  0.00     0.015 C 
HETATM   34  C21 UNL     1      20.571  26.466  17.340  1.00  0.00     0.015 C 
ENDBRANCH  31  32
ENDBRANCH  30  31
BRANCH  30  35
HETATM   35  S1  UNL     1      19.451  23.072  19.712  1.00  0.00     0.264 S 
HETATM   36  O6  UNL     1      19.756  21.632  19.637  1.00  0.00    -0.200 OA
HETATM   37  O7  UNL     1      18.533  23.276  20.917  1.00  0.00    -0.200 OA
BRANCH  35  38
HETATM   38  C22 UNL     1      20.933  23.909  20.146  1.00  0.00     0.080 A 
HETATM   39  C23 UNL     1      22.186  23.476  19.841  1.00  0.00     0.027 A 
HETATM   40  C24 UNL     1      23.286  24.226  20.248  1.00  0.00     0.028 A 
HETATM   41  C25 UNL     1      23.146  25.396  20.953  1.00  0.00     0.046 A 
HETATM   42  N4  UNL     1      24.250  26.172  21.381  1.00  0.00    -0.102 NA
HETATM   43  C26 UNL     1      21.857  25.832  21.263  1.00  0.00     0.028 A 
HETATM   44  C27 UNL     1      20.787  25.089  20.859  1.00  0.00     0.027 A 
ENDBRANCH  35  38
ENDBRANCH  30  35
ENDBRANCH  29  30
ENDBRANCH  26  29
ENDBRANCH   1  26
TORSDOF 14
ENDMDL
