MODEL 5
REMARK VINA RESULT: -9.470645892      1.839      2.913
REMARK  14 active torsions:
REMARK  status: ('A' for Active; 'I' for Inactive)
REMARK    1  A    between atoms: N1_2  and  C2_5 
REMARK    2  A    between atoms: C6_11  and  O3_12 
REMARK    3  A    between atoms: O3_12  and  C7_13 
REMARK       I    between atoms: C7_13  and  N2_15 
REMARK    4  A    between atoms: N2_15  and  C8_17 
REMARK    5  A    between atoms: C8_17  and  C9_18 
REMARK    6  A    between atoms: C8_17  and  C16_25 
REMARK    7  A    between atoms: C9_18  and  C10_19 
REMARK    8  A    between atoms: C16_25  and  O5_26 
REMARK    9  A    between atoms: C16_25  and  C17_28 
REMARK   10  A    between atoms: C17_28  and  N3_29 
REMARK   11  A    between atoms: N3_29  and  C18_30 
REMARK   12  A    between atoms: N3_29  and  S1_34 
REMARK   13  A    between atoms: C18_30  and  C19_31 
REMARK   14  A    between atoms: S1_34  and  C22_37 
ROOT
HETATM    1  C8  UNL     1      15.991  22.849  17.127  1.00  0.00     0.121 C 
ENDROOT
BRANCH   1   2
HETATM    2  N2  UNL     1      15.120  21.728  17.414  1.00  0.00    -0.329 N 
HETATM    3  C7  UNL     1      15.570  20.414  17.707  1.00  0.00     0.361 C 
HETATM    4  O4  UNL     1      16.845  20.276  17.708  1.00  0.00    -0.238 OA
ATOM      5  H2  UNL     1      14.114  21.894  17.406  1.00  0.00     0.165 HD
BRANCH   3   6
HETATM    6  O3  UNL     1      14.767  19.330  17.979  1.00  0.00    -0.296 OA
BRANCH   6   7
HETATM    7  C6  UNL     1      14.699  18.807  19.276  1.00  0.00     0.168 C 
HETATM    8  C5  UNL     1      14.401  19.870  20.312  1.00  0.00     0.204 C 
HETATM    9  O2  UNL     1      14.012  19.086  21.396  1.00  0.00    -0.358 OA
HETATM   10  C4  UNL     1      13.176  18.090  20.909  1.00  0.00     0.268 C 
HETATM   11  O1  UNL     1      11.914  18.618  20.756  1.00  0.00    -0.359 OA
HETATM   12  C28 UNL     1      13.674  17.752  19.499  1.00  0.00     0.105 C 
HETATM   13  C3  UNL     1      11.341  17.948  19.699  1.00  0.00     0.204 C 
HETATM   14  C2  UNL     1      12.454  17.824  18.647  1.00  0.00     0.220 C 
BRANCH  14  15
HETATM   15  N1  UNL     1      12.190  16.556  17.957  1.00  0.00    -0.072 N 
HETATM   16  C1  UNL     1      10.797  16.225  17.940  1.00  0.00     0.267 C 
ATOM     17  H12 UNL     1      12.743  15.797  18.356  1.00  0.00     0.277 HD
ATOM     18  H11 UNL     1      12.579  16.562  17.014  1.00  0.00     0.277 HD
ENDBRANCH  14  15
ENDBRANCH   6   7
ENDBRANCH   3   6
ENDBRANCH   1   2
BRANCH   1  19
HETATM   19  C9  UNL     1      15.700  23.396  15.775  1.00  0.00     0.066 C 
BRANCH  19  20
HETATM   20  C10 UNL     1      14.851  22.531  14.918  1.00  0.00    -0.056 A 
HETATM   21  C11 UNL     1      15.418  21.538  14.127  1.00  0.00     0.007 A 
HETATM   22  C12 UNL     1      14.640  20.717  13.351  1.00  0.00     0.001 A 
HETATM   23  C13 UNL     1      13.267  20.905  13.376  1.00  0.00     0.000 A 
HETATM   24  C14 UNL     1      12.691  21.880  14.152  1.00  0.00     0.001 A 
HETATM   25  C15 UNL     1      13.485  22.694  14.926  1.00  0.00     0.007 A 
ENDBRANCH  19  20
ENDBRANCH   1  19
BRANCH   1  26
HETATM   26  C16 UNL     1      16.120  23.809  18.247  1.00  0.00     0.160 C 
BRANCH  26  27
HETATM   27  O5  UNL     1      14.810  24.282  18.535  1.00  0.00    -0.392 OA
ATOM     28  H5  UNL     1      14.798  25.206  18.317  1.00  0.00     0.210 HD
ENDBRANCH  26  27
BRANCH  26  29
HETATM   29  C17 UNL     1      16.990  24.985  17.998  1.00  0.00     0.174 C 
BRANCH  29  30
HETATM   30  N3  UNL     1      18.374  24.612  17.867  1.00  0.00    -0.283 N 
BRANCH  30  31
HETATM   31  C18 UNL     1      18.757  23.458  18.563  1.00  0.00     0.080 C 
BRANCH  31  32
HETATM   32  C19 UNL     1      19.803  23.549  19.605  1.00  0.00     0.017 C 
HETATM   33  C20 UNL     1      20.327  22.218  20.086  1.00  0.00     0.015 C 
HETATM   34  C21 UNL     1      19.149  24.194  20.842  1.00  0.00     0.015 C 
ENDBRANCH  31  32
ENDBRANCH  30  31
BRANCH  30  35
HETATM   35  S1  UNL     1      19.073  24.967  16.385  1.00  0.00     0.264 S 
HETATM   36  O6  UNL     1      18.233  25.639  15.379  1.00  0.00    -0.200 OA
HETATM   37  O7  UNL     1      19.566  23.662  15.761  1.00  0.00    -0.200 OA
BRANCH  35  38
HETATM   38  C22 UNL     1      20.528  25.928  16.594  1.00  0.00     0.080 A 
HETATM   39  C23 UNL     1      20.942  26.462  17.774  1.00  0.00     0.027 A 
HETATM   40  C24 UNL     1      22.113  27.214  17.811  1.00  0.00     0.028 A 
HETATM   41  C25 UNL     1      22.868  27.437  16.686  1.00  0.00     0.046 A 
HETATM   42  N4  UNL     1      24.059  28.202  16.699  1.00  0.00    -0.102 NA
HETATM   43  C26 UNL     1      22.435  26.886  15.478  1.00  0.00     0.028 A 
HETATM   44  C27 UNL     1      21.287  26.151  15.455  1.00  0.00     0.027 A 
ENDBRANCH  35  38
ENDBRANCH  30  35
ENDBRANCH  29  30
ENDBRANCH  26  29
ENDBRANCH   1  26
TORSDOF 14
ENDMDL
