MODEL 4
REMARK VINA RESULT: -9.477235855      2.617      9.717
REMARK  14 active torsions:
REMARK  status: ('A' for Active; 'I' for Inactive)
REMARK    1  A    between atoms: N1_2  and  C2_5 
REMARK    2  A    between atoms: C6_11  and  O3_12 
REMARK    3  A    between atoms: O3_12  and  C7_13 
REMARK       I    between atoms: C7_13  and  N2_15 
REMARK    4  A    between atoms: N2_15  and  C8_17 
REMARK    5  A    between atoms: C8_17  and  C9_18 
REMARK    6  A    between atoms: C8_17  and  C16_25 
REMARK    7  A    between atoms: C9_18  and  C10_19 
REMARK    8  A    between atoms: C16_25  and  O5_26 
REMARK    9  A    between atoms: C16_25  and  C17_28 
REMARK   10  A    between atoms: C17_28  and  N3_29 
REMARK   11  A    between atoms: N3_29  and  C18_30 
REMARK   12  A    between atoms: N3_29  and  S1_34 
REMARK   13  A    between atoms: C18_30  and  C19_31 
REMARK   14  A    between atoms: S1_34  and  C22_37 
ROOT
HETATM    1  C8  UNL     1      17.858  23.907  18.320  1.00  0.00     0.121 C 
ENDROOT
BRANCH   1   2
HETATM    2  N2  UNL     1      18.968  24.470  17.580  1.00  0.00    -0.329 N 
HETATM    3  C7  UNL     1      19.511  23.911  16.394  1.00  0.00     0.361 C 
HETATM    4  O4  UNL     1      18.931  22.838  15.999  1.00  0.00    -0.238 OA
ATOM      5  H2  UNL     1      19.389  25.328  17.937  1.00  0.00     0.165 HD
BRANCH   3   6
HETATM    6  O3  UNL     1      20.567  24.420  15.674  1.00  0.00    -0.296 OA
BRANCH   6   7
HETATM    7  C6  UNL     1      20.363  25.459  14.757  1.00  0.00     0.168 C 
HETATM    8  C5  UNL     1      19.107  26.251  15.052  1.00  0.00     0.204 C 
HETATM    9  O2  UNL     1      19.329  27.397  14.292  1.00  0.00    -0.358 OA
HETATM   10  C4  UNL     1      20.653  27.769  14.478  1.00  0.00     0.268 C 
HETATM   11  O1  UNL     1      20.748  28.461  15.664  1.00  0.00    -0.359 OA
HETATM   12  C28 UNL     1      21.448  26.473  14.672  1.00  0.00     0.105 C 
HETATM   13  C3  UNL     1      22.005  28.202  16.163  1.00  0.00     0.204 C 
HETATM   14  C2  UNL     1      22.238  26.703  15.914  1.00  0.00     0.220 C 
BRANCH  14  15
HETATM   15  N1  UNL     1      23.681  26.574  15.680  1.00  0.00    -0.072 N 
HETATM   16  C1  UNL     1      24.428  27.637  16.281  1.00  0.00     0.267 C 
ATOM     17  H12 UNL     1      23.887  26.497  14.684  1.00  0.00     0.277 HD
ATOM     18  H11 UNL     1      24.024  25.663  15.987  1.00  0.00     0.277 HD
ENDBRANCH  14  15
ENDBRANCH   6   7
ENDBRANCH   3   6
ENDBRANCH   1   2
BRANCH   1  19
HETATM   19  C9  UNL     1      18.103  24.014  19.783  1.00  0.00     0.066 C 
BRANCH  19  20
HETATM   20  C10 UNL     1      19.496  23.722  20.207  1.00  0.00    -0.056 A 
HETATM   21  C11 UNL     1      20.317  24.731  20.696  1.00  0.00     0.007 A 
HETATM   22  C12 UNL     1      21.597  24.468  21.115  1.00  0.00     0.001 A 
HETATM   23  C13 UNL     1      22.052  23.161  21.035  1.00  0.00     0.000 A 
HETATM   24  C14 UNL     1      21.254  22.151  20.555  1.00  0.00     0.001 A 
HETATM   25  C15 UNL     1      19.973  22.432  20.141  1.00  0.00     0.007 A 
ENDBRANCH  19  20
ENDBRANCH   1  19
BRANCH   1  26
HETATM   26  C16 UNL     1      16.529  24.319  17.811  1.00  0.00     0.160 C 
BRANCH  26  27
HETATM   27  O5  UNL     1      16.317  25.654  18.255  1.00  0.00    -0.392 OA
ATOM     28  H5  UNL     1      15.548  25.975  17.799  1.00  0.00     0.210 HD
ENDBRANCH  26  27
BRANCH  26  29
HETATM   29  C17 UNL     1      15.378  23.496  18.260  1.00  0.00     0.174 C 
BRANCH  29  30
HETATM   30  N3  UNL     1      15.288  22.257  17.534  1.00  0.00    -0.283 N 
BRANCH  30  31
HETATM   31  C18 UNL     1      15.518  22.347  16.153  1.00  0.00     0.080 C 
BRANCH  31  32
HETATM   32  C19 UNL     1      14.563  21.720  15.214  1.00  0.00     0.017 C 
HETATM   33  C20 UNL     1      15.143  21.387  13.861  1.00  0.00     0.015 C 
HETATM   34  C21 UNL     1      13.461  22.759  14.934  1.00  0.00     0.015 C 
ENDBRANCH  31  32
ENDBRANCH  30  31
BRANCH  30  35
HETATM   35  S1  UNL     1      15.784  20.896  18.377  1.00  0.00     0.264 S 
HETATM   36  O6  UNL     1      16.336  21.096  19.728  1.00  0.00    -0.200 OA
HETATM   37  O7  UNL     1      16.855  20.182  17.554  1.00  0.00    -0.200 OA
BRANCH  35  38
HETATM   38  C22 UNL     1      14.478  19.728  18.502  1.00  0.00     0.080 A 
HETATM   39  C23 UNL     1      14.631  18.433  18.891  1.00  0.00     0.027 A 
HETATM   40  C24 UNL     1      13.517  17.600  18.944  1.00  0.00     0.028 A 
HETATM   41  C25 UNL     1      12.261  18.045  18.612  1.00  0.00     0.046 A 
HETATM   42  N4  UNL     1      11.115  17.214  18.653  1.00  0.00    -0.102 NA
HETATM   43  C26 UNL     1      12.114  19.375  18.213  1.00  0.00     0.028 A 
HETATM   44  C27 UNL     1      13.212  20.181  18.165  1.00  0.00     0.027 A 
ENDBRANCH  35  38
ENDBRANCH  30  35
ENDBRANCH  29  30
ENDBRANCH  26  29
ENDBRANCH   1  26
TORSDOF 14
ENDMDL
