MODEL 3
REMARK VINA RESULT: -9.584761617      1.175      1.566
REMARK  14 active torsions:
REMARK  status: ('A' for Active; 'I' for Inactive)
REMARK    1  A    between atoms: N1_2  and  C2_5 
REMARK    2  A    between atoms: C6_11  and  O3_12 
REMARK    3  A    between atoms: O3_12  and  C7_13 
REMARK       I    between atoms: C7_13  and  N2_15 
REMARK    4  A    between atoms: N2_15  and  C8_17 
REMARK    5  A    between atoms: C8_17  and  C9_18 
REMARK    6  A    between atoms: C8_17  and  C16_25 
REMARK    7  A    between atoms: C9_18  and  C10_19 
REMARK    8  A    between atoms: C16_25  and  O5_26 
REMARK    9  A    between atoms: C16_25  and  C17_28 
REMARK   10  A    between atoms: C17_28  and  N3_29 
REMARK   11  A    between atoms: N3_29  and  C18_30 
REMARK   12  A    between atoms: N3_29  and  S1_34 
REMARK   13  A    between atoms: C18_30  and  C19_31 
REMARK   14  A    between atoms: S1_34  and  C22_37 
ROOT
HETATM    1  C8  UNL     1      16.048  21.606  16.005  1.00  0.00     0.121 C 
ENDROOT
BRANCH   1   2
HETATM    2  N2  UNL     1      15.342  21.572  17.269  1.00  0.00    -0.329 N 
HETATM    3  C7  UNL     1      15.367  20.481  18.176  1.00  0.00     0.361 C 
HETATM    4  O4  UNL     1      16.088  19.490  17.796  1.00  0.00    -0.238 OA
ATOM      5  H2  UNL     1      14.788  22.390  17.525  1.00  0.00     0.165 HD
BRANCH   3   6
HETATM    6  O3  UNL     1      14.704  20.418  19.380  1.00  0.00    -0.296 OA
BRANCH   6   7
HETATM    7  C6  UNL     1      14.504  19.186  20.014  1.00  0.00     0.168 C 
HETATM    8  C5  UNL     1      14.076  19.342  21.458  1.00  0.00     0.204 C 
HETATM    9  O2  UNL     1      13.585  18.067  21.731  1.00  0.00    -0.358 OA
HETATM   10  C4  UNL     1      12.824  17.673  20.638  1.00  0.00     0.268 C 
HETATM   11  O1  UNL     1      11.578  18.246  20.747  1.00  0.00    -0.359 OA
HETATM   12  C28 UNL     1      13.479  18.299  19.401  1.00  0.00     0.105 C 
HETATM   13  C3  UNL     1      11.135  18.453  19.460  1.00  0.00     0.204 C 
HETATM   14  C2  UNL     1      12.358  18.975  18.690  1.00  0.00     0.220 C 
BRANCH  14  15
HETATM   15  N1  UNL     1      12.193  18.472  17.321  1.00  0.00    -0.072 N 
HETATM   16  C1  UNL     1      11.032  17.645  17.181  1.00  0.00     0.267 C 
ATOM     17  H12 UNL     1      13.032  17.985  17.003  1.00  0.00     0.277 HD
ATOM     18  H11 UNL     1      12.184  19.237  16.646  1.00  0.00     0.277 HD
ENDBRANCH  14  15
ENDBRANCH   6   7
ENDBRANCH   3   6
ENDBRANCH   1   2
BRANCH   1  19
HETATM   19  C9  UNL     1      15.184  22.190  14.945  1.00  0.00     0.066 C 
BRANCH  19  20
HETATM   20  C10 UNL     1      13.938  21.432  14.664  1.00  0.00    -0.056 A 
HETATM   21  C11 UNL     1      12.692  22.003  14.895  1.00  0.00     0.007 A 
HETATM   22  C12 UNL     1      11.534  21.321  14.615  1.00  0.00     0.001 A 
HETATM   23  C13 UNL     1      11.643  20.041  14.094  1.00  0.00     0.000 A 
HETATM   24  C14 UNL     1      12.866  19.463  13.860  1.00  0.00     0.001 A 
HETATM   25  C15 UNL     1      14.017  20.161  14.144  1.00  0.00     0.007 A 
ENDBRANCH  19  20
ENDBRANCH   1  19
BRANCH   1  26
HETATM   26  C16 UNL     1      17.441  22.099  16.110  1.00  0.00     0.160 C 
BRANCH  26  27
HETATM   27  O5  UNL     1      18.243  20.985  16.482  1.00  0.00    -0.392 OA
ATOM     28  H5  UNL     1      19.143  21.220  16.293  1.00  0.00     0.210 HD
ENDBRANCH  26  27
BRANCH  26  29
HETATM   29  C17 UNL     1      17.673  23.184  17.097  1.00  0.00     0.174 C 
BRANCH  29  30
HETATM   30  N3  UNL     1      19.017  23.164  17.611  1.00  0.00    -0.283 N 
BRANCH  30  31
HETATM   31  C18 UNL     1      19.882  24.128  17.076  1.00  0.00     0.080 C 
BRANCH  31  32
HETATM   32  C19 UNL     1      19.401  25.514  16.887  1.00  0.00     0.017 C 
HETATM   33  C20 UNL     1      19.285  25.946  15.446  1.00  0.00     0.015 C 
HETATM   34  C21 UNL     1      20.463  26.445  17.502  1.00  0.00     0.015 C 
ENDBRANCH  31  32
ENDBRANCH  30  31
BRANCH  30  35
HETATM   35  S1  UNL     1      19.162  22.707  19.217  1.00  0.00     0.264 S 
HETATM   36  O6  UNL     1      19.302  21.269  19.505  1.00  0.00    -0.200 OA
HETATM   37  O7  UNL     1      17.928  23.200  19.971  1.00  0.00    -0.200 OA
BRANCH  35  38
HETATM   38  C22 UNL     1      20.504  23.539  19.985  1.00  0.00     0.080 A 
HETATM   39  C23 UNL     1      21.801  23.133  19.931  1.00  0.00     0.027 A 
HETATM   40  C24 UNL     1      22.778  23.875  20.589  1.00  0.00     0.028 A 
HETATM   41  C25 UNL     1      22.471  25.011  21.298  1.00  0.00     0.046 A 
HETATM   42  N4  UNL     1      23.447  25.778  21.979  1.00  0.00    -0.102 NA
HETATM   43  C26 UNL     1      21.137  25.419  21.350  1.00  0.00     0.028 A 
HETATM   44  C27 UNL     1      20.190  24.684  20.700  1.00  0.00     0.027 A 
ENDBRANCH  35  38
ENDBRANCH  30  35
ENDBRANCH  29  30
ENDBRANCH  26  29
ENDBRANCH   1  26
TORSDOF 14
ENDMDL
