MODEL 5
REMARK VINA RESULT: -6.412725871      7.067      9.723
REMARK  2 active torsions:
REMARK  status: ('A' for Active; 'I' for Inactive)
REMARK    1  A    between atoms: N5_13  and  C6_14 
REMARK    2  A    between atoms: C10_24  and  O6_25 
ROOT
HETATM    1  N1  UNL     1      23.976  20.213  52.840  1.00  0.00    -0.080 NA
HETATM    2  C1  UNL     1      24.027  19.914  51.451  1.00  0.00     0.148 A 
HETATM    3  N2  UNL     1      23.008  20.118  50.605  1.00  0.00    -0.339 N 
ATOM      4  H2  UNL     1      22.137  20.512  50.962  1.00  0.00     0.167 HD
HETATM    5  C2  UNL     1      23.104  19.817  49.296  1.00  0.00     0.183 A 
HETATM    6  N3  UNL     1      24.227  19.296  48.771  1.00  0.00    -0.336 N 
ATOM      7  H3  UNL     1      24.281  19.075  47.776  1.00  0.00     0.168 HD
HETATM    8  C3  UNL     1      25.269  19.075  49.576  1.00  0.00     0.142 A 
HETATM    9  C4  UNL     1      25.184  19.377  50.917  1.00  0.00     0.119 A 
HETATM   10  N4  UNL     1      26.357  19.054  51.459  1.00  0.00    -0.346 N 
ATOM     11  H4  UNL     1      26.607  19.161  52.442  1.00  0.00     0.167 HD
HETATM   12  C5  UNL     1      27.151  18.568  50.502  1.00  0.00     0.188 A 
HETATM   13  N5  UNL     1      26.475  18.579  49.324  1.00  0.00    -0.297 N 
ENDROOT
BRANCH  13  14
HETATM   14  C6  UNL     1      27.050  18.117  48.091  1.00  0.00     0.262 C 
HETATM   15  O1  UNL     1      27.149  16.709  48.192  1.00  0.00    -0.353 OA
HETATM   16  C7  UNL     1      27.990  16.459  47.081  1.00  0.00     0.180 C 
HETATM   17  C8  UNL     1      28.351  15.004  47.047  1.00  0.00     0.216 C 
HETATM   18  C9  UNL     1      29.169  17.340  47.451  1.00  0.00     0.198 C 
HETATM   19  O2  UNL     1      29.404  14.712  46.233  1.00  0.00    -0.287 OA
HETATM   20  P1  UNL     1      30.108  16.064  45.592  1.00  0.00     0.408 P 
HETATM   21  O3  UNL     1      30.766  16.016  44.070  1.00  0.00    -0.624 OA
HETATM   22  O4  UNL     1      31.444  15.770  46.257  1.00  0.00    -0.624 OA
HETATM   23  O5  UNL     1      29.979  17.519  46.351  1.00  0.00    -0.279 OA
HETATM   24  C10 UNL     1      28.455  18.611  47.863  1.00  0.00     0.199 C 
BRANCH  24  25
HETATM   25  O6  UNL     1      28.531  19.537  46.831  1.00  0.00    -0.388 OA
ATOM     26  H6  UNL     1      29.336  20.041  46.854  1.00  0.00     0.210 HD
ENDBRANCH  24  25
ENDBRANCH  13  14
TORSDOF 2
ENDMDL
