MODEL 9
REMARK VINA RESULT: -6.126322815      6.750      9.231
REMARK  2 active torsions:
REMARK  status: ('A' for Active; 'I' for Inactive)
REMARK    1  A    between atoms: N5_13  and  C6_14 
REMARK    2  A    between atoms: C10_24  and  O6_25 
ROOT
HETATM    1  N1  UNL     1      23.188  20.513  52.480  1.00  0.00    -0.080 NA
HETATM    2  C1  UNL     1      23.681  20.034  51.236  1.00  0.00     0.148 A 
HETATM    3  N2  UNL     1      22.990  20.088  50.089  1.00  0.00    -0.339 N 
ATOM      4  H2  UNL     1      22.053  20.493  50.091  1.00  0.00     0.167 HD
HETATM    5  C2  UNL     1      23.500  19.619  48.934  1.00  0.00     0.183 A 
HETATM    6  N3  UNL     1      24.728  19.075  48.872  1.00  0.00    -0.336 N 
ATOM      7  H3  UNL     1      25.098  18.726  47.988  1.00  0.00     0.168 HD
HETATM    8  C3  UNL     1      25.453  19.000  49.991  1.00  0.00     0.142 A 
HETATM    9  C4  UNL     1      24.944  19.475  51.179  1.00  0.00     0.119 A 
HETATM   10  N4  UNL     1      25.877  19.270  52.107  1.00  0.00    -0.346 N 
ATOM     11  H4  UNL     1      25.798  19.516  53.094  1.00  0.00     0.167 HD
HETATM   12  C5  UNL     1      26.933  18.691  51.531  1.00  0.00     0.188 A 
HETATM   13  N5  UNL     1      26.672  18.520  50.209  1.00  0.00    -0.297 N 
ENDROOT
BRANCH  13  14
HETATM   14  C6  UNL     1      27.610  17.920  49.301  1.00  0.00     0.262 C 
HETATM   15  O1  UNL     1      28.883  18.014  49.911  1.00  0.00    -0.353 OA
HETATM   16  C7  UNL     1      29.695  17.685  48.799  1.00  0.00     0.180 C 
HETATM   17  C8  UNL     1      31.138  17.840  49.174  1.00  0.00     0.216 C 
HETATM   18  C9  UNL     1      29.232  18.749  47.822  1.00  0.00     0.198 C 
HETATM   19  O2  UNL     1      31.988  17.873  48.108  1.00  0.00    -0.287 OA
HETATM   20  P1  UNL     1      31.192  17.871  46.658  1.00  0.00     0.408 P 
HETATM   21  O3  UNL     1      31.862  17.115  45.343  1.00  0.00    -0.624 OA
HETATM   22  O4  UNL     1      31.763  19.224  46.263  1.00  0.00    -0.624 OA
HETATM   23  O5  UNL     1      29.645  18.422  46.549  1.00  0.00    -0.279 OA
HETATM   24  C10 UNL     1      27.729  18.655  47.991  1.00  0.00     0.199 C 
BRANCH  24  25
HETATM   25  O6  UNL     1      27.191  17.938  46.930  1.00  0.00    -0.388 OA
ATOM     26  H6  UNL     1      27.259  16.998  47.055  1.00  0.00     0.210 HD
ENDBRANCH  24  25
ENDBRANCH  13  14
TORSDOF 2
ENDMDL
