MODEL 6
REMARK VINA RESULT: -6.329166376      1.079      1.116
REMARK  2 active torsions:
REMARK  status: ('A' for Active; 'I' for Inactive)
REMARK    1  A    between atoms: N5_13  and  C6_14 
REMARK    2  A    between atoms: C10_24  and  O6_25 
ROOT
HETATM    1  N1  UNL     1      26.153  18.560  48.148  1.00  0.00    -0.080 NA
HETATM    2  C1  UNL     1      25.135  19.065  49.002  1.00  0.00     0.148 A 
HETATM    3  N2  UNL     1      23.922  19.441  48.576  1.00  0.00    -0.339 N 
ATOM      4  H2  UNL     1      23.698  19.367  47.583  1.00  0.00     0.167 HD
HETATM    5  C2  UNL     1      22.991  19.916  49.425  1.00  0.00     0.183 A 
HETATM    6  N3  UNL     1      23.230  20.036  50.742  1.00  0.00    -0.336 N 
ATOM      7  H3  UNL     1      22.511  20.397  51.371  1.00  0.00     0.168 HD
HETATM    8  C3  UNL     1      24.426  19.673  51.213  1.00  0.00     0.142 A 
HETATM    9  C4  UNL     1      25.388  19.187  50.356  1.00  0.00     0.119 A 
HETATM   10  N4  UNL     1      26.459  18.912  51.097  1.00  0.00    -0.346 N 
ATOM     11  H4  UNL     1      27.342  18.535  50.750  1.00  0.00     0.167 HD
HETATM   12  C5  UNL     1      26.188  19.211  52.370  1.00  0.00     0.188 A 
HETATM   13  N5  UNL     1      24.919  19.687  52.446  1.00  0.00    -0.297 N 
ENDROOT
BRANCH  13  14
HETATM   14  C6  UNL     1      24.315  20.102  53.683  1.00  0.00     0.262 C 
HETATM   15  O1  UNL     1      23.085  20.716  53.348  1.00  0.00    -0.353 OA
HETATM   16  C7  UNL     1      22.787  21.323  54.591  1.00  0.00     0.180 C 
HETATM   17  C8  UNL     1      21.551  22.161  54.452  1.00  0.00     0.216 C 
HETATM   18  C9  UNL     1      24.038  22.161  54.771  1.00  0.00     0.198 C 
HETATM   19  O2  UNL     1      21.360  23.042  55.473  1.00  0.00    -0.287 OA
HETATM   20  P1  UNL     1      22.620  23.058  56.546  1.00  0.00     0.408 P 
HETATM   21  O3  UNL     1      22.337  23.337  58.156  1.00  0.00    -0.624 OA
HETATM   22  O4  UNL     1      22.926  24.523  56.272  1.00  0.00    -0.624 OA
HETATM   23  O5  UNL     1      24.126  22.590  56.078  1.00  0.00    -0.279 OA
HETATM   24  C10 UNL     1      25.110  21.151  54.415  1.00  0.00     0.199 C 
BRANCH  24  25
HETATM   25  O6  UNL     1      25.687  20.662  55.580  1.00  0.00    -0.388 OA
ATOM     26  H6  UNL     1      26.619  20.502  55.483  1.00  0.00     0.210 HD
ENDBRANCH  24  25
ENDBRANCH  13  14
TORSDOF 2
ENDMDL
