MODEL 1
REMARK VINA RESULT: -6.838204179      0.000      0.000
REMARK  2 active torsions:
REMARK  status: ('A' for Active; 'I' for Inactive)
REMARK    1  A    between atoms: N5_13  and  C6_14 
REMARK    2  A    between atoms: C10_24  and  O6_25 
ROOT
HETATM    1  N1  UNL     1      26.554  18.654  49.041  1.00  0.00    -0.080 NA
HETATM    2  C1  UNL     1      25.326  19.136  49.571  1.00  0.00     0.148 A 
HETATM    3  N2  UNL     1      24.238  19.383  48.830  1.00  0.00    -0.339 N 
ATOM      4  H2  UNL     1      24.275  19.220  47.823  1.00  0.00     0.167 HD
HETATM    5  C2  UNL     1      23.097  19.841  49.380  1.00  0.00     0.183 A 
HETATM    6  N3  UNL     1      22.991  20.074  50.699  1.00  0.00    -0.336 N 
ATOM      7  H3  UNL     1      22.118  20.420  51.098  1.00  0.00     0.168 HD
HETATM    8  C3  UNL     1      24.051  19.842  51.479  1.00  0.00     0.142 A 
HETATM    9  C4  UNL     1      25.224  19.374  50.930  1.00  0.00     0.119 A 
HETATM   10  N4  UNL     1      26.091  19.240  51.932  1.00  0.00    -0.346 N 
ATOM     11  H4  UNL     1      27.053  18.911  51.846  1.00  0.00     0.167 HD
HETATM   12  C5  UNL     1      25.492  19.606  53.068  1.00  0.00     0.188 A 
HETATM   13  N5  UNL     1      24.218  19.984  52.788  1.00  0.00    -0.297 N 
ENDROOT
BRANCH  13  14
HETATM   14  C6  UNL     1      23.300  20.436  53.798  1.00  0.00     0.262 C 
HETATM   15  O1  UNL     1      22.368  21.281  53.150  1.00  0.00    -0.353 OA
HETATM   16  C7  UNL     1      21.761  21.866  54.286  1.00  0.00     0.180 C 
HETATM   17  C8  UNL     1      20.793  22.922  53.845  1.00  0.00     0.216 C 
HETATM   18  C9  UNL     1      22.990  22.452  54.957  1.00  0.00     0.198 C 
HETATM   19  O2  UNL     1      20.402  23.769  54.839  1.00  0.00    -0.287 OA
HETATM   20  P1  UNL     1      21.207  23.498  56.259  1.00  0.00     0.408 P 
HETATM   21  O3  UNL     1      20.439  23.739  57.708  1.00  0.00    -0.624 OA
HETATM   22  O4  UNL     1      21.810  24.895  56.264  1.00  0.00    -0.624 OA
HETATM   23  O5  UNL     1      22.692  22.788  56.260  1.00  0.00    -0.279 OA
HETATM   24  C10 UNL     1      23.950  21.283  54.861  1.00  0.00     0.199 C 
BRANCH  24  25
HETATM   25  O6  UNL     1      24.012  20.637  56.089  1.00  0.00    -0.388 OA
ATOM     26  H6  UNL     1      24.897  20.594  56.432  1.00  0.00     0.210 HD
ENDBRANCH  24  25
ENDBRANCH  13  14
TORSDOF 2
ENDMDL
