MODEL 4
REMARK VINA RESULT: -6.572015684      1.487      2.118
REMARK  2 active torsions:
REMARK  status: ('A' for Active; 'I' for Inactive)
REMARK    1  A    between atoms: N5_13  and  C6_14 
REMARK    2  A    between atoms: C10_24  and  O6_25 
ROOT
HETATM    1  N1  UNL     1      26.678  18.349  50.087  1.00  0.00    -0.080 NA
HETATM    2  C1  UNL     1      25.417  18.991  50.219  1.00  0.00     0.148 A 
HETATM    3  N2  UNL     1      24.550  19.148  49.210  1.00  0.00    -0.339 N 
ATOM      4  H2  UNL     1      24.793  18.790  48.286  1.00  0.00     0.167 HD
HETATM    5  C2  UNL     1      23.366  19.766  49.384  1.00  0.00     0.183 A 
HETATM    6  N3  UNL     1      22.994  20.256  50.579  1.00  0.00    -0.336 N 
ATOM      7  H3  UNL     1      22.092  20.721  50.692  1.00  0.00     0.168 HD
HETATM    8  C3  UNL     1      23.826  20.123  51.615  1.00  0.00     0.142 A 
HETATM    9  C4  UNL     1      25.040  19.494  51.451  1.00  0.00     0.119 A 
HETATM   10  N4  UNL     1      25.645  19.510  52.637  1.00  0.00    -0.346 N 
ATOM     11  H4  UNL     1      26.565  19.118  52.841  1.00  0.00     0.167 HD
HETATM   12  C5  UNL     1      24.848  20.123  53.516  1.00  0.00     0.188 A 
HETATM   13  N5  UNL     1      23.711  20.507  52.881  1.00  0.00    -0.297 N 
ENDROOT
BRANCH  13  14
HETATM   14  C6  UNL     1      22.641  21.197  53.548  1.00  0.00     0.262 C 
HETATM   15  O1  UNL     1      23.226  21.918  54.616  1.00  0.00    -0.353 OA
HETATM   16  C7  UNL     1      22.053  22.264  55.328  1.00  0.00     0.180 C 
HETATM   17  C8  UNL     1      22.432  22.949  56.607  1.00  0.00     0.216 C 
HETATM   18  C9  UNL     1      21.479  20.880  55.561  1.00  0.00     0.198 C 
HETATM   19  O2  UNL     1      21.419  23.029  57.515  1.00  0.00    -0.287 OA
HETATM   20  P1  UNL     1      20.059  22.223  57.026  1.00  0.00     0.408 P 
HETATM   21  O3  UNL     1      18.560  22.794  57.445  1.00  0.00    -0.624 OA
HETATM   22  O4  UNL     1      20.110  21.274  58.214  1.00  0.00    -0.624 OA
HETATM   23  O5  UNL     1      20.161  20.983  55.950  1.00  0.00    -0.279 OA
HETATM   24  C10 UNL     1      21.635  20.272  54.181  1.00  0.00     0.199 C 
BRANCH  24  25
HETATM   25  O6  UNL     1      20.410  20.293  53.528  1.00  0.00    -0.388 OA
ATOM     26  H6  UNL     1      19.833  19.594  53.815  1.00  0.00     0.210 HD
ENDBRANCH  24  25
ENDBRANCH  13  14
TORSDOF 2
ENDMDL
