MODEL 2
REMARK VINA RESULT: -10.030278433      2.533      8.390
REMARK  4 active torsions:
REMARK  status: ('A' for Active; 'I' for Inactive)
REMARK    1  A    between atoms: C5_5  and  O1_6 
REMARK    2  A    between atoms: C13_15  and  O2_16 
REMARK    3  A    between atoms: C16_20  and  C17_21 
REMARK    4  A    between atoms: C23_29  and  O5_30 
ROOT
HETATM    1  C1  UNL     1       0.778   7.803 -11.213  1.00  0.00     0.016 C 
HETATM    2  C2  UNL     1      -0.736   7.937 -11.297  1.00  0.00    -0.036 C 
HETATM    3  C3  UNL     1      -1.051   9.396 -11.073  1.00  0.00     0.012 C 
HETATM    4  C4  UNL     1      -0.826   9.893  -9.712  1.00  0.00     0.032 C 
HETATM    5  C5  UNL     1      -1.055   8.940  -8.591  1.00  0.00     0.118 C 
HETATM    6  C6  UNL     1      -0.825   7.501  -8.912  1.00  0.00     0.037 C 
HETATM    7  C7  UNL     1      -1.426   7.146 -10.237  1.00  0.00    -0.004 C 
HETATM    8  C8  UNL     1      -2.883   7.505 -10.248  1.00  0.00     0.006 C 
HETATM    9  C9  UNL     1      -3.525   7.400 -11.589  1.00  0.00     0.008 C 
HETATM   10  C10 UNL     1      -2.558   6.795 -12.587  1.00  0.00     0.026 C 
HETATM   11  C11 UNL     1      -1.248   7.491 -12.654  1.00  0.00     0.003 C 
HETATM   12  C12 UNL     1      -0.283   6.584 -13.365  1.00  0.00     0.038 C 
HETATM   13  C13 UNL     1      -0.920   5.480 -14.125  1.00  0.00     0.130 C 
HETATM   14  C14 UNL     1      -2.215   5.835 -14.801  1.00  0.00     0.021 C 
HETATM   15  C15 UNL     1      -2.912   4.521 -15.128  1.00  0.00     0.022 C 
HETATM   16  C16 UNL     1      -2.020   6.707 -15.998  1.00  0.00     0.030 C 
HETATM   17  C21 UNL     1      -3.423   7.355 -16.149  1.00  0.00     0.013 C 
HETATM   18  C22 UNL     1      -3.511   7.835 -14.682  1.00  0.00     0.040 C 
HETATM   19  C23 UNL     1      -3.179   6.610 -13.936  1.00  0.00     0.072 C 
ENDROOT
BRANCH  16  20
HETATM   20  C17 UNL     1      -1.523   6.133 -17.226  1.00  0.00    -0.045 A 
HETATM   21  C18 UNL     1      -2.021   6.170 -18.416  1.00  0.00     0.087 A 
HETATM   22  C19 UNL     1      -1.150   5.440 -19.334  1.00  0.00     0.283 A 
HETATM   23  O3  UNL     1      -1.321   5.267 -20.584  1.00  0.00    -0.260 OA
HETATM   24  O4  UNL     1      -0.100   4.974 -18.578  1.00  0.00    -0.314 OA
HETATM   25  C20 UNL     1      -0.249   5.353 -17.265  1.00  0.00     0.213 A 
ENDBRANCH  16  20
BRANCH  13  26
HETATM   26  O2  UNL     1      -1.038   4.292 -13.406  1.00  0.00    -0.395 OA
ATOM     27  H2  UNL     1      -0.609   3.550 -13.814  1.00  0.00     0.210 HD
ENDBRANCH  13  26
BRANCH  19  28
HETATM   28  O5  UNL     1      -4.399   5.929 -13.735  1.00  0.00    -0.389 OA
ATOM     29  H5  UNL     1      -5.050   6.586 -13.520  1.00  0.00     0.210 HD
ENDBRANCH  19  28
BRANCH   5  30
HETATM   30  O1  UNL     1      -0.193   9.299  -7.549  1.00  0.00    -0.396 OA
ATOM     31  H1  UNL     1      -0.711   9.743  -6.889  1.00  0.00     0.210 HD
ENDBRANCH   5  30
TORSDOF 4
ENDMDL
