MODEL 10
REMARK VINA RESULT: -8.790758928      1.885      3.291
REMARK  4 active torsions:
REMARK  status: ('A' for Active; 'I' for Inactive)
REMARK    1  A    between atoms: C5_5  and  O1_6 
REMARK    2  A    between atoms: C13_15  and  O2_16 
REMARK    3  A    between atoms: C16_20  and  C17_21 
REMARK    4  A    between atoms: C23_29  and  O5_30 
ROOT
HETATM    1  C1  UNL     1       0.002   6.019 -13.391  1.00  0.00     0.016 C 
HETATM    2  C2  UNL     1      -1.510   6.168 -13.291  1.00  0.00    -0.036 C 
HETATM    3  C3  UNL     1      -2.086   4.779 -13.418  1.00  0.00     0.012 C 
HETATM    4  C4  UNL     1      -1.978   4.165 -14.746  1.00  0.00     0.032 C 
HETATM    5  C5  UNL     1      -2.051   5.072 -15.925  1.00  0.00     0.118 C 
HETATM    6  C6  UNL     1      -1.560   6.463 -15.698  1.00  0.00     0.037 C 
HETATM    7  C7  UNL     1      -2.063   7.003 -14.395  1.00  0.00    -0.004 C 
HETATM    8  C8  UNL     1      -3.561   6.915 -14.354  1.00  0.00     0.006 C 
HETATM    9  C9  UNL     1      -4.150   7.219 -13.018  1.00  0.00     0.008 C 
HETATM   10  C10 UNL     1      -3.073   7.700 -12.066  1.00  0.00     0.026 C 
HETATM   11  C11 UNL     1      -1.909   6.783 -11.962  1.00  0.00     0.003 C 
HETATM   12  C12 UNL     1      -0.784   7.543 -11.317  1.00  0.00     0.038 C 
HETATM   13  C13 UNL     1      -1.198   8.789 -10.626  1.00  0.00     0.130 C 
HETATM   14  C14 UNL     1      -2.524   8.718  -9.921  1.00  0.00     0.021 C 
HETATM   15  C15 UNL     1      -2.966  10.155  -9.676  1.00  0.00     0.022 C 
HETATM   16  C16 UNL     1      -2.469   7.902  -8.672  1.00  0.00     0.030 C 
HETATM   17  C21 UNL     1      -3.963   7.530  -8.471  1.00  0.00     0.013 C 
HETATM   18  C22 UNL     1      -4.161   6.983  -9.904  1.00  0.00     0.040 C 
HETATM   19  C23 UNL     1      -3.626   8.078 -10.729  1.00  0.00     0.072 C 
ENDROOT
BRANCH  16  20
HETATM   20  C17 UNL     1      -1.855   8.452  -7.486  1.00  0.00    -0.045 A 
HETATM   21  C18 UNL     1      -0.718   8.174  -6.940  1.00  0.00     0.087 A 
HETATM   22  C19 UNL     1      -0.536   8.999  -5.748  1.00  0.00     0.283 A 
HETATM   23  O3  UNL     1       0.464   8.999  -4.959  1.00  0.00    -0.260 OA
HETATM   24  O4  UNL     1      -1.662   9.780  -5.645  1.00  0.00    -0.314 OA
HETATM   25  C20 UNL     1      -2.530   9.508  -6.674  1.00  0.00     0.213 A 
ENDBRANCH  16  20
BRANCH  13  26
HETATM   26  O2  UNL     1      -1.112   9.931 -11.420  1.00  0.00    -0.395 OA
ATOM     27  H2  UNL     1      -1.938  10.197 -11.804  1.00  0.00     0.210 HD
ENDBRANCH  13  26
BRANCH  19  28
HETATM   28  O5  UNL     1      -4.707   8.955 -10.967  1.00  0.00    -0.389 OA
ATOM     29  H5  UNL     1      -5.487   8.529 -10.632  1.00  0.00     0.210 HD
ENDBRANCH  19  28
BRANCH   5  30
HETATM   30  O1  UNL     1      -1.286   4.498 -16.946  1.00  0.00    -0.396 OA
ATOM     31  H1  UNL     1      -0.400   4.398 -16.618  1.00  0.00     0.210 HD
ENDBRANCH   5  30
TORSDOF 4
ENDMDL
