MODEL 3
REMARK VINA RESULT: -9.952070665      1.434      7.451
REMARK  4 active torsions:
REMARK  status: ('A' for Active; 'I' for Inactive)
REMARK    1  A    between atoms: C5_5  and  O1_6 
REMARK    2  A    between atoms: C13_15  and  O2_16 
REMARK    3  A    between atoms: C16_20  and  C17_21 
REMARK    4  A    between atoms: C23_29  and  O5_30 
ROOT
HETATM    1  C1  UNL     1      -0.435  10.458  -8.894  1.00  0.00     0.016 C 
HETATM    2  C2  UNL     1      -1.590   9.488  -8.689  1.00  0.00    -0.036 C 
HETATM    3  C3  UNL     1      -2.628  10.222  -7.876  1.00  0.00     0.012 C 
HETATM    4  C4  UNL     1      -2.268  10.489  -6.479  1.00  0.00     0.032 C 
HETATM    5  C5  UNL     1      -1.411   9.484  -5.792  1.00  0.00     0.118 C 
HETATM    6  C6  UNL     1      -0.481   8.720  -6.674  1.00  0.00     0.037 C 
HETATM    7  C7  UNL     1      -1.173   8.277  -7.925  1.00  0.00    -0.004 C 
HETATM    8  C8  UNL     1      -2.401   7.489  -7.576  1.00  0.00     0.006 C 
HETATM    9  C9  UNL     1      -3.283   7.190  -8.741  1.00  0.00     0.008 C 
HETATM   10  C10 UNL     1      -2.619   7.634 -10.029  1.00  0.00     0.026 C 
HETATM   11  C11 UNL     1      -2.176   9.051 -10.019  1.00  0.00     0.003 C 
HETATM   12  C12 UNL     1      -1.219   9.239 -11.162  1.00  0.00     0.038 C 
HETATM   13  C13 UNL     1      -1.257   8.163 -12.183  1.00  0.00     0.130 C 
HETATM   14  C14 UNL     1      -2.622   7.601 -12.465  1.00  0.00     0.021 C 
HETATM   15  C15 UNL     1      -2.408   6.264 -13.164  1.00  0.00     0.022 C 
HETATM   16  C16 UNL     1      -3.481   8.538 -13.248  1.00  0.00     0.030 C 
HETATM   17  C21 UNL     1      -4.905   8.009 -12.924  1.00  0.00     0.013 C 
HETATM   18  C22 UNL     1      -4.710   8.024 -11.390  1.00  0.00     0.040 C 
HETATM   19  C23 UNL     1      -3.440   7.297 -11.233  1.00  0.00     0.072 C 
ENDROOT
BRANCH  16  20
HETATM   20  C17 UNL     1      -3.246   8.710 -14.663  1.00  0.00    -0.045 A 
HETATM   21  C18 UNL     1      -3.395   7.870 -15.632  1.00  0.00     0.087 A 
HETATM   22  C19 UNL     1      -3.029   8.511 -16.893  1.00  0.00     0.283 A 
HETATM   23  O3  UNL     1      -3.051   7.990 -18.055  1.00  0.00    -0.260 OA
HETATM   24  O4  UNL     1      -2.655   9.796 -16.577  1.00  0.00    -0.314 OA
HETATM   25  C20 UNL     1      -2.756  10.005 -15.223  1.00  0.00     0.213 A 
ENDBRANCH  16  20
BRANCH  13  26
HETATM   26  O2  UNL     1      -0.330   7.146 -11.968  1.00  0.00    -0.395 OA
ATOM     27  H2  UNL     1      -0.229   6.554 -12.704  1.00  0.00     0.210 HD
ENDBRANCH  13  26
BRANCH  19  28
HETATM   28  O5  UNL     1      -3.780   5.930 -11.128  1.00  0.00    -0.389 OA
ATOM     29  H5  UNL     1      -4.715   5.891 -10.965  1.00  0.00     0.210 HD
ENDBRANCH  19  28
BRANCH   5  30
HETATM   30  O1  UNL     1      -0.649  10.164  -4.835  1.00  0.00    -0.396 OA
ATOM     31  H1  UNL     1       0.257  10.133  -5.117  1.00  0.00     0.210 HD
ENDBRANCH   5  30
TORSDOF 4
ENDMDL
