MODEL 4
REMARK VINA RESULT: -9.854017014      3.290      6.152
REMARK  4 active torsions:
REMARK  status: ('A' for Active; 'I' for Inactive)
REMARK    1  A    between atoms: C5_5  and  O1_6 
REMARK    2  A    between atoms: C13_15  and  O2_16 
REMARK    3  A    between atoms: C16_20  and  C17_21 
REMARK    4  A    between atoms: C23_29  and  O5_30 
ROOT
HETATM    1  C1  UNL     1      -3.270   9.016 -18.773  1.00  0.00     0.016 C 
HETATM    2  C2  UNL     1      -2.869   7.554 -18.635  1.00  0.00    -0.036 C 
HETATM    3  C3  UNL     1      -1.803   7.303 -19.673  1.00  0.00     0.012 C 
HETATM    4  C4  UNL     1      -2.259   7.312 -21.068  1.00  0.00     0.032 C 
HETATM    5  C5  UNL     1      -3.640   6.821 -21.337  1.00  0.00     0.118 C 
HETATM    6  C6  UNL     1      -4.617   7.008 -20.225  1.00  0.00     0.037 C 
HETATM    7  C7  UNL     1      -4.010   6.634 -18.909  1.00  0.00    -0.004 C 
HETATM    8  C8  UNL     1      -3.483   5.230 -18.973  1.00  0.00     0.006 C 
HETATM    9  C9  UNL     1      -2.662   4.835 -17.792  1.00  0.00     0.008 C 
HETATM   10  C10 UNL     1      -2.702   5.923 -16.738  1.00  0.00     0.026 C 
HETATM   11  C11 UNL     1      -2.328   7.267 -17.247  1.00  0.00     0.003 C 
HETATM   12  C12 UNL     1      -2.775   8.281 -16.232  1.00  0.00     0.038 C 
HETATM   13  C13 UNL     1      -3.087   7.720 -14.894  1.00  0.00     0.130 C 
HETATM   14  C14 UNL     1      -2.194   6.595 -14.451  1.00  0.00     0.021 C 
HETATM   15  C15 UNL     1      -2.920   5.882 -13.317  1.00  0.00     0.022 C 
HETATM   16  C16 UNL     1      -0.828   7.060 -14.069  1.00  0.00     0.030 C 
HETATM   17  C21 UNL     1       0.001   5.754 -14.205  1.00  0.00     0.013 C 
HETATM   18  C22 UNL     1      -0.481   5.436 -15.639  1.00  0.00     0.040 C 
HETATM   19  C23 UNL     1      -1.943   5.545 -15.506  1.00  0.00     0.072 C 
ENDROOT
BRANCH  16  20
HETATM   20  C17 UNL     1      -0.629   7.732 -12.806  1.00  0.00    -0.045 A 
HETATM   21  C18 UNL     1      -0.022   7.326 -11.742  1.00  0.00     0.087 A 
HETATM   22  C19 UNL     1      -0.083   8.366 -10.718  1.00  0.00     0.283 A 
HETATM   23  O3  UNL     1       0.407   8.318  -9.543  1.00  0.00    -0.260 OA
HETATM   24  O4  UNL     1      -0.777   9.413 -11.275  1.00  0.00    -0.314 OA
HETATM   25  C20 UNL     1      -1.154   9.108 -12.561  1.00  0.00     0.213 A 
ENDBRANCH  16  20
BRANCH  13  26
HETATM   26  O2  UNL     1      -4.430   7.395 -14.716  1.00  0.00    -0.395 OA
ATOM     27  H2  UNL     1      -4.580   6.715 -14.071  1.00  0.00     0.210 HD
ENDBRANCH  13  26
BRANCH  19  28
HETATM   28  O5  UNL     1      -2.399   4.265 -15.120  1.00  0.00    -0.389 OA
ATOM     29  H5  UNL     1      -1.632   3.709 -15.049  1.00  0.00     0.210 HD
ENDBRANCH  19  28
BRANCH   5  30
HETATM   30  O1  UNL     1      -4.118   7.503 -22.461  1.00  0.00    -0.396 OA
ATOM     31  H1  UNL     1      -3.464   8.147 -22.704  1.00  0.00     0.210 HD
ENDBRANCH   5  30
TORSDOF 4
ENDMDL
