MODEL 8
REMARK VINA RESULT: -9.069603203      3.871      5.365
REMARK  12 active torsions:
REMARK  status: ('A' for Active; 'I' for Inactive)
REMARK    1  A    between atoms: O1_1  and  N1_3 
REMARK    2  A    between atoms: C1_5  and  C2_6 
REMARK    3  A    between atoms: N2_11  and  C7_12 
REMARK    4  A    between atoms: C7_12  and  C8_13 
REMARK    5  A    between atoms: C8_13  and  C9_14 
REMARK    6  A    between atoms: C9_14  and  C10_15 
REMARK    7  A    between atoms: C10_15  and  C11_16 
REMARK    8  A    between atoms: C11_16  and  C12_17 
REMARK    9  A    between atoms: C12_17  and  C13_18 
REMARK   10  A    between atoms: C13_18  and  N3_19 
REMARK   11  A    between atoms: C18_24  and  C19_25 
REMARK   12  A    between atoms: N4_26  and  O2_28 
ROOT
HETATM    1  C10 UNL     1      57.770 -29.948  -2.997  1.00  0.00     0.000 C 
ENDROOT
BRANCH   1   2
HETATM    2  C9  UNL     1      57.553 -30.802  -1.830  1.00  0.00     0.002 C 
BRANCH   2   3
HETATM    3  C8  UNL     1      57.968 -32.218  -1.822  1.00  0.00     0.020 C 
BRANCH   3   4
HETATM    4  C7  UNL     1      56.706 -33.132  -1.708  1.00  0.00     0.128 C 
BRANCH   4   5
HETATM    5  N2  UNL     1      57.112 -34.469  -1.383  1.00  0.00    -0.356 N 
HETATM    6  C2  UNL     1      56.277 -35.446  -0.804  1.00  0.00     0.048 A 
HETATM    7  C3  UNL     1      56.746 -36.679  -0.532  1.00  0.00     0.008 A 
HETATM    8  C4  UNL     1      58.114 -37.115  -0.796  1.00  0.00     0.058 A 
HETATM    9  C5  UNL     1      58.930 -36.057  -1.400  1.00  0.00    -0.006 A 
HETATM   10  C6  UNL     1      58.482 -34.868  -1.664  1.00  0.00     0.087 A 
BRANCH   6  11
HETATM   11  C1  UNL     1      54.887 -35.172  -0.481  1.00  0.00     0.143 C 
HETATM   12  N1  UNL     1      54.032 -36.018  -0.143  1.00  0.00    -0.278 N 
ATOM     13  H1  UNL     1      54.342 -36.989  -0.091  1.00  0.00     0.193 HD
BRANCH  12  14
HETATM   14  O1  UNL     1      52.718 -35.772   0.165  1.00  0.00    -0.290 OA
ATOM     15  H1  UNL     1      51.960 -36.204  -0.210  1.00  0.00     0.244 HD
ENDBRANCH  12  14
ENDBRANCH   6  11
ENDBRANCH   4   5
ENDBRANCH   3   4
ENDBRANCH   2   3
ENDBRANCH   1   2
BRANCH   1  16
HETATM   16  C11 UNL     1      58.753 -30.258  -4.050  1.00  0.00     0.002 C 
BRANCH  16  17
HETATM   17  C12 UNL     1      60.195 -30.120  -3.729  1.00  0.00     0.020 C 
BRANCH  17  18
HETATM   18  C13 UNL     1      61.056 -31.087  -4.476  1.00  0.00     0.123 C 
BRANCH  18  19
HETATM   19  N3  UNL     1      61.474 -32.274  -3.751  1.00  0.00    -0.377 N 
HETATM   20  C14 UNL     1      61.362 -33.543  -4.378  1.00  0.00     0.086 A 
HETATM   21  C15 UNL     1      61.645 -34.694  -3.800  1.00  0.00     0.017 A 
HETATM   22  C16 UNL     1      62.108 -34.599  -2.426  1.00  0.00    -0.000 A 
HETATM   23  C17 UNL     1      62.247 -33.465  -1.803  1.00  0.00     0.004 A 
HETATM   24  C18 UNL     1      61.958 -32.166  -2.421  1.00  0.00     0.147 A 
BRANCH  24  25
HETATM   25  C19 UNL     1      63.286 -31.431  -2.333  1.00  0.00     0.116 C 
HETATM   26  N4  UNL     1      64.251 -31.881  -1.645  1.00  0.00    -0.282 N 
ATOM     27  H4  UNL     1      64.148 -32.757  -1.132  1.00  0.00     0.193 HD
BRANCH  26  28
HETATM   28  O2  UNL     1      65.439 -31.185  -1.591  1.00  0.00    -0.290 OA
ATOM     29  H2  UNL     1      66.092 -31.414  -0.941  1.00  0.00     0.244 HD
ENDBRANCH  26  28
ENDBRANCH  24  25
ENDBRANCH  18  19
ENDBRANCH  17  18
ENDBRANCH  16  17
ENDBRANCH   1  16
TORSDOF 12
ENDMDL
