MODEL 16
REMARK VINA RESULT: -8.979630637      4.891      7.355
REMARK  12 active torsions:
REMARK  status: ('A' for Active; 'I' for Inactive)
REMARK    1  A    between atoms: O1_1  and  N1_3 
REMARK    2  A    between atoms: C1_5  and  C2_6 
REMARK    3  A    between atoms: N2_11  and  C7_12 
REMARK    4  A    between atoms: C7_12  and  C8_13 
REMARK    5  A    between atoms: C8_13  and  C9_14 
REMARK    6  A    between atoms: C9_14  and  C10_15 
REMARK    7  A    between atoms: C10_15  and  C11_16 
REMARK    8  A    between atoms: C11_16  and  C12_17 
REMARK    9  A    between atoms: C12_17  and  C13_18 
REMARK   10  A    between atoms: C13_18  and  N3_19 
REMARK   11  A    between atoms: C18_24  and  C19_25 
REMARK   12  A    between atoms: N4_26  and  O2_28 
ROOT
HETATM    1  C10 UNL     1      55.569 -36.318  -0.571  1.00  0.00     0.000 C 
ENDROOT
BRANCH   1   2
HETATM    2  C9  UNL     1      54.994 -34.996  -0.813  1.00  0.00     0.002 C 
BRANCH   2   3
HETATM    3  C8  UNL     1      54.623 -34.100   0.300  1.00  0.00     0.020 C 
BRANCH   3   4
HETATM    4  C7  UNL     1      53.182 -34.449   0.793  1.00  0.00     0.128 C 
BRANCH   4   5
HETATM    5  N2  UNL     1      53.184 -34.576   2.222  1.00  0.00    -0.356 N 
HETATM    6  C2  UNL     1      52.655 -33.624   3.116  1.00  0.00     0.048 A 
HETATM    7  C3  UNL     1      52.701 -33.829   4.447  1.00  0.00     0.008 A 
HETATM    8  C4  UNL     1      53.283 -35.010   5.077  1.00  0.00     0.058 A 
HETATM    9  C5  UNL     1      53.813 -35.962   4.096  1.00  0.00    -0.006 A 
HETATM   10  C6  UNL     1      53.770 -35.769   2.813  1.00  0.00     0.087 A 
BRANCH   6  11
HETATM   11  C1  UNL     1      52.039 -32.394   2.650  1.00  0.00     0.143 C 
HETATM   12  N1  UNL     1      51.063 -31.817   3.176  1.00  0.00    -0.278 N 
ATOM     13  H1  UNL     1      50.665 -32.253   4.008  1.00  0.00     0.193 HD
BRANCH  12  14
HETATM   14  O1  UNL     1      50.473 -30.656   2.744  1.00  0.00    -0.290 OA
ATOM     15  H1  UNL     1      50.780 -29.772   2.909  1.00  0.00     0.244 HD
ENDBRANCH  12  14
ENDBRANCH   6  11
ENDBRANCH   4   5
ENDBRANCH   3   4
ENDBRANCH   2   3
ENDBRANCH   1   2
BRANCH   1  16
HETATM   16  C11 UNL     1      57.009 -36.543  -0.352  1.00  0.00     0.002 C 
BRANCH  16  17
HETATM   17  C12 UNL     1      57.435 -37.200   0.908  1.00  0.00     0.020 C 
BRANCH  17  18
HETATM   18  C13 UNL     1      57.535 -36.251   2.058  1.00  0.00     0.123 C 
BRANCH  18  19
HETATM   19  N3  UNL     1      57.226 -36.791   3.370  1.00  0.00    -0.377 N 
HETATM   20  C14 UNL     1      56.731 -38.118   3.475  1.00  0.00     0.086 A 
HETATM   21  C15 UNL     1      56.354 -38.693   4.600  1.00  0.00     0.017 A 
HETATM   22  C16 UNL     1      56.481 -37.866   5.790  1.00  0.00    -0.000 A 
HETATM   23  C17 UNL     1      56.942 -36.650   5.761  1.00  0.00     0.004 A 
HETATM   24  C18 UNL     1      57.387 -35.986   4.530  1.00  0.00     0.147 A 
BRANCH  24  25
HETATM   25  C19 UNL     1      58.841 -35.649   4.817  1.00  0.00     0.116 C 
HETATM   26  N4  UNL     1      59.527 -36.319   5.646  1.00  0.00    -0.282 N 
ATOM     27  H4  UNL     1      59.106 -37.107   6.140  1.00  0.00     0.193 HD
BRANCH  26  28
HETATM   28  O2  UNL     1      60.843 -35.981   5.880  1.00  0.00    -0.290 OA
ATOM     29  H2  UNL     1      61.416 -36.593   6.325  1.00  0.00     0.244 HD
ENDBRANCH  26  28
ENDBRANCH  24  25
ENDBRANCH  18  19
ENDBRANCH  17  18
ENDBRANCH  16  17
ENDBRANCH   1  16
TORSDOF 12
ENDMDL
