MODEL 15
REMARK VINA RESULT: -9.003823669      1.230      8.759
REMARK  12 active torsions:
REMARK  status: ('A' for Active; 'I' for Inactive)
REMARK    1  A    between atoms: O1_1  and  N1_3 
REMARK    2  A    between atoms: C1_5  and  C2_6 
REMARK    3  A    between atoms: N2_11  and  C7_12 
REMARK    4  A    between atoms: C7_12  and  C8_13 
REMARK    5  A    between atoms: C8_13  and  C9_14 
REMARK    6  A    between atoms: C9_14  and  C10_15 
REMARK    7  A    between atoms: C10_15  and  C11_16 
REMARK    8  A    between atoms: C11_16  and  C12_17 
REMARK    9  A    between atoms: C12_17  and  C13_18 
REMARK   10  A    between atoms: C13_18  and  N3_19 
REMARK   11  A    between atoms: C18_24  and  C19_25 
REMARK   12  A    between atoms: N4_26  and  O2_28 
ROOT
HETATM    1  C10 UNL     1      57.995 -37.447  -0.027  1.00  0.00     0.000 C 
ENDROOT
BRANCH   1   2
HETATM    2  C9  UNL     1      58.331 -36.572  -1.150  1.00  0.00     0.002 C 
BRANCH   2   3
HETATM    3  C8  UNL     1      57.912 -35.157  -1.178  1.00  0.00     0.020 C 
BRANCH   3   4
HETATM    4  C7  UNL     1      59.130 -34.244  -0.828  1.00  0.00     0.128 C 
BRANCH   4   5
HETATM    5  N2  UNL     1      59.006 -32.995  -1.523  1.00  0.00    -0.356 N 
HETATM    6  C2  UNL     1      60.089 -32.218  -1.981  1.00  0.00     0.048 A 
HETATM    7  C3  UNL     1      59.877 -31.054  -2.626  1.00  0.00     0.008 A 
HETATM    8  C4  UNL     1      58.556 -30.497  -2.904  1.00  0.00     0.058 A 
HETATM    9  C5  UNL     1      57.474 -31.351  -2.405  1.00  0.00    -0.006 A 
HETATM   10  C6  UNL     1      57.674 -32.474  -1.784  1.00  0.00     0.087 A 
BRANCH   6  11
HETATM   11  C1  UNL     1      61.467 -32.633  -1.786  1.00  0.00     0.143 C 
HETATM   12  N1  UNL     1      62.268 -32.150  -0.957  1.00  0.00    -0.278 N 
ATOM     13  H1  UNL     1      61.919 -31.396  -0.365  1.00  0.00     0.193 HD
BRANCH  12  14
HETATM   14  O1  UNL     1      63.571 -32.534  -0.763  1.00  0.00    -0.290 OA
ATOM     15  H1  UNL     1      64.096 -32.379   0.013  1.00  0.00     0.244 HD
ENDBRANCH  12  14
ENDBRANCH   6  11
ENDBRANCH   4   5
ENDBRANCH   3   4
ENDBRANCH   2   3
ENDBRANCH   1   2
BRANCH   1  16
HETATM   16  C11 UNL     1      57.537 -36.941   1.279  1.00  0.00     0.002 C 
BRANCH  16  17
HETATM   17  C12 UNL     1      56.084 -36.973   1.576  1.00  0.00     0.020 C 
BRANCH  17  18
HETATM   18  C13 UNL     1      55.726 -36.237   2.826  1.00  0.00     0.123 C 
BRANCH  18  19
HETATM   19  N3  UNL     1      55.630 -37.030   4.038  1.00  0.00    -0.377 N 
HETATM   20  C14 UNL     1      54.802 -38.183   4.049  1.00  0.00     0.086 A 
HETATM   21  C15 UNL     1      54.583 -38.942   5.105  1.00  0.00     0.017 A 
HETATM   22  C16 UNL     1      55.270 -38.527   6.318  1.00  0.00    -0.000 A 
HETATM   23  C17 UNL     1      56.054 -37.490   6.367  1.00  0.00     0.004 A 
HETATM   24  C18 UNL     1      56.333 -36.635   5.208  1.00  0.00     0.147 A 
BRANCH  24  25
HETATM   25  C19 UNL     1      57.842 -36.734   5.052  1.00  0.00     0.116 C 
HETATM   26  N4  UNL     1      58.631 -36.067   5.787  1.00  0.00    -0.282 N 
ATOM     27  H4  UNL     1      58.258 -35.445   6.504  1.00  0.00     0.193 HD
BRANCH  26  28
HETATM   28  O2  UNL     1      59.993 -36.185   5.614  1.00  0.00    -0.290 OA
ATOM     29  H2  UNL     1      60.572 -35.509   5.946  1.00  0.00     0.244 HD
ENDBRANCH  26  28
ENDBRANCH  24  25
ENDBRANCH  18  19
ENDBRANCH  17  18
ENDBRANCH  16  17
ENDBRANCH   1  16
TORSDOF 12
ENDMDL
