MODEL 17
REMARK VINA RESULT: -8.975705038      3.670      4.946
REMARK  12 active torsions:
REMARK  status: ('A' for Active; 'I' for Inactive)
REMARK    1  A    between atoms: O1_1  and  N1_3 
REMARK    2  A    between atoms: C1_5  and  C2_6 
REMARK    3  A    between atoms: N2_11  and  C7_12 
REMARK    4  A    between atoms: C7_12  and  C8_13 
REMARK    5  A    between atoms: C8_13  and  C9_14 
REMARK    6  A    between atoms: C9_14  and  C10_15 
REMARK    7  A    between atoms: C10_15  and  C11_16 
REMARK    8  A    between atoms: C11_16  and  C12_17 
REMARK    9  A    between atoms: C12_17  and  C13_18 
REMARK   10  A    between atoms: C13_18  and  N3_19 
REMARK   11  A    between atoms: C18_24  and  C19_25 
REMARK   12  A    between atoms: N4_26  and  O2_28 
ROOT
HETATM    1  C10 UNL     1      57.184 -36.525   1.085  1.00  0.00     0.000 C 
ENDROOT
BRANCH   1   2
HETATM    2  C9  UNL     1      56.163 -37.053   1.989  1.00  0.00     0.002 C 
BRANCH   2   3
HETATM    3  C8  UNL     1      54.743 -36.670   1.859  1.00  0.00     0.020 C 
BRANCH   3   4
HETATM    4  C7  UNL     1      54.560 -35.765   0.599  1.00  0.00     0.128 C 
BRANCH   4   5
HETATM    5  N2  UNL     1      54.002 -34.504   0.993  1.00  0.00    -0.356 N 
HETATM    6  C2  UNL     1      54.089 -33.314   0.243  1.00  0.00     0.048 A 
HETATM    7  C3  UNL     1      53.533 -32.173   0.693  1.00  0.00     0.008 A 
HETATM    8  C4  UNL     1      52.812 -32.053   1.957  1.00  0.00     0.058 A 
HETATM    9  C5  UNL     1      52.753 -33.323   2.689  1.00  0.00    -0.006 A 
HETATM   10  C6  UNL     1      53.288 -34.425   2.257  1.00  0.00     0.087 A 
BRANCH   6  11
HETATM   11  C1  UNL     1      54.772 -33.265  -1.039  1.00  0.00     0.143 C 
HETATM   12  N1  UNL     1      55.864 -32.702  -1.267  1.00  0.00    -0.278 N 
ATOM     13  H1  UNL     1      56.314 -32.235  -0.479  1.00  0.00     0.193 HD
BRANCH  12  14
HETATM   14  O1  UNL     1      56.518 -32.650  -2.471  1.00  0.00    -0.290 OA
ATOM     15  H1  UNL     1      57.459 -32.644  -2.603  1.00  0.00     0.244 HD
ENDBRANCH  12  14
ENDBRANCH   6  11
ENDBRANCH   4   5
ENDBRANCH   3   4
ENDBRANCH   2   3
ENDBRANCH   1   2
BRANCH   1  16
HETATM   16  C11 UNL     1      57.939 -37.369   0.142  1.00  0.00     0.002 C 
BRANCH  16  17
HETATM   17  C12 UNL     1      58.330 -36.786  -1.165  1.00  0.00     0.020 C 
BRANCH  17  18
HETATM   18  C13 UNL     1      58.495 -35.302  -1.119  1.00  0.00     0.123 C 
BRANCH  18  19
HETATM   19  N3  UNL     1      59.834 -34.793  -1.356  1.00  0.00    -0.377 N 
HETATM   20  C14 UNL     1      60.654 -35.425  -2.328  1.00  0.00     0.086 A 
HETATM   21  C15 UNL     1      61.905 -35.097  -2.583  1.00  0.00     0.017 A 
HETATM   22  C16 UNL     1      62.431 -33.998  -1.790  1.00  0.00    -0.000 A 
HETATM   23  C17 UNL     1      61.725 -33.369  -0.897  1.00  0.00     0.004 A 
HETATM   24  C18 UNL     1      60.326 -33.696  -0.599  1.00  0.00     0.147 A 
BRANCH  24  25
HETATM   25  C19 UNL     1      59.590 -32.398  -0.894  1.00  0.00     0.116 C 
HETATM   26  N4  UNL     1      59.426 -31.982  -2.080  1.00  0.00    -0.282 N 
ATOM     27  H4  UNL     1      59.791 -32.521  -2.866  1.00  0.00     0.193 HD
BRANCH  26  28
HETATM   28  O2  UNL     1      58.754 -30.801  -2.306  1.00  0.00    -0.290 OA
ATOM     29  H2  UNL     1      59.054 -29.999  -1.896  1.00  0.00     0.244 HD
ENDBRANCH  26  28
ENDBRANCH  24  25
ENDBRANCH  18  19
ENDBRANCH  17  18
ENDBRANCH  16  17
ENDBRANCH   1  16
TORSDOF 12
ENDMDL
