MODEL 5
REMARK VINA RESULT: -5.651241467      1.689      2.558
REMARK  5 active torsions:
REMARK  status: ('A' for Active; 'I' for Inactive)
REMARK    1  A    between atoms: O1_1  and  C1_3 
REMARK    2  A    between atoms: C1_3  and  C2_4 
REMARK    3  A    between atoms: C4_8  and  O2_9 
REMARK    4  A    between atoms: C5_11  and  O3_12 
REMARK    5  A    between atoms: C6_14  and  O4_15 
ROOT
HETATM    1  C2  UNL     1      58.648  67.447  60.809  1.00  0.00     0.131 C 
HETATM    2  N1  UNL     1      57.224  67.490  60.892  1.00  0.00    -0.410 N 
ATOM      3  H1  UNL     1      56.735  67.839  61.717  1.00  0.00     0.153 HD
HETATM    4  C3  UNL     1      56.532  67.009  59.741  1.00  0.00     0.148 C 
HETATM    5  C4  UNL     1      57.458  66.271  58.778  1.00  0.00     0.166 C 
HETATM    6  C5  UNL     1      58.503  67.257  58.341  1.00  0.00     0.179 C 
HETATM    7  C6  UNL     1      59.166  67.970  59.492  1.00  0.00     0.173 C 
ENDROOT
BRANCH   1   8
HETATM    8  C1  UNL     1      59.190  68.348  61.926  1.00  0.00     0.191 C 
BRANCH   8   9
HETATM    9  O1  UNL     1      60.408  67.835  62.368  1.00  0.00    -0.399 OA
ATOM     10  H1  UNL     1      61.106  68.417  62.090  1.00  0.00     0.209 HD
ENDBRANCH   8   9
ENDBRANCH   1   8
BRANCH   7  11
HETATM   11  O4  UNL     1      60.540  67.782  59.413  1.00  0.00    -0.391 OA
ATOM     12  H4  UNL     1      60.776  67.457  58.552  1.00  0.00     0.210 HD
ENDBRANCH   7  11
BRANCH   6  13
HETATM   13  O3  UNL     1      57.838  68.242  57.589  1.00  0.00    -0.390 OA
ATOM     14  H3  UNL     1      57.968  68.022  56.674  1.00  0.00     0.210 HD
ENDBRANCH   6  13
BRANCH   5  15
HETATM   15  O2  UNL     1      57.950  65.168  59.421  1.00  0.00    -0.391 OA
ATOM     16  H2  UNL     1      58.559  65.462  60.088  1.00  0.00     0.210 HD
ENDBRANCH   5  15
TORSDOF 5
ENDMDL
