MODEL 12
REMARK VINA RESULT: -4.466119983      6.157      7.192
REMARK  5 active torsions:
REMARK  status: ('A' for Active; 'I' for Inactive)
REMARK    1  A    between atoms: O1_1  and  C1_3 
REMARK    2  A    between atoms: C1_3  and  C2_4 
REMARK    3  A    between atoms: C4_8  and  O2_9 
REMARK    4  A    between atoms: C5_11  and  O3_12 
REMARK    5  A    between atoms: C6_14  and  O4_15 
ROOT
HETATM    1  C2  UNL     1      58.785  73.787  63.717  1.00  0.00     0.131 C 
HETATM    2  N1  UNL     1      57.831  74.687  64.279  1.00  0.00    -0.410 N 
ATOM      3  H1  UNL     1      58.047  75.668  64.462  1.00  0.00     0.153 HD
HETATM    4  C3  UNL     1      56.554  74.119  64.567  1.00  0.00     0.148 C 
HETATM    5  C4  UNL     1      56.571  72.595  64.491  1.00  0.00     0.166 C 
HETATM    6  C5  UNL     1      56.956  72.236  63.085  1.00  0.00     0.179 C 
HETATM    7  C6  UNL     1      58.202  72.942  62.612  1.00  0.00     0.173 C 
ENDROOT
BRANCH   1   8
HETATM    8  C1  UNL     1      59.911  74.642  63.120  1.00  0.00     0.191 C 
BRANCH   8   9
HETATM    9  O1  UNL     1      61.059  73.859  63.007  1.00  0.00    -0.399 OA
ATOM     10  H1  UNL     1      61.420  73.968  62.135  1.00  0.00     0.209 HD
ENDBRANCH   8   9
ENDBRANCH   1   8
BRANCH   7  11
HETATM   11  O4  UNL     1      59.130  71.998  62.194  1.00  0.00    -0.391 OA
ATOM     12  H4  UNL     1      59.572  72.299  61.409  1.00  0.00     0.210 HD
ENDBRANCH   7  11
BRANCH   6  13
HETATM   13  O3  UNL     1      55.908  72.672  62.255  1.00  0.00    -0.390 OA
ATOM     14  H3  UNL     1      55.154  72.131  62.460  1.00  0.00     0.210 HD
ENDBRANCH   6  13
BRANCH   5  15
HETATM   15  O2  UNL     1      57.425  72.130  65.452  1.00  0.00    -0.391 OA
ATOM     16  H2  UNL     1      58.300  72.105  65.084  1.00  0.00     0.210 HD
ENDBRANCH   5  15
TORSDOF 5
ENDMDL
