MODEL 8
REMARK VINA RESULT: -4.830172838      4.224      5.777
REMARK  5 active torsions:
REMARK  status: ('A' for Active; 'I' for Inactive)
REMARK    1  A    between atoms: O1_1  and  C1_3 
REMARK    2  A    between atoms: C1_3  and  C2_4 
REMARK    3  A    between atoms: C4_8  and  O2_9 
REMARK    4  A    between atoms: C5_11  and  O3_12 
REMARK    5  A    between atoms: C6_14  and  O4_15 
ROOT
HETATM    1  C2  UNL     1      56.191  70.301  62.503  1.00  0.00     0.131 C 
HETATM    2  N1  UNL     1      55.321  70.996  63.395  1.00  0.00    -0.410 N 
ATOM      3  H1  UNL     1      54.474  70.572  63.773  1.00  0.00     0.153 HD
HETATM    4  C3  UNL     1      55.719  72.327  63.721  1.00  0.00     0.148 C 
HETATM    5  C4  UNL     1      56.835  72.834  62.811  1.00  0.00     0.166 C 
HETATM    6  C5  UNL     1      58.006  71.915  63.008  1.00  0.00     0.179 C 
HETATM    7  C6  UNL     1      57.645  70.456  62.874  1.00  0.00     0.173 C 
ENDROOT
BRANCH   1   8
HETATM    8  C1  UNL     1      55.831  68.813  62.593  1.00  0.00     0.191 C 
BRANCH   8   9
HETATM    9  O1  UNL     1      56.329  68.159  61.467  1.00  0.00    -0.399 OA
ATOM     10  H1  UNL     1      57.229  68.432  61.327  1.00  0.00     0.209 HD
ENDBRANCH   8   9
ENDBRANCH   1   8
BRANCH   7  11
HETATM   11  O4  UNL     1      58.449  69.875  61.903  1.00  0.00    -0.391 OA
ATOM     12  H4  UNL     1      58.049  69.075  61.583  1.00  0.00     0.210 HD
ENDBRANCH   7  11
BRANCH   6  13
HETATM   13  O3  UNL     1      58.445  72.099  64.331  1.00  0.00    -0.390 OA
ATOM     14  H3  UNL     1      58.045  71.411  64.850  1.00  0.00     0.210 HD
ENDBRANCH   6  13
BRANCH   5  15
HETATM   15  O2  UNL     1      56.355  72.878  61.531  1.00  0.00    -0.391 OA
ATOM     16  H2  UNL     1      56.805  72.214  61.023  1.00  0.00     0.210 HD
ENDBRANCH   5  15
TORSDOF 5
ENDMDL
