MODEL 7
REMARK VINA RESULT: -4.943425019      1.729      2.728
REMARK  5 active torsions:
REMARK  status: ('A' for Active; 'I' for Inactive)
REMARK    1  A    between atoms: O1_1  and  C1_3 
REMARK    2  A    between atoms: C1_3  and  C2_4 
REMARK    3  A    between atoms: C4_8  and  O2_9 
REMARK    4  A    between atoms: C5_11  and  O3_12 
REMARK    5  A    between atoms: C6_14  and  O4_15 
ROOT
HETATM    1  C2  UNL     1      58.386  67.859  61.482  1.00  0.00     0.131 C 
HETATM    2  N1  UNL     1      57.369  68.835  61.707  1.00  0.00    -0.410 N 
ATOM      3  H1  UNL     1      57.547  69.703  62.212  1.00  0.00     0.153 HD
HETATM    4  C3  UNL     1      56.086  68.510  61.175  1.00  0.00     0.148 C 
HETATM    5  C4  UNL     1      55.996  67.051  60.737  1.00  0.00     0.166 C 
HETATM    6  C5  UNL     1      57.029  66.855  59.665  1.00  0.00     0.179 C 
HETATM    7  C6  UNL     1      58.397  67.351  60.062  1.00  0.00     0.173 C 
ENDROOT
BRANCH   1   8
HETATM    8  C1  UNL     1      59.732  68.543  61.755  1.00  0.00     0.191 C 
BRANCH   8   9
HETATM    9  O1  UNL     1      60.488  67.730  62.599  1.00  0.00    -0.399 OA
ATOM     10  H1  UNL     1      61.185  68.250  62.982  1.00  0.00     0.209 HD
ENDBRANCH   8   9
ENDBRANCH   1   8
BRANCH   7  11
HETATM   11  O4  UNL     1      59.312  66.314  59.935  1.00  0.00    -0.391 OA
ATOM     12  H4  UNL     1      59.042  65.724  59.241  1.00  0.00     0.210 HD
ENDBRANCH   7  11
BRANCH   6  13
HETATM   13  O3  UNL     1      56.624  67.634  58.567  1.00  0.00    -0.390 OA
ATOM     14  H3  UNL     1      57.032  67.255  57.798  1.00  0.00     0.210 HD
ENDBRANCH   6  13
BRANCH   5  15
HETATM   15  O2  UNL     1      56.165  66.263  61.842  1.00  0.00    -0.391 OA
ATOM     16  H2  UNL     1      56.710  66.734  62.461  1.00  0.00     0.210 HD
ENDBRANCH   5  15
TORSDOF 5
ENDMDL
