MODEL 2
REMARK VINA RESULT: -7.290683467      3.361      4.827
REMARK  5 active torsions:
REMARK  status: ('A' for Active; 'I' for Inactive)
REMARK    1  A    between atoms: C4_5  and  N2_6 
REMARK    2  A    between atoms: N2_6  and  N3_8 
REMARK    3  A    between atoms: N3_8  and  C5_10 
REMARK    4  A    between atoms: C8_13  and  S1_14 
REMARK    5  A    between atoms: S1_14  and  N4_15 
ROOT
HETATM    1  C5  UNL     1      16.556   5.687  14.508  1.00  0.00     0.048 A 
HETATM    2  C6  UNL     1      15.228   5.577  14.874  1.00  0.00     0.032 A 
HETATM    3  C7  UNL     1      14.811   4.459  15.562  1.00  0.00     0.027 A 
HETATM    4  C8  UNL     1      15.665   3.441  15.901  1.00  0.00     0.079 A 
HETATM    5  C9  UNL     1      16.993   3.552  15.536  1.00  0.00     0.027 A 
HETATM    6  C10 UNL     1      17.427   4.678  14.840  1.00  0.00     0.032 A 
ENDROOT
BRANCH   1   7
HETATM    7  N3  UNL     1      17.004   6.813  13.778  1.00  0.00    -0.300 N 
ATOM      8  H3  UNL     1      16.342   7.466  13.360  1.00  0.00     0.187 HD
BRANCH   7   9
HETATM    9  N2  UNL     1      18.386   7.005  13.646  1.00  0.00    -0.300 N 
ATOM     10  H2  UNL     1      18.929   6.237  13.252  1.00  0.00     0.187 HD
BRANCH   9  11
HETATM   11  C4  UNL     1      19.084   8.166  14.012  1.00  0.00     0.048 A 
HETATM   12  C3  UNL     1      18.806   8.844  15.193  1.00  0.00     0.033 A 
HETATM   13  C2  UNL     1      19.499   9.975  15.559  1.00  0.00     0.029 A 
HETATM   14  C1  UNL     1      20.503  10.475  14.757  1.00  0.00     0.046 A 
HETATM   15  N1  UNL     1      21.199  11.638  15.174  1.00  0.00    -0.102 NA
HETATM   16  C12 UNL     1      20.802   9.833  13.587  1.00  0.00     0.029 A 
HETATM   17  C11 UNL     1      20.090   8.688  13.230  1.00  0.00     0.033 A 
ENDBRANCH   9  11
ENDBRANCH   7   9
ENDBRANCH   1   7
BRANCH   4  18
HETATM   18  S1  UNL     1      15.127   2.024  16.731  1.00  0.00     0.256 S 
HETATM   19  O1  UNL     1      15.673   2.061  18.144  1.00  0.00    -0.201 OA
HETATM   20  O2  UNL     1      15.663   0.767  16.107  1.00  0.00    -0.201 OA
BRANCH  18  21
HETATM   21  N4  UNL     1      13.435   1.919  16.847  1.00  0.00    -0.324 N 
ATOM     22  H42 UNL     1      12.935   2.069  17.722  1.00  0.00     0.169 HD
ATOM     23  H41 UNL     1      12.985   1.694  15.959  1.00  0.00     0.169 HD
ENDBRANCH  18  21
ENDBRANCH   4  18
TORSDOF 5
ENDMDL
