MODEL 9
REMARK VINA RESULT: -6.963567607      3.100      4.296
REMARK  5 active torsions:
REMARK  status: ('A' for Active; 'I' for Inactive)
REMARK    1  A    between atoms: C4_5  and  N2_6 
REMARK    2  A    between atoms: N2_6  and  N3_8 
REMARK    3  A    between atoms: N3_8  and  C5_10 
REMARK    4  A    between atoms: C8_13  and  S1_14 
REMARK    5  A    between atoms: S1_14  and  N4_15 
ROOT
HETATM    1  C5  UNL     1      16.247   5.752  13.457  1.00  0.00     0.048 A 
HETATM    2  C6  UNL     1      16.937   4.688  12.908  1.00  0.00     0.032 A 
HETATM    3  C7  UNL     1      16.927   3.473  13.559  1.00  0.00     0.027 A 
HETATM    4  C8  UNL     1      16.256   3.274  14.739  1.00  0.00     0.079 A 
HETATM    5  C9  UNL     1      15.565   4.338  15.286  1.00  0.00     0.027 A 
HETATM    6  C10 UNL     1      15.568   5.571  14.637  1.00  0.00     0.032 A 
ENDROOT
BRANCH   1   7
HETATM    7  N3  UNL     1      16.263   7.016  12.822  1.00  0.00    -0.300 N 
ATOM      8  H3  UNL     1      15.404   7.549  12.691  1.00  0.00     0.187 HD
BRANCH   7   9
HETATM    9  N2  UNL     1      17.496   7.513  12.377  1.00  0.00    -0.300 N 
ATOM     10  H2  UNL     1      17.821   7.206  11.460  1.00  0.00     0.187 HD
BRANCH   9  11
HETATM   11  C4  UNL     1      18.319   8.399  13.089  1.00  0.00     0.048 A 
HETATM   12  C3  UNL     1      18.911   9.498  12.478  1.00  0.00     0.033 A 
HETATM   13  C2  UNL     1      19.707  10.374  13.178  1.00  0.00     0.029 A 
HETATM   14  C1  UNL     1      19.944  10.188  14.523  1.00  0.00     0.046 A 
HETATM   15  N1  UNL     1      20.764  11.119  15.211  1.00  0.00    -0.102 NA
HETATM   16  C12 UNL     1      19.377   9.116  15.156  1.00  0.00     0.029 A 
HETATM   17  C11 UNL     1      18.573   8.236  14.432  1.00  0.00     0.033 A 
ENDBRANCH   9  11
ENDBRANCH   7   9
ENDBRANCH   1   7
BRANCH   4  18
HETATM   18  S1  UNL     1      16.279   1.759  15.569  1.00  0.00     0.256 S 
HETATM   19  O1  UNL     1      17.576   1.660  16.348  1.00  0.00    -0.201 OA
HETATM   20  O2  UNL     1      16.272   0.596  14.619  1.00  0.00    -0.201 OA
BRANCH  18  21
HETATM   21  N4  UNL     1      15.008   1.587  16.682  1.00  0.00    -0.324 N 
ATOM     22  H42 UNL     1      14.048   1.854  16.465  1.00  0.00     0.169 HD
ATOM     23  H41 UNL     1      15.307   1.194  17.575  1.00  0.00     0.169 HD
ENDBRANCH  18  21
ENDBRANCH   4  18
TORSDOF 5
ENDMDL
