MODEL 14
REMARK VINA RESULT: -6.650120954      4.907      7.287
REMARK  5 active torsions:
REMARK  status: ('A' for Active; 'I' for Inactive)
REMARK    1  A    between atoms: C4_5  and  N2_6 
REMARK    2  A    between atoms: N2_6  and  N3_8 
REMARK    3  A    between atoms: N3_8  and  C5_10 
REMARK    4  A    between atoms: C8_13  and  S1_14 
REMARK    5  A    between atoms: S1_14  and  N4_15 
ROOT
HETATM    1  C5  UNL     1      17.418   6.376  14.011  1.00  0.00     0.048 A 
HETATM    2  C6  UNL     1      18.505   5.589  14.339  1.00  0.00     0.032 A 
HETATM    3  C7  UNL     1      19.591   5.557  13.492  1.00  0.00     0.027 A 
HETATM    4  C8  UNL     1      19.639   6.278  12.326  1.00  0.00     0.079 A 
HETATM    5  C9  UNL     1      18.553   7.066  12.000  1.00  0.00     0.027 A 
HETATM    6  C10 UNL     1      17.448   7.107  12.848  1.00  0.00     0.032 A 
ENDROOT
BRANCH   1   7
HETATM    7  N3  UNL     1      16.280   6.406  14.851  1.00  0.00    -0.300 N 
ATOM      8  H3  UNL     1      16.177   7.120  15.571  1.00  0.00     0.187 HD
BRANCH   7   9
HETATM    9  N2  UNL     1      15.298   5.423  14.664  1.00  0.00    -0.300 N 
ATOM     10  H2  UNL     1      14.568   5.615  13.978  1.00  0.00     0.187 HD
BRANCH   9  11
HETATM   11  C4  UNL     1      15.236   4.196  15.344  1.00  0.00     0.048 A 
HETATM   12  C3  UNL     1      16.052   3.126  14.996  1.00  0.00     0.033 A 
HETATM   13  C2  UNL     1      16.001   1.928  15.671  1.00  0.00     0.029 A 
HETATM   14  C1  UNL     1      15.131   1.751  16.725  1.00  0.00     0.046 A 
HETATM   15  N1  UNL     1      15.115   0.504  17.400  1.00  0.00    -0.102 NA
HETATM   16  C12 UNL     1      14.313   2.784  17.093  1.00  0.00     0.029 A 
HETATM   17  C11 UNL     1      14.376   3.992  16.399  1.00  0.00     0.033 A 
ENDBRANCH   9  11
ENDBRANCH   7   9
ENDBRANCH   1   7
BRANCH   4  18
HETATM   18  S1  UNL     1      20.989   6.204  11.250  1.00  0.00     0.256 S 
HETATM   19  O1  UNL     1      21.992   7.260  11.668  1.00  0.00    -0.201 OA
HETATM   20  O2  UNL     1      20.602   6.530   9.837  1.00  0.00    -0.201 OA
BRANCH  18  21
HETATM   21  N4  UNL     1      21.790   4.706  11.285  1.00  0.00    -0.324 N 
ATOM     22  H42 UNL     1      21.876   4.110  10.463  1.00  0.00     0.169 HD
ATOM     23  H41 UNL     1      22.170   4.476  12.204  1.00  0.00     0.169 HD
ENDBRANCH  18  21
ENDBRANCH   4  18
TORSDOF 5
ENDMDL
