MODEL 15
REMARK VINA RESULT: -6.649794221      2.685      3.871
REMARK  5 active torsions:
REMARK  status: ('A' for Active; 'I' for Inactive)
REMARK    1  A    between atoms: C4_5  and  N2_6 
REMARK    2  A    between atoms: N2_6  and  N3_8 
REMARK    3  A    between atoms: N3_8  and  C5_10 
REMARK    4  A    between atoms: C8_13  and  S1_14 
REMARK    5  A    between atoms: S1_14  and  N4_15 
ROOT
HETATM    1  C5  UNL     1      16.263   4.659  13.824  1.00  0.00     0.048 A 
HETATM    2  C6  UNL     1      15.277   5.149  14.659  1.00  0.00     0.032 A 
HETATM    3  C7  UNL     1      14.851   4.379  15.719  1.00  0.00     0.027 A 
HETATM    4  C8  UNL     1      15.367   3.137  15.984  1.00  0.00     0.079 A 
HETATM    5  C9  UNL     1      16.355   2.648  15.150  1.00  0.00     0.027 A 
HETATM    6  C10 UNL     1      16.794   3.416  14.075  1.00  0.00     0.032 A 
ENDROOT
BRANCH   1   7
HETATM    7  N3  UNL     1      16.700   5.418  12.713  1.00  0.00    -0.300 N 
ATOM      8  H3  UNL     1      17.093   4.964  11.888  1.00  0.00     0.187 HD
BRANCH   7   9
HETATM    9  N2  UNL     1      16.577   6.812  12.780  1.00  0.00    -0.300 N 
ATOM     10  H2  UNL     1      15.658   7.210  12.592  1.00  0.00     0.187 HD
BRANCH   9  11
HETATM   11  C4  UNL     1      17.617   7.706  13.083  1.00  0.00     0.048 A 
HETATM   12  C3  UNL     1      18.078   8.632  12.156  1.00  0.00     0.033 A 
HETATM   13  C2  UNL     1      19.088   9.517  12.458  1.00  0.00     0.029 A 
HETATM   14  C1  UNL     1      19.678   9.513  13.704  1.00  0.00     0.046 A 
HETATM   15  N1  UNL     1      20.710  10.446  13.978  1.00  0.00    -0.102 NA
HETATM   16  C12 UNL     1      19.248   8.613  14.640  1.00  0.00     0.029 A 
HETATM   17  C11 UNL     1      18.224   7.722  14.319  1.00  0.00     0.033 A 
ENDBRANCH   9  11
ENDBRANCH   7   9
ENDBRANCH   1   7
BRANCH   4  18
HETATM   18  S1  UNL     1      14.801   2.162  17.293  1.00  0.00     0.256 S 
HETATM   19  O1  UNL     1      15.726   0.970  17.436  1.00  0.00    -0.201 OA
HETATM   20  O2  UNL     1      13.433   1.602  17.029  1.00  0.00    -0.201 OA
BRANCH  18  21
HETATM   21  N4  UNL     1      14.799   2.979  18.783  1.00  0.00    -0.324 N 
ATOM     22  H42 UNL     1      13.947   3.349  19.205  1.00  0.00     0.169 HD
ATOM     23  H41 UNL     1      15.727   3.057  19.199  1.00  0.00     0.169 HD
ENDBRANCH  18  21
ENDBRANCH   4  18
TORSDOF 5
ENDMDL
