MODEL 6
REMARK VINA RESULT: -7.201003087      3.210      4.461
REMARK  5 active torsions:
REMARK  status: ('A' for Active; 'I' for Inactive)
REMARK    1  A    between atoms: C4_5  and  N2_6 
REMARK    2  A    between atoms: N2_6  and  N3_8 
REMARK    3  A    between atoms: N3_8  and  C5_10 
REMARK    4  A    between atoms: C8_13  and  S1_14 
REMARK    5  A    between atoms: S1_14  and  N4_15 
ROOT
HETATM    1  C5  UNL     1      16.481   5.656  14.375  1.00  0.00     0.048 A 
HETATM    2  C6  UNL     1      17.391   4.679  14.731  1.00  0.00     0.032 A 
HETATM    3  C7  UNL     1      16.973   3.626  15.515  1.00  0.00     0.027 A 
HETATM    4  C8  UNL     1      15.683   3.506  15.963  1.00  0.00     0.079 A 
HETATM    5  C9  UNL     1      14.773   4.482  15.606  1.00  0.00     0.027 A 
HETATM    6  C10 UNL     1      15.183   5.552  14.813  1.00  0.00     0.032 A 
ENDROOT
BRANCH   1   7
HETATM    7  N3  UNL     1      16.890   6.761  13.592  1.00  0.00    -0.300 N 
ATOM      8  H3  UNL     1      16.206   7.385  13.165  1.00  0.00     0.187 HD
BRANCH   7   9
HETATM    9  N2  UNL     1      18.265   6.973  13.421  1.00  0.00    -0.300 N 
ATOM     10  H2  UNL     1      18.788   6.261  12.912  1.00  0.00     0.187 HD
BRANCH   9  11
HETATM   11  C4  UNL     1      18.980   8.085  13.892  1.00  0.00     0.048 A 
HETATM   12  C3  UNL     1      20.011   8.657  13.156  1.00  0.00     0.033 A 
HETATM   13  C2  UNL     1      20.704   9.754  13.611  1.00  0.00     0.029 A 
HETATM   14  C1  UNL     1      20.392  10.329  14.825  1.00  0.00     0.046 A 
HETATM   15  N1  UNL     1      21.124  11.465  15.255  1.00  0.00    -0.102 NA
HETATM   16  C12 UNL     1      19.383   9.791  15.576  1.00  0.00     0.029 A 
HETATM   17  C11 UNL     1      18.691   8.677  15.101  1.00  0.00     0.033 A 
ENDBRANCH   9  11
ENDBRANCH   7   9
ENDBRANCH   1   7
BRANCH   4  18
HETATM   18  S1  UNL     1      15.176   2.202  16.978  1.00  0.00     0.256 S 
HETATM   19  O1  UNL     1      16.286   1.172  17.023  1.00  0.00    -0.201 OA
HETATM   20  O2  UNL     1      13.971   1.495  16.428  1.00  0.00    -0.201 OA
BRANCH  18  21
HETATM   21  N4  UNL     1      14.868   2.682  18.579  1.00  0.00    -0.324 N 
ATOM     22  H42 UNL     1      14.343   3.525  18.807  1.00  0.00     0.169 HD
ATOM     23  H41 UNL     1      15.259   2.044  19.271  1.00  0.00     0.169 HD
ENDBRANCH  18  21
ENDBRANCH   4  18
TORSDOF 5
ENDMDL
