MODEL 5
REMARK VINA RESULT: -7.202528397      3.214      4.578
REMARK  5 active torsions:
REMARK  status: ('A' for Active; 'I' for Inactive)
REMARK    1  A    between atoms: C4_5  and  N2_6 
REMARK    2  A    between atoms: N2_6  and  N3_8 
REMARK    3  A    between atoms: N3_8  and  C5_10 
REMARK    4  A    between atoms: C8_13  and  S1_14 
REMARK    5  A    between atoms: S1_14  and  N4_15 
ROOT
HETATM    1  C5  UNL     1      16.476   5.655  14.382  1.00  0.00     0.048 A 
HETATM    2  C6  UNL     1      17.383   4.673  14.730  1.00  0.00     0.032 A 
HETATM    3  C7  UNL     1      16.965   3.619  15.513  1.00  0.00     0.027 A 
HETATM    4  C8  UNL     1      15.676   3.503  15.966  1.00  0.00     0.079 A 
HETATM    5  C9  UNL     1      14.769   4.484  15.616  1.00  0.00     0.027 A 
HETATM    6  C10 UNL     1      15.179   5.555  14.826  1.00  0.00     0.032 A 
ENDROOT
BRANCH   1   7
HETATM    7  N3  UNL     1      16.887   6.761  13.602  1.00  0.00    -0.300 N 
ATOM      8  H3  UNL     1      16.203   7.387  13.177  1.00  0.00     0.187 HD
BRANCH   7   9
HETATM    9  N2  UNL     1      18.261   6.970  13.428  1.00  0.00    -0.300 N 
ATOM     10  H2  UNL     1      18.786   6.249  12.935  1.00  0.00     0.187 HD
BRANCH   9  11
HETATM   11  C4  UNL     1      18.975   8.092  13.879  1.00  0.00     0.048 A 
HETATM   12  C3  UNL     1      18.699   8.692  15.101  1.00  0.00     0.033 A 
HETATM   13  C2  UNL     1      19.408   9.783  15.549  1.00  0.00     0.029 A 
HETATM   14  C1  UNL     1      20.426  10.320  14.790  1.00  0.00     0.046 A 
HETATM   15  N1  UNL     1      21.138  11.440  15.290  1.00  0.00    -0.102 NA
HETATM   16  C12 UNL     1      20.724   9.754  13.581  1.00  0.00     0.029 A 
HETATM   17  C11 UNL     1      19.996   8.649  13.141  1.00  0.00     0.033 A 
ENDBRANCH   9  11
ENDBRANCH   7   9
ENDBRANCH   1   7
BRANCH   4  18
HETATM   18  S1  UNL     1      15.168   2.198  16.979  1.00  0.00     0.256 S 
HETATM   19  O1  UNL     1      16.273   1.161  17.014  1.00  0.00    -0.201 OA
HETATM   20  O2  UNL     1      13.956   1.499  16.432  1.00  0.00    -0.201 OA
BRANCH  18  21
HETATM   21  N4  UNL     1      14.871   2.673  18.583  1.00  0.00    -0.324 N 
ATOM     22  H42 UNL     1      15.612   2.986  19.208  1.00  0.00     0.169 HD
ATOM     23  H41 UNL     1      13.887   2.611  18.844  1.00  0.00     0.169 HD
ENDBRANCH  18  21
ENDBRANCH   4  18
TORSDOF 5
ENDMDL
