MODEL 7
REMARK VINA RESULT: -7.165251793      1.433      1.985
REMARK  5 active torsions:
REMARK  status: ('A' for Active; 'I' for Inactive)
REMARK    1  A    between atoms: C4_5  and  N2_6 
REMARK    2  A    between atoms: N2_6  and  N3_8 
REMARK    3  A    between atoms: N3_8  and  C5_10 
REMARK    4  A    between atoms: C8_13  and  S1_14 
REMARK    5  A    between atoms: S1_14  and  N4_15 
ROOT
HETATM    1  C5  UNL     1      17.158   5.369  12.806  1.00  0.00     0.048 A 
HETATM    2  C6  UNL     1      16.878   4.146  12.227  1.00  0.00     0.032 A 
HETATM    3  C7  UNL     1      16.619   3.062  13.038  1.00  0.00     0.027 A 
HETATM    4  C8  UNL     1      16.630   3.146  14.407  1.00  0.00     0.079 A 
HETATM    5  C9  UNL     1      16.908   4.370  14.985  1.00  0.00     0.027 A 
HETATM    6  C10 UNL     1      17.171   5.473  14.176  1.00  0.00     0.032 A 
ENDROOT
BRANCH   1   7
HETATM    7  N3  UNL     1      17.452   6.490  11.995  1.00  0.00    -0.300 N 
ATOM      8  H3  UNL     1      18.260   6.492  11.374  1.00  0.00     0.187 HD
BRANCH   7   9
HETATM    9  N2  UNL     1      16.599   7.600  12.073  1.00  0.00    -0.300 N 
ATOM     10  H2  UNL     1      16.750   8.253  12.841  1.00  0.00     0.187 HD
BRANCH   9  11
HETATM   11  C4  UNL     1      15.555   7.886  11.180  1.00  0.00     0.048 A 
HETATM   12  C3  UNL     1      14.565   8.813  11.486  1.00  0.00     0.033 A 
HETATM   13  C2  UNL     1      13.548   9.103  10.606  1.00  0.00     0.029 A 
HETATM   14  C1  UNL     1      13.480   8.478   9.378  1.00  0.00     0.046 A 
HETATM   15  N1  UNL     1      12.422   8.812   8.496  1.00  0.00    -0.102 NA
HETATM   16  C12 UNL     1      14.439   7.561   9.046  1.00  0.00     0.029 A 
HETATM   17  C11 UNL     1      15.462   7.276   9.949  1.00  0.00     0.033 A 
ENDBRANCH   9  11
ENDBRANCH   7   9
ENDBRANCH   1   7
BRANCH   4  18
HETATM   18  S1  UNL     1      16.342   1.774  15.417  1.00  0.00     0.256 S 
HETATM   19  O1  UNL     1      17.519   1.620  16.360  1.00  0.00    -0.201 OA
HETATM   20  O2  UNL     1      16.268   0.499  14.629  1.00  0.00    -0.201 OA
BRANCH  18  21
HETATM   21  N4  UNL     1      14.947   1.930  16.374  1.00  0.00    -0.324 N 
ATOM     22  H42 UNL     1      14.172   1.268  16.326  1.00  0.00     0.169 HD
ATOM     23  H41 UNL     1      14.971   2.743  16.990  1.00  0.00     0.169 HD
ENDBRANCH  18  21
ENDBRANCH   4  18
TORSDOF 5
ENDMDL
