MODEL 8
REMARK VINA RESULT: -7.116223722      1.458      2.060
REMARK  5 active torsions:
REMARK  status: ('A' for Active; 'I' for Inactive)
REMARK    1  A    between atoms: C4_5  and  N2_6 
REMARK    2  A    between atoms: N2_6  and  N3_8 
REMARK    3  A    between atoms: N3_8  and  C5_10 
REMARK    4  A    between atoms: C8_13  and  S1_14 
REMARK    5  A    between atoms: S1_14  and  N4_15 
ROOT
HETATM    1  C5  UNL     1      17.148   5.292  12.697  1.00  0.00     0.048 A 
HETATM    2  C6  UNL     1      17.194   5.456  14.068  1.00  0.00     0.032 A 
HETATM    3  C7  UNL     1      16.960   4.369  14.882  1.00  0.00     0.027 A 
HETATM    4  C8  UNL     1      16.680   3.122  14.386  1.00  0.00     0.079 A 
HETATM    5  C9  UNL     1      16.637   2.958  13.015  1.00  0.00     0.027 A 
HETATM    6  C10 UNL     1      16.871   4.049  12.181  1.00  0.00     0.032 A 
ENDROOT
BRANCH   1   7
HETATM    7  N3  UNL     1      17.358   6.397  11.839  1.00  0.00    -0.300 N 
ATOM      8  H3  UNL     1      18.103   6.387  11.142  1.00  0.00     0.187 HD
BRANCH   7   9
HETATM    9  N2  UNL     1      16.514   7.507  11.976  1.00  0.00    -0.300 N 
ATOM     10  H2  UNL     1      16.665   8.113  12.782  1.00  0.00     0.187 HD
BRANCH   9  11
HETATM   11  C4  UNL     1      15.477   7.853  11.095  1.00  0.00     0.048 A 
HETATM   12  C3  UNL     1      14.500   8.778  11.443  1.00  0.00     0.033 A 
HETATM   13  C2  UNL     1      13.492   9.127  10.575  1.00  0.00     0.029 A 
HETATM   14  C1  UNL     1      13.419   8.565   9.319  1.00  0.00     0.046 A 
HETATM   15  N1  UNL     1      12.369   8.958   8.451  1.00  0.00    -0.102 NA
HETATM   16  C12 UNL     1      14.364   7.650   8.944  1.00  0.00     0.029 A 
HETATM   17  C11 UNL     1      15.380   7.306   9.835  1.00  0.00     0.033 A 
ENDBRANCH   9  11
ENDBRANCH   7   9
ENDBRANCH   1   7
BRANCH   4  18
HETATM   18  S1  UNL     1      16.351   1.772  15.414  1.00  0.00     0.256 S 
HETATM   19  O1  UNL     1      17.522   1.595  16.360  1.00  0.00    -0.201 OA
HETATM   20  O2  UNL     1      16.238   0.490  14.641  1.00  0.00    -0.201 OA
BRANCH  18  21
HETATM   21  N4  UNL     1      14.960   1.982  16.367  1.00  0.00    -0.324 N 
ATOM     22  H42 UNL     1      14.359   2.802  16.289  1.00  0.00     0.169 HD
ATOM     23  H41 UNL     1      14.798   1.210  17.015  1.00  0.00     0.169 HD
ENDBRANCH  18  21
ENDBRANCH   4  18
TORSDOF 5
ENDMDL
