MODEL 12
REMARK VINA RESULT: -8.204937889      2.025      3.020
REMARK  10 active torsions:
REMARK  status: ('A' for Active; 'I' for Inactive)
REMARK    1  A    between atoms: N5_13  and  C6_14 
REMARK    2  A    between atoms: C7_16  and  C8_17 
REMARK    3  A    between atoms: C8_17  and  O2_18 
REMARK    4  A    between atoms: O2_18  and  P1_19 
REMARK    5  A    between atoms: P1_19  and  O5_22 
REMARK    6  A    between atoms: O5_22  and  P2_23 
REMARK    7  A    between atoms: P2_23  and  O8_26 
REMARK    8  A    between atoms: O8_26  and  P3_27 
REMARK    9  A    between atoms: C9_31  and  O11_32 
REMARK   10  A    between atoms: C10_34  and  O12_35 
ROOT
HETATM    1  C6  UNL     1      28.995  -9.090  50.274  1.00  0.00     0.262 C 
HETATM    2  O1  UNL     1      30.202  -8.797  49.681  1.00  0.00    -0.353 OA
HETATM    3  C7  UNL     1      30.294  -9.462  48.491  1.00  0.00     0.180 C 
HETATM    4  C9  UNL     1      28.931 -10.044  48.177  1.00  0.00     0.182 C 
HETATM    5  C10 UNL     1      28.061  -9.159  49.083  1.00  0.00     0.198 C 
ENDROOT
BRANCH   3   6
HETATM    6  C8  UNL     1      30.672  -8.553  47.341  1.00  0.00     0.216 C 
BRANCH   6   7
HETATM    7  O2  UNL     1      30.450  -7.210  47.667  1.00  0.00    -0.287 OA
BRANCH   7   8
HETATM    8  P1  UNL     1      29.396  -6.467  46.603  1.00  0.00     0.417 P 
HETATM    9  O3  UNL     1      28.392  -7.527  46.139  1.00  0.00    -0.624 OA
HETATM   10  O4  UNL     1      28.476  -5.277  47.395  1.00  0.00    -0.624 OA
BRANCH   8  11
HETATM   11  O5  UNL     1      30.193  -5.835  45.253  1.00  0.00    -0.180 OA
BRANCH  11  12
HETATM   12  P2  UNL     1      31.542  -4.966  45.756  1.00  0.00     0.426 P 
HETATM   13  O6  UNL     1      31.265  -4.387  47.124  1.00  0.00    -0.624 OA
HETATM   14  O7  UNL     1      32.860  -6.021  45.793  1.00  0.00    -0.624 OA
BRANCH  12  15
HETATM   15  O8  UNL     1      31.879  -3.672  44.722  1.00  0.00    -0.191 OA
BRANCH  15  16
HETATM   16  P3  UNL     1      31.327  -3.957  43.162  1.00  0.00     0.358 P 
HETATM   17  O9  UNL     1      29.701  -3.521  43.082  1.00  0.00    -0.635 OA
HETATM   18  O10 UNL     1      31.529  -5.597  42.717  1.00  0.00    -0.635 OA
HETATM   19  S1  UNL     1      32.180  -2.941  42.032  1.00  0.00     0.013 SA
ENDBRANCH  15  16
ENDBRANCH  12  15
ENDBRANCH  11  12
ENDBRANCH   8  11
ENDBRANCH   7   8
ENDBRANCH   6   7
ENDBRANCH   3   6
BRANCH   4  20
HETATM   20  O11 UNL     1      28.818 -11.340  48.683  1.00  0.00    -0.390 OA
ATOM     21  H11 UNL     1      28.890 -11.338  49.631  1.00  0.00     0.210 HD
ENDBRANCH   4  20
BRANCH   1  22
HETATM   22  N5  UNL     1      28.602  -8.089  51.231  1.00  0.00    -0.297 N 
HETATM   23  C3  UNL     1      28.919  -6.793  51.147  1.00  0.00     0.142 A 
HETATM   24  N3  UNL     1      29.612  -6.033  50.284  1.00  0.00    -0.336 N 
HETATM   25  C4  UNL     1      28.374  -6.118  52.243  1.00  0.00     0.119 A 
HETATM   26  C2  UNL     1      29.775  -4.710  50.456  1.00  0.00     0.183 A 
ATOM     27  H3  UNL     1      30.031  -6.478  49.466  1.00  0.00     0.168 HD
HETATM   28  N2  UNL     1      29.232  -4.075  51.533  1.00  0.00    -0.339 N 
HETATM   29  C1  UNL     1      28.535  -4.763  52.427  1.00  0.00     0.148 A 
ATOM     30  H2  UNL     1      29.363  -3.070  51.652  1.00  0.00     0.167 HD
HETATM   31  N1  UNL     1      27.953  -4.116  53.570  1.00  0.00    -0.080 NA
HETATM   32  N4  UNL     1      27.739  -7.054  52.953  1.00  0.00    -0.346 N 
HETATM   33  C5  UNL     1      27.874  -8.243  52.349  1.00  0.00     0.188 A 
ATOM     34  H4  UNL     1      27.230  -6.889  53.822  1.00  0.00     0.167 HD
ENDBRANCH   1  22
BRANCH   5  35
HETATM   35  O12 UNL     1      26.862  -9.794  49.384  1.00  0.00    -0.388 OA
ATOM     36  H12 UNL     1      26.677  -9.799  50.315  1.00  0.00     0.210 HD
ENDBRANCH   5  35
TORSDOF 10
ENDMDL
