MODEL 20
REMARK VINA RESULT: -7.696185371      2.760      4.033
REMARK  10 active torsions:
REMARK  status: ('A' for Active; 'I' for Inactive)
REMARK    1  A    between atoms: N5_13  and  C6_14 
REMARK    2  A    between atoms: C7_16  and  C8_17 
REMARK    3  A    between atoms: C8_17  and  O2_18 
REMARK    4  A    between atoms: O2_18  and  P1_19 
REMARK    5  A    between atoms: P1_19  and  O5_22 
REMARK    6  A    between atoms: O5_22  and  P2_23 
REMARK    7  A    between atoms: P2_23  and  O8_26 
REMARK    8  A    between atoms: O8_26  and  P3_27 
REMARK    9  A    between atoms: C9_31  and  O11_32 
REMARK   10  A    between atoms: C10_34  and  O12_35 
ROOT
HETATM    1  C6  UNL     1      29.268  -9.031  50.031  1.00  0.00     0.262 C 
HETATM    2  O1  UNL     1      30.438  -8.882  49.321  1.00  0.00    -0.353 OA
HETATM    3  C7  UNL     1      30.363  -9.613  48.169  1.00  0.00     0.180 C 
HETATM    4  C9  UNL     1      28.930 -10.080  48.007  1.00  0.00     0.182 C 
HETATM    5  C10 UNL     1      28.227  -9.073  48.931  1.00  0.00     0.198 C 
ENDROOT
BRANCH   3   6
HETATM    6  C8  UNL     1      30.714  -8.802  46.939  1.00  0.00     0.216 C 
BRANCH   6   7
HETATM    7  O2  UNL     1      29.583  -8.163  46.418  1.00  0.00    -0.287 OA
BRANCH   7   8
HETATM    8  P1  UNL     1      29.792  -6.509  46.294  1.00  0.00     0.417 P 
HETATM    9  O3  UNL     1      28.401  -5.870  46.305  1.00  0.00    -0.624 OA
HETATM   10  O4  UNL     1      30.592  -5.896  47.662  1.00  0.00    -0.624 OA
BRANCH   8  11
HETATM   11  O5  UNL     1      30.587  -6.073  44.866  1.00  0.00    -0.180 OA
BRANCH  11  12
HETATM   12  P2  UNL     1      31.904  -5.096  45.237  1.00  0.00     0.426 P 
HETATM   13  O6  UNL     1      31.437  -3.965  46.125  1.00  0.00    -0.624 OA
HETATM   14  O7  UNL     1      33.060  -6.049  46.016  1.00  0.00    -0.624 OA
BRANCH  12  15
HETATM   15  O8  UNL     1      32.581  -4.399  43.853  1.00  0.00    -0.191 OA
BRANCH  15  16
HETATM   16  P3  UNL     1      31.413  -4.031  42.703  1.00  0.00     0.358 P 
HETATM   17  O9  UNL     1      30.139  -3.238  43.469  1.00  0.00    -0.635 OA
HETATM   18  O10 UNL     1      30.852  -5.439  41.910  1.00  0.00    -0.635 OA
HETATM   19  S1  UNL     1      32.065  -2.924  41.525  1.00  0.00     0.013 SA
ENDBRANCH  15  16
ENDBRANCH  12  15
ENDBRANCH  11  12
ENDBRANCH   8  11
ENDBRANCH   7   8
ENDBRANCH   6   7
ENDBRANCH   3   6
BRANCH   4  20
HETATM   20  O11 UNL     1      28.750 -11.332  48.597  1.00  0.00    -0.390 OA
ATOM     21  H11 UNL     1      28.019 -11.316  49.204  1.00  0.00     0.210 HD
ENDBRANCH   4  20
BRANCH   1  22
HETATM   22  N5  UNL     1      29.053  -7.950  50.958  1.00  0.00    -0.297 N 
HETATM   23  C3  UNL     1      28.272  -8.022  52.040  1.00  0.00     0.142 A 
HETATM   24  N3  UNL     1      27.506  -8.971  52.602  1.00  0.00    -0.336 N 
HETATM   25  C4  UNL     1      28.298  -6.793  52.704  1.00  0.00     0.119 A 
HETATM   26  C2  UNL     1      26.806  -8.758  53.731  1.00  0.00     0.183 A 
ATOM     27  H3  UNL     1      27.453  -9.887  52.157  1.00  0.00     0.168 HD
HETATM   28  N2  UNL     1      26.848  -7.550  54.360  1.00  0.00    -0.339 N 
HETATM   29  C1  UNL     1      27.585  -6.567  53.860  1.00  0.00     0.148 A 
ATOM     30  H2  UNL     1      26.313  -7.402  55.216  1.00  0.00     0.167 HD
HETATM   31  N1  UNL     1      27.646  -5.285  54.506  1.00  0.00    -0.080 NA
HETATM   32  N4  UNL     1      29.108  -6.018  51.980  1.00  0.00    -0.346 N 
HETATM   33  C5  UNL     1      29.566  -6.709  50.926  1.00  0.00     0.188 A 
ATOM     34  H4  UNL     1      29.344  -5.049  52.196  1.00  0.00     0.167 HD
ENDBRANCH   1  22
BRANCH   5  35
HETATM   35  O12 UNL     1      27.010  -9.578  49.369  1.00  0.00    -0.388 OA
ATOM     36  H12 UNL     1      27.080 -10.018  50.208  1.00  0.00     0.210 HD
ENDBRANCH   5  35
TORSDOF 10
ENDMDL
