MODEL 6
REMARK VINA RESULT: -8.392967669      1.534      2.636
REMARK  10 active torsions:
REMARK  status: ('A' for Active; 'I' for Inactive)
REMARK    1  A    between atoms: N5_13  and  C6_14 
REMARK    2  A    between atoms: C7_16  and  C8_17 
REMARK    3  A    between atoms: C8_17  and  O2_18 
REMARK    4  A    between atoms: O2_18  and  P1_19 
REMARK    5  A    between atoms: P1_19  and  O5_22 
REMARK    6  A    between atoms: O5_22  and  P2_23 
REMARK    7  A    between atoms: P2_23  and  O8_26 
REMARK    8  A    between atoms: O8_26  and  P3_27 
REMARK    9  A    between atoms: C9_31  and  O11_32 
REMARK   10  A    between atoms: C10_34  and  O12_35 
ROOT
HETATM    1  C6  UNL     1      29.447  -6.497  49.732  1.00  0.00     0.262 C 
HETATM    2  O1  UNL     1      29.944  -7.027  48.563  1.00  0.00    -0.353 OA
HETATM    3  C7  UNL     1      29.334  -8.223  48.313  1.00  0.00     0.180 C 
HETATM    4  C9  UNL     1      28.173  -8.363  49.278  1.00  0.00     0.182 C 
HETATM    5  C10 UNL     1      27.985  -6.889  49.666  1.00  0.00     0.198 C 
ENDROOT
BRANCH   3   6
HETATM    6  C8  UNL     1      28.769  -8.311  46.912  1.00  0.00     0.216 C 
BRANCH   6   7
HETATM    7  O2  UNL     1      29.791  -8.439  45.964  1.00  0.00    -0.287 OA
BRANCH   7   8
HETATM    8  P1  UNL     1      30.299  -6.958  45.379  1.00  0.00     0.417 P 
HETATM    9  O3  UNL     1      30.294  -7.045  43.850  1.00  0.00    -0.624 OA
HETATM   10  O4  UNL     1      29.185  -5.737  45.774  1.00  0.00    -0.624 OA
BRANCH   8  11
HETATM   11  O5  UNL     1      31.858  -6.565  45.903  1.00  0.00    -0.180 OA
BRANCH  11  12
HETATM   12  P2  UNL     1      32.287  -5.056  45.299  1.00  0.00     0.426 P 
HETATM   13  O6  UNL     1      31.387  -4.011  45.916  1.00  0.00    -0.624 OA
HETATM   14  O7  UNL     1      33.907  -4.778  45.689  1.00  0.00    -0.624 OA
BRANCH  12  15
HETATM   15  O8  UNL     1      32.084  -4.967  43.624  1.00  0.00    -0.191 OA
BRANCH  15  16
HETATM   16  P3  UNL     1      31.414  -3.501  43.152  1.00  0.00     0.358 P 
HETATM   17  O9  UNL     1      31.985  -2.295  44.181  1.00  0.00    -0.635 OA
HETATM   18  O10 UNL     1      29.704  -3.555  43.185  1.00  0.00    -0.635 OA
HETATM   19  S1  UNL     1      31.949  -3.090  41.545  1.00  0.00     0.013 SA
ENDBRANCH  15  16
ENDBRANCH  12  15
ENDBRANCH  11  12
ENDBRANCH   8  11
ENDBRANCH   7   8
ENDBRANCH   6   7
ENDBRANCH   3   6
BRANCH   4  20
HETATM   20  O11 UNL     1      28.575  -9.018  50.443  1.00  0.00    -0.390 OA
ATOM     21  H11 UNL     1      27.887  -9.590  50.762  1.00  0.00     0.210 HD
ENDBRANCH   4  20
BRANCH   1  22
HETATM   22  N5  UNL     1      29.638  -5.072  49.808  1.00  0.00    -0.297 N 
HETATM   23  C3  UNL     1      29.363  -4.326  50.883  1.00  0.00     0.142 A 
HETATM   24  N3  UNL     1      28.882  -4.566  52.113  1.00  0.00    -0.336 N 
HETATM   25  C4  UNL     1      29.668  -2.992  50.602  1.00  0.00     0.119 A 
HETATM   26  C2  UNL     1      28.703  -3.590  53.021  1.00  0.00     0.183 A 
ATOM     27  H3  UNL     1      28.644  -5.524  52.369  1.00  0.00     0.168 HD
HETATM   28  N2  UNL     1      29.009  -2.295  52.723  1.00  0.00    -0.339 N 
HETATM   29  C1  UNL     1      29.489  -1.986  51.525  1.00  0.00     0.148 A 
ATOM     30  H2  UNL     1      28.869  -1.564  53.420  1.00  0.00     0.167 HD
HETATM   31  N1  UNL     1      29.819  -0.629  51.188  1.00  0.00    -0.080 NA
HETATM   32  N4  UNL     1      30.123  -2.990  49.347  1.00  0.00    -0.346 N 
HETATM   33  C5  UNL     1      30.106  -4.241  48.863  1.00  0.00     0.188 A 
ATOM     34  H4  UNL     1      30.435  -2.165  48.835  1.00  0.00     0.167 HD
ENDBRANCH   1  22
BRANCH   5  35
HETATM   35  O12 UNL     1      27.350  -6.783  50.897  1.00  0.00    -0.388 OA
ATOM     36  H12 UNL     1      26.886  -5.960  50.998  1.00  0.00     0.210 HD
ENDBRANCH   5  35
TORSDOF 10
ENDMDL
