MODEL 2
REMARK VINA RESULT: -8.826564266      2.099      6.524
REMARK  3 active torsions:
REMARK  status: ('A' for Active; 'I' for Inactive)
REMARK    1  A    between atoms: O1_2  and  C2_3 
REMARK    2  A    between atoms: C9_10  and  C10_11 
REMARK    3  A    between atoms: C26_31  and  O2_32 
ROOT
HETATM    1  C2  UNL     1       1.067  17.197 -60.179  1.00  0.00     0.099 C 
HETATM    2  C3  UNL     1      -0.238  16.443 -60.367  1.00  0.00     0.042 C 
HETATM    3  C4  UNL     1      -1.207  16.862 -59.565  1.00  0.00     0.016 C 
HETATM    4  C5  UNL     1      -0.605  17.429 -58.276  1.00  0.00     0.006 C 
HETATM    5  C6  UNL     1      -0.180  18.769 -58.709  1.00  0.00     0.027 C 
HETATM    6  C7  UNL     1       0.828  18.641 -59.880  1.00  0.00     0.023 C 
HETATM    7  C8  UNL     1       0.366  19.479 -61.031  1.00  0.00     0.021 C 
HETATM    8  C9  UNL     1       2.138  19.052 -59.274  1.00  0.00     0.230 C 
HETATM    9  N1  UNL     1       2.378  17.970 -58.345  1.00  0.00    -0.058 N 
ATOM     10  H11 UNL     1       2.146  18.223 -57.384  1.00  0.00     0.278 HD
ATOM     11  H12 UNL     1       3.372  17.787 -58.207  1.00  0.00     0.278 HD
HETATM   12  C16 UNL     1       1.662  16.810 -58.797  1.00  0.00     0.235 C 
HETATM   13  C17 UNL     1       0.515  16.454 -57.931  1.00  0.00     0.030 C 
HETATM   14  C18 UNL     1       0.814  16.334 -56.470  1.00  0.00     0.048 C 
HETATM   15  C19 UNL     1      -0.397  16.464 -55.588  1.00  0.00     0.273 C 
HETATM   16  N2  UNL     1      -1.235  17.572 -55.931  1.00  0.00     0.090 N 
HETATM   17  C20 UNL     1      -2.356  17.584 -55.006  1.00  0.00     0.310 C 
HETATM   18  C21 UNL     1      -1.700  17.358 -57.282  1.00  0.00     0.236 C 
HETATM   19  C22 UNL     1      -2.322  15.988 -57.400  1.00  0.00     0.075 C 
HETATM   20  C23 UNL     1      -1.432  14.980 -57.988  1.00  0.00    -0.049 A 
HETATM   21  C24 UNL     1      -2.043  13.754 -58.284  1.00  0.00     0.010 A 
HETATM   22  C25 UNL     1      -1.328  12.714 -58.839  1.00  0.00     0.037 A 
HETATM   23  C26 UNL     1       0.010  12.854 -59.118  1.00  0.00     0.066 A 
HETATM   24  C27 UNL     1       0.591  14.081 -58.815  1.00  0.00     0.045 A 
HETATM   25  C28 UNL     1      -0.092  15.115 -58.269  1.00  0.00    -0.037 A 
ENDROOT
BRANCH   8  26
HETATM   26  C10 UNL     1       3.236  19.421 -60.141  1.00  0.00    -0.027 A 
HETATM   27  C11 UNL     1       3.241  20.529 -60.944  1.00  0.00     0.009 A 
HETATM   28  C12 UNL     1       4.322  20.840 -61.732  1.00  0.00     0.001 A 
HETATM   29  C13 UNL     1       5.445  20.046 -61.748  1.00  0.00     0.000 A 
HETATM   30  C14 UNL     1       5.440  18.926 -60.939  1.00  0.00     0.001 A 
HETATM   31  C15 UNL     1       4.358  18.624 -60.156  1.00  0.00     0.009 A 
ENDBRANCH   8  26
BRANCH   1  32
HETATM   32  O1  UNL     1       1.945  16.904 -61.152  1.00  0.00    -0.382 OA
HETATM   33  C1  UNL     1       1.605  16.852 -62.443  1.00  0.00     0.202 C 
ENDBRANCH   1  32
BRANCH  23  34
HETATM   34  O2  UNL     1       0.756  11.823 -59.678  1.00  0.00    -0.361 OA
ATOM     35  H2  UNL     1       1.558  11.988 -60.161  1.00  0.00     0.217 HD
ENDBRANCH  23  34
TORSDOF 3
ENDMDL
