MODEL 1
REMARK VINA RESULT: -8.978979927      0.000      0.000
REMARK  3 active torsions:
REMARK  status: ('A' for Active; 'I' for Inactive)
REMARK    1  A    between atoms: O1_2  and  C2_3 
REMARK    2  A    between atoms: C9_10  and  C10_11 
REMARK    3  A    between atoms: C26_31  and  O2_32 
ROOT
HETATM    1  C2  UNL     1       0.558  16.359 -58.647  1.00  0.00     0.099 C 
HETATM    2  C3  UNL     1       1.159  17.682 -58.204  1.00  0.00     0.042 C 
HETATM    3  C4  UNL     1       0.715  18.719 -58.900  1.00  0.00     0.016 C 
HETATM    4  C5  UNL     1       0.322  18.269 -60.310  1.00  0.00     0.006 C 
HETATM    5  C6  UNL     1      -1.002  17.671 -60.074  1.00  0.00     0.027 C 
HETATM    6  C7  UNL     1      -0.873  16.514 -59.049  1.00  0.00     0.023 C 
HETATM    7  C8  UNL     1      -1.846  16.726 -57.933  1.00  0.00     0.021 C 
HETATM    8  C9  UNL     1      -1.098  15.278 -59.870  1.00  0.00     0.230 C 
HETATM    9  N1  UNL     1       0.076  15.274 -60.713  1.00  0.00    -0.058 N 
ATOM     10  H11 UNL     1      -0.116  15.624 -61.652  1.00  0.00     0.278 HD
ATOM     11  H12 UNL     1       0.369  14.331 -60.971  1.00  0.00     0.278 HD
HETATM   12  C16 UNL     1       1.118  16.012 -60.054  1.00  0.00     0.235 C 
HETATM   13  C17 UNL     1       1.429  17.302 -60.711  1.00  0.00     0.030 C 
HETATM   14  C18 UNL     1       1.702  17.235 -62.181  1.00  0.00     0.048 C 
HETATM   15  C19 UNL     1       1.526  18.548 -62.893  1.00  0.00     0.273 C 
HETATM   16  N2  UNL     1       0.315  19.227 -62.546  1.00  0.00     0.090 N 
HETATM   17  C20 UNL     1       0.270  20.467 -63.302  1.00  0.00     0.310 C 
HETATM   18  C21 UNL     1       0.367  19.502 -61.129  1.00  0.00     0.236 C 
HETATM   19  C22 UNL     1       1.654  20.215 -60.791  1.00  0.00     0.075 C 
HETATM   20  C23 UNL     1       2.691  19.339 -60.238  1.00  0.00    -0.049 A 
HETATM   21  C24 UNL     1       3.821  20.002 -59.740  1.00  0.00     0.010 A 
HETATM   22  C25 UNL     1       4.876  19.304 -59.192  1.00  0.00     0.037 A 
HETATM   23  C26 UNL     1       4.847  17.934 -59.118  1.00  0.00     0.066 A 
HETATM   24  C27 UNL     1       3.714  17.300 -59.619  1.00  0.00     0.045 A 
HETATM   25  C28 UNL     1       2.668  17.965 -60.162  1.00  0.00    -0.037 A 
ENDROOT
BRANCH   8  26
HETATM   26  C10 UNL     1      -1.427  14.036 -59.207  1.00  0.00    -0.027 A 
HETATM   27  C11 UNL     1      -2.473  13.884 -58.336  1.00  0.00     0.009 A 
HETATM   28  C12 UNL     1      -2.750  12.674 -57.751  1.00  0.00     0.001 A 
HETATM   29  C13 UNL     1      -1.983  11.561 -58.013  1.00  0.00     0.000 A 
HETATM   30  C14 UNL     1      -0.927  11.714 -58.890  1.00  0.00     0.001 A 
HETATM   31  C15 UNL     1      -0.658  12.925 -59.470  1.00  0.00     0.009 A 
ENDBRANCH   8  26
BRANCH   1  32
HETATM   32  O1  UNL     1       0.853  15.374 -57.782  1.00  0.00    -0.382 OA
HETATM   33  C1  UNL     1       2.104  14.971 -57.544  1.00  0.00     0.202 C 
ENDBRANCH   1  32
BRANCH  23  34
HETATM   34  O2  UNL     1       5.897  17.204 -58.570  1.00  0.00    -0.361 OA
ATOM     35  H2  UNL     1       5.864  16.258 -58.491  1.00  0.00     0.217 HD
ENDBRANCH  23  34
TORSDOF 3
ENDMDL
