MODEL 8
REMARK VINA RESULT: -6.808681307      2.676      5.050
REMARK  3 active torsions:
REMARK  status: ('A' for Active; 'I' for Inactive)
REMARK    1  A    between atoms: O1_2  and  C2_3 
REMARK    2  A    between atoms: C9_10  and  C10_11 
REMARK    3  A    between atoms: C26_31  and  O2_32 
ROOT
HETATM    1  C2  UNL     1      -0.336  17.046 -58.029  1.00  0.00     0.099 C 
HETATM    2  C3  UNL     1      -0.879  17.173 -59.442  1.00  0.00     0.042 C 
HETATM    3  C4  UNL     1      -1.245  16.013 -59.969  1.00  0.00     0.016 C 
HETATM    4  C5  UNL     1      -0.415  14.880 -59.359  1.00  0.00     0.006 C 
HETATM    5  C6  UNL     1      -1.092  14.676 -58.068  1.00  0.00     0.027 C 
HETATM    6  C7  UNL     1      -1.064  15.996 -57.255  1.00  0.00     0.023 C 
HETATM    7  C8  UNL     1      -2.454  16.346 -56.824  1.00  0.00     0.021 C 
HETATM    8  C9  UNL     1      -0.100  15.712 -56.140  1.00  0.00     0.230 C 
HETATM    9  N1  UNL     1       1.148  15.593 -56.860  1.00  0.00    -0.058 N 
ATOM     10  H11 UNL     1       1.425  14.623 -57.005  1.00  0.00     0.278 HD
ATOM     11  H12 UNL     1       1.950  15.888 -56.303  1.00  0.00     0.278 HD
HETATM   12  C16 UNL     1       1.037  16.323 -58.093  1.00  0.00     0.235 C 
HETATM   13  C17 UNL     1       0.996  15.452 -59.289  1.00  0.00     0.030 C 
HETATM   14  C18 UNL     1       2.091  14.436 -59.392  1.00  0.00     0.048 C 
HETATM   15  C19 UNL     1       1.767  13.283 -60.303  1.00  0.00     0.273 C 
HETATM   16  N2  UNL     1       0.466  12.731 -60.082  1.00  0.00     0.090 N 
HETATM   17  C20 UNL     1       0.286  11.632 -61.016  1.00  0.00     0.310 C 
HETATM   18  C21 UNL     1      -0.496  13.776 -60.343  1.00  0.00     0.236 C 
HETATM   19  C22 UNL     1      -0.246  14.375 -61.706  1.00  0.00     0.075 C 
HETATM   20  C23 UNL     1       0.498  15.638 -61.673  1.00  0.00    -0.049 A 
HETATM   21  C24 UNL     1       0.577  16.309 -62.901  1.00  0.00     0.010 A 
HETATM   22  C25 UNL     1       1.248  17.508 -63.018  1.00  0.00     0.037 A 
HETATM   23  C26 UNL     1       1.859  18.080 -61.929  1.00  0.00     0.066 A 
HETATM   24  C27 UNL     1       1.765  17.393 -60.723  1.00  0.00     0.045 A 
HETATM   25  C28 UNL     1       1.112  16.215 -60.585  1.00  0.00    -0.037 A 
ENDROOT
BRANCH   8  26
HETATM   26  C10 UNL     1      -0.098  16.562 -54.969  1.00  0.00    -0.027 A 
HETATM   27  C11 UNL     1      -1.183  17.275 -54.536  1.00  0.00     0.009 A 
HETATM   28  C12 UNL     1      -1.127  18.051 -53.406  1.00  0.00     0.001 A 
HETATM   29  C13 UNL     1       0.026  18.146 -52.660  1.00  0.00     0.000 A 
HETATM   30  C14 UNL     1       1.121  17.428 -53.098  1.00  0.00     0.001 A 
HETATM   31  C15 UNL     1       1.057  16.655 -54.227  1.00  0.00     0.009 A 
ENDBRANCH   8  26
BRANCH   1  32
HETATM   32  O1  UNL     1      -0.192  18.251 -57.451  1.00  0.00    -0.382 OA
HETATM   33  C1  UNL     1      -0.074  19.381 -58.153  1.00  0.00     0.202 C 
ENDBRANCH   1  32
BRANCH  23  34
HETATM   34  O2  UNL     1       2.541  19.288 -62.018  1.00  0.00    -0.361 OA
ATOM     35  H2  UNL     1       3.160  19.466 -62.717  1.00  0.00     0.217 HD
ENDBRANCH  23  34
TORSDOF 3
ENDMDL
