MODEL 6
REMARK VINA RESULT: -7.219312012      2.847      4.942
REMARK  3 active torsions:
REMARK  status: ('A' for Active; 'I' for Inactive)
REMARK    1  A    between atoms: O1_2  and  C2_3 
REMARK    2  A    between atoms: C9_10  and  C10_11 
REMARK    3  A    between atoms: C26_31  and  O2_32 
ROOT
HETATM    1  C2  UNL     1       0.005  13.599 -59.305  1.00  0.00     0.099 C 
HETATM    2  C3  UNL     1       1.064  14.681 -59.430  1.00  0.00     0.042 C 
HETATM    3  C4  UNL     1       1.440  15.185 -58.263  1.00  0.00     0.016 C 
HETATM    4  C5  UNL     1       0.289  15.082 -57.257  1.00  0.00     0.006 C 
HETATM    5  C6  UNL     1       0.379  13.672 -56.846  1.00  0.00     0.027 C 
HETATM    6  C7  UNL     1       0.223  12.758 -58.089  1.00  0.00     0.023 C 
HETATM    7  C8  UNL     1       1.372  11.801 -58.153  1.00  0.00     0.021 C 
HETATM    8  C9  UNL     1      -1.127  12.127 -57.906  1.00  0.00     0.230 C 
HETATM    9  N1  UNL     1      -2.002  13.267 -58.064  1.00  0.00    -0.058 N 
ATOM     10  H11 UNL     1      -2.334  13.632 -57.171  1.00  0.00     0.278 HD
ATOM     11  H12 UNL     1      -2.908  13.012 -58.458  1.00  0.00     0.278 HD
HETATM   12  C16 UNL     1      -1.323  14.262 -58.846  1.00  0.00     0.235 C 
HETATM   13  C17 UNL     1      -0.944  15.463 -58.067  1.00  0.00     0.030 C 
HETATM   14  C18 UNL     1      -2.043  16.098 -57.274  1.00  0.00     0.048 C 
HETATM   15  C19 UNL     1      -1.557  16.969 -56.149  1.00  0.00     0.273 C 
HETATM   16  N2  UNL     1      -0.533  16.358 -55.358  1.00  0.00     0.090 N 
HETATM   17  C20 UNL     1      -0.161  17.297 -54.312  1.00  0.00     0.310 C 
HETATM   18  C21 UNL     1       0.590  16.103 -56.229  1.00  0.00     0.236 C 
HETATM   19  C22 UNL     1       0.973  17.369 -56.956  1.00  0.00     0.075 C 
HETATM   20  C23 UNL     1       0.458  17.446 -58.327  1.00  0.00    -0.049 A 
HETATM   21  C24 UNL     1       0.954  18.515 -59.086  1.00  0.00     0.010 A 
HETATM   22  C25 UNL     1       0.555  18.712 -60.391  1.00  0.00     0.037 A 
HETATM   23  C26 UNL     1      -0.343  17.860 -60.985  1.00  0.00     0.066 A 
HETATM   24  C27 UNL     1      -0.820  16.807 -60.210  1.00  0.00     0.045 A 
HETATM   25  C28 UNL     1      -0.443  16.596 -58.928  1.00  0.00    -0.037 A 
ENDROOT
BRANCH   8  26
HETATM   26  C10 UNL     1      -1.463  10.939 -58.658  1.00  0.00    -0.027 A 
HETATM   27  C11 UNL     1      -0.566  10.224 -59.406  1.00  0.00     0.009 A 
HETATM   28  C12 UNL     1      -0.940   9.091 -60.085  1.00  0.00     0.001 A 
HETATM   29  C13 UNL     1      -2.234   8.627 -60.043  1.00  0.00     0.000 A 
HETATM   30  C14 UNL     1      -3.140   9.349 -59.290  1.00  0.00     0.001 A 
HETATM   31  C15 UNL     1      -2.760  10.478 -58.616  1.00  0.00     0.009 A 
ENDBRANCH   8  26
BRANCH   1  32
HETATM   32  O1  UNL     1      -0.182  12.961 -60.472  1.00  0.00    -0.382 OA
HETATM   33  C1  UNL     1       0.362  13.376 -61.619  1.00  0.00     0.202 C 
ENDBRANCH   1  32
BRANCH  23  34
HETATM   34  O2  UNL     1      -0.763  18.033 -62.300  1.00  0.00    -0.361 OA
ATOM     35  H2  UNL     1      -0.701  17.337 -62.943  1.00  0.00     0.217 HD
ENDBRANCH  23  34
TORSDOF 3
ENDMDL
