MODEL 6
REMARK VINA RESULT: -5.868589423      2.689      4.600
REMARK  1 active torsions:
REMARK  status: ('A' for Active; 'I' for Inactive)
REMARK    1  A    between atoms: C4_7  and  C5_8 
ROOT
HETATM    1  C1  UNL     1       3.221  14.447  43.421  1.00  0.00     0.055 C 
HETATM    2  C2  UNL     1       4.085  13.251  43.661  1.00  0.00     0.015 A 
HETATM    3  C3  UNL     1       4.140  12.626  44.887  1.00  0.00     0.113 A 
HETATM    4 CL1  UNL     1       3.147  13.295  46.166  1.00  0.00    -0.064 Cl
HETATM    5  N1  UNL     1       4.926  11.552  45.075  1.00  0.00    -0.336 N 
ATOM      6  H1  UNL     1       4.943  11.114  45.995  1.00  0.00     0.168 HD
HETATM    7  C4  UNL     1       5.692  11.030  44.101  1.00  0.00     0.087 A 
HETATM    8  N2  UNL     1       5.641  11.637  42.902  1.00  0.00    -0.336 N 
ATOM      9  H2  UNL     1       6.211  11.266  42.142  1.00  0.00     0.168 HD
HETATM   10  C8  UNL     1       4.870  12.715  42.662  1.00  0.00     0.113 A 
HETATM   11 CL2  UNL     1       4.825  13.490  41.078  1.00  0.00    -0.064 Cl
ENDROOT
BRANCH   7  12
HETATM   12  C5  UNL     1       6.555   9.832  44.347  1.00  0.00     0.053 A 
HETATM   13  C6  UNL     1       6.631   9.266  45.739  1.00  0.00     0.013 A 
HETATM   14  C7  UNL     1       5.900   8.534  44.627  1.00  0.00     0.013 A 
ENDBRANCH   7  12
TORSDOF 1
ENDMDL
