MODEL 2
REMARK VINA RESULT: -6.227836826      0.029      2.565
REMARK  1 active torsions:
REMARK  status: ('A' for Active; 'I' for Inactive)
REMARK    1  A    between atoms: C4_7  and  C5_8 
ROOT
HETATM    1  C1  UNL     1       3.412  12.810  46.101  1.00  0.00     0.055 C 
HETATM    2  C2  UNL     1       3.690  13.116  44.664  1.00  0.00     0.015 A 
HETATM    3  C3  UNL     1       4.465  12.289  43.881  1.00  0.00     0.113 A 
HETATM    4 CL1  UNL     1       5.119  10.854  44.643  1.00  0.00    -0.064 Cl
HETATM    5  N1  UNL     1       4.699  12.588  42.591  1.00  0.00    -0.336 N 
ATOM      6  H1  UNL     1       5.278  11.955  42.041  1.00  0.00     0.168 HD
HETATM    7  C4  UNL     1       4.203  13.687  41.996  1.00  0.00     0.087 A 
HETATM    8  N2  UNL     1       3.445  14.496  42.757  1.00  0.00    -0.336 N 
ATOM      9  H2  UNL     1       3.055  15.339  42.336  1.00  0.00     0.168 HD
HETATM   10  C8  UNL     1       3.181  14.242  44.053  1.00  0.00     0.113 A 
HETATM   11 CL2  UNL     1       2.183  15.324  45.026  1.00  0.00    -0.064 Cl
ENDROOT
BRANCH   7  12
HETATM   12  C5  UNL     1       4.485  13.987  40.557  1.00  0.00     0.053 A 
HETATM   13  C6  UNL     1       3.521  14.853  39.793  1.00  0.00     0.013 A 
HETATM   14  C7  UNL     1       4.896  15.360  40.188  1.00  0.00     0.013 A 
ENDBRANCH   7  12
TORSDOF 1
ENDMDL
