MODEL 3
REMARK VINA RESULT: -5.904535505      0.749      1.048
REMARK  1 active torsions:
REMARK  status: ('A' for Active; 'I' for Inactive)
REMARK    1  A    between atoms: C4_7  and  C5_8 
ROOT
HETATM    1  C1  UNL     1       3.301  12.888  46.174  1.00  0.00     0.055 C 
HETATM    2  C2  UNL     1       3.702  13.033  44.742  1.00  0.00     0.015 A 
HETATM    3  C3  UNL     1       3.222  14.055  43.951  1.00  0.00     0.113 A 
HETATM    4 CL1  UNL     1       2.113  15.186  44.699  1.00  0.00    -0.064 Cl
HETATM    5  N1  UNL     1       3.599  14.162  42.665  1.00  0.00    -0.336 N 
ATOM      6  H1  UNL     1       3.224  14.930  42.109  1.00  0.00     0.168 HD
HETATM    7  C4  UNL     1       4.449  13.300  42.081  1.00  0.00     0.087 A 
HETATM    8  N2  UNL     1       4.920  12.302  42.849  1.00  0.00    -0.336 N 
ATOM      9  H2  UNL     1       5.566  11.630  42.435  1.00  0.00     0.168 HD
HETATM   10  C8  UNL     1       4.574  12.150  44.141  1.00  0.00     0.113 A 
HETATM   11 CL2  UNL     1       5.209  10.829  45.124  1.00  0.00    -0.064 Cl
ENDROOT
BRANCH   7  12
HETATM   12  C5  UNL     1       4.847  13.452  40.646  1.00  0.00     0.053 A 
HETATM   13  C6  UNL     1       4.534  12.338  39.684  1.00  0.00     0.013 A 
HETATM   14  C7  UNL     1       3.784  13.658  39.636  1.00  0.00     0.013 A 
ENDBRANCH   7  12
TORSDOF 1
ENDMDL
