MODEL 10
REMARK VINA RESULT: -5.727482555      1.545      1.871
REMARK  1 active torsions:
REMARK  status: ('A' for Active; 'I' for Inactive)
REMARK    1  A    between atoms: C4_7  and  C5_8 
ROOT
HETATM    1  C1  UNL     1       5.468  10.880  45.418  1.00  0.00     0.055 C 
HETATM    2  C2  UNL     1       5.014  11.830  44.357  1.00  0.00     0.015 A 
HETATM    3  C3  UNL     1       3.967  12.703  44.561  1.00  0.00     0.113 A 
HETATM    4 CL1  UNL     1       3.182  12.653  46.125  1.00  0.00    -0.064 Cl
HETATM    5  N1  UNL     1       3.580  13.547  43.588  1.00  0.00    -0.336 N 
ATOM      6  H1  UNL     1       2.801  14.179  43.772  1.00  0.00     0.168 HD
HETATM    7  C4  UNL     1       4.175  13.594  42.383  1.00  0.00     0.087 A 
HETATM    8  N2  UNL     1       5.197  12.743  42.181  1.00  0.00    -0.336 N 
ATOM      9  H2  UNL     1       5.669  12.753  41.277  1.00  0.00     0.168 HD
HETATM   10  C8  UNL     1       5.624  11.879  43.121  1.00  0.00     0.113 A 
HETATM   11 CL2  UNL     1       6.969  10.776  42.826  1.00  0.00    -0.064 Cl
ENDROOT
BRANCH   7  12
HETATM   12  C5  UNL     1       3.716  14.548  41.325  1.00  0.00     0.053 A 
HETATM   13  C6  UNL     1       4.744  15.220  40.458  1.00  0.00     0.013 A 
HETATM   14  C7  UNL     1       3.831  14.139  39.907  1.00  0.00     0.013 A 
ENDBRANCH   7  12
TORSDOF 1
ENDMDL
