MODEL 1
REMARK VINA RESULT: -6.234552520      0.000      0.000
REMARK  1 active torsions:
REMARK  status: ('A' for Active; 'I' for Inactive)
REMARK    1  A    between atoms: C4_7  and  C5_8 
ROOT
HETATM    1  C1  UNL     1       3.399  12.830  46.115  1.00  0.00     0.055 C 
HETATM    2  C2  UNL     1       3.685  13.129  44.678  1.00  0.00     0.015 A 
HETATM    3  C3  UNL     1       3.172  14.243  44.050  1.00  0.00     0.113 A 
HETATM    4 CL1  UNL     1       2.162  15.304  45.010  1.00  0.00    -0.064 Cl
HETATM    5  N1  UNL     1       3.447  14.487  42.756  1.00  0.00    -0.336 N 
ATOM      6  H1  UNL     1       3.050  15.320  42.323  1.00  0.00     0.168 HD
HETATM    7  C4  UNL     1       4.221  13.680  42.010  1.00  0.00     0.087 A 
HETATM    8  N2  UNL     1       4.723  12.591  42.620  1.00  0.00    -0.336 N 
ATOM      9  H2  UNL     1       5.313  11.958  42.081  1.00  0.00     0.168 HD
HETATM   10  C8  UNL     1       4.479  12.301  43.912  1.00  0.00     0.113 A 
HETATM   11 CL2  UNL     1       5.153  10.866  44.685  1.00  0.00    -0.064 Cl
ENDROOT
BRANCH   7  12
HETATM   12  C5  UNL     1       4.504  13.984  40.572  1.00  0.00     0.053 A 
HETATM   13  C6  UNL     1       3.536  14.847  39.809  1.00  0.00     0.013 A 
HETATM   14  C7  UNL     1       4.908  15.361  40.208  1.00  0.00     0.013 A 
ENDBRANCH   7  12
TORSDOF 1
ENDMDL
