MODEL 14
REMARK VINA RESULT: -5.561293750      3.057      4.890
REMARK  1 active torsions:
REMARK  status: ('A' for Active; 'I' for Inactive)
REMARK    1  A    between atoms: C4_7  and  C5_8 
ROOT
HETATM    1  C1  UNL     1       3.542  13.826  43.958  1.00  0.00     0.055 C 
HETATM    2  C2  UNL     1       4.387  12.603  44.115  1.00  0.00     0.015 A 
HETATM    3  C3  UNL     1       5.021  12.014  43.043  1.00  0.00     0.113 A 
HETATM    4 CL1  UNL     1       4.794  12.760  41.475  1.00  0.00    -0.064 Cl
HETATM    5  N1  UNL     1       5.776  10.914  43.213  1.00  0.00    -0.336 N 
ATOM      6  H1  UNL     1       6.230  10.503  42.398  1.00  0.00     0.168 HD
HETATM    7  C4  UNL     1       5.957  10.332  44.411  1.00  0.00     0.087 A 
HETATM    8  N2  UNL     1       5.340  10.905  45.460  1.00  0.00    -0.336 N 
ATOM      9  H2  UNL     1       5.457  10.487  46.383  1.00  0.00     0.168 HD
HETATM   10  C8  UNL     1       4.575  12.007  45.344  1.00  0.00     0.113 A 
HETATM   11 CL2  UNL     1       3.778  12.736  46.739  1.00  0.00    -0.064 Cl
ENDROOT
BRANCH   7  12
HETATM   12  C5  UNL     1       6.805   9.108  44.562  1.00  0.00     0.053 A 
HETATM   13  C6  UNL     1       6.272   7.790  44.069  1.00  0.00     0.013 A 
HETATM   14  C7  UNL     1       7.399   8.506  43.347  1.00  0.00     0.013 A 
ENDBRANCH   7  12
TORSDOF 1
ENDMDL
