MODEL 5
REMARK VINA RESULT: -5.883305693      2.842      4.792
REMARK  1 active torsions:
REMARK  status: ('A' for Active; 'I' for Inactive)
REMARK    1  A    between atoms: C4_7  and  C5_8 
ROOT
HETATM    1  C1  UNL     1       3.170  14.213  44.006  1.00  0.00     0.055 C 
HETATM    2  C2  UNL     1       4.123  13.068  44.120  1.00  0.00     0.015 A 
HETATM    3  C3  UNL     1       4.909  12.666  43.062  1.00  0.00     0.113 A 
HETATM    4 CL1  UNL     1       4.743  13.559  41.564  1.00  0.00    -0.064 Cl
HETATM    5  N1  UNL     1       5.758  11.632  43.193  1.00  0.00    -0.336 N 
ATOM      6  H1  UNL     1       6.324  11.361  42.389  1.00  0.00     0.168 HD
HETATM    7  C4  UNL     1       5.894  10.940  44.337  1.00  0.00     0.087 A 
HETATM    8  N2  UNL     1       5.129  11.330  45.373  1.00  0.00    -0.336 N 
ATOM      9  H2  UNL     1       5.207  10.824  46.255  1.00  0.00     0.168 HD
HETATM   10  C8  UNL     1       4.264  12.358  45.294  1.00  0.00     0.113 A 
HETATM   11 CL2  UNL     1       3.273  12.845  46.670  1.00  0.00    -0.064 Cl
ENDROOT
BRANCH   7  12
HETATM   12  C5  UNL     1       6.851   9.794  44.445  1.00  0.00     0.053 A 
HETATM   13  C6  UNL     1       7.049   9.136  45.783  1.00  0.00     0.013 A 
HETATM   14  C7  UNL     1       6.305   8.435  44.661  1.00  0.00     0.013 A 
ENDBRANCH   7  12
TORSDOF 1
ENDMDL
