MODEL 4
REMARK VINA RESULT: -5.895307711      0.759      2.763
REMARK  1 active torsions:
REMARK  status: ('A' for Active; 'I' for Inactive)
REMARK    1  A    between atoms: C4_7  and  C5_8 
ROOT
HETATM    1  C1  UNL     1       3.315  12.871  46.175  1.00  0.00     0.055 C 
HETATM    2  C2  UNL     1       3.714  13.018  44.742  1.00  0.00     0.015 A 
HETATM    3  C3  UNL     1       4.587  12.141  44.136  1.00  0.00     0.113 A 
HETATM    4 CL1  UNL     1       5.218  10.838  45.121  1.00  0.00    -0.064 Cl
HETATM    5  N1  UNL     1       4.929  12.298  42.845  1.00  0.00    -0.336 N 
ATOM      6  H1  UNL     1       5.578  11.631  42.428  1.00  0.00     0.168 HD
HETATM    7  C4  UNL     1       4.451  13.294  42.079  1.00  0.00     0.087 A 
HETATM    8  N2  UNL     1       3.598  14.152  42.667  1.00  0.00    -0.336 N 
ATOM      9  H2  UNL     1       3.219  14.920  42.114  1.00  0.00     0.168 HD
HETATM   10  C8  UNL     1       3.224  14.040  43.956  1.00  0.00     0.113 A 
HETATM   11 CL2  UNL     1       2.102  15.181  44.699  1.00  0.00    -0.064 Cl
ENDROOT
BRANCH   7  12
HETATM   12  C5  UNL     1       4.855  13.435  40.644  1.00  0.00     0.053 A 
HETATM   13  C6  UNL     1       4.547  12.314  39.690  1.00  0.00     0.013 A 
HETATM   14  C7  UNL     1       3.796  13.632  39.629  1.00  0.00     0.013 A 
ENDBRANCH   7  12
TORSDOF 1
ENDMDL
