MODEL 6
REMARK VINA RESULT: -5.755638189      1.065      1.150
REMARK  1 active torsions:
REMARK  status: ('A' for Active; 'I' for Inactive)
REMARK    1  A    between atoms: C4_7  and  C5_8 
ROOT
HETATM    1  C1  UNL     1       2.946  13.904  43.034  1.00  0.00     0.055 C 
HETATM    2  C2  UNL     1       3.846  12.738  43.301  1.00  0.00     0.018 A 
HETATM    3  C3  UNL     1       3.868  12.094  44.519  1.00  0.00     0.126 A 
HETATM    4  N1  UNL     1       3.013  12.543  45.564  1.00  0.00    -0.082 NA
HETATM    5  N2  UNL     1       4.693  11.071  44.675  1.00  0.00    -0.334 N 
ATOM      6  H2  UNL     1       4.693  10.609  45.585  1.00  0.00     0.168 HD
HETATM    7  C4  UNL     1       5.529  10.586  43.742  1.00  0.00     0.087 A 
HETATM    8  N3  UNL     1       5.518  11.205  42.545  1.00  0.00    -0.336 N 
ATOM      9  H3  UNL     1       6.132  10.879  41.799  1.00  0.00     0.168 HD
HETATM   10  C8  UNL     1       4.701  12.251  42.331  1.00  0.00     0.114 A 
HETATM   11 CL1  UNL     1       4.665  13.082  40.776  1.00  0.00    -0.064 Cl
ENDROOT
BRANCH   7  12
HETATM   12  C5  UNL     1       6.381   9.444  44.068  1.00  0.00     0.053 A 
HETATM   13  C6  UNL     1       5.848   8.071  44.199  1.00  0.00     0.013 A 
HETATM   14  C7  UNL     1       6.238   8.873  45.453  1.00  0.00     0.013 A 
ENDBRANCH   7  12
TORSDOF 1
ENDMDL
