MODEL 1
REMARK VINA RESULT: -6.103279842      0.000      0.000
REMARK  1 active torsions:
REMARK  status: ('A' for Active; 'I' for Inactive)
REMARK    1  A    between atoms: C4_7  and  C5_8 
ROOT
HETATM    1  C1  UNL     1       2.813  13.395  44.742  1.00  0.00     0.055 C 
HETATM    2  C2  UNL     1       3.848  12.336  44.526  1.00  0.00     0.018 A 
HETATM    3  C3  UNL     1       4.369  11.596  45.566  1.00  0.00     0.126 A 
HETATM    4  N1  UNL     1       3.915  11.840  46.893  1.00  0.00    -0.082 NA
HETATM    5  N2  UNL     1       5.281  10.678  45.291  1.00  0.00    -0.334 N 
ATOM      6  H2  UNL     1       5.653  10.143  46.076  1.00  0.00     0.168 HD
HETATM    7  C4  UNL     1       5.761  10.388  44.070  1.00  0.00     0.087 A 
HETATM    8  N3  UNL     1       5.261  11.102  43.042  1.00  0.00    -0.336 N 
ATOM      9  H3  UNL     1       5.588  10.924  42.093  1.00  0.00     0.168 HD
HETATM   10  C8  UNL     1       4.332  12.048  43.264  1.00  0.00     0.114 A 
HETATM   11 CL1  UNL     1       3.660  12.999  41.939  1.00  0.00    -0.064 Cl
ENDROOT
BRANCH   7  12
HETATM   12  C5  UNL     1       6.771   9.341  43.928  1.00  0.00     0.053 A 
HETATM   13  C6  UNL     1       6.424   7.904  43.905  1.00  0.00     0.013 A 
HETATM   14  C7  UNL     1       7.069   8.524  45.156  1.00  0.00     0.013 A 
ENDBRANCH   7  12
TORSDOF 1
ENDMDL
