MODEL 8
REMARK VINA RESULT: -5.675882011      1.568      2.631
REMARK  1 active torsions:
REMARK  status: ('A' for Active; 'I' for Inactive)
REMARK    1  A    between atoms: C4_7  and  C5_8 
ROOT
HETATM    1  C1  UNL     1       3.094  13.807  42.867  1.00  0.00     0.055 C 
HETATM    2  C2  UNL     1       3.980  12.626  43.113  1.00  0.00     0.018 A 
HETATM    3  C3  UNL     1       4.823  12.127  42.144  1.00  0.00     0.126 A 
HETATM    4  N1  UNL     1       4.860  12.746  40.863  1.00  0.00    -0.082 NA
HETATM    5  N2  UNL     1       5.575  11.079  42.441  1.00  0.00    -0.334 N 
ATOM      6  H2  UNL     1       6.191  10.726  41.709  1.00  0.00     0.168 HD
HETATM    7  C4  UNL     1       5.599  10.439  43.623  1.00  0.00     0.087 A 
HETATM    8  N3  UNL     1       4.781  10.916  44.582  1.00  0.00    -0.336 N 
ATOM      9  H3  UNL     1       4.758  10.470  45.498  1.00  0.00     0.168 HD
HETATM   10  C8  UNL     1       3.994  11.978  44.334  1.00  0.00     0.114 A 
HETATM   11 CL1  UNL     1       2.913  12.624  45.569  1.00  0.00    -0.064 Cl
ENDROOT
BRANCH   7  12
HETATM   12  C5  UNL     1       6.488   9.292  43.798  1.00  0.00     0.053 A 
HETATM   13  C6  UNL     1       5.978   7.928  44.054  1.00  0.00     0.013 A 
HETATM   14  C7  UNL     1       6.611   8.746  45.194  1.00  0.00     0.013 A 
ENDBRANCH   7  12
TORSDOF 1
ENDMDL
