MODEL 5
REMARK VINA RESULT: -5.913854391      2.616      4.551
REMARK  1 active torsions:
REMARK  status: ('A' for Active; 'I' for Inactive)
REMARK    1  A    between atoms: C4_7  and  C5_8 
ROOT
HETATM    1  C1  UNL     1       3.305  12.031  45.777  1.00  0.00     0.055 C 
HETATM    2  C2  UNL     1       3.601  12.371  44.350  1.00  0.00     0.018 A 
HETATM    3  C3  UNL     1       4.407  11.581  43.559  1.00  0.00     0.126 A 
HETATM    4  N1  UNL     1       4.982  10.401  44.107  1.00  0.00    -0.082 NA
HETATM    5  N2  UNL     1       4.619  11.952  42.307  1.00  0.00    -0.334 N 
ATOM      6  H2  UNL     1       5.219  11.353  41.740  1.00  0.00     0.168 HD
HETATM    7  C4  UNL     1       4.114  13.048  41.715  1.00  0.00     0.087 A 
HETATM    8  N3  UNL     1       3.324  13.831  42.476  1.00  0.00    -0.336 N 
ATOM      9  H3  UNL     1       2.913  14.676  42.079  1.00  0.00     0.168 HD
HETATM   10  C8  UNL     1       3.074  13.503  43.755  1.00  0.00     0.114 A 
HETATM   11 CL1  UNL     1       2.044  14.508  44.775  1.00  0.00    -0.064 Cl
ENDROOT
BRANCH   7  12
HETATM   12  C5  UNL     1       4.442  13.323  40.317  1.00  0.00     0.053 A 
HETATM   13  C6  UNL     1       4.702  14.691  39.820  1.00  0.00     0.013 A 
HETATM   14  C7  UNL     1       3.372  13.989  39.496  1.00  0.00     0.013 A 
ENDBRANCH   7  12
TORSDOF 1
ENDMDL
