MODEL 11
REMARK VINA RESULT: -5.553669232      2.529      4.787
REMARK  1 active torsions:
REMARK  status: ('A' for Active; 'I' for Inactive)
REMARK    1  A    between atoms: C4_7  and  C5_8 
ROOT
HETATM    1  C1  UNL     1       5.504  10.287  45.011  1.00  0.00     0.055 C 
HETATM    2  C2  UNL     1       4.995  11.221  43.958  1.00  0.00     0.018 A 
HETATM    3  C3  UNL     1       5.547  11.275  42.696  1.00  0.00     0.126 A 
HETATM    4  N1  UNL     1       6.638  10.420  42.374  1.00  0.00    -0.082 NA
HETATM    5  N2  UNL     1       5.039  12.128  41.822  1.00  0.00    -0.334 N 
ATOM      6  H2  UNL     1       5.463  12.151  40.894  1.00  0.00     0.168 HD
HETATM    7  C4  UNL     1       4.013  12.966  42.047  1.00  0.00     0.087 A 
HETATM    8  N3  UNL     1       3.462  12.925  43.276  1.00  0.00    -0.336 N 
ATOM      9  H3  UNL     1       2.680  13.539  43.503  1.00  0.00     0.168 HD
HETATM   10  C8  UNL     1       3.939  12.078  44.204  1.00  0.00     0.114 A 
HETATM   11 CL1  UNL     1       3.238  12.001  45.821  1.00  0.00    -0.064 Cl
ENDROOT
BRANCH   7  12
HETATM   12  C5  UNL     1       3.564  13.853  40.975  1.00  0.00     0.053 A 
HETATM   13  C6  UNL     1       3.631  13.466  39.549  1.00  0.00     0.013 A 
HETATM   14  C7  UNL     1       4.638  14.477  40.126  1.00  0.00     0.013 A 
ENDBRANCH   7  12
TORSDOF 1
ENDMDL
