MODEL 3
REMARK VINA RESULT: -7.429168325      4.307      7.288
REMARK  4 active torsions:
REMARK  status: ('A' for Active; 'I' for Inactive)
REMARK    1  A    between atoms: C5_7  and  C6_8 
REMARK    2  A    between atoms: C6_8  and  N2_9 
REMARK    3  A    between atoms: N2_9  and  C7_11 
REMARK    4  A    between atoms: C8_14  and  C9_15 
ROOT
HETATM    1  C7  UNL     1       8.268   9.097  43.487  1.00  0.00     0.111 A 
HETATM    2  N3  UNL     1       9.319   9.719  42.922  1.00  0.00    -0.331 N 
ATOM      3  H3  UNL     1       9.375  10.735  42.975  1.00  0.00     0.168 HD
HETATM    4  C8  UNL     1      10.297   9.048  42.290  1.00  0.00     0.088 A 
HETATM    5  N4  UNL     1      10.194   7.709  42.238  1.00  0.00    -0.336 N 
ATOM      6  H4  UNL     1      10.926   7.181  41.765  1.00  0.00     0.168 HD
HETATM    7  C12 UNL     1       9.167   7.038  42.785  1.00  0.00     0.114 A 
HETATM    8 CL1  UNL     1       9.044   5.293  42.710  1.00  0.00    -0.064 Cl
HETATM    9  C13 UNL     1       8.156   7.712  43.436  1.00  0.00     0.020 A 
HETATM   10  C14 UNL     1       6.998   7.035  44.060  1.00  0.00     0.056 C 
ENDROOT
BRANCH   1  11
HETATM   11  N2  UNL     1       7.254   9.828  44.145  1.00  0.00    -0.371 N 
ATOM     12  H2  UNL     1       6.271   9.628  43.963  1.00  0.00     0.161 HD
BRANCH  11  13
HETATM   13  C6  UNL     1       7.631  10.864  45.078  1.00  0.00     0.169 C 
BRANCH  13  14
HETATM   14  C5  UNL     1       6.455  11.163  45.965  1.00  0.00     0.024 A 
HETATM   15  C3  UNL     1       6.052  10.494  47.094  1.00  0.00     0.020 A 
HETATM   16  N1  UNL     1       5.000  10.929  47.708  1.00  0.00    -0.357 N 
HETATM   17  C4  UNL     1       6.837   9.285  47.578  1.00  0.00     0.069 C 
HETATM   18  C2  UNL     1       4.354  11.986  47.239  1.00  0.00     0.047 A 
ATOM     19  H1  UNL     1       4.667  10.458  48.550  1.00  0.00     0.166 HD
HETATM   20  C1  UNL     1       3.117  12.632  47.817  1.00  0.00     0.076 C 
HETATM   21  S1  UNL     1       5.271  12.397  45.859  1.00  0.00    -0.078 SA
ENDBRANCH  13  14
ENDBRANCH  11  13
ENDBRANCH   1  11
BRANCH   4  22
HETATM   22  C9  UNL     1      11.469   9.743  41.660  1.00  0.00     0.053 A 
HETATM   23  C10 UNL     1      12.050  10.946  42.301  1.00  0.00     0.013 A 
HETATM   24  C11 UNL     1      12.740   9.630  42.476  1.00  0.00     0.013 A 
ENDBRANCH   4  22
TORSDOF 4
ENDMDL
