MODEL 6
REMARK VINA RESULT: -7.234391133      1.422      1.888
REMARK  4 active torsions:
REMARK  status: ('A' for Active; 'I' for Inactive)
REMARK    1  A    between atoms: C5_7  and  C6_8 
REMARK    2  A    between atoms: C6_8  and  N2_9 
REMARK    3  A    between atoms: N2_9  and  C7_11 
REMARK    4  A    between atoms: C8_14  and  C9_15 
ROOT
HETATM    1  C7  UNL     1       4.771  11.986  45.111  1.00  0.00     0.111 A 
HETATM    2  N3  UNL     1       4.727  12.282  43.799  1.00  0.00    -0.331 N 
ATOM      3  H3  UNL     1       5.211  11.671  43.141  1.00  0.00     0.168 HD
HETATM    4  C8  UNL     1       4.068  13.352  43.323  1.00  0.00     0.088 A 
HETATM    5  N4  UNL     1       3.439  14.136  44.215  1.00  0.00    -0.336 N 
ATOM      6  H4  UNL     1       2.932  14.953  43.876  1.00  0.00     0.168 HD
HETATM    7  C12 UNL     1       3.451  13.889  45.535  1.00  0.00     0.114 A 
HETATM    8 CL1  UNL     1       2.628  14.919  46.688  1.00  0.00    -0.064 Cl
HETATM    9  C13 UNL     1       4.122  12.795  46.038  1.00  0.00     0.020 A 
HETATM   10  C14 UNL     1       4.175  12.464  47.478  1.00  0.00     0.056 C 
ENDROOT
BRANCH   1  11
HETATM   11  N2  UNL     1       5.472  10.854  45.581  1.00  0.00    -0.371 N 
ATOM     12  H2  UNL     1       6.125  10.937  46.360  1.00  0.00     0.161 HD
BRANCH  11  13
HETATM   13  C6  UNL     1       5.250   9.578  44.943  1.00  0.00     0.169 C 
BRANCH  13  14
HETATM   14  C5  UNL     1       6.550   9.101  44.359  1.00  0.00     0.024 A 
HETATM   15  C3  UNL     1       7.046   7.821  44.324  1.00  0.00     0.020 A 
HETATM   16  N1  UNL     1       8.199   7.638  43.766  1.00  0.00    -0.357 N 
HETATM   17  C4  UNL     1       6.244   6.682  44.932  1.00  0.00     0.069 C 
HETATM   18  C2  UNL     1       8.854   8.668  43.254  1.00  0.00     0.047 A 
ATOM     19  H1  UNL     1       8.602   6.701  43.722  1.00  0.00     0.166 HD
HETATM   20  C1  UNL     1      10.200   8.646  42.569  1.00  0.00     0.076 C 
HETATM   21  S1  UNL     1       7.798   9.972  43.571  1.00  0.00    -0.078 SA
ENDBRANCH  13  14
ENDBRANCH  11  13
ENDBRANCH   1  11
BRANCH   4  22
HETATM   22  C9  UNL     1       4.020  13.680  41.859  1.00  0.00     0.053 A 
HETATM   23  C10 UNL     1       3.031  14.660  41.351  1.00  0.00     0.013 A 
HETATM   24  C11 UNL     1       4.447  15.099  41.551  1.00  0.00     0.013 A 
ENDBRANCH   4  22
TORSDOF 4
ENDMDL
