MODEL 1
REMARK VINA RESULT: -7.732730636      0.000      0.000
REMARK  4 active torsions:
REMARK  status: ('A' for Active; 'I' for Inactive)
REMARK    1  A    between atoms: C5_7  and  C6_8 
REMARK    2  A    between atoms: C6_8  and  N2_9 
REMARK    3  A    between atoms: N2_9  and  C7_11 
REMARK    4  A    between atoms: C8_14  and  C9_15 
ROOT
HETATM    1  C7  UNL     1       4.361  12.141  45.340  1.00  0.00     0.111 A 
HETATM    2  N3  UNL     1       4.478  12.365  44.019  1.00  0.00    -0.331 N 
ATOM      3  H3  UNL     1       4.943  11.666  43.441  1.00  0.00     0.168 HD
HETATM    4  C8  UNL     1       4.004  13.478  43.433  1.00  0.00     0.088 A 
HETATM    5  N4  UNL     1       3.396  14.380  44.222  1.00  0.00    -0.336 N 
ATOM      6  H4  UNL     1       3.027  15.231  43.797  1.00  0.00     0.168 HD
HETATM    7  C12 UNL     1       3.252  14.207  45.546  1.00  0.00     0.114 A 
HETATM    8 CL1  UNL     1       2.459  15.391  46.564  1.00  0.00    -0.064 Cl
HETATM    9  C13 UNL     1       3.733  13.072  46.161  1.00  0.00     0.020 A 
HETATM   10  C14 UNL     1       3.609  12.819  47.613  1.00  0.00     0.056 C 
ENDROOT
BRANCH   1  11
HETATM   11  N2  UNL     1       4.869  10.962  45.929  1.00  0.00    -0.371 N 
ATOM     12  H2  UNL     1       4.280  10.135  46.023  1.00  0.00     0.161 HD
BRANCH  11  13
HETATM   13  C6  UNL     1       6.236  10.945  46.395  1.00  0.00     0.169 C 
BRANCH  13  14
HETATM   14  C5  UNL     1       7.103  10.354  45.318  1.00  0.00     0.024 A 
HETATM   15  C3  UNL     1       8.064  10.981  44.564  1.00  0.00     0.020 A 
HETATM   16  N1  UNL     1       8.695  10.272  43.684  1.00  0.00    -0.357 N 
HETATM   17  C4  UNL     1       8.350  12.458  44.778  1.00  0.00     0.069 C 
HETATM   18  C2  UNL     1       8.403   8.988  43.540  1.00  0.00     0.047 A 
ATOM     19  H1  UNL     1       9.415  10.701  43.103  1.00  0.00     0.166 HD
HETATM   20  C1  UNL     1       9.030   8.012  42.574  1.00  0.00     0.076 C 
HETATM   21  S1  UNL     1       7.173   8.757  44.702  1.00  0.00    -0.078 SA
ENDBRANCH  13  14
ENDBRANCH  11  13
ENDBRANCH   1  11
BRANCH   4  22
HETATM   22  C9  UNL     1       4.134  13.726  41.958  1.00  0.00     0.053 A 
HETATM   23  C10 UNL     1       3.155  14.595  41.263  1.00  0.00     0.013 A 
HETATM   24  C11 UNL     1       4.493  15.159  41.623  1.00  0.00     0.013 A 
ENDBRANCH   4  22
TORSDOF 4
ENDMDL
