MODEL 9
REMARK VINA RESULT: -7.173774535      2.890      6.441
REMARK  4 active torsions:
REMARK  status: ('A' for Active; 'I' for Inactive)
REMARK    1  A    between atoms: C5_7  and  C6_8 
REMARK    2  A    between atoms: C6_8  and  N2_9 
REMARK    3  A    between atoms: N2_9  and  C7_11 
REMARK    4  A    between atoms: C8_14  and  C9_15 
ROOT
HETATM    1  C7  UNL     1       7.122  11.032  45.263  1.00  0.00     0.111 A 
HETATM    2  N3  UNL     1       6.545   9.818  45.202  1.00  0.00    -0.331 N 
ATOM      3  H3  UNL     1       5.684   9.656  45.723  1.00  0.00     0.168 HD
HETATM    4  C8  UNL     1       7.063   8.810  44.480  1.00  0.00     0.088 A 
HETATM    5  N4  UNL     1       8.199   9.055  43.804  1.00  0.00    -0.336 N 
ATOM      6  H4  UNL     1       8.608   8.305  43.248  1.00  0.00     0.168 HD
HETATM    7  C12 UNL     1       8.816  10.247  43.830  1.00  0.00     0.114 A 
HETATM    8 CL1  UNL     1      10.296  10.554  42.946  1.00  0.00    -0.064 Cl
HETATM    9  C13 UNL     1       8.297  11.290  44.566  1.00  0.00     0.020 A 
HETATM   10  C14 UNL     1       8.925  12.627  44.638  1.00  0.00     0.056 C 
ENDROOT
BRANCH   1  11
HETATM   11  N2  UNL     1       6.554  12.072  46.031  1.00  0.00    -0.371 N 
ATOM     12  H2  UNL     1       7.146  12.790  46.449  1.00  0.00     0.161 HD
BRANCH  11  13
HETATM   13  C6  UNL     1       5.122  12.104  46.217  1.00  0.00     0.169 C 
BRANCH  13  14
HETATM   14  C5  UNL     1       4.507  12.868  45.078  1.00  0.00     0.024 A 
HETATM   15  C3  UNL     1       3.548  13.849  45.135  1.00  0.00     0.020 A 
HETATM   16  N1  UNL     1       3.161  14.377  44.019  1.00  0.00    -0.357 N 
HETATM   17  C4  UNL     1       2.980  14.276  46.479  1.00  0.00     0.069 C 
HETATM   18  C2  UNL     1       3.690  13.965  42.877  1.00  0.00     0.047 A 
ATOM     19  H1  UNL     1       2.449  15.108  44.019  1.00  0.00     0.166 HD
HETATM   20  C1  UNL     1       3.365  14.460  41.488  1.00  0.00     0.076 C 
HETATM   21  S1  UNL     1       4.794  12.768  43.392  1.00  0.00    -0.078 SA
ENDBRANCH  13  14
ENDBRANCH  11  13
ENDBRANCH   1  11
BRANCH   4  22
HETATM   22  C9  UNL     1       6.418   7.456  44.413  1.00  0.00     0.053 A 
HETATM   23  C10 UNL     1       7.088   6.351  43.687  1.00  0.00     0.013 A 
HETATM   24  C11 UNL     1       7.178   6.394  45.180  1.00  0.00     0.013 A 
ENDBRANCH   4  22
TORSDOF 4
ENDMDL
