MODEL 4
REMARK VINA RESULT: -7.291501233      1.130      1.997
REMARK  4 active torsions:
REMARK  status: ('A' for Active; 'I' for Inactive)
REMARK    1  A    between atoms: C5_7  and  C6_8 
REMARK    2  A    between atoms: C6_8  and  N2_9 
REMARK    3  A    between atoms: N2_9  and  C7_11 
REMARK    4  A    between atoms: C8_14  and  C9_15 
ROOT
HETATM    1  C7  UNL     1       4.492  12.056  45.046  1.00  0.00     0.111 A 
HETATM    2  N3  UNL     1       4.491  12.326  43.728  1.00  0.00    -0.331 N 
ATOM      3  H3  UNL     1       4.943  11.669  43.092  1.00  0.00     0.168 HD
HETATM    4  C8  UNL     1       3.916  13.428  43.219  1.00  0.00     0.088 A 
HETATM    5  N4  UNL     1       3.329  14.273  44.084  1.00  0.00    -0.336 N 
ATOM      6  H4  UNL     1       2.885  15.116  43.719  1.00  0.00     0.168 HD
HETATM    7  C12 UNL     1       3.301  14.054  45.408  1.00  0.00     0.114 A 
HETATM    8 CL1  UNL     1       2.533  15.163  46.525  1.00  0.00    -0.064 Cl
HETATM    9  C13 UNL     1       3.886  12.927  45.945  1.00  0.00     0.020 A 
HETATM   10  C14 UNL     1       3.892  12.624  47.393  1.00  0.00     0.056 C 
ENDROOT
BRANCH   1  11
HETATM   11  N2  UNL     1       5.105  10.888  45.552  1.00  0.00    -0.371 N 
ATOM     12  H2  UNL     1       4.994  10.629  46.532  1.00  0.00     0.161 HD
BRANCH  11  13
HETATM   13  C6  UNL     1       5.891  10.068  44.661  1.00  0.00     0.169 C 
BRANCH  13  14
HETATM   14  C5  UNL     1       7.231  10.720  44.465  1.00  0.00     0.024 A 
HETATM   15  C3  UNL     1       8.313  10.242  43.769  1.00  0.00     0.020 A 
HETATM   16  N1  UNL     1       9.376  10.979  43.730  1.00  0.00    -0.357 N 
HETATM   17  C4  UNL     1       8.234   8.889  43.081  1.00  0.00     0.069 C 
HETATM   18  C2  UNL     1       9.390  12.150  44.349  1.00  0.00     0.047 A 
ATOM     19  H1  UNL     1      10.202  10.658  43.224  1.00  0.00     0.166 HD
HETATM   20  C1  UNL     1      10.530  13.137  44.411  1.00  0.00     0.076 C 
HETATM   21  S1  UNL     1       7.824  12.226  45.027  1.00  0.00    -0.078 SA
ENDBRANCH  13  14
ENDBRANCH  11  13
ENDBRANCH   1  11
BRANCH   4  22
HETATM   22  C9  UNL     1       3.916  13.728  41.748  1.00  0.00     0.053 A 
HETATM   23  C10 UNL     1       2.982  14.738  41.198  1.00  0.00     0.013 A 
HETATM   24  C11 UNL     1       4.411  15.121  41.422  1.00  0.00     0.013 A 
ENDBRANCH   4  22
TORSDOF 4
ENDMDL
