MODEL 7
REMARK VINA RESULT: -7.203623120      2.501      4.092
REMARK  4 active torsions:
REMARK  status: ('A' for Active; 'I' for Inactive)
REMARK    1  A    between atoms: C5_7  and  C6_8 
REMARK    2  A    between atoms: C6_8  and  N2_9 
REMARK    3  A    between atoms: N2_9  and  C7_11 
REMARK    4  A    between atoms: C8_14  and  C9_15 
ROOT
HETATM    1  C7  UNL     1       5.083  11.172  43.710  1.00  0.00     0.111 A 
HETATM    2  N3  UNL     1       4.885  11.509  44.997  1.00  0.00    -0.331 N 
ATOM      3  H3  UNL     1       5.211  10.877  45.727  1.00  0.00     0.168 HD
HETATM    4  C8  UNL     1       4.271  12.650  45.357  1.00  0.00     0.088 A 
HETATM    5  N4  UNL     1       3.853  13.463  44.371  1.00  0.00    -0.336 N 
ATOM      6  H4  UNL     1       3.386  14.334  44.622  1.00  0.00     0.168 HD
HETATM    7  C12 UNL     1       4.025  13.176  43.071  1.00  0.00     0.114 A 
HETATM    8 CL1  UNL     1       3.475  14.243  41.796  1.00  0.00    -0.064 Cl
HETATM    9  C13 UNL     1       4.652  12.010  42.687  1.00  0.00     0.020 A 
HETATM   10  C14 UNL     1       4.874  11.633  41.274  1.00  0.00     0.056 C 
ENDROOT
BRANCH   1  11
HETATM   11  N2  UNL     1       5.731   9.967  43.363  1.00  0.00    -0.371 N 
ATOM     12  H2  UNL     1       5.380   9.392  42.597  1.00  0.00     0.161 HD
BRANCH  11  13
HETATM   13  C6  UNL     1       6.899   9.559  44.108  1.00  0.00     0.169 C 
BRANCH  13  14
HETATM   14  C5  UNL     1       7.174   8.111  43.815  1.00  0.00     0.024 A 
HETATM   15  C3  UNL     1       6.632   7.005  44.421  1.00  0.00     0.020 A 
HETATM   16  N1  UNL     1       7.017   5.842  44.005  1.00  0.00    -0.357 N 
HETATM   17  C4  UNL     1       5.618   7.175  45.540  1.00  0.00     0.069 C 
HETATM   18  C2  UNL     1       7.905   5.753  43.026  1.00  0.00     0.047 A 
ATOM     19  H1  UNL     1       6.638   4.995  44.430  1.00  0.00     0.166 HD
HETATM   20  C1  UNL     1       8.467   4.492  42.414  1.00  0.00     0.076 C 
HETATM   21  S1  UNL     1       8.221   7.392  42.666  1.00  0.00    -0.078 SA
ENDBRANCH  13  14
ENDBRANCH  11  13
ENDBRANCH   1  11
BRANCH   4  22
HETATM   22  C9  UNL     1       4.051  13.025  46.793  1.00  0.00     0.053 A 
HETATM   23  C10 UNL     1       2.905  13.887  47.167  1.00  0.00     0.013 A 
HETATM   24  C11 UNL     1       2.799  12.411  47.385  1.00  0.00     0.013 A 
ENDBRANCH   4  22
TORSDOF 4
ENDMDL
