MODEL 9
REMARK VINA RESULT: -9.479298947      1.691      2.129
REMARK  7 active torsions:
REMARK  status: ('A' for Active; 'I' for Inactive)
REMARK    1  A    between atoms: C5_7  and  C6_8 
REMARK    2  A    between atoms: N2_9  and  C7_11 
REMARK    3  A    between atoms: C8_14  and  O1_15 
REMARK    4  A    between atoms: O1_15  and  C9_16 
REMARK    5  A    between atoms: C9_16  and  C10_17 
REMARK    6  A    between atoms: C10_17  and  C11_18 
REMARK    7  A    between atoms: C11_18  and  C12_19 
ROOT
HETATM    1  C7  UNL     1       8.897  38.601  58.347  1.00  0.00     0.117 A 
HETATM    2  N3  UNL     1       8.392  38.020  57.267  1.00  0.00    -0.308 N 
ATOM      3  H3  UNL     1       8.848  38.176  56.369  1.00  0.00     0.171 HD
HETATM    4  C8  UNL     1       7.267  37.207  57.306  1.00  0.00     0.226 A 
HETATM    5  N5  UNL     1       6.710  37.014  58.493  1.00  0.00    -0.312 N 
ATOM      6  H5  UNL     1       5.886  36.414  58.542  1.00  0.00     0.170 HD
HETATM    7  C21 UNL     1       7.159  37.557  59.635  1.00  0.00     0.116 A 
HETATM    8 CL1  UNL     1       6.386  37.304  61.179  1.00  0.00    -0.064 Cl
HETATM    9  C22 UNL     1       8.271  38.367  59.611  1.00  0.00     0.021 A 
HETATM   10  C23 UNL     1       8.872  38.850  60.881  1.00  0.00     0.056 C 
ENDROOT
BRANCH   4  11
HETATM   11  O1  UNL     1       6.870  36.696  56.167  1.00  0.00    -0.322 OA
BRANCH  11  12
HETATM   12  C9  UNL     1       6.898  35.892  55.093  1.00  0.00     0.179 C 
BRANCH  12  13
HETATM   13  C10 UNL     1       5.883  34.798  55.341  1.00  0.00     0.033 C 
BRANCH  13  14
HETATM   14  C11 UNL     1       4.671  35.041  56.112  1.00  0.00     0.059 C 
BRANCH  14  15
HETATM   15  C12 UNL     1       3.545  35.235  55.093  1.00  0.00     0.009 A 
HETATM   16  C13 UNL     1       3.563  34.692  53.859  1.00  0.00     0.026 A 
HETATM   17  C14 UNL     1       2.377  34.708  53.097  1.00  0.00     0.015 A 
HETATM   18  C15 UNL     1       1.203  35.259  53.565  1.00  0.00    -0.009 A 
HETATM   19  C16 UNL     1       0.021  35.253  52.881  1.00  0.00     0.013 A 
HETATM   20  C20 UNL     1       1.275  35.800  54.828  1.00  0.00     0.042 A 
HETATM   21  C17 UNL     1      -1.176  35.791  53.375  1.00  0.00     0.001 A 
HETATM   22  C18 UNL     1      -1.094  36.357  54.655  1.00  0.00     0.002 A 
HETATM   23  C19 UNL     1       0.098  36.354  55.339  1.00  0.00     0.030 A 
HETATM   24  N4  UNL     1       2.391  35.797  55.582  1.00  0.00    -0.359 N 
ATOM     25  H4  UNL     1       2.378  36.210  56.515  1.00  0.00     0.166 HD
ENDBRANCH  14  15
ENDBRANCH  13  14
ENDBRANCH  12  13
ENDBRANCH  11  12
ENDBRANCH   4  11
BRANCH   1  26
HETATM   26  N2  UNL     1       9.897  39.595  58.371  1.00  0.00    -0.350 N 
HETATM   27  C6  UNL     1      10.613  40.405  57.562  1.00  0.00     0.110 C 
ATOM     28  H2  UNL     1      10.176  39.760  59.338  1.00  0.00     0.166 HD
BRANCH  27  29
HETATM   29  C5  UNL     1      10.341  41.729  56.990  1.00  0.00     0.044 A 
HETATM   30  C3  UNL     1      10.571  41.933  55.588  1.00  0.00     0.024 A 
HETATM   31  N1  UNL     1      10.095  42.978  55.079  1.00  0.00    -0.357 N 
HETATM   32  C4  UNL     1      11.517  40.985  54.854  1.00  0.00     0.069 C 
HETATM   33  C2  UNL     1       9.415  43.861  55.780  1.00  0.00     0.048 A 
ATOM     34  H1  UNL     1      10.240  43.149  54.083  1.00  0.00     0.166 HD
HETATM   35  C1  UNL     1       8.761  45.075  55.239  1.00  0.00     0.076 C 
HETATM   36  S1  UNL     1       9.461  43.124  57.344  1.00  0.00    -0.074 SA
ENDBRANCH  27  29
ENDBRANCH   1  26
TORSDOF 7
ENDMDL
