MODEL 4
REMARK VINA RESULT: -9.759881898      4.214      7.027
REMARK  7 active torsions:
REMARK  status: ('A' for Active; 'I' for Inactive)
REMARK    1  A    between atoms: C5_7  and  C6_8 
REMARK    2  A    between atoms: N2_9  and  C7_11 
REMARK    3  A    between atoms: C8_14  and  O1_15 
REMARK    4  A    between atoms: O1_15  and  C9_16 
REMARK    5  A    between atoms: C9_16  and  C10_17 
REMARK    6  A    between atoms: C10_17  and  C11_18 
REMARK    7  A    between atoms: C11_18  and  C12_19 
ROOT
HETATM    1  C7  UNL     1       9.616  43.478  56.929  1.00  0.00     0.117 A 
HETATM    2  N3  UNL     1      10.257  42.507  57.565  1.00  0.00    -0.308 N 
ATOM      3  H3  UNL     1      11.116  42.140  57.156  1.00  0.00     0.171 HD
HETATM    4  C8  UNL     1       9.809  41.967  58.763  1.00  0.00     0.226 A 
HETATM    5  N5  UNL     1       8.698  42.479  59.271  1.00  0.00    -0.312 N 
ATOM      6  H5  UNL     1       8.358  42.100  60.154  1.00  0.00     0.170 HD
HETATM    7  C21 UNL     1       7.991  43.467  58.698  1.00  0.00     0.116 A 
HETATM    8 CL1  UNL     1       6.516  44.102  59.381  1.00  0.00    -0.064 Cl
HETATM    9  C22 UNL     1       8.421  44.009  57.510  1.00  0.00     0.021 A 
HETATM   10  C23 UNL     1       7.741  45.202  56.942  1.00  0.00     0.056 C 
ENDROOT
BRANCH   4  11
HETATM   11  O1  UNL     1      10.536  41.010  59.285  1.00  0.00    -0.322 OA
BRANCH  11  12
HETATM   12  C9  UNL     1      11.455  40.448  60.086  1.00  0.00     0.179 C 
BRANCH  12  13
HETATM   13  C10 UNL     1      10.754  39.342  60.843  1.00  0.00     0.033 C 
BRANCH  13  14
HETATM   14  C11 UNL     1       9.395  39.500  61.343  1.00  0.00     0.059 C 
BRANCH  14  15
HETATM   15  C12 UNL     1       8.546  38.448  60.625  1.00  0.00     0.009 A 
HETATM   16  C13 UNL     1       7.616  37.697  61.249  1.00  0.00     0.026 A 
HETATM   17  C14 UNL     1       6.714  36.951  60.464  1.00  0.00     0.015 A 
HETATM   18  C15 UNL     1       6.749  36.957  59.086  1.00  0.00    -0.009 A 
HETATM   19  C16 UNL     1       5.865  36.288  58.288  1.00  0.00     0.013 A 
HETATM   20  C20 UNL     1       7.736  37.740  58.531  1.00  0.00     0.042 A 
HETATM   21  C17 UNL     1       5.891  36.322  56.886  1.00  0.00     0.001 A 
HETATM   22  C18 UNL     1       6.908  37.106  56.325  1.00  0.00     0.002 A 
HETATM   23  C19 UNL     1       7.789  37.781  57.135  1.00  0.00     0.030 A 
HETATM   24  N4  UNL     1       8.609  38.468  59.253  1.00  0.00    -0.359 N 
ATOM     25  H4  UNL     1       9.315  39.033  58.781  1.00  0.00     0.166 HD
ENDBRANCH  14  15
ENDBRANCH  13  14
ENDBRANCH  12  13
ENDBRANCH  11  12
ENDBRANCH   4  11
BRANCH   1  26
HETATM   26  N2  UNL     1       9.878  43.938  55.623  1.00  0.00    -0.350 N 
HETATM   27  C6  UNL     1      10.892  44.263  54.791  1.00  0.00     0.110 C 
ATOM     28  H2  UNL     1       8.993  44.073  55.135  1.00  0.00     0.166 HD
BRANCH  27  29
HETATM   29  C5  UNL     1      11.731  43.465  53.889  1.00  0.00     0.044 A 
HETATM   30  C3  UNL     1      13.113  43.822  53.738  1.00  0.00     0.024 A 
HETATM   31  N1  UNL     1      13.860  42.985  53.173  1.00  0.00    -0.357 N 
HETATM   32  C4  UNL     1      13.546  45.242  54.096  1.00  0.00     0.069 C 
HETATM   33  C2  UNL     1      13.416  41.827  52.730  1.00  0.00     0.048 A 
ATOM     34  H1  UNL     1      14.847  43.210  53.054  1.00  0.00     0.166 HD
HETATM   35  C1  UNL     1      14.245  40.760  52.124  1.00  0.00     0.076 C 
HETATM   36  S1  UNL     1      11.745  41.943  53.162  1.00  0.00    -0.074 SA
ENDBRANCH  27  29
ENDBRANCH   1  26
TORSDOF 7
ENDMDL
