MODEL 1
REMARK VINA RESULT: -10.299120559      0.000      0.000
REMARK  7 active torsions:
REMARK  status: ('A' for Active; 'I' for Inactive)
REMARK    1  A    between atoms: C5_7  and  C6_8 
REMARK    2  A    between atoms: N2_9  and  C7_11 
REMARK    3  A    between atoms: C8_14  and  O1_15 
REMARK    4  A    between atoms: O1_15  and  C9_16 
REMARK    5  A    between atoms: C9_16  and  C10_17 
REMARK    6  A    between atoms: C10_17  and  C11_18 
REMARK    7  A    between atoms: C11_18  and  C12_19 
ROOT
HETATM    1  C7  UNL     1       9.022  38.550  60.272  1.00  0.00     0.117 A 
HETATM    2  N3  UNL     1       8.402  38.363  59.115  1.00  0.00    -0.308 N 
ATOM      3  H3  UNL     1       8.769  38.826  58.284  1.00  0.00     0.171 HD
HETATM    4  C8  UNL     1       7.274  37.564  58.986  1.00  0.00     0.226 A 
HETATM    5  N5  UNL     1       6.835  36.966  60.084  1.00  0.00    -0.312 N 
ATOM      6  H5  UNL     1       6.012  36.370  60.006  1.00  0.00     0.170 HD
HETATM    7  C21 UNL     1       7.406  37.095  61.293  1.00  0.00     0.116 A 
HETATM    8 CL1  UNL     1       6.787  36.315  62.726  1.00  0.00    -0.064 Cl
HETATM    9  C22 UNL     1       8.521  37.886  61.436  1.00  0.00     0.021 A 
HETATM   10  C23 UNL     1       9.255  37.917  62.728  1.00  0.00     0.056 C 
ENDROOT
BRANCH   4  11
HETATM   11  O1  UNL     1       6.757  37.466  57.786  1.00  0.00    -0.322 OA
BRANCH  11  12
HETATM   12  C9  UNL     1       6.481  36.906  56.598  1.00  0.00     0.179 C 
BRANCH  12  13
HETATM   13  C10 UNL     1       5.065  36.379  56.684  1.00  0.00     0.033 C 
BRANCH  13  14
HETATM   14  C11 UNL     1       4.717  35.045  56.214  1.00  0.00     0.059 C 
BRANCH  14  15
HETATM   15  C12 UNL     1       3.610  35.229  55.173  1.00  0.00     0.009 A 
HETATM   16  C13 UNL     1       3.651  34.675  53.944  1.00  0.00     0.026 A 
HETATM   17  C14 UNL     1       2.480  34.684  53.161  1.00  0.00     0.015 A 
HETATM   18  C15 UNL     1       1.298  35.240  53.601  1.00  0.00    -0.009 A 
HETATM   19  C16 UNL     1       0.128  35.228  52.895  1.00  0.00     0.013 A 
HETATM   20  C20 UNL     1       1.346  35.793  54.860  1.00  0.00     0.042 A 
HETATM   21  C17 UNL     1      -1.077  35.771  53.361  1.00  0.00     0.001 A 
HETATM   22  C18 UNL     1      -1.019  36.350  54.637  1.00  0.00     0.002 A 
HETATM   23  C19 UNL     1       0.160  36.352  55.344  1.00  0.00     0.030 A 
HETATM   24  N4  UNL     1       2.447  35.796  55.635  1.00  0.00    -0.359 N 
ATOM     25  H4  UNL     1       2.418  36.219  56.563  1.00  0.00     0.166 HD
ENDBRANCH  14  15
ENDBRANCH  13  14
ENDBRANCH  12  13
ENDBRANCH  11  12
ENDBRANCH   4  11
BRANCH   1  26
HETATM   26  N2  UNL     1      10.034  39.495  60.536  1.00  0.00    -0.350 N 
HETATM   27  C6  UNL     1      11.215  39.951  60.064  1.00  0.00     0.110 C 
ATOM     28  H2  UNL     1       9.790  40.017  61.378  1.00  0.00     0.166 HD
BRANCH  27  29
HETATM   29  C5  UNL     1      11.557  40.957  59.052  1.00  0.00     0.044 A 
HETATM   30  C3  UNL     1      12.834  40.873  58.401  1.00  0.00     0.024 A 
HETATM   31  N1  UNL     1      12.998  41.577  57.373  1.00  0.00    -0.357 N 
HETATM   32  C4  UNL     1      13.955  40.094  59.085  1.00  0.00     0.069 C 
HETATM   33  C2  UNL     1      12.056  42.365  56.898  1.00  0.00     0.048 A 
ATOM     34  H1  UNL     1      13.894  41.536  56.888  1.00  0.00     0.166 HD
HETATM   35  C1  UNL     1      12.147  43.165  55.655  1.00  0.00     0.076 C 
HETATM   36  S1  UNL     1      10.794  42.077  58.046  1.00  0.00    -0.074 SA
ENDBRANCH  27  29
ENDBRANCH   1  26
TORSDOF 7
ENDMDL
