MODEL 3
REMARK VINA RESULT: -9.964720616      4.637      8.906
REMARK  7 active torsions:
REMARK  status: ('A' for Active; 'I' for Inactive)
REMARK    1  A    between atoms: C5_7  and  C6_8 
REMARK    2  A    between atoms: N2_9  and  C7_11 
REMARK    3  A    between atoms: C8_14  and  O1_15 
REMARK    4  A    between atoms: O1_15  and  C9_16 
REMARK    5  A    between atoms: C9_16  and  C10_17 
REMARK    6  A    between atoms: C10_17  and  C11_18 
REMARK    7  A    between atoms: C11_18  and  C12_19 
ROOT
HETATM    1  C7  UNL     1      11.850  40.784  59.019  1.00  0.00     0.117 A 
HETATM    2  N3  UNL     1      11.934  40.717  57.697  1.00  0.00    -0.308 N 
ATOM      3  H3  UNL     1      11.377  40.019  57.207  1.00  0.00     0.171 HD
HETATM    4  C8  UNL     1      12.749  41.558  56.952  1.00  0.00     0.226 A 
HETATM    5  N5  UNL     1      13.447  42.463  57.621  1.00  0.00    -0.312 N 
ATOM      6  H5  UNL     1      14.047  43.094  57.089  1.00  0.00     0.170 HD
HETATM    7  C21 UNL     1      13.417  42.604  58.956  1.00  0.00     0.116 A 
HETATM    8 CL1  UNL     1      14.369  43.790  59.811  1.00  0.00    -0.064 Cl
HETATM    9  C22 UNL     1      12.616  41.776  59.708  1.00  0.00     0.021 A 
HETATM   10  C23 UNL     1      12.451  42.017  61.165  1.00  0.00     0.056 C 
ENDROOT
BRANCH   4  11
HETATM   11  O1  UNL     1      12.741  41.385  55.652  1.00  0.00    -0.322 OA
BRANCH  11  12
HETATM   12  C9  UNL     1      12.301  41.500  54.390  1.00  0.00     0.179 C 
BRANCH  12  13
HETATM   13  C10 UNL     1      11.014  42.293  54.449  1.00  0.00     0.033 C 
BRANCH  13  14
HETATM   14  C11 UNL     1      11.013  43.750  54.443  1.00  0.00     0.059 C 
BRANCH  14  15
HETATM   15  C12 UNL     1      10.048  44.185  55.549  1.00  0.00     0.009 A 
HETATM   16  C13 UNL     1       9.197  45.223  55.421  1.00  0.00     0.026 A 
HETATM   17  C14 UNL     1       8.177  45.381  56.382  1.00  0.00     0.015 A 
HETATM   18  C15 UNL     1       8.021  44.519  57.446  1.00  0.00    -0.009 A 
HETATM   19  C16 UNL     1       7.020  44.607  58.371  1.00  0.00     0.013 A 
HETATM   20  C20 UNL     1       8.938  43.495  57.507  1.00  0.00     0.042 A 
HETATM   21  C17 UNL     1       6.851  43.710  59.434  1.00  0.00     0.001 A 
HETATM   22  C18 UNL     1       7.798  42.678  59.503  1.00  0.00     0.002 A 
HETATM   23  C19 UNL     1       8.798  42.593  58.565  1.00  0.00     0.030 A 
HETATM   24  N4  UNL     1       9.920  43.313  56.603  1.00  0.00    -0.359 N 
ATOM     25  H4  UNL     1      10.566  42.531  56.701  1.00  0.00     0.166 HD
ENDBRANCH  14  15
ENDBRANCH  13  14
ENDBRANCH  12  13
ENDBRANCH  11  12
ENDBRANCH   4  11
BRANCH   1  26
HETATM   26  N2  UNL     1      11.219  39.849  59.865  1.00  0.00    -0.350 N 
HETATM   27  C6  UNL     1      10.002  39.459  60.301  1.00  0.00     0.110 C 
ATOM     28  H2  UNL     1      11.931  39.264  60.302  1.00  0.00     0.166 HD
BRANCH  27  29
HETATM   29  C5  UNL     1       9.001  38.536  59.753  1.00  0.00     0.044 A 
HETATM   30  C3  UNL     1       8.158  37.815  60.664  1.00  0.00     0.024 A 
HETATM   31  N1  UNL     1       7.154  37.238  60.177  1.00  0.00    -0.357 N 
HETATM   32  C4  UNL     1       8.622  37.638  62.108  1.00  0.00     0.069 C 
HETATM   33  C2  UNL     1       6.870  37.277  58.892  1.00  0.00     0.048 A 
ATOM     34  H1  UNL     1       6.536  36.719  60.800  1.00  0.00     0.166 HD
HETATM   35  C1  UNL     1       5.669  36.688  58.255  1.00  0.00     0.076 C 
HETATM   36  S1  UNL     1       8.182  38.242  58.308  1.00  0.00    -0.074 SA
ENDBRANCH  27  29
ENDBRANCH   1  26
TORSDOF 7
ENDMDL
