MODEL 5
REMARK VINA RESULT: -9.723075997      5.510      8.377
REMARK  7 active torsions:
REMARK  status: ('A' for Active; 'I' for Inactive)
REMARK    1  A    between atoms: C5_7  and  C6_8 
REMARK    2  A    between atoms: N2_9  and  C7_11 
REMARK    3  A    between atoms: C8_14  and  O1_15 
REMARK    4  A    between atoms: O1_15  and  C9_16 
REMARK    5  A    between atoms: C9_16  and  C10_17 
REMARK    6  A    between atoms: C10_17  and  C11_18 
REMARK    7  A    between atoms: C11_18  and  C12_19 
ROOT
HETATM    1  C7  UNL     1      10.788  41.679  55.443  1.00  0.00     0.117 A 
HETATM    2  N3  UNL     1      11.511  41.690  56.554  1.00  0.00    -0.308 N 
ATOM      3  H3  UNL     1      12.046  42.528  56.780  1.00  0.00     0.171 HD
HETATM    4  C8  UNL     1      11.571  40.610  57.424  1.00  0.00     0.226 A 
HETATM    5  N5  UNL     1      10.850  39.545  57.107  1.00  0.00    -0.312 N 
ATOM      6  H5  UNL     1      10.877  38.744  57.738  1.00  0.00     0.170 HD
HETATM    7  C21 UNL     1      10.087  39.451  56.006  1.00  0.00     0.116 A 
HETATM    8 CL1  UNL     1       9.169  38.023  55.602  1.00  0.00    -0.064 Cl
HETATM    9  C22 UNL     1      10.020  40.512  55.134  1.00  0.00     0.021 A 
HETATM   10  C23 UNL     1       9.063  40.486  53.997  1.00  0.00     0.056 C 
ENDROOT
BRANCH   4  11
HETATM   11  O1  UNL     1      12.326  40.751  58.487  1.00  0.00    -0.322 OA
BRANCH  11  12
HETATM   12  C9  UNL     1      12.960  41.394  59.479  1.00  0.00     0.179 C 
BRANCH  12  13
HETATM   13  C10 UNL     1      12.728  40.586  60.738  1.00  0.00     0.033 C 
BRANCH  13  14
HETATM   14  C11 UNL     1      11.631  40.888  61.647  1.00  0.00     0.059 C 
BRANCH  14  15
HETATM   15  C12 UNL     1      10.676  39.694  61.583  1.00  0.00     0.009 A 
HETATM   16  C13 UNL     1      10.348  38.950  62.659  1.00  0.00     0.026 A 
HETATM   17  C14 UNL     1       9.272  38.046  62.552  1.00  0.00     0.015 A 
HETATM   18  C15 UNL     1       8.546  37.892  61.391  1.00  0.00    -0.009 A 
HETATM   19  C16 UNL     1       7.467  37.065  61.258  1.00  0.00     0.013 A 
HETATM   20  C20 UNL     1       8.953  38.681  60.339  1.00  0.00     0.042 A 
HETATM   21  C17 UNL     1       6.716  36.935  60.081  1.00  0.00     0.001 A 
HETATM   22  C18 UNL     1       7.145  37.727  59.007  1.00  0.00     0.002 A 
HETATM   23  C19 UNL     1       8.228  38.561  59.150  1.00  0.00     0.030 A 
HETATM   24  N4  UNL     1       9.973  39.557  60.410  1.00  0.00    -0.359 N 
ATOM     25  H4  UNL     1      10.224  40.117  59.595  1.00  0.00     0.166 HD
ENDBRANCH  14  15
ENDBRANCH  13  14
ENDBRANCH  12  13
ENDBRANCH  11  12
ENDBRANCH   4  11
BRANCH   1  26
HETATM   26  N2  UNL     1      10.829  42.635  54.408  1.00  0.00    -0.350 N 
HETATM   27  C6  UNL     1      11.663  43.498  53.788  1.00  0.00     0.110 C 
ATOM     28  H2  UNL     1       9.907  42.696  53.976  1.00  0.00     0.166 HD
BRANCH  27  29
HETATM   29  C5  UNL     1      12.615  43.337  52.682  1.00  0.00     0.044 A 
HETATM   30  C3  UNL     1      13.973  42.987  52.989  1.00  0.00     0.024 A 
HETATM   31  N1  UNL     1      14.694  42.608  52.032  1.00  0.00    -0.357 N 
HETATM   32  C4  UNL     1      14.503  43.266  54.394  1.00  0.00     0.069 C 
HETATM   33  C2  UNL     1      14.246  42.531  50.796  1.00  0.00     0.048 A 
ATOM     34  H1  UNL     1      15.663  42.350  52.220  1.00  0.00     0.166 HD
HETATM   35  C1  UNL     1      15.009  42.024  49.632  1.00  0.00     0.076 C 
HETATM   36  S1  UNL     1      12.614  43.061  51.018  1.00  0.00    -0.074 SA
ENDBRANCH  27  29
ENDBRANCH   1  26
TORSDOF 7
ENDMDL
