MODEL 6
REMARK VINA RESULT: -8.553217541      3.145      5.160
REMARK  9 active torsions:
REMARK  status: ('A' for Active; 'I' for Inactive)
REMARK    1  A    between atoms: N1_4  and  C4_5 
REMARK    2  A    between atoms: C6_7  and  O1_8 
REMARK    3  A    between atoms: C7_10  and  C8_11 
REMARK    4  A    between atoms: C8_11  and  O2_12 
REMARK    5  A    between atoms: O2_12  and  P1_13 
REMARK    6  A    between atoms: P1_13  and  O5_16 
REMARK    7  A    between atoms: O5_16  and  P2_17 
REMARK    8  A    between atoms: P2_17  and  O8_20 
REMARK    9  A    between atoms: O8_20  and  P3_21 
ROOT
HETATM    1  C4  UNL     1      71.538  57.835  44.762  1.00  0.00     0.235 C 
HETATM    2  C5  UNL     1      70.093  57.550  44.461  1.00  0.00     0.088 C 
HETATM    3  C6  UNL     1      69.976  58.109  43.036  1.00  0.00     0.153 C 
HETATM    4  C7  UNL     1      71.240  58.956  42.944  1.00  0.00     0.177 C 
HETATM    5  O12 UNL     1      71.685  59.129  44.251  1.00  0.00    -0.356 OA
ENDROOT
BRANCH   4   6
HETATM    6  C8  UNL     1      70.944  60.254  42.255  1.00  0.00     0.216 C 
BRANCH   6   7
HETATM    7  O2  UNL     1      71.217  60.172  40.922  1.00  0.00    -0.287 OA
BRANCH   7   8
HETATM    8  P1  UNL     1      69.834  60.627  40.096  1.00  0.00     0.417 P 
HETATM    9  O3  UNL     1      70.007  61.661  38.793  1.00  0.00    -0.624 OA
HETATM   10  O4  UNL     1      68.366  60.260  40.629  1.00  0.00    -0.624 OA
BRANCH   8  11
HETATM   11  O5  UNL     1      70.026  59.436  39.164  1.00  0.00    -0.180 OA
BRANCH  11  12
HETATM   12  P2  UNL     1      68.924  58.598  38.469  1.00  0.00     0.428 P 
HETATM   13  O6  UNL     1      69.666  58.710  37.022  1.00  0.00    -0.624 OA
HETATM   14  O7  UNL     1      69.342  57.360  39.488  1.00  0.00    -0.624 OA
BRANCH  12  15
HETATM   15  O8  UNL     1      67.801  57.720  37.907  1.00  0.00    -0.173 OA
BRANCH  15  16
HETATM   16  P3  UNL     1      67.169  56.386  38.548  1.00  0.00     0.431 P 
HETATM   17  O9  UNL     1      66.310  56.410  39.990  1.00  0.00    -0.616 OA
HETATM   18  O10 UNL     1      65.906  56.394  37.709  1.00  0.00    -0.616 OA
HETATM   19  O11 UNL     1      67.561  54.861  37.978  1.00  0.00    -0.616 OA
ENDBRANCH  15  16
ENDBRANCH  12  15
ENDBRANCH  11  12
ENDBRANCH   8  11
ENDBRANCH   7   8
ENDBRANCH   6   7
ENDBRANCH   4   6
BRANCH   3  20
HETATM   20  O1  UNL     1      70.125  57.076  42.113  1.00  0.00    -0.393 OA
ATOM     21  H1  UNL     1      69.389  57.075  41.512  1.00  0.00     0.210 HD
ENDBRANCH   3  20
BRANCH   1  22
HETATM   22  N1  UNL     1      71.870  57.756  46.151  1.00  0.00    -0.282 N 
HETATM   23  C3  UNL     1      71.292  58.486  47.122  1.00  0.00     0.110 A 
HETATM   24  C2  UNL     1      71.651  58.370  48.449  1.00  0.00     0.022 A 
HETATM   25  C1  UNL     1      71.002  59.185  49.510  1.00  0.00     0.056 C 
HETATM   26  C10 UNL     1      72.641  57.472  48.800  1.00  0.00     0.256 A 
HETATM   27  N2  UNL     1      73.205  56.754  47.820  1.00  0.00    -0.275 N 
HETATM   28  O14 UNL     1      72.985  57.353  50.024  1.00  0.00    -0.267 OA
HETATM   29  C9  UNL     1      72.830  56.891  46.525  1.00  0.00     0.331 A 
ATOM     30  H2  UNL     1      73.938  56.085  48.056  1.00  0.00     0.173 HD
HETATM   31  O13 UNL     1      73.442  56.154  45.702  1.00  0.00    -0.246 OA
ENDBRANCH   1  22
TORSDOF 9
ENDMDL
