MODEL 10
REMARK VINA RESULT: -8.425819154      3.216      5.806
REMARK  9 active torsions:
REMARK  status: ('A' for Active; 'I' for Inactive)
REMARK    1  A    between atoms: N1_4  and  C4_5 
REMARK    2  A    between atoms: C6_7  and  O1_8 
REMARK    3  A    between atoms: C7_10  and  C8_11 
REMARK    4  A    between atoms: C8_11  and  O2_12 
REMARK    5  A    between atoms: O2_12  and  P1_13 
REMARK    6  A    between atoms: P1_13  and  O5_16 
REMARK    7  A    between atoms: O5_16  and  P2_17 
REMARK    8  A    between atoms: P2_17  and  O8_20 
REMARK    9  A    between atoms: O8_20  and  P3_21 
ROOT
HETATM    1  C4  UNL     1      70.922  58.011  45.485  1.00  0.00     0.235 C 
HETATM    2  C5  UNL     1      71.617  58.287  44.181  1.00  0.00     0.088 C 
HETATM    3  C6  UNL     1      70.429  58.277  43.209  1.00  0.00     0.153 C 
HETATM    4  C7  UNL     1      69.354  57.609  44.059  1.00  0.00     0.177 C 
HETATM    5  O12 UNL     1      70.022  57.003  45.120  1.00  0.00    -0.356 OA
ENDROOT
BRANCH   4   6
HETATM    6  C8  UNL     1      68.574  56.632  43.233  1.00  0.00     0.216 C 
BRANCH   6   7
HETATM    7  O2  UNL     1      68.770  56.853  41.902  1.00  0.00    -0.287 OA
BRANCH   7   8
HETATM    8  P1  UNL     1      67.315  57.374  41.258  1.00  0.00     0.417 P 
HETATM    9  O3  UNL     1      66.345  58.350  42.209  1.00  0.00    -0.624 OA
HETATM   10  O4  UNL     1      66.755  56.817  39.861  1.00  0.00    -0.624 OA
BRANCH   8  11
HETATM   11  O5  UNL     1      68.023  58.615  40.723  1.00  0.00    -0.180 OA
BRANCH  11  12
HETATM   12  P2  UNL     1      68.577  58.839  39.294  1.00  0.00     0.428 P 
HETATM   13  O6  UNL     1      67.859  60.298  39.179  1.00  0.00    -0.624 OA
HETATM   14  O7  UNL     1      70.092  58.745  39.959  1.00  0.00    -0.624 OA
BRANCH  12  15
HETATM   15  O8  UNL     1      69.223  58.966  37.911  1.00  0.00    -0.173 OA
BRANCH  15  16
HETATM   16  P3  UNL     1      69.336  57.846  36.761  1.00  0.00     0.431 P 
HETATM   17  O9  UNL     1      68.190  57.700  35.542  1.00  0.00    -0.616 OA
HETATM   18  O10 UNL     1      70.286  58.627  35.875  1.00  0.00    -0.616 OA
HETATM   19  O11 UNL     1      70.433  56.585  36.861  1.00  0.00    -0.616 OA
ENDBRANCH  15  16
ENDBRANCH  12  15
ENDBRANCH  11  12
ENDBRANCH   8  11
ENDBRANCH   7   8
ENDBRANCH   6   7
ENDBRANCH   4   6
BRANCH   3  20
HETATM   20  O1  UNL     1      69.997  59.582  42.982  1.00  0.00    -0.393 OA
ATOM     21  H1  UNL     1      69.052  59.626  43.068  1.00  0.00     0.210 HD
ENDBRANCH   3  20
BRANCH   1  22
HETATM   22  N1  UNL     1      71.800  57.603  46.538  1.00  0.00    -0.282 N 
HETATM   23  C3  UNL     1      72.637  56.551  46.476  1.00  0.00     0.110 A 
HETATM   24  C2  UNL     1      73.464  56.200  47.523  1.00  0.00     0.022 A 
HETATM   25  C1  UNL     1      74.383  55.034  47.438  1.00  0.00     0.056 C 
HETATM   26  C10 UNL     1      73.436  56.954  48.681  1.00  0.00     0.256 A 
HETATM   27  N2  UNL     1      72.597  57.998  48.724  1.00  0.00    -0.275 N 
HETATM   28  O14 UNL     1      74.196  56.643  49.659  1.00  0.00    -0.267 OA
HETATM   29  C9  UNL     1      71.797  58.316  47.678  1.00  0.00     0.331 A 
ATOM     30  H2  UNL     1      72.560  58.568  49.569  1.00  0.00     0.173 HD
HETATM   31  O13 UNL     1      71.054  59.323  47.850  1.00  0.00    -0.246 OA
ENDBRANCH   1  22
TORSDOF 9
ENDMDL
