MODEL 5
REMARK VINA RESULT: -8.579355113      3.467      6.170
REMARK  9 active torsions:
REMARK  status: ('A' for Active; 'I' for Inactive)
REMARK    1  A    between atoms: N1_4  and  C4_5 
REMARK    2  A    between atoms: C6_7  and  O1_8 
REMARK    3  A    between atoms: C7_10  and  C8_11 
REMARK    4  A    between atoms: C8_11  and  O2_12 
REMARK    5  A    between atoms: O2_12  and  P1_13 
REMARK    6  A    between atoms: P1_13  and  O5_16 
REMARK    7  A    between atoms: O5_16  and  P2_17 
REMARK    8  A    between atoms: P2_17  and  O8_20 
REMARK    9  A    between atoms: O8_20  and  P3_21 
ROOT
HETATM    1  C4  UNL     1      70.847  57.928  45.520  1.00  0.00     0.235 C 
HETATM    2  C5  UNL     1      71.510  58.236  44.207  1.00  0.00     0.088 C 
HETATM    3  C6  UNL     1      70.309  58.184  43.253  1.00  0.00     0.153 C 
HETATM    4  C7  UNL     1      69.274  57.472  44.116  1.00  0.00     0.177 C 
HETATM    5  O12 UNL     1      69.980  56.888  45.164  1.00  0.00    -0.356 OA
ENDROOT
BRANCH   4   6
HETATM    6  C8  UNL     1      68.518  56.470  43.297  1.00  0.00     0.216 C 
BRANCH   6   7
HETATM    7  O2  UNL     1      68.508  56.824  41.981  1.00  0.00    -0.287 OA
BRANCH   7   8
HETATM    8  P1  UNL     1      67.021  57.523  41.659  1.00  0.00     0.417 P 
HETATM    9  O3  UNL     1      66.879  59.180  41.846  1.00  0.00    -0.624 OA
HETATM   10  O4  UNL     1      65.712  56.642  41.370  1.00  0.00    -0.624 OA
BRANCH   8  11
HETATM   11  O5  UNL     1      67.459  57.734  40.213  1.00  0.00    -0.180 OA
BRANCH  11  12
HETATM   12  P2  UNL     1      68.785  58.360  39.713  1.00  0.00     0.428 P 
HETATM   13  O6  UNL     1      69.351  56.914  39.216  1.00  0.00    -0.624 OA
HETATM   14  O7  UNL     1      67.867  59.260  38.668  1.00  0.00    -0.624 OA
BRANCH  12  15
HETATM   15  O8  UNL     1      70.029  59.100  39.214  1.00  0.00    -0.173 OA
BRANCH  15  16
HETATM   16  P3  UNL     1      70.525  60.582  39.600  1.00  0.00     0.431 P 
HETATM   17  O9  UNL     1      70.096  61.929  38.694  1.00  0.00    -0.616 OA
HETATM   18  O10 UNL     1      69.447  60.842  40.634  1.00  0.00    -0.616 OA
HETATM   19  O11 UNL     1      71.716  60.845  40.747  1.00  0.00    -0.616 OA
ENDBRANCH  15  16
ENDBRANCH  12  15
ENDBRANCH  11  12
ENDBRANCH   8  11
ENDBRANCH   7   8
ENDBRANCH   6   7
ENDBRANCH   4   6
BRANCH   3  20
HETATM   20  O1  UNL     1      69.825  59.473  43.039  1.00  0.00    -0.393 OA
ATOM     21  H1  UNL     1      69.458  59.537  42.165  1.00  0.00     0.210 HD
ENDBRANCH   3  20
BRANCH   1  22
HETATM   22  N1  UNL     1      71.756  57.549  46.557  1.00  0.00    -0.282 N 
HETATM   23  C3  UNL     1      72.605  56.507  46.493  1.00  0.00     0.110 A 
HETATM   24  C2  UNL     1      73.463  56.185  47.524  1.00  0.00     0.022 A 
HETATM   25  C1  UNL     1      74.394  55.030  47.436  1.00  0.00     0.056 C 
HETATM   26  C10 UNL     1      73.453  56.957  48.670  1.00  0.00     0.256 A 
HETATM   27  N2  UNL     1      72.601  57.990  48.717  1.00  0.00    -0.275 N 
HETATM   28  O14 UNL     1      74.240  56.672  49.634  1.00  0.00    -0.267 OA
HETATM   29  C9  UNL     1      71.771  58.281  47.686  1.00  0.00     0.331 A 
ATOM     30  H2  UNL     1      72.577  58.574  49.552  1.00  0.00     0.173 HD
HETATM   31  O13 UNL     1      71.019  59.280  47.860  1.00  0.00    -0.246 OA
ENDBRANCH   1  22
TORSDOF 9
ENDMDL
