MODEL 13
REMARK VINA RESULT: -8.365678187      1.908      3.586
REMARK  9 active torsions:
REMARK  status: ('A' for Active; 'I' for Inactive)
REMARK    1  A    between atoms: N1_4  and  C4_5 
REMARK    2  A    between atoms: C6_7  and  O1_8 
REMARK    3  A    between atoms: C7_10  and  C8_11 
REMARK    4  A    between atoms: C8_11  and  O2_12 
REMARK    5  A    between atoms: O2_12  and  P1_13 
REMARK    6  A    between atoms: P1_13  and  O5_16 
REMARK    7  A    between atoms: O5_16  and  P2_17 
REMARK    8  A    between atoms: P2_17  and  O8_20 
REMARK    9  A    between atoms: O8_20  and  P3_21 
ROOT
HETATM    1  C4  UNL     1      70.003  59.872  41.043  1.00  0.00     0.235 C 
HETATM    2  C5  UNL     1      71.014  60.343  40.035  1.00  0.00     0.088 C 
HETATM    3  C6  UNL     1      70.134  60.487  38.785  1.00  0.00     0.153 C 
HETATM    4  C7  UNL     1      68.896  59.700  39.199  1.00  0.00     0.177 C 
HETATM    5  O12 UNL     1      69.274  58.937  40.300  1.00  0.00    -0.356 OA
ENDROOT
BRANCH   4   6
HETATM    6  C8  UNL     1      68.406  58.866  38.056  1.00  0.00     0.216 C 
BRANCH   6   7
HETATM    7  O2  UNL     1      68.800  57.568  38.195  1.00  0.00    -0.287 OA
BRANCH   7   8
HETATM    8  P1  UNL     1      67.452  56.678  38.633  1.00  0.00     0.417 P 
HETATM    9  O3  UNL     1      66.198  56.563  37.531  1.00  0.00    -0.624 OA
HETATM   10  O4  UNL     1      67.256  56.108  40.120  1.00  0.00    -0.624 OA
BRANCH   8  11
HETATM   11  O5  UNL     1      68.095  55.441  38.015  1.00  0.00    -0.180 OA
BRANCH  11  12
HETATM   12  P2  UNL     1      69.536  55.308  37.460  1.00  0.00     0.428 P 
HETATM   13  O6  UNL     1      70.025  54.460  38.764  1.00  0.00    -0.624 OA
HETATM   14  O7  UNL     1      68.875  54.492  36.179  1.00  0.00    -0.624 OA
BRANCH  12  15
HETATM   15  O8  UNL     1      70.907  55.202  36.786  1.00  0.00    -0.173 OA
BRANCH  15  16
HETATM   16  P3  UNL     1      71.328  54.288  35.530  1.00  0.00     0.431 P 
HETATM   17  O9  UNL     1      71.214  54.841  33.948  1.00  0.00    -0.616 OA
HETATM   18  O10 UNL     1      72.811  54.591  35.607  1.00  0.00    -0.616 OA
HETATM   19  O11 UNL     1      71.633  52.650  35.691  1.00  0.00    -0.616 OA
ENDBRANCH  15  16
ENDBRANCH  12  15
ENDBRANCH  11  12
ENDBRANCH   8  11
ENDBRANCH   7   8
ENDBRANCH   6   7
ENDBRANCH   4   6
BRANCH   3  20
HETATM   20  O1  UNL     1      69.731  61.814  38.646  1.00  0.00    -0.393 OA
ATOM     21  H1  UNL     1      68.783  61.856  38.594  1.00  0.00     0.210 HD
ENDBRANCH   3  20
BRANCH   1  22
HETATM   22  N1  UNL     1      70.578  59.304  42.223  1.00  0.00    -0.282 N 
HETATM   23  C3  UNL     1      70.119  58.206  42.850  1.00  0.00     0.110 A 
HETATM   24  C2  UNL     1      70.713  57.698  43.987  1.00  0.00     0.022 A 
HETATM   25  C1  UNL     1      70.191  56.484  44.667  1.00  0.00     0.056 C 
HETATM   26  C10 UNL     1      71.822  58.339  44.506  1.00  0.00     0.256 A 
HETATM   27  N2  UNL     1      72.266  59.430  43.869  1.00  0.00    -0.275 N 
HETATM   28  O14 UNL     1      72.383  57.882  45.558  1.00  0.00    -0.267 OA
HETATM   29  C9  UNL     1      71.660  59.904  42.753  1.00  0.00     0.331 A 
ATOM     30  H2  UNL     1      73.083  59.919  44.235  1.00  0.00     0.173 HD
HETATM   31  O13 UNL     1      72.178  60.940  42.252  1.00  0.00    -0.246 OA
ENDBRANCH   1  22
TORSDOF 9
ENDMDL
