MODEL 7
REMARK VINA RESULT: -5.580383157      1.722      4.694
REMARK  4 active torsions:
REMARK  status: ('A' for Active; 'I' for Inactive)
REMARK    1  A    between atoms: C1_2  and  C2_4 
REMARK    2  A    between atoms: C2_4  and  C3_5 
REMARK    3  A    between atoms: C3_5  and  C4_6 
REMARK    4  A    between atoms: C4_6  and  C5_8 
ROOT
HETATM    1  C3  UNL     1      19.870  20.655  95.478  1.00  0.00     0.101 C 
ENDROOT
BRANCH   1   2
HETATM    2  C2  UNL     1      20.641  20.306  94.234  1.00  0.00     0.121 C 
BRANCH   2   3
HETATM    3  C1  UNL     1      21.572  19.172  94.452  1.00  0.00     0.172 C 
HETATM    4  O1  UNL     1      22.509  19.231  95.300  1.00  0.00    -0.648 OA
HETATM    5  O2  UNL     1      21.467  17.987  93.739  1.00  0.00    -0.648 OA
ENDBRANCH   2   3
ENDBRANCH   1   2
BRANCH   1   6
HETATM    6  C4  UNL     1      19.342  22.034  95.447  1.00  0.00     0.225 C 
HETATM    7  O3  UNL     1      18.523  22.386  94.573  1.00  0.00    -0.286 OA
BRANCH   6   8
HETATM    8  C5  UNL     1      19.771  23.000  96.437  1.00  0.00     0.246 C 
HETATM    9  O4  UNL     1      20.640  22.697  97.325  1.00  0.00    -0.642 OA
HETATM   10  O5  UNL     1      19.271  24.297  96.482  1.00  0.00    -0.642 OA
ENDBRANCH   6   8
ENDBRANCH   1   6
TORSDOF 4
ENDMDL
