MODEL 9
REMARK VINA RESULT: -5.487062819      0.784      4.690
REMARK  4 active torsions:
REMARK  status: ('A' for Active; 'I' for Inactive)
REMARK    1  A    between atoms: C1_2  and  C2_4 
REMARK    2  A    between atoms: C2_4  and  C3_5 
REMARK    3  A    between atoms: C3_5  and  C4_6 
REMARK    4  A    between atoms: C4_6  and  C5_8 
ROOT
HETATM    1  C3  UNL     1      18.848  20.688  96.026  1.00  0.00     0.101 C 
ENDROOT
BRANCH   1   2
HETATM    2  C2  UNL     1      18.182  19.858  94.964  1.00  0.00     0.121 C 
BRANCH   2   3
HETATM    3  C1  UNL     1      19.027  18.717  94.534  1.00  0.00     0.172 C 
HETATM    4  O1  UNL     1      18.843  18.128  93.430  1.00  0.00    -0.648 OA
HETATM    5  O2  UNL     1      20.064  18.234  95.319  1.00  0.00    -0.648 OA
ENDBRANCH   2   3
ENDBRANCH   1   2
BRANCH   1   6
HETATM    6  C4  UNL     1      19.233  22.029  95.538  1.00  0.00     0.225 C 
HETATM    7  O3  UNL     1      19.132  22.321  94.329  1.00  0.00    -0.286 OA
BRANCH   6   8
HETATM    8  C5  UNL     1      19.734  23.024  96.462  1.00  0.00     0.246 C 
HETATM    9  O4  UNL     1      20.642  22.736  97.317  1.00  0.00    -0.642 OA
HETATM   10  O5  UNL     1      19.268  24.333  96.477  1.00  0.00    -0.642 OA
ENDBRANCH   6   8
ENDBRANCH   1   6
TORSDOF 4
ENDMDL
