MODEL 2
REMARK VINA RESULT: -5.798014274      0.466      1.108
REMARK  4 active torsions:
REMARK  status: ('A' for Active; 'I' for Inactive)
REMARK    1  A    between atoms: C1_2  and  C2_4 
REMARK    2  A    between atoms: C2_4  and  C3_5 
REMARK    3  A    between atoms: C3_5  and  C4_6 
REMARK    4  A    between atoms: C4_6  and  C5_8 
ROOT
HETATM    1  C3  UNL     1      19.554  20.874  95.601  1.00  0.00     0.101 C 
ENDROOT
BRANCH   1   2
HETATM    2  C2  UNL     1      19.245  22.336  95.431  1.00  0.00     0.121 C 
BRANCH   2   3
HETATM    3  C1  UNL     1      19.736  23.147  96.572  1.00  0.00     0.172 C 
HETATM    4  O1  UNL     1      20.638  22.726  97.351  1.00  0.00    -0.648 OA
HETATM    5  O2  UNL     1      19.232  24.411  96.846  1.00  0.00    -0.648 OA
ENDBRANCH   2   3
ENDBRANCH   1   2
BRANCH   1   6
HETATM    6  C4  UNL     1      19.305  20.096  94.369  1.00  0.00     0.225 C 
HETATM    7  O3  UNL     1      18.734  20.617  93.389  1.00  0.00    -0.286 OA
BRANCH   6   8
HETATM    8  C5  UNL     1      19.722  18.712  94.285  1.00  0.00     0.246 C 
HETATM    9  O4  UNL     1      19.180  17.907  93.451  1.00  0.00    -0.642 OA
HETATM   10  O5  UNL     1      20.721  18.182  95.092  1.00  0.00    -0.642 OA
ENDBRANCH   6   8
ENDBRANCH   1   6
TORSDOF 4
ENDMDL
