MODEL 5
REMARK VINA RESULT: -5.673617799      1.163      1.693
REMARK  4 active torsions:
REMARK  status: ('A' for Active; 'I' for Inactive)
REMARK    1  A    between atoms: C1_2  and  C2_4 
REMARK    2  A    between atoms: C2_4  and  C3_5 
REMARK    3  A    between atoms: C3_5  and  C4_6 
REMARK    4  A    between atoms: C4_6  and  C5_8 
ROOT
HETATM    1  C3  UNL     1      19.198  20.757  95.690  1.00  0.00     0.101 C 
ENDROOT
BRANCH   1   2
HETATM    2  C2  UNL     1      19.251  22.210  95.307  1.00  0.00     0.121 C 
BRANCH   2   3
HETATM    3  C1  UNL     1      19.716  23.067  96.425  1.00  0.00     0.172 C 
HETATM    4  O1  UNL     1      20.551  22.654  97.280  1.00  0.00    -0.648 OA
HETATM    5  O2  UNL     1      19.261  24.367  96.593  1.00  0.00    -0.648 OA
ENDBRANCH   2   3
ENDBRANCH   1   2
BRANCH   1   6
HETATM    6  C4  UNL     1      20.147  19.932  94.915  1.00  0.00     0.225 C 
HETATM    7  O3  UNL     1      21.376  20.140  94.980  1.00  0.00    -0.286 OA
BRANCH   6   8
HETATM    8  C5  UNL     1      19.660  18.866  94.064  1.00  0.00     0.246 C 
HETATM    9  O4  UNL     1      18.407  18.705  93.856  1.00  0.00    -0.642 OA
HETATM   10  O5  UNL     1      20.510  17.967  93.431  1.00  0.00    -0.642 OA
ENDBRANCH   6   8
ENDBRANCH   1   6
TORSDOF 4
ENDMDL
