MODEL 8
REMARK VINA RESULT: -5.539247098      1.749      4.674
REMARK  4 active torsions:
REMARK  status: ('A' for Active; 'I' for Inactive)
REMARK    1  A    between atoms: C1_2  and  C2_4 
REMARK    2  A    between atoms: C2_4  and  C3_5 
REMARK    3  A    between atoms: C3_5  and  C4_6 
REMARK    4  A    between atoms: C4_6  and  C5_8 
ROOT
HETATM    1  C3  UNL     1      19.884  20.644  95.459  1.00  0.00     0.101 C 
ENDROOT
BRANCH   1   2
HETATM    2  C2  UNL     1      20.661  20.303  94.218  1.00  0.00     0.121 C 
BRANCH   2   3
HETATM    3  C1  UNL     1      21.581  19.158  94.430  1.00  0.00     0.172 C 
HETATM    4  O1  UNL     1      21.413  18.049  93.846  1.00  0.00    -0.648 OA
HETATM    5  O2  UNL     1      22.674  19.242  95.281  1.00  0.00    -0.648 OA
ENDBRANCH   2   3
ENDBRANCH   1   2
BRANCH   1   6
HETATM    6  C4  UNL     1      19.358  22.025  95.436  1.00  0.00     0.225 C 
HETATM    7  O3  UNL     1      18.554  22.388  94.553  1.00  0.00    -0.286 OA
BRANCH   6   8
HETATM    8  C5  UNL     1      19.773  22.979  96.443  1.00  0.00     0.246 C 
HETATM    9  O4  UNL     1      20.634  22.667  97.336  1.00  0.00    -0.642 OA
HETATM   10  O5  UNL     1      19.269  24.274  96.499  1.00  0.00    -0.642 OA
ENDBRANCH   6   8
ENDBRANCH   1   6
TORSDOF 4
ENDMDL
