MODEL 11
REMARK VINA RESULT: -5.153469303      2.445      3.826
REMARK  2 active torsions:
REMARK  status: ('A' for Active; 'I' for Inactive)
REMARK    1  A    between atoms: C3_6  and  C4_7 
REMARK    2  A    between atoms: C4_7  and  O2_8 
ROOT
HETATM    1  O1  UNL     1       7.610  12.068  31.851  1.00  0.00    -0.247 OA
HETATM    2  C1  UNL     1       7.633  13.106  31.116  1.00  0.00     0.326 A 
HETATM    3  N1  UNL     1       8.789  13.767  30.909  1.00  0.00    -0.318 N 
ATOM      4  H1  UNL     1       9.648  13.433  31.345  1.00  0.00     0.170 HD
HETATM    5  C2  UNL     1       8.817  14.864  30.131  1.00  0.00     0.107 A 
HETATM    6  C3  UNL     1       7.671  15.340  29.528  1.00  0.00     0.049 A 
HETATM    7  C5  UNL     1       6.493  14.657  29.746  1.00  0.00     0.259 A 
HETATM    8  O3  UNL     1       5.426  15.075  29.202  1.00  0.00    -0.267 OA
HETATM    9  N2  UNL     1       6.513  13.570  30.526  1.00  0.00    -0.275 N 
ATOM     10  H2  UNL     1       5.639  13.069  30.682  1.00  0.00     0.173 HD
ENDROOT
BRANCH   6  11
HETATM   11  C4  UNL     1       7.699  16.558  28.665  1.00  0.00     0.209 C 
BRANCH  11  12
HETATM   12  O2  UNL     1       8.099  17.660  29.403  1.00  0.00    -0.396 OA
ATOM     13  H2  UNL     1       8.981  17.533  29.733  1.00  0.00     0.209 HD
ENDBRANCH  11  12
ENDBRANCH   6  11
TORSDOF 2
ENDMDL
