MODEL 10
REMARK VINA RESULT: -5.172510530      1.597      2.695
REMARK  2 active torsions:
REMARK  status: ('A' for Active; 'I' for Inactive)
REMARK    1  A    between atoms: C3_6  and  C4_7 
REMARK    2  A    between atoms: C4_7  and  O2_8 
ROOT
HETATM    1  O1  UNL     1       5.984  15.464  29.102  1.00  0.00    -0.247 OA
HETATM    2  C1  UNL     1       5.845  14.372  29.738  1.00  0.00     0.326 A 
HETATM    3  N1  UNL     1       4.654  13.740  29.751  1.00  0.00    -0.318 N 
ATOM      4  H1  UNL     1       3.863  14.142  29.248  1.00  0.00     0.170 HD
HETATM    5  C2  UNL     1       4.504  12.584  30.421  1.00  0.00     0.107 A 
HETATM    6  C3  UNL     1       5.556  12.016  31.110  1.00  0.00     0.049 A 
HETATM    7  C5  UNL     1       6.770  12.670  31.091  1.00  0.00     0.259 A 
HETATM    8  O3  UNL     1       7.753  12.168  31.718  1.00  0.00    -0.267 OA
HETATM    9  N2  UNL     1       6.874  13.817  30.411  1.00  0.00    -0.275 N 
ATOM     10  H2  UNL     1       7.774  14.295  30.400  1.00  0.00     0.173 HD
ENDROOT
BRANCH   6  11
HETATM   11  C4  UNL     1       5.390  10.734  31.855  1.00  0.00     0.209 C 
BRANCH  11  12
HETATM   12  O2  UNL     1       4.953   9.735  31.001  1.00  0.00    -0.396 OA
ATOM     13  H2  UNL     1       4.057   9.495  31.207  1.00  0.00     0.209 HD
ENDBRANCH  11  12
ENDBRANCH   6  11
TORSDOF 2
ENDMDL
