MODEL 8
REMARK VINA RESULT: -5.211475570      8.339      9.808
REMARK  2 active torsions:
REMARK  status: ('A' for Active; 'I' for Inactive)
REMARK    1  A    between atoms: C3_6  and  C4_7 
REMARK    2  A    between atoms: C4_7  and  O2_8 
ROOT
HETATM    1  O1  UNL     1      11.198  21.690  32.028  1.00  0.00    -0.247 OA
HETATM    2  C1  UNL     1       9.927  21.688  32.071  1.00  0.00     0.326 A 
HETATM    3  N1  UNL     1       9.261  20.573  32.431  1.00  0.00    -0.318 N 
ATOM      4  H1  UNL     1       9.779  19.728  32.669  1.00  0.00     0.170 HD
HETATM    5  C2  UNL     1       7.916  20.569  32.479  1.00  0.00     0.107 A 
HETATM    6  C3  UNL     1       7.187  21.697  32.163  1.00  0.00     0.049 A 
HETATM    7  C5  UNL     1       7.878  22.832  31.796  1.00  0.00     0.259 A 
HETATM    8  O3  UNL     1       7.230  23.882  31.501  1.00  0.00    -0.267 OA
HETATM    9  N2  UNL     1       9.215  22.791  31.763  1.00  0.00    -0.275 N 
ATOM     10  H2  UNL     1       9.720  23.634  31.492  1.00  0.00     0.173 HD
ENDROOT
BRANCH   6  11
HETATM   11  C4  UNL     1       5.695  21.693  32.215  1.00  0.00     0.209 C 
BRANCH  11  12
HETATM   12  O2  UNL     1       5.170  21.678  30.934  1.00  0.00    -0.396 OA
ATOM     13  H2  UNL     1       4.305  22.070  30.928  1.00  0.00     0.209 HD
ENDBRANCH  11  12
ENDBRANCH   6  11
TORSDOF 2
ENDMDL
