MODEL 13
REMARK VINA RESULT: -5.009729156      1.660      2.856
REMARK  2 active torsions:
REMARK  status: ('A' for Active; 'I' for Inactive)
REMARK    1  A    between atoms: C3_6  and  C4_7 
REMARK    2  A    between atoms: C4_7  and  O2_8 
ROOT
HETATM    1  O1  UNL     1       4.713  11.172  31.274  1.00  0.00    -0.247 OA
HETATM    2  C1  UNL     1       5.509  12.111  30.953  1.00  0.00     0.326 A 
HETATM    3  N1  UNL     1       6.801  12.064  31.334  1.00  0.00    -0.318 N 
ATOM      4  H1  UNL     1       7.140  11.273  31.881  1.00  0.00     0.170 HD
HETATM    5  C2  UNL     1       7.647  13.054  30.995  1.00  0.00     0.107 A 
HETATM    6  C3  UNL     1       7.218  14.137  30.255  1.00  0.00     0.049 A 
HETATM    7  C5  UNL     1       5.895  14.175  29.871  1.00  0.00     0.259 A 
HETATM    8  O3  UNL     1       5.476  15.160  29.190  1.00  0.00    -0.267 OA
HETATM    9  N2  UNL     1       5.090  13.168  30.229  1.00  0.00    -0.275 N 
ATOM     10  H2  UNL     1       4.112  13.202  29.941  1.00  0.00     0.173 HD
ENDROOT
BRANCH   6  11
HETATM   11  C4  UNL     1       8.155  15.236  29.879  1.00  0.00     0.209 C 
BRANCH  11  12
HETATM   12  O2  UNL     1       9.447  14.919  30.265  1.00  0.00    -0.396 OA
ATOM     13  H2  UNL     1       9.939  15.711  30.448  1.00  0.00     0.209 HD
ENDBRANCH  11  12
ENDBRANCH   6  11
TORSDOF 2
ENDMDL
