MODEL 14
REMARK VINA RESULT: -5.007735272      8.775      9.737
REMARK  2 active torsions:
REMARK  status: ('A' for Active; 'I' for Inactive)
REMARK    1  A    between atoms: C3_6  and  C4_7 
REMARK    2  A    between atoms: C4_7  and  O2_8 
ROOT
HETATM    1  O1  UNL     1       8.763  19.142  30.916  1.00  0.00    -0.247 OA
HETATM    2  C1  UNL     1       8.684  20.282  31.475  1.00  0.00     0.326 A 
HETATM    3  N1  UNL     1       7.582  20.620  32.173  1.00  0.00    -0.318 N 
ATOM      4  H1  UNL     1       6.810  19.959  32.253  1.00  0.00     0.170 HD
HETATM    5  C2  UNL     1       7.495  21.824  32.767  1.00  0.00     0.107 A 
HETATM    6  C3  UNL     1       8.524  22.740  32.677  1.00  0.00     0.049 A 
HETATM    7  C5  UNL     1       9.647  22.384  31.960  1.00  0.00     0.259 A 
HETATM    8  O3  UNL     1      10.606  23.209  31.863  1.00  0.00    -0.267 OA
HETATM    9  N2  UNL     1       9.689  21.176  31.387  1.00  0.00    -0.275 N 
ATOM     10  H2  UNL     1      10.523  20.919  30.859  1.00  0.00     0.173 HD
ENDROOT
BRANCH   6  11
HETATM   11  C4  UNL     1       8.429  24.077  33.334  1.00  0.00     0.209 C 
BRANCH  11  12
HETATM   12  O2  UNL     1       9.349  24.172  34.365  1.00  0.00    -0.396 OA
ATOM     13  H2  UNL     1      10.062  23.559  34.228  1.00  0.00     0.209 HD
ENDBRANCH  11  12
ENDBRANCH   6  11
TORSDOF 2
ENDMDL
