MODEL 3
REMARK VINA RESULT: -4.290441941      4.377      5.580
REMARK  4 active torsions:
REMARK  status: ('A' for Active; 'I' for Inactive)
REMARK    1  A    between atoms: N1_1  and  C1_5 
REMARK    2  A    between atoms: C1_5  and  C2_6 
REMARK    3  A    between atoms: C5_9  and  N2_10 
REMARK    4  A    between atoms: C6_14  and  O1_15 
ROOT
HETATM    1  C2  UNL     1      25.497   0.257  76.906  1.00  0.00     0.071 C 
HETATM    2  C3  UNL     1      25.072  -0.710  76.110  1.00  0.00     0.009 C 
HETATM    3  C4  UNL     1      25.488  -2.094  76.456  1.00  0.00     0.067 C 
HETATM    4  C5  UNL     1      26.981  -2.062  76.710  1.00  0.00     0.242 C 
HETATM    5  C6  UNL     1      27.295  -1.102  77.838  1.00  0.00     0.293 C 
HETATM    6  O2  UNL     1      26.292  -0.118  77.986  1.00  0.00    -0.321 OA
ENDROOT
BRANCH   1   7
HETATM    7  C1  UNL     1      25.118   1.640  76.615  1.00  0.00     0.293 C 
BRANCH   7   8
HETATM    8  N1  UNL     1      23.825   1.750  75.970  1.00  0.00    -0.074 N 
ATOM      9  H13 UNL     1      23.751   1.098  75.189  1.00  0.00     0.274 HD
ATOM     10  H12 UNL     1      23.088   1.378  76.568  1.00  0.00     0.274 HD
ATOM     11  H11 UNL     1      23.607   2.701  75.672  1.00  0.00     0.274 HD
ENDBRANCH   7   8
ENDBRANCH   1   7
BRANCH   5  12
HETATM   12  O1  UNL     1      28.515  -0.478  77.505  1.00  0.00    -0.369 OA
ATOM     13  H1  UNL     1      29.137  -0.724  78.180  1.00  0.00     0.212 HD
ENDBRANCH   5  12
BRANCH   4  14
HETATM   14  N2  UNL     1      27.640  -1.670  75.480  1.00  0.00    -0.070 N 
ATOM     15  H23 UNL     1      27.923  -2.469  74.913  1.00  0.00     0.274 HD
ATOM     16  H22 UNL     1      27.000  -1.244  74.809  1.00  0.00     0.274 HD
ATOM     17  H21 UNL     1      28.422  -1.060  75.719  1.00  0.00     0.274 HD
ENDBRANCH   4  14
TORSDOF 4
ENDMDL
