MODEL 1
REMARK VINA RESULT: -4.531229708      0.000      0.000
REMARK  4 active torsions:
REMARK  status: ('A' for Active; 'I' for Inactive)
REMARK    1  A    between atoms: N1_1  and  C1_5 
REMARK    2  A    between atoms: C1_5  and  C2_6 
REMARK    3  A    between atoms: C5_9  and  N2_10 
REMARK    4  A    between atoms: C6_14  and  O1_15 
ROOT
HETATM    1  C2  UNL     1      25.753   3.844  76.081  1.00  0.00     0.071 C 
HETATM    2  C3  UNL     1      25.617   2.689  76.712  1.00  0.00     0.009 C 
HETATM    3  C4  UNL     1      24.395   1.899  76.408  1.00  0.00     0.067 C 
HETATM    4  C5  UNL     1      23.216   2.844  76.507  1.00  0.00     0.242 C 
HETATM    5  C6  UNL     1      23.382   3.987  75.527  1.00  0.00     0.293 C 
HETATM    6  O2  UNL     1      24.738   4.203  75.198  1.00  0.00    -0.321 OA
ENDROOT
BRANCH   1   7
HETATM    7  C1  UNL     1      26.937   4.664  76.340  1.00  0.00     0.293 C 
BRANCH   7   8
HETATM    8  N1  UNL     1      27.680   4.985  75.139  1.00  0.00    -0.074 N 
ATOM      9  H13 UNL     1      27.080   5.440  74.451  1.00  0.00     0.274 HD
ATOM     10  H12 UNL     1      28.341   5.741  75.311  1.00  0.00     0.274 HD
ATOM     11  H11 UNL     1      28.150   4.176  74.732  1.00  0.00     0.274 HD
ENDBRANCH   7   8
ENDBRANCH   1   7
BRANCH   5  12
HETATM   12  O1  UNL     1      22.867   5.136  76.162  1.00  0.00    -0.369 OA
ATOM     13  H1  UNL     1      23.344   5.877  75.806  1.00  0.00     0.212 HD
ENDBRANCH   5  12
BRANCH   4  14
HETATM   14  N2  UNL     1      23.134   3.323  77.872  1.00  0.00    -0.070 N 
ATOM     15  H23 UNL     1      24.047   3.383  78.324  1.00  0.00     0.274 HD
ATOM     16  H22 UNL     1      22.888   4.312  77.929  1.00  0.00     0.274 HD
ATOM     17  H21 UNL     1      22.482   2.726  78.380  1.00  0.00     0.274 HD
ENDBRANCH   4  14
TORSDOF 4
ENDMDL
