MODEL 2
REMARK VINA RESULT: -4.297031487      2.936      3.820
REMARK  4 active torsions:
REMARK  status: ('A' for Active; 'I' for Inactive)
REMARK    1  A    between atoms: N1_1  and  C1_5 
REMARK    2  A    between atoms: C1_5  and  C2_6 
REMARK    3  A    between atoms: C5_9  and  N2_10 
REMARK    4  A    between atoms: C6_14  and  O1_15 
ROOT
HETATM    1  C2  UNL     1      23.831   3.707  77.307  1.00  0.00     0.071 C 
HETATM    2  C3  UNL     1      24.375   4.862  77.658  1.00  0.00     0.009 C 
HETATM    3  C4  UNL     1      24.614   5.075  79.109  1.00  0.00     0.067 C 
HETATM    4  C5  UNL     1      23.336   4.704  79.832  1.00  0.00     0.242 C 
HETATM    5  C6  UNL     1      22.978   3.261  79.548  1.00  0.00     0.293 C 
HETATM    6  O2  UNL     1      23.537   2.811  78.330  1.00  0.00    -0.321 OA
ENDROOT
BRANCH   1   7
HETATM    7  C1  UNL     1      23.573   3.442  75.891  1.00  0.00     0.293 C 
BRANCH   7   8
HETATM    8  N1  UNL     1      22.304   2.784  75.658  1.00  0.00    -0.074 N 
ATOM      9  H13 UNL     1      21.527   3.382  75.939  1.00  0.00     0.274 HD
ATOM     10  H12 UNL     1      22.107   2.714  74.660  1.00  0.00     0.274 HD
ATOM     11  H11 UNL     1      22.240   1.870  76.107  1.00  0.00     0.274 HD
ENDBRANCH   7   8
ENDBRANCH   1   7
BRANCH   5  12
HETATM   12  O1  UNL     1      21.572   3.207  79.463  1.00  0.00    -0.369 OA
ATOM     13  H1  UNL     1      21.259   2.952  80.323  1.00  0.00     0.212 HD
ENDBRANCH   5  12
BRANCH   4  14
HETATM   14  N2  UNL     1      22.291   5.608  79.394  1.00  0.00    -0.070 N 
ATOM     15  H23 UNL     1      22.211   6.434  79.987  1.00  0.00     0.274 HD
ATOM     16  H22 UNL     1      22.523   6.085  78.523  1.00  0.00     0.274 HD
ATOM     17  H21 UNL     1      21.420   5.080  79.333  1.00  0.00     0.274 HD
ENDBRANCH   4  14
TORSDOF 4
ENDMDL
