MODEL 5
REMARK VINA RESULT: -10.102144738      4.164      7.437
REMARK  12 active torsions:
REMARK  status: ('A' for Active; 'I' for Inactive)
REMARK    1  A    between atoms: N5_13  and  C6_14 
REMARK    2  A    between atoms: C7_16  and  C8_17 
REMARK    3  A    between atoms: C8_17  and  O2_18 
REMARK    4  A    between atoms: O2_18  and  S1_19 
REMARK    5  A    between atoms: S1_19  and  N6_22 
REMARK       I    between atoms: N6_22  and  C9_24 
REMARK    6  A    between atoms: C9_24  and  C10_26 
REMARK    7  A    between atoms: C10_26  and  C11_27 
REMARK    8  A    between atoms: C11_27  and  C12_28 
REMARK    9  A    between atoms: C12_28  and  C13_30 
REMARK   10  A    between atoms: C18_35  and  C19_36 
REMARK   11  A    between atoms: C20_39  and  O9_40 
REMARK   12  A    between atoms: C21_42  and  O10_43 
ROOT
HETATM    1  C6  UNL     1     106.829 -21.865 -16.646  1.00  0.00     0.262 C 
HETATM    2  O1  UNL     1     105.630 -22.226 -16.020  1.00  0.00    -0.353 OA
HETATM    3  C7  UNL     1     104.937 -21.027 -15.914  1.00  0.00     0.180 C 
HETATM    4  C20 UNL     1     105.211 -20.264 -17.192  1.00  0.00     0.182 C 
HETATM    5  C21 UNL     1     106.272 -21.128 -17.853  1.00  0.00     0.198 C 
ENDROOT
BRANCH   3   6
HETATM    6  C8  UNL     1     103.439 -21.193 -15.725  1.00  0.00     0.226 C 
BRANCH   6   7
HETATM    7  O2  UNL     1     103.120 -22.525 -15.933  1.00  0.00    -0.257 OA
BRANCH   7   8
HETATM    8  S1  UNL     1     102.052 -22.801 -17.140  1.00  0.00     0.364 S 
HETATM    9  O3  UNL     1     101.791 -24.306 -17.270  1.00  0.00    -0.175 OA
HETATM   10  O4  UNL     1     100.708 -22.152 -16.801  1.00  0.00    -0.175 OA
BRANCH   8  11
HETATM   11  N6  UNL     1     102.479 -22.181 -18.687  1.00  0.00    -0.231 N 
HETATM   12  C9  UNL     1     103.618 -22.782 -19.314  1.00  0.00     0.233 C 
HETATM   13  O5  UNL     1     104.233 -23.710 -18.716  1.00  0.00    -0.273 OA
ATOM     14  H6  UNL     1     101.951 -21.429 -19.131  1.00  0.00     0.183 HD
BRANCH  12  15
HETATM   15  C10 UNL     1     104.057 -22.312 -20.637  1.00  0.00     0.111 C 
BRANCH  15  16
HETATM   16  C11 UNL     1     102.904 -21.583 -21.270  1.00  0.00     0.093 C 
BRANCH  16  17
HETATM   17  C12 UNL     1     103.434 -20.789 -22.443  1.00  0.00     0.161 C 
HETATM   18  O6  UNL     1     104.138 -21.387 -23.267  1.00  0.00    -0.292 OA
BRANCH  17  19
HETATM   19  C13 UNL     1     103.078 -19.392 -22.507  1.00  0.00     0.027 A 
HETATM   20  C14 UNL     1     101.875 -19.050 -23.127  1.00  0.00     0.016 A 
HETATM   21  C15 UNL     1     101.395 -17.774 -23.247  1.00  0.00     0.001 A 
HETATM   22  C16 UNL     1     102.170 -16.768 -22.713  1.00  0.00     0.001 A 
HETATM   23  C17 UNL     1     103.347 -17.067 -22.104  1.00  0.00     0.019 A 
HETATM   24  C18 UNL     1     103.840 -18.385 -21.980  1.00  0.00     0.054 A 
BRANCH  24  25
HETATM   25  C19 UNL     1     105.091 -18.588 -21.328  1.00  0.00     0.210 C 
HETATM   26  O7  UNL     1     105.031 -18.742 -20.036  1.00  0.00    -0.644 OA
HETATM   27  O8  UNL     1     106.366 -18.655 -21.791  1.00  0.00    -0.644 OA
ENDBRANCH  24  25
ENDBRANCH  17  19
ENDBRANCH  16  17
ENDBRANCH  15  16
ENDBRANCH  12  15
ENDBRANCH   8  11
ENDBRANCH   7   8
ENDBRANCH   6   7
ENDBRANCH   3   6
BRANCH   4  28
HETATM   28  O9  UNL     1     105.811 -19.019 -16.932  1.00  0.00    -0.390 OA
ATOM     29  H9  UNL     1     105.195 -18.409 -16.542  1.00  0.00     0.210 HD
ENDBRANCH   4  28
BRANCH   1  30
HETATM   30  N5  UNL     1     107.687 -22.947 -16.952  1.00  0.00    -0.297 N 
HETATM   31  C3  UNL     1     108.987 -22.959 -16.505  1.00  0.00     0.142 A 
HETATM   32  N3  UNL     1     109.696 -22.070 -15.767  1.00  0.00    -0.336 N 
HETATM   33  C4  UNL     1     109.607 -24.113 -16.922  1.00  0.00     0.119 A 
HETATM   34  C2  UNL     1     110.981 -22.291 -15.438  1.00  0.00     0.183 A 
ATOM     35  H3  UNL     1     109.243 -21.211 -15.453  1.00  0.00     0.168 HD
HETATM   36  N2  UNL     1     111.604 -23.410 -15.838  1.00  0.00    -0.339 N 
HETATM   37  C1  UNL     1     110.939 -24.335 -16.579  1.00  0.00     0.148 A 
ATOM     38  H2  UNL     1     112.579 -23.567 -15.584  1.00  0.00     0.167 HD
HETATM   39  N1  UNL     1     111.586 -25.519 -16.999  1.00  0.00    -0.080 NA
HETATM   40  N4  UNL     1     108.680 -24.791 -17.619  1.00  0.00    -0.346 N 
HETATM   41  C5  UNL     1     107.541 -24.079 -17.627  1.00  0.00     0.188 A 
ATOM     42  H4  UNL     1     108.817 -25.696 -18.068  1.00  0.00     0.167 HD
ENDBRANCH   1  30
BRANCH   5  43
HETATM   43  O10 UNL     1     107.224 -20.407 -18.527  1.00  0.00    -0.388 OA
ATOM     44  H10 UNL     1     106.872 -19.930 -19.269  1.00  0.00     0.210 HD
ENDBRANCH   5  43
TORSDOF 12
ENDMDL
