MODEL 9
REMARK VINA RESULT: -9.946557346      3.472      4.763
REMARK  12 active torsions:
REMARK  status: ('A' for Active; 'I' for Inactive)
REMARK    1  A    between atoms: N5_13  and  C6_14 
REMARK    2  A    between atoms: C7_16  and  C8_17 
REMARK    3  A    between atoms: C8_17  and  O2_18 
REMARK    4  A    between atoms: O2_18  and  S1_19 
REMARK    5  A    between atoms: S1_19  and  N6_22 
REMARK       I    between atoms: N6_22  and  C9_24 
REMARK    6  A    between atoms: C9_24  and  C10_26 
REMARK    7  A    between atoms: C10_26  and  C11_27 
REMARK    8  A    between atoms: C11_27  and  C12_28 
REMARK    9  A    between atoms: C12_28  and  C13_30 
REMARK   10  A    between atoms: C18_35  and  C19_36 
REMARK   11  A    between atoms: C20_39  and  O9_40 
REMARK   12  A    between atoms: C21_42  and  O10_43 
ROOT
HETATM    1  C6  UNL     1     102.820 -22.420 -15.587  1.00  0.00     0.262 C 
HETATM    2  O1  UNL     1     103.847 -21.611 -16.087  1.00  0.00    -0.353 OA
HETATM    3  C7  UNL     1     104.876 -22.507 -16.345  1.00  0.00     0.180 C 
HETATM    4  C20 UNL     1     104.224 -23.757 -16.896  1.00  0.00     0.182 C 
HETATM    5  C21 UNL     1     102.749 -23.456 -16.696  1.00  0.00     0.198 C 
ENDROOT
BRANCH   3   6
HETATM    6  C8  UNL     1     105.913 -21.991 -17.329  1.00  0.00     0.226 C 
BRANCH   6   7
HETATM    7  O2  UNL     1     105.252 -21.306 -18.337  1.00  0.00    -0.257 OA
BRANCH   7   8
HETATM    8  S1  UNL     1     105.986 -21.345 -19.797  1.00  0.00     0.364 S 
HETATM    9  O3  UNL     1     107.101 -20.294 -19.847  1.00  0.00    -0.175 OA
HETATM   10  O4  UNL     1     106.658 -22.705 -20.004  1.00  0.00    -0.175 OA
BRANCH   8  11
HETATM   11  N6  UNL     1     104.965 -21.131 -21.165  1.00  0.00    -0.231 N 
HETATM   12  C9  UNL     1     103.713 -21.825 -21.131  1.00  0.00     0.233 C 
HETATM   13  O5  UNL     1     103.429 -22.538 -20.127  1.00  0.00    -0.273 OA
ATOM     14  H6  UNL     1     105.237 -20.544 -21.954  1.00  0.00     0.183 HD
BRANCH  12  15
HETATM   15  C10 UNL     1     102.778 -21.702 -22.260  1.00  0.00     0.111 C 
BRANCH  15  16
HETATM   16  C11 UNL     1     101.940 -20.473 -22.030  1.00  0.00     0.093 C 
BRANCH  16  17
HETATM   17  C12 UNL     1     102.274 -19.465 -23.106  1.00  0.00     0.161 C 
HETATM   18  O6  UNL     1     102.572 -19.902 -24.226  1.00  0.00    -0.292 OA
BRANCH  17  19
HETATM   19  C13 UNL     1     102.219 -18.070 -22.743  1.00  0.00     0.027 A 
HETATM   20  C14 UNL     1     101.047 -17.366 -23.020  1.00  0.00     0.016 A 
HETATM   21  C15 UNL     1     100.838 -16.047 -22.718  1.00  0.00     0.001 A 
HETATM   22  C16 UNL     1     101.873 -15.384 -22.095  1.00  0.00     0.001 A 
HETATM   23  C17 UNL     1     103.029 -16.040 -21.811  1.00  0.00     0.019 A 
HETATM   24  C18 UNL     1     103.240 -17.401 -22.124  1.00  0.00     0.054 A 
BRANCH  24  25
HETATM   25  C19 UNL     1     104.493 -17.992 -21.788  1.00  0.00     0.210 C 
HETATM   26  O7  UNL     1     104.778 -18.018 -20.518  1.00  0.00    -0.644 OA
HETATM   27  O8  UNL     1     105.476 -18.549 -22.543  1.00  0.00    -0.644 OA
ENDBRANCH  24  25
ENDBRANCH  17  19
ENDBRANCH  16  17
ENDBRANCH  15  16
ENDBRANCH  12  15
ENDBRANCH   8  11
ENDBRANCH   7   8
ENDBRANCH   6   7
ENDBRANCH   3   6
BRANCH   4  28
HETATM   28  O9  UNL     1     104.516 -24.884 -16.106  1.00  0.00    -0.390 OA
ATOM     29  H9  UNL     1     105.303 -25.325 -16.405  1.00  0.00     0.210 HD
ENDBRANCH   4  28
BRANCH   1  30
HETATM   30  N5  UNL     1     101.606 -21.742 -15.326  1.00  0.00    -0.297 N 
HETATM   31  C3  UNL     1     100.692 -22.256 -14.437  1.00  0.00     0.142 A 
HETATM   32  N3  UNL     1     100.699 -23.386 -13.687  1.00  0.00    -0.336 N 
HETATM   33  C4  UNL     1      99.608 -21.414 -14.351  1.00  0.00     0.119 A 
HETATM   34  C2  UNL     1      99.679 -23.696 -12.868  1.00  0.00     0.183 A 
ATOM     35  H3  UNL     1     101.499 -24.016 -13.745  1.00  0.00     0.168 HD
HETATM   36  N2  UNL     1      98.612 -22.888 -12.772  1.00  0.00    -0.339 N 
HETATM   37  C1  UNL     1      98.554 -21.742 -13.502  1.00  0.00     0.148 A 
ATOM     38  H2  UNL     1      97.842 -23.134 -12.149  1.00  0.00     0.167 HD
HETATM   39  N1  UNL     1      97.437 -20.883 -13.402  1.00  0.00    -0.080 NA
HETATM   40  N4  UNL     1      99.873 -20.397 -15.187  1.00  0.00    -0.346 N 
HETATM   41  C5  UNL     1     101.069 -20.611 -15.761  1.00  0.00     0.188 A 
ATOM     42  H4  UNL     1      99.267 -19.595 -15.359  1.00  0.00     0.167 HD
ENDBRANCH   1  30
BRANCH   5  43
HETATM   43  O10 UNL     1     102.006 -24.557 -16.355  1.00  0.00    -0.388 OA
ATOM     44  H10 UNL     1     102.414 -25.374 -16.615  1.00  0.00     0.210 HD
ENDBRANCH   5  43
TORSDOF 12
ENDMDL
