MODEL 4
REMARK VINA RESULT: -10.142751880      1.316      1.716
REMARK  12 active torsions:
REMARK  status: ('A' for Active; 'I' for Inactive)
REMARK    1  A    between atoms: N5_13  and  C6_14 
REMARK    2  A    between atoms: C7_16  and  C8_17 
REMARK    3  A    between atoms: C8_17  and  O2_18 
REMARK    4  A    between atoms: O2_18  and  S1_19 
REMARK    5  A    between atoms: S1_19  and  N6_22 
REMARK       I    between atoms: N6_22  and  C9_24 
REMARK    6  A    between atoms: C9_24  and  C10_26 
REMARK    7  A    between atoms: C10_26  and  C11_27 
REMARK    8  A    between atoms: C11_27  and  C12_28 
REMARK    9  A    between atoms: C12_28  and  C13_30 
REMARK   10  A    between atoms: C18_35  and  C19_36 
REMARK   11  A    between atoms: C20_39  and  O9_40 
REMARK   12  A    between atoms: C21_42  and  O10_43 
ROOT
HETATM    1  C6  UNL     1     101.066 -22.422 -16.337  1.00  0.00     0.262 C 
HETATM    2  O1  UNL     1     101.447 -22.263 -17.675  1.00  0.00    -0.353 OA
HETATM    3  C7  UNL     1     102.799 -21.954 -17.598  1.00  0.00     0.180 C 
HETATM    4  C20 UNL     1     103.369 -22.811 -16.488  1.00  0.00     0.182 C 
HETATM    5  C21 UNL     1     102.114 -23.429 -15.893  1.00  0.00     0.198 C 
ENDROOT
BRANCH   3   6
HETATM    6  C8  UNL     1     103.565 -22.206 -18.886  1.00  0.00     0.226 C 
BRANCH   6   7
HETATM    7  O2  UNL     1     102.945 -21.498 -19.905  1.00  0.00    -0.257 OA
BRANCH   7   8
HETATM    8  S1  UNL     1     103.930 -21.037 -21.125  1.00  0.00     0.364 S 
HETATM    9  O3  UNL     1     104.488 -19.637 -20.845  1.00  0.00    -0.175 OA
HETATM   10  O4  UNL     1     105.135 -21.979 -21.203  1.00  0.00    -0.175 OA
BRANCH   8  11
HETATM   11  N6  UNL     1     103.242 -21.050 -22.702  1.00  0.00    -0.231 N 
HETATM   12  C9  UNL     1     102.109 -20.196 -22.901  1.00  0.00     0.233 C 
HETATM   13  O5  UNL     1     101.686 -19.497 -21.937  1.00  0.00    -0.273 OA
ATOM     14  H6  UNL     1     103.618 -21.632 -23.451  1.00  0.00     0.183 HD
BRANCH  12  15
HETATM   15  C10 UNL     1     101.455 -20.145 -24.217  1.00  0.00     0.111 C 
BRANCH  15  16
HETATM   16  C11 UNL     1     100.832 -21.490 -24.472  1.00  0.00     0.093 C 
BRANCH  16  17
HETATM   17  C12 UNL     1      99.535 -21.565 -23.699  1.00  0.00     0.161 C 
HETATM   18  O6  UNL     1      99.596 -21.912 -22.512  1.00  0.00    -0.292 OA
BRANCH  17  19
HETATM   19  C13 UNL     1      98.325 -21.226 -24.407  1.00  0.00     0.027 A 
HETATM   20  C14 UNL     1      98.002 -19.874 -24.545  1.00  0.00     0.016 A 
HETATM   21  C15 UNL     1      96.902 -19.398 -25.204  1.00  0.00     0.001 A 
HETATM   22  C16 UNL     1      96.063 -20.336 -25.767  1.00  0.00     0.001 A 
HETATM   23  C17 UNL     1      96.347 -21.660 -25.650  1.00  0.00     0.019 A 
HETATM   24  C18 UNL     1      97.484 -22.148 -24.970  1.00  0.00     0.054 A 
BRANCH  24  25
HETATM   25  C19 UNL     1      97.686 -23.557 -24.901  1.00  0.00     0.210 C 
HETATM   26  O7  UNL     1      98.349 -24.077 -25.893  1.00  0.00    -0.644 OA
HETATM   27  O8  UNL     1      97.318 -24.492 -23.987  1.00  0.00    -0.644 OA
ENDBRANCH  24  25
ENDBRANCH  17  19
ENDBRANCH  16  17
ENDBRANCH  15  16
ENDBRANCH  12  15
ENDBRANCH   8  11
ENDBRANCH   7   8
ENDBRANCH   6   7
ENDBRANCH   3   6
BRANCH   4  28
HETATM   28  O9  UNL     1     103.950 -22.026 -15.476  1.00  0.00    -0.390 OA
ATOM     29  H9  UNL     1     104.518 -22.543 -14.916  1.00  0.00     0.210 HD
ENDBRANCH   4  28
BRANCH   1  30
HETATM   30  N5  UNL     1      99.726 -22.834 -16.148  1.00  0.00    -0.297 N 
HETATM   31  C3  UNL     1      98.956 -23.228 -17.217  1.00  0.00     0.142 A 
HETATM   32  N3  UNL     1      99.227 -23.309 -18.543  1.00  0.00    -0.336 N 
HETATM   33  C4  UNL     1      97.705 -23.588 -16.776  1.00  0.00     0.119 A 
HETATM   34  C2  UNL     1      98.306 -23.731 -19.427  1.00  0.00     0.183 A 
ATOM     35  H3  UNL     1     100.153 -23.044 -18.879  1.00  0.00     0.168 HD
HETATM   36  N2  UNL     1      97.078 -24.085 -19.016  1.00  0.00    -0.339 N 
HETATM   37  C1  UNL     1      96.754 -24.023 -17.697  1.00  0.00     0.148 A 
ATOM     38  H2  UNL     1      96.386 -24.402 -19.696  1.00  0.00     0.167 HD
HETATM   39  N1  UNL     1      95.467 -24.400 -17.255  1.00  0.00    -0.080 NA
HETATM   40  N4  UNL     1      97.725 -23.410 -15.445  1.00  0.00    -0.346 N 
HETATM   41  C5  UNL     1      98.939 -22.959 -15.088  1.00  0.00     0.188 A 
ATOM     42  H4  UNL     1      96.948 -23.588 -14.809  1.00  0.00     0.167 HD
ENDBRANCH   1  30
BRANCH   5  43
HETATM   43  O10 UNL     1     102.171 -23.578 -14.531  1.00  0.00    -0.388 OA
ATOM     44  H10 UNL     1     102.372 -22.768 -14.077  1.00  0.00     0.210 HD
ENDBRANCH   5  43
TORSDOF 12
ENDMDL
