MODEL 11
REMARK VINA RESULT: -9.918708458      3.175      8.161
REMARK  12 active torsions:
REMARK  status: ('A' for Active; 'I' for Inactive)
REMARK    1  A    between atoms: N5_13  and  C6_14 
REMARK    2  A    between atoms: C7_16  and  C8_17 
REMARK    3  A    between atoms: C8_17  and  O2_18 
REMARK    4  A    between atoms: O2_18  and  S1_19 
REMARK    5  A    between atoms: S1_19  and  N6_22 
REMARK       I    between atoms: N6_22  and  C9_24 
REMARK    6  A    between atoms: C9_24  and  C10_26 
REMARK    7  A    between atoms: C10_26  and  C11_27 
REMARK    8  A    between atoms: C11_27  and  C12_28 
REMARK    9  A    between atoms: C12_28  and  C13_30 
REMARK   10  A    between atoms: C18_35  and  C19_36 
REMARK   11  A    between atoms: C20_39  and  O9_40 
REMARK   12  A    between atoms: C21_42  and  O10_43 
ROOT
HETATM    1  C6  UNL     1     100.450 -19.505 -23.761  1.00  0.00     0.262 C 
HETATM    2  O1  UNL     1     101.707 -19.266 -23.192  1.00  0.00    -0.353 OA
HETATM    3  C7  UNL     1     101.972 -17.943 -23.520  1.00  0.00     0.180 C 
HETATM    4  C20 UNL     1     100.657 -17.203 -23.396  1.00  0.00     0.182 C 
HETATM    5  C21 UNL     1      99.677 -18.340 -23.165  1.00  0.00     0.198 C 
ENDROOT
BRANCH   3   6
HETATM    6  C8  UNL     1     103.019 -17.284 -22.637  1.00  0.00     0.226 C 
BRANCH   6   7
HETATM    7  O2  UNL     1     103.456 -18.218 -21.711  1.00  0.00    -0.257 OA
BRANCH   7   8
HETATM    8  S1  UNL     1     105.062 -18.522 -21.740  1.00  0.00     0.364 S 
HETATM    9  O3  UNL     1     105.489 -18.934 -23.154  1.00  0.00    -0.175 OA
HETATM   10  O4  UNL     1     105.837 -17.245 -21.404  1.00  0.00    -0.175 OA
BRANCH   8  11
HETATM   11  N6  UNL     1     105.630 -19.704 -20.627  1.00  0.00    -0.231 N 
HETATM   12  C9  UNL     1     105.158 -21.040 -20.832  1.00  0.00     0.233 C 
HETATM   13  O5  UNL     1     104.370 -21.276 -21.792  1.00  0.00    -0.273 OA
ATOM     14  H6  UNL     1     106.267 -19.467 -19.865  1.00  0.00     0.183 HD
BRANCH  12  15
HETATM   15  C10 UNL     1     105.590 -22.116 -19.926  1.00  0.00     0.111 C 
BRANCH  15  16
HETATM   16  C11 UNL     1     104.390 -22.970 -19.622  1.00  0.00     0.093 C 
BRANCH  16  17
HETATM   17  C12 UNL     1     104.577 -23.576 -18.249  1.00  0.00     0.161 C 
HETATM   18  O6  UNL     1     105.634 -24.183 -18.032  1.00  0.00    -0.292 OA
BRANCH  17  19
HETATM   19  C13 UNL     1     103.505 -23.400 -17.300  1.00  0.00     0.027 A 
HETATM   20  C14 UNL     1     102.436 -24.297 -17.344  1.00  0.00     0.016 A 
HETATM   21  C15 UNL     1     101.360 -24.271 -16.498  1.00  0.00     0.001 A 
HETATM   22  C16 UNL     1     101.348 -23.278 -15.542  1.00  0.00     0.001 A 
HETATM   23  C17 UNL     1     102.373 -22.388 -15.473  1.00  0.00     0.019 A 
HETATM   24  C18 UNL     1     103.483 -22.419 -16.346  1.00  0.00     0.054 A 
BRANCH  24  25
HETATM   25  C19 UNL     1     104.500 -21.434 -16.191  1.00  0.00     0.210 C 
HETATM   26  O7  UNL     1     104.244 -20.275 -16.725  1.00  0.00    -0.644 OA
HETATM   27  O8  UNL     1     105.715 -21.458 -15.584  1.00  0.00    -0.644 OA
ENDBRANCH  24  25
ENDBRANCH  17  19
ENDBRANCH  16  17
ENDBRANCH  15  16
ENDBRANCH  12  15
ENDBRANCH   8  11
ENDBRANCH   7   8
ENDBRANCH   6   7
ENDBRANCH   3   6
BRANCH   4  28
HETATM   28  O9  UNL     1     100.290 -16.595 -24.610  1.00  0.00    -0.390 OA
ATOM     29  H9  UNL     1      99.566 -15.991 -24.493  1.00  0.00     0.210 HD
ENDBRANCH   4  28
BRANCH   1  30
HETATM   30  N5  UNL     1      99.909 -20.782 -23.485  1.00  0.00    -0.297 N 
HETATM   31  C3  UNL     1      98.817 -21.247 -24.180  1.00  0.00     0.142 A 
HETATM   32  N3  UNL     1      98.070 -20.689 -25.165  1.00  0.00    -0.336 N 
HETATM   33  C4  UNL     1      98.491 -22.507 -23.738  1.00  0.00     0.119 A 
HETATM   34  C2  UNL     1      97.027 -21.336 -25.712  1.00  0.00     0.183 A 
ATOM     35  H3  UNL     1      98.305 -19.754 -25.498  1.00  0.00     0.168 HD
HETATM   36  N2  UNL     1      96.692 -22.566 -25.293  1.00  0.00    -0.339 N 
HETATM   37  C1  UNL     1      97.408 -23.172 -24.309  1.00  0.00     0.148 A 
ATOM     38  H2  UNL     1      95.897 -23.048 -25.714  1.00  0.00     0.167 HD
HETATM   39  N1  UNL     1      97.066 -24.469 -23.866  1.00  0.00    -0.080 NA
HETATM   40  N4  UNL     1      99.386 -22.797 -22.780  1.00  0.00    -0.346 N 
HETATM   41  C5  UNL     1     100.223 -21.756 -22.642  1.00  0.00     0.188 A 
ATOM     42  H4  UNL     1      99.424 -23.665 -22.245  1.00  0.00     0.167 HD
ENDBRANCH   1  30
BRANCH   5  43
HETATM   43  O10 UNL     1      98.459 -18.144 -23.764  1.00  0.00    -0.388 OA
ATOM     44  H10 UNL     1      98.493 -17.517 -24.476  1.00  0.00     0.210 HD
ENDBRANCH   5  43
TORSDOF 12
ENDMDL
