MODEL 2
REMARK VINA RESULT: -10.395068141      1.702      2.787
REMARK  12 active torsions:
REMARK  status: ('A' for Active; 'I' for Inactive)
REMARK    1  A    between atoms: N5_13  and  C6_14 
REMARK    2  A    between atoms: C7_16  and  C8_17 
REMARK    3  A    between atoms: C8_17  and  O2_18 
REMARK    4  A    between atoms: O2_18  and  S1_19 
REMARK    5  A    between atoms: S1_19  and  N6_22 
REMARK       I    between atoms: N6_22  and  C9_24 
REMARK    6  A    between atoms: C9_24  and  C10_26 
REMARK    7  A    between atoms: C10_26  and  C11_27 
REMARK    8  A    between atoms: C11_27  and  C12_28 
REMARK    9  A    between atoms: C12_28  and  C13_30 
REMARK   10  A    between atoms: C18_35  and  C19_36 
REMARK   11  A    between atoms: C20_39  and  O9_40 
REMARK   12  A    between atoms: C21_42  and  O10_43 
ROOT
HETATM    1  C6  UNL     1     100.184 -22.971 -16.938  1.00  0.00     0.262 C 
HETATM    2  O1  UNL     1     101.083 -22.224 -17.709  1.00  0.00    -0.353 OA
HETATM    3  C7  UNL     1     102.180 -22.062 -16.872  1.00  0.00     0.180 C 
HETATM    4  C20 UNL     1     102.343 -23.370 -16.127  1.00  0.00     0.182 C 
HETATM    5  C21 UNL     1     101.090 -24.124 -16.539  1.00  0.00     0.198 C 
ENDROOT
BRANCH   3   6
HETATM    6  C8  UNL     1     103.469 -21.722 -17.602  1.00  0.00     0.226 C 
BRANCH   6   7
HETATM    7  O2  UNL     1     103.642 -22.638 -18.628  1.00  0.00    -0.257 OA
BRANCH   7   8
HETATM    8  S1  UNL     1     103.889 -21.984 -20.105  1.00  0.00     0.364 S 
HETATM    9  O3  UNL     1     104.116 -20.473 -19.975  1.00  0.00    -0.175 OA
HETATM   10  O4  UNL     1     105.162 -22.566 -20.724  1.00  0.00    -0.175 OA
BRANCH   8  11
HETATM   11  N6  UNL     1     102.653 -22.256 -21.271  1.00  0.00    -0.231 N 
HETATM   12  C9  UNL     1     102.951 -21.847 -22.612  1.00  0.00     0.233 C 
HETATM   13  O5  UNL     1     104.074 -21.323 -22.862  1.00  0.00    -0.273 OA
ATOM     14  H6  UNL     1     101.760 -22.683 -21.023  1.00  0.00     0.183 HD
BRANCH  12  15
HETATM   15  C10 UNL     1     101.952 -22.038 -23.674  1.00  0.00     0.111 C 
BRANCH  15  16
HETATM   16  C11 UNL     1     100.946 -20.926 -23.562  1.00  0.00     0.093 C 
BRANCH  16  17
HETATM   17  C12 UNL     1      99.597 -21.538 -23.258  1.00  0.00     0.161 C 
HETATM   18  O6  UNL     1      99.531 -22.335 -22.313  1.00  0.00    -0.292 OA
BRANCH  17  19
HETATM   19  C13 UNL     1      98.491 -21.145 -24.096  1.00  0.00     0.027 A 
HETATM   20  C14 UNL     1      98.223 -19.781 -24.232  1.00  0.00     0.016 A 
HETATM   21  C15 UNL     1      97.223 -19.255 -25.005  1.00  0.00     0.001 A 
HETATM   22  C16 UNL     1      96.434 -20.153 -25.691  1.00  0.00     0.001 A 
HETATM   23  C17 UNL     1      96.667 -21.487 -25.580  1.00  0.00     0.019 A 
HETATM   24  C18 UNL     1      97.700 -22.027 -24.782  1.00  0.00     0.054 A 
BRANCH  24  25
HETATM   25  C19 UNL     1      97.854 -23.442 -24.731  1.00  0.00     0.210 C 
HETATM   26  O7  UNL     1      98.555 -23.965 -25.696  1.00  0.00    -0.644 OA
HETATM   27  O8  UNL     1      97.408 -24.383 -23.858  1.00  0.00    -0.644 OA
ENDBRANCH  24  25
ENDBRANCH  17  19
ENDBRANCH  16  17
ENDBRANCH  15  16
ENDBRANCH  12  15
ENDBRANCH   8  11
ENDBRANCH   7   8
ENDBRANCH   6   7
ENDBRANCH   3   6
BRANCH   4  28
HETATM   28  O9  UNL     1     102.263 -23.185 -14.735  1.00  0.00    -0.390 OA
ATOM     29  H9  UNL     1     103.105 -23.319 -14.316  1.00  0.00     0.210 HD
ENDBRANCH   4  28
BRANCH   1  30
HETATM   30  N5  UNL     1      98.999 -23.350 -17.611  1.00  0.00    -0.297 N 
HETATM   31  C3  UNL     1      97.869 -23.690 -16.905  1.00  0.00     0.142 A 
HETATM   32  N3  UNL     1      97.622 -23.753 -15.573  1.00  0.00    -0.336 N 
HETATM   33  C4  UNL     1      96.857 -24.008 -17.779  1.00  0.00     0.119 A 
HETATM   34  C2  UNL     1      96.419 -24.116 -15.095  1.00  0.00     0.183 A 
ATOM     35  H3  UNL     1      98.367 -23.518 -14.917  1.00  0.00     0.168 HD
HETATM   36  N2  UNL     1      95.419 -24.431 -15.933  1.00  0.00    -0.339 N 
HETATM   37  C1  UNL     1      95.613 -24.384 -17.278  1.00  0.00     0.148 A 
ATOM     38  H2  UNL     1      94.511 -24.707 -15.559  1.00  0.00     0.167 HD
HETATM   39  N1  UNL     1      94.565 -24.709 -18.167  1.00  0.00    -0.080 NA
HETATM   40  N4  UNL     1      97.380 -23.859 -19.008  1.00  0.00    -0.346 N 
HETATM   41  C5  UNL     1      98.660 -23.467 -18.887  1.00  0.00     0.188 A 
ATOM     42  H4  UNL     1      96.888 -24.017 -19.887  1.00  0.00     0.167 HD
ENDBRANCH   1  30
BRANCH   5  43
HETATM   43  O10 UNL     1     100.563 -24.898 -15.537  1.00  0.00    -0.388 OA
ATOM     44  H10 UNL     1     101.172 -25.550 -15.213  1.00  0.00     0.210 HD
ENDBRANCH   5  43
TORSDOF 12
ENDMDL
