MODEL 10
REMARK VINA RESULT: -5.452618655      1.088      4.673
REMARK  4 active torsions:
REMARK  status: ('A' for Active; 'I' for Inactive)
REMARK    1  A    between atoms: C1_2  and  C2_4 
REMARK    2  A    between atoms: C2_4  and  C3_5 
REMARK    3  A    between atoms: C3_5  and  C4_6 
REMARK    4  A    between atoms: C4_6  and  C5_8 
ROOT
HETATM    1  C3  UNL     1     -11.129  18.969 -10.250  1.00  0.00     0.101 C 
ENDROOT
BRANCH   1   2
HETATM    2  C2  UNL     1     -12.558  19.320 -10.562  1.00  0.00     0.121 C 
BRANCH   2   3
HETATM    3  C1  UNL     1     -12.713  20.742 -10.955  1.00  0.00     0.172 C 
HETATM    4  O1  UNL     1     -11.726  21.446 -11.314  1.00  0.00    -0.648 OA
HETATM    5  O2  UNL     1     -13.947  21.376 -10.950  1.00  0.00    -0.648 OA
ENDBRANCH   2   3
ENDBRANCH   1   2
BRANCH   1   6
HETATM    6  C4  UNL     1     -11.016  17.810  -9.341  1.00  0.00     0.225 C 
HETATM    7  O3  UNL     1     -11.948  17.512  -8.567  1.00  0.00    -0.286 OA
BRANCH   6   8
HETATM    8  C5  UNL     1      -9.815  17.002  -9.338  1.00  0.00     0.246 C 
HETATM    9  O4  UNL     1      -9.873  15.730  -9.207  1.00  0.00    -0.642 OA
HETATM   10  O5  UNL     1      -8.545  17.549  -9.475  1.00  0.00    -0.642 OA
ENDBRANCH   6   8
ENDBRANCH   1   6
TORSDOF 4
ENDMDL
