MODEL 9
REMARK VINA RESULT: -5.455435670      1.080      4.694
REMARK  4 active torsions:
REMARK  status: ('A' for Active; 'I' for Inactive)
REMARK    1  A    between atoms: C1_2  and  C2_4 
REMARK    2  A    between atoms: C2_4  and  C3_5 
REMARK    3  A    between atoms: C3_5  and  C4_6 
REMARK    4  A    between atoms: C4_6  and  C5_8 
ROOT
HETATM    1  C3  UNL     1     -11.193  18.954 -10.278  1.00  0.00     0.101 C 
ENDROOT
BRANCH   1   2
HETATM    2  C2  UNL     1     -12.634  19.319 -10.512  1.00  0.00     0.121 C 
BRANCH   2   3
HETATM    3  C1  UNL     1     -12.793  20.737 -10.916  1.00  0.00     0.172 C 
HETATM    4  O1  UNL     1     -13.921  21.308 -10.920  1.00  0.00    -0.648 OA
HETATM    5  O2  UNL     1     -11.713  21.514 -11.312  1.00  0.00    -0.648 OA
ENDBRANCH   2   3
ENDBRANCH   1   2
BRANCH   1   6
HETATM    6  C4  UNL     1     -11.041  17.815  -9.349  1.00  0.00     0.225 C 
HETATM    7  O3  UNL     1     -11.957  17.509  -8.558  1.00  0.00    -0.286 OA
BRANCH   6   8
HETATM    8  C5  UNL     1      -9.821  17.036  -9.345  1.00  0.00     0.246 C 
HETATM    9  O4  UNL     1      -8.676  17.599  -9.449  1.00  0.00    -0.642 OA
HETATM   10  O5  UNL     1      -9.818  15.651  -9.231  1.00  0.00    -0.642 OA
ENDBRANCH   6   8
ENDBRANCH   1   6
TORSDOF 4
ENDMDL
