MODEL 2
REMARK VINA RESULT: -5.490695219      1.376      4.358
REMARK  4 active torsions:
REMARK  status: ('A' for Active; 'I' for Inactive)
REMARK    1  A    between atoms: C1_2  and  C2_4 
REMARK    2  A    between atoms: C2_4  and  C3_5 
REMARK    3  A    between atoms: C3_5  and  C4_6 
REMARK    4  A    between atoms: C4_6  and  C5_8 
ROOT
HETATM    1  C3  UNL     1     -12.155  18.379 -10.967  1.00  0.00     0.101 C 
ENDROOT
BRANCH   1   2
HETATM    2  C2  UNL     1     -13.265  19.305 -10.552  1.00  0.00     0.121 C 
BRANCH   2   3
HETATM    3  C1  UNL     1     -13.007  20.708 -10.960  1.00  0.00     0.172 C 
HETATM    4  O1  UNL     1     -13.924  21.578 -10.977  1.00  0.00    -0.648 OA
HETATM    5  O2  UNL     1     -11.745  21.140 -11.344  1.00  0.00    -0.648 OA
ENDBRANCH   2   3
ENDBRANCH   1   2
BRANCH   1   6
HETATM    6  C4  UNL     1     -11.349  17.912  -9.820  1.00  0.00     0.225 C 
HETATM    7  O3  UNL     1     -11.896  17.397  -8.823  1.00  0.00    -0.286 OA
BRANCH   6   8
HETATM    8  C5  UNL     1      -9.908  18.048  -9.838  1.00  0.00     0.246 C 
HETATM    9  O4  UNL     1      -9.169  17.369  -9.045  1.00  0.00    -0.642 OA
HETATM   10  O5  UNL     1      -9.250  18.912 -10.706  1.00  0.00    -0.642 OA
ENDBRANCH   6   8
ENDBRANCH   1   6
TORSDOF 4
ENDMDL
