MODEL 6
REMARK VINA RESULT: -5.478561235      1.379      4.345
REMARK  4 active torsions:
REMARK  status: ('A' for Active; 'I' for Inactive)
REMARK    1  A    between atoms: C1_2  and  C2_4 
REMARK    2  A    between atoms: C2_4  and  C3_5 
REMARK    3  A    between atoms: C3_5  and  C4_6 
REMARK    4  A    between atoms: C4_6  and  C5_8 
ROOT
HETATM    1  C3  UNL     1     -12.178  18.353 -10.975  1.00  0.00     0.101 C 
ENDROOT
BRANCH   1   2
HETATM    2  C2  UNL     1     -13.281  19.284 -10.552  1.00  0.00     0.121 C 
BRANCH   2   3
HETATM    3  C1  UNL     1     -13.017  20.686 -10.958  1.00  0.00     0.172 C 
HETATM    4  O1  UNL     1     -13.930  21.560 -10.974  1.00  0.00    -0.648 OA
HETATM    5  O2  UNL     1     -11.754  21.113 -11.343  1.00  0.00    -0.648 OA
ENDBRANCH   2   3
ENDBRANCH   1   2
BRANCH   1   6
HETATM    6  C4  UNL     1     -11.343  17.911  -9.840  1.00  0.00     0.225 C 
HETATM    7  O3  UNL     1     -11.861  17.394  -8.829  1.00  0.00    -0.286 OA
BRANCH   6   8
HETATM    8  C5  UNL     1      -9.905  18.075  -9.886  1.00  0.00     0.246 C 
HETATM    9  O4  UNL     1      -9.361  18.927 -10.671  1.00  0.00    -0.642 OA
HETATM   10  O5  UNL     1      -9.041  17.329  -9.093  1.00  0.00    -0.642 OA
ENDBRANCH   6   8
ENDBRANCH   1   6
TORSDOF 4
ENDMDL
