MODEL 1
REMARK VINA RESULT: -5.491560472      0.000      0.000
REMARK  4 active torsions:
REMARK  status: ('A' for Active; 'I' for Inactive)
REMARK    1  A    between atoms: C1_2  and  C2_4 
REMARK    2  A    between atoms: C2_4  and  C3_5 
REMARK    3  A    between atoms: C3_5  and  C4_6 
REMARK    4  A    between atoms: C4_6  and  C5_8 
ROOT
HETATM    1  C3  UNL     1     -11.171  18.734 -10.647  1.00  0.00     0.101 C 
ENDROOT
BRANCH   1   2
HETATM    2  C2  UNL     1     -10.789  18.758  -9.193  1.00  0.00     0.121 C 
BRANCH   2   3
HETATM    3  C1  UNL     1     -10.970  17.436  -8.544  1.00  0.00     0.172 C 
HETATM    4  O1  UNL     1     -10.163  16.482  -8.736  1.00  0.00    -0.648 OA
HETATM    5  O2  UNL     1     -12.035  17.176  -7.693  1.00  0.00    -0.648 OA
ENDBRANCH   2   3
ENDBRANCH   1   2
BRANCH   1   6
HETATM    6  C4  UNL     1     -12.507  19.315 -10.891  1.00  0.00     0.225 C 
HETATM    7  O3  UNL     1     -13.513  18.584 -10.992  1.00  0.00    -0.286 OA
BRANCH   6   8
HETATM    8  C5  UNL     1     -12.664  20.749 -11.019  1.00  0.00     0.246 C 
HETATM    9  O4  UNL     1     -11.667  21.503 -11.290  1.00  0.00    -0.642 OA
HETATM   10  O5  UNL     1     -13.890  21.384 -10.858  1.00  0.00    -0.642 OA
ENDBRANCH   6   8
ENDBRANCH   1   6
TORSDOF 4
ENDMDL
