MODEL 4
REMARK VINA RESULT: -5.488579928      1.189      1.545
REMARK  4 active torsions:
REMARK  status: ('A' for Active; 'I' for Inactive)
REMARK    1  A    between atoms: C1_2  and  C2_4 
REMARK    2  A    between atoms: C2_4  and  C3_5 
REMARK    3  A    between atoms: C3_5  and  C4_6 
REMARK    4  A    between atoms: C4_6  and  C5_8 
ROOT
HETATM    1  C3  UNL     1     -12.314  18.605  -9.718  1.00  0.00     0.101 C 
ENDROOT
BRANCH   1   2
HETATM    2  C2  UNL     1     -10.977  18.721  -9.038  1.00  0.00     0.121 C 
BRANCH   2   3
HETATM    3  C1  UNL     1     -10.033  17.663  -9.475  1.00  0.00     0.172 C 
HETATM    4  O1  UNL     1     -10.376  16.447  -9.538  1.00  0.00    -0.648 OA
HETATM    5  O2  UNL     1      -8.725  17.950  -9.837  1.00  0.00    -0.648 OA
ENDBRANCH   2   3
ENDBRANCH   1   2
BRANCH   1   6
HETATM    6  C4  UNL     1     -12.363  19.340 -10.999  1.00  0.00     0.225 C 
HETATM    7  O3  UNL     1     -12.203  18.745 -12.084  1.00  0.00    -0.286 OA
BRANCH   6   8
HETATM    8  C5  UNL     1     -12.598  20.769 -11.009  1.00  0.00     0.246 C 
HETATM    9  O4  UNL     1     -11.640  21.596 -11.195  1.00  0.00    -0.642 OA
HETATM   10  O5  UNL     1     -13.860  21.321 -10.821  1.00  0.00    -0.642 OA
ENDBRANCH   6   8
ENDBRANCH   1   6
TORSDOF 4
ENDMDL
