MODEL 8
REMARK VINA RESULT: -5.459296465      1.383      4.231
REMARK  4 active torsions:
REMARK  status: ('A' for Active; 'I' for Inactive)
REMARK    1  A    between atoms: C1_2  and  C2_4 
REMARK    2  A    between atoms: C2_4  and  C3_5 
REMARK    3  A    between atoms: C3_5  and  C4_6 
REMARK    4  A    between atoms: C4_6  and  C5_8 
ROOT
HETATM    1  C3  UNL     1     -12.159  18.251 -10.941  1.00  0.00     0.101 C 
ENDROOT
BRANCH   1   2
HETATM    2  C2  UNL     1     -13.240  19.219 -10.543  1.00  0.00     0.121 C 
BRANCH   2   3
HETATM    3  C1  UNL     1     -12.917  20.612 -10.939  1.00  0.00     0.172 C 
HETATM    4  O1  UNL     1     -11.752  20.953 -11.291  1.00  0.00    -0.648 OA
HETATM    5  O2  UNL     1     -13.876  21.615 -10.944  1.00  0.00    -0.648 OA
ENDBRANCH   2   3
ENDBRANCH   1   2
BRANCH   1   6
HETATM    6  C4  UNL     1     -11.311  17.850  -9.801  1.00  0.00     0.225 C 
HETATM    7  O3  UNL     1     -11.816  17.363  -8.768  1.00  0.00    -0.286 OA
BRANCH   6   8
HETATM    8  C5  UNL     1      -9.874  18.018  -9.868  1.00  0.00     0.246 C 
HETATM    9  O4  UNL     1      -9.344  18.878 -10.653  1.00  0.00    -0.642 OA
HETATM   10  O5  UNL     1      -8.996  17.267  -9.094  1.00  0.00    -0.642 OA
ENDBRANCH   6   8
ENDBRANCH   1   6
TORSDOF 4
ENDMDL
