MODEL 9
REMARK VINA RESULT: -7.182655846      1.808      5.518
REMARK  6 active torsions:
REMARK  status: ('A' for Active; 'I' for Inactive)
REMARK    1  A    between atoms: O1_2  and  C2_3 
REMARK    2  A    between atoms: C2_3  and  C3_4 
REMARK    3  A    between atoms: N2_12  and  C8_13 
REMARK    4  A    between atoms: C8_13  and  C9_14 
REMARK       I    between atoms: C9_14  and  N3_16 
REMARK    5  A    between atoms: C16_25  and  C17_26 
REMARK    6  A    between atoms: C17_26  and  C18_27 
ROOT
HETATM    1  C9  UNL     1     -15.323 -17.891  -5.878  1.00  0.00     0.258 C 
HETATM    2  O2  UNL     1     -16.509 -17.578  -6.170  1.00  0.00    -0.267 OA
HETATM    3  N3  UNL     1     -14.601 -18.611  -6.879  1.00  0.00    -0.312 N 
HETATM    4  C10 UNL     1     -13.211 -19.070  -6.731  1.00  0.00     0.146 C 
HETATM    5  C11 UNL     1     -12.725 -19.039  -8.141  1.00  0.00    -0.000 C 
HETATM    6  C12 UNL     1     -12.224 -17.633  -8.427  1.00  0.00     0.021 C 
HETATM    7  C13 UNL     1     -11.653 -20.068  -8.416  1.00  0.00     0.021 C 
HETATM    8  C14 UNL     1     -13.948 -19.281  -8.934  1.00  0.00    -0.006 A 
HETATM    9  C15 UNL     1     -14.193 -19.699 -10.241  1.00  0.00     0.098 A 
HETATM   10  N4  UNL     1     -15.440 -19.835 -10.725  1.00  0.00    -0.368 N 
ATOM     11  H4  UNL     1     -15.555 -20.146 -11.689  1.00  0.00     0.165 HD
HETATM   12  C16 UNL     1     -16.543 -19.581  -9.998  1.00  0.00     0.015 A 
HETATM   13  C24 UNL     1     -16.348 -19.164  -8.699  1.00  0.00     0.055 A 
HETATM   14  C25 UNL     1     -15.059 -19.015  -8.169  1.00  0.00     0.048 A 
ENDROOT
BRANCH   1  15
HETATM   15  C8  UNL     1     -14.714 -17.536  -4.580  1.00  0.00     0.135 C 
BRANCH  15  16
HETATM   16  N2  UNL     1     -15.362 -18.001  -3.424  1.00  0.00    -0.278 NA
HETATM   17  C3  UNL     1     -14.881 -17.532  -2.158  1.00  0.00     0.112 C 
HETATM   18  C4  UNL     1     -15.938 -17.881  -1.144  1.00  0.00     0.254 C 
HETATM   19  N1  UNL     1     -15.957 -19.339  -0.939  1.00  0.00    -0.069 N 
HETATM   20  C5  UNL     1     -16.084 -20.031  -2.186  1.00  0.00     0.195 C 
ATOM     21  H12 UNL     1     -15.141 -19.656  -0.415  1.00  0.00     0.277 HD
ATOM     22  H11 UNL     1     -16.683 -19.617  -0.280  1.00  0.00     0.277 HD
HETATM   23  C6  UNL     1     -15.698 -21.500  -1.977  1.00  0.00     0.041 C 
HETATM   24  C7  UNL     1     -15.383 -19.439  -3.356  1.00  0.00     0.128 C 
BRANCH  17  25
HETATM   25  C2  UNL     1     -14.437 -16.146  -2.033  1.00  0.00     0.188 C 
BRANCH  25  26
HETATM   26  O1  UNL     1     -14.901 -15.319  -1.072  1.00  0.00    -0.394 OA
HETATM   27  C1  UNL     1     -15.390 -14.100  -1.332  1.00  0.00     0.201 C 
ENDBRANCH  25  26
ENDBRANCH  17  25
ENDBRANCH  15  16
ENDBRANCH   1  15
BRANCH  12  28
HETATM   28  C17 UNL     1     -17.915 -19.737 -10.556  1.00  0.00     0.095 C 
BRANCH  28  29
HETATM   29  C18 UNL     1     -18.451 -18.396 -10.862  1.00  0.00    -0.053 A 
HETATM   30  C19 UNL     1     -19.711 -18.276 -11.393  1.00  0.00     0.007 A 
HETATM   31  C20 UNL     1     -20.215 -17.005 -11.681  1.00  0.00     0.001 A 
HETATM   32  C21 UNL     1     -19.488 -15.869 -11.449  1.00  0.00     0.000 A 
HETATM   33  C22 UNL     1     -18.212 -15.993 -10.910  1.00  0.00     0.001 A 
HETATM   34  C23 UNL     1     -17.723 -17.252 -10.630  1.00  0.00     0.007 A 
ENDBRANCH  28  29
ENDBRANCH  12  28
TORSDOF 6
ENDMDL
