MODEL 6
REMARK VINA RESULT: -7.542083919      1.022      1.703
REMARK  6 active torsions:
REMARK  status: ('A' for Active; 'I' for Inactive)
REMARK    1  A    between atoms: O1_2  and  C2_3 
REMARK    2  A    between atoms: C2_3  and  C3_4 
REMARK    3  A    between atoms: N2_12  and  C8_13 
REMARK    4  A    between atoms: C8_13  and  C9_14 
REMARK       I    between atoms: C9_14  and  N3_16 
REMARK    5  A    between atoms: C16_25  and  C17_26 
REMARK    6  A    between atoms: C17_26  and  C18_27 
ROOT
HETATM    1  C9  UNL     1     -15.062 -18.645  -5.383  1.00  0.00     0.258 C 
HETATM    2  O2  UNL     1     -14.112 -19.266  -4.834  1.00  0.00    -0.267 OA
HETATM    3  N3  UNL     1     -15.027 -18.581  -6.810  1.00  0.00    -0.312 N 
HETATM    4  C10 UNL     1     -16.036 -17.900  -7.637  1.00  0.00     0.146 C 
HETATM    5  C11 UNL     1     -16.001 -18.707  -8.892  1.00  0.00    -0.000 C 
HETATM    6  C12 UNL     1     -16.947 -19.883  -8.713  1.00  0.00     0.021 C 
HETATM    7  C13 UNL     1     -16.356 -17.901 -10.119  1.00  0.00     0.021 C 
HETATM    8  C14 UNL     1     -14.613 -19.214  -8.938  1.00  0.00    -0.006 A 
HETATM    9  C15 UNL     1     -13.801 -19.734  -9.945  1.00  0.00     0.098 A 
HETATM   10  N4  UNL     1     -12.541 -20.138  -9.708  1.00  0.00    -0.368 N 
ATOM     11  H4  UNL     1     -11.996 -20.509 -10.486  1.00  0.00     0.165 HD
HETATM   12  C16 UNL     1     -11.964 -20.075  -8.494  1.00  0.00     0.015 A 
HETATM   13  C24 UNL     1     -12.731 -19.566  -7.468  1.00  0.00     0.055 A 
HETATM   14  C25 UNL     1     -14.048 -19.138  -7.688  1.00  0.00     0.048 A 
ENDROOT
BRANCH   1  15
HETATM   15  C8  UNL     1     -16.149 -18.020  -4.602  1.00  0.00     0.135 C 
BRANCH  15  16
HETATM   16  N2  UNL     1     -16.129 -18.221  -3.212  1.00  0.00    -0.278 NA
HETATM   17  C3  UNL     1     -15.087 -17.582  -2.462  1.00  0.00     0.112 C 
HETATM   18  C4  UNL     1     -15.495 -17.659  -1.015  1.00  0.00     0.254 C 
HETATM   19  N1  UNL     1     -15.390 -19.052  -0.551  1.00  0.00    -0.069 N 
HETATM   20  C5  UNL     1     -16.113 -19.937  -1.415  1.00  0.00     0.195 C 
ATOM     21  H12 UNL     1     -14.418 -19.342  -0.445  1.00  0.00     0.277 HD
ATOM     22  H11 UNL     1     -15.688 -19.149   0.419  1.00  0.00     0.277 HD
HETATM   23  C6  UNL     1     -15.655 -21.374  -1.143  1.00  0.00     0.041 C 
HETATM   24  C7  UNL     1     -16.095 -19.618  -2.866  1.00  0.00     0.128 C 
BRANCH  17  25
HETATM   25  C2  UNL     1     -14.658 -16.238  -2.842  1.00  0.00     0.188 C 
BRANCH  25  26
HETATM   26  O1  UNL     1     -13.453 -15.991  -3.398  1.00  0.00    -0.394 OA
HETATM   27  C1  UNL     1     -13.308 -15.467  -4.621  1.00  0.00     0.201 C 
ENDBRANCH  25  26
ENDBRANCH  17  25
ENDBRANCH  15  16
ENDBRANCH   1  15
BRANCH  12  28
HETATM   28  C17 UNL     1     -10.567 -20.528  -8.255  1.00  0.00     0.095 C 
BRANCH  28  29
HETATM   29  C18 UNL     1      -9.697 -19.928  -9.287  1.00  0.00    -0.053 A 
HETATM   30  C19 UNL     1      -9.223 -20.710 -10.311  1.00  0.00     0.007 A 
HETATM   31  C20 UNL     1      -8.401 -20.138 -11.286  1.00  0.00     0.001 A 
HETATM   32  C21 UNL     1      -8.051 -18.815 -11.251  1.00  0.00     0.000 A 
HETATM   33  C22 UNL     1      -8.533 -18.025 -10.213  1.00  0.00     0.001 A 
HETATM   34  C23 UNL     1      -9.344 -18.599  -9.256  1.00  0.00     0.007 A 
ENDBRANCH  28  29
ENDBRANCH  12  28
TORSDOF 6
ENDMDL
