MODEL 3
REMARK VINA RESULT: -7.832638463      1.164      2.089
REMARK  6 active torsions:
REMARK  status: ('A' for Active; 'I' for Inactive)
REMARK    1  A    between atoms: O1_2  and  C2_3 
REMARK    2  A    between atoms: C2_3  and  C3_4 
REMARK    3  A    between atoms: N2_12  and  C8_13 
REMARK    4  A    between atoms: C8_13  and  C9_14 
REMARK       I    between atoms: C9_14  and  N3_16 
REMARK    5  A    between atoms: C16_25  and  C17_26 
REMARK    6  A    between atoms: C17_26  and  C18_27 
ROOT
HETATM    1  C9  UNL     1     -15.054 -18.656  -5.389  1.00  0.00     0.258 C 
HETATM    2  O2  UNL     1     -14.101 -19.279  -4.847  1.00  0.00    -0.267 OA
HETATM    3  N3  UNL     1     -15.009 -18.561  -6.814  1.00  0.00    -0.312 N 
HETATM    4  C10 UNL     1     -16.020 -17.874  -7.633  1.00  0.00     0.146 C 
HETATM    5  C11 UNL     1     -15.968 -18.653  -8.905  1.00  0.00    -0.000 C 
HETATM    6  C12 UNL     1     -16.904 -19.842  -8.758  1.00  0.00     0.021 C 
HETATM    7  C13 UNL     1     -16.323 -17.824 -10.117  1.00  0.00     0.021 C 
HETATM    8  C14 UNL     1     -14.575 -19.145  -8.952  1.00  0.00    -0.006 A 
HETATM    9  C15 UNL     1     -13.751 -19.635  -9.964  1.00  0.00     0.098 A 
HETATM   10  N4  UNL     1     -12.489 -20.030  -9.727  1.00  0.00    -0.368 N 
ATOM     11  H4  UNL     1     -11.935 -20.380 -10.509  1.00  0.00     0.165 HD
HETATM   12  C16 UNL     1     -11.920 -19.988  -8.508  1.00  0.00     0.015 A 
HETATM   13  C24 UNL     1     -12.700 -19.509  -7.477  1.00  0.00     0.055 A 
HETATM   14  C25 UNL     1     -14.019 -19.090  -7.697  1.00  0.00     0.048 A 
ENDROOT
BRANCH   1  15
HETATM   15  C8  UNL     1     -16.152 -18.059  -4.602  1.00  0.00     0.135 C 
BRANCH  15  16
HETATM   16  N2  UNL     1     -16.125 -18.267  -3.213  1.00  0.00    -0.278 NA
HETATM   17  C3  UNL     1     -15.085 -17.624  -2.465  1.00  0.00     0.112 C 
HETATM   18  C4  UNL     1     -15.486 -17.711  -1.016  1.00  0.00     0.254 C 
HETATM   19  N1  UNL     1     -15.369 -19.106  -0.560  1.00  0.00    -0.069 N 
HETATM   20  C5  UNL     1     -16.088 -19.991  -1.425  1.00  0.00     0.195 C 
ATOM     21  H12 UNL     1     -14.394 -19.389  -0.459  1.00  0.00     0.277 HD
ATOM     22  H11 UNL     1     -15.662 -19.209   0.411  1.00  0.00     0.277 HD
HETATM   23  C6  UNL     1     -15.620 -21.427  -1.163  1.00  0.00     0.041 C 
HETATM   24  C7  UNL     1     -16.080 -19.665  -2.875  1.00  0.00     0.128 C 
BRANCH  17  25
HETATM   25  C2  UNL     1     -14.667 -16.275  -2.839  1.00  0.00     0.188 C 
BRANCH  25  26
HETATM   26  O1  UNL     1     -13.436 -16.005  -3.325  1.00  0.00    -0.394 OA
HETATM   27  C1  UNL     1     -13.231 -15.489  -4.543  1.00  0.00     0.201 C 
ENDBRANCH  25  26
ENDBRANCH  17  25
ENDBRANCH  15  16
ENDBRANCH   1  15
BRANCH  12  28
HETATM   28  C17 UNL     1     -10.520 -20.432  -8.269  1.00  0.00     0.095 C 
BRANCH  28  29
HETATM   29  C18 UNL     1      -9.626 -19.268  -8.436  1.00  0.00    -0.053 A 
HETATM   30  C19 UNL     1      -9.249 -18.881  -9.698  1.00  0.00     0.007 A 
HETATM   31  C20 UNL     1      -8.403 -17.779  -9.852  1.00  0.00     0.001 A 
HETATM   32  C21 UNL     1      -7.935 -17.071  -8.779  1.00  0.00     0.000 A 
HETATM   33  C22 UNL     1      -8.318 -17.465  -7.502  1.00  0.00     0.001 A 
HETATM   34  C23 UNL     1      -9.154 -18.555  -7.360  1.00  0.00     0.007 A 
ENDBRANCH  28  29
ENDBRANCH  12  28
TORSDOF 6
ENDMDL
