MODEL 10
REMARK VINA RESULT: -6.963224208      1.986      5.263
REMARK  6 active torsions:
REMARK  status: ('A' for Active; 'I' for Inactive)
REMARK    1  A    between atoms: O1_2  and  C2_3 
REMARK    2  A    between atoms: C2_3  and  C3_4 
REMARK    3  A    between atoms: N2_12  and  C8_13 
REMARK    4  A    between atoms: C8_13  and  C9_14 
REMARK       I    between atoms: C9_14  and  N3_16 
REMARK    5  A    between atoms: C16_25  and  C17_26 
REMARK    6  A    between atoms: C17_26  and  C18_27 
ROOT
HETATM    1  C9  UNL     1     -15.101 -17.502  -5.496  1.00  0.00     0.258 C 
HETATM    2  O2  UNL     1     -16.089 -16.741  -5.677  1.00  0.00    -0.267 OA
HETATM    3  N3  UNL     1     -14.505 -18.045  -6.676  1.00  0.00    -0.312 N 
HETATM    4  C10 UNL     1     -13.350 -18.957  -6.679  1.00  0.00     0.146 C 
HETATM    5  C11 UNL     1     -12.698 -18.622  -7.979  1.00  0.00    -0.000 C 
HETATM    6  C12 UNL     1     -11.764 -17.447  -7.741  1.00  0.00     0.021 C 
HETATM    7  C13 UNL     1     -11.960 -19.793  -8.585  1.00  0.00     0.021 C 
HETATM    8  C14 UNL     1     -13.824 -18.174  -8.825  1.00  0.00    -0.006 A 
HETATM    9  C15 UNL     1     -14.012 -18.032 -10.199  1.00  0.00     0.098 A 
HETATM   10  N4  UNL     1     -15.167 -17.584 -10.718  1.00  0.00    -0.368 N 
ATOM     11  H4  UNL     1     -15.245 -17.502 -11.732  1.00  0.00     0.165 HD
HETATM   12  C16 UNL     1     -16.227 -17.237  -9.966  1.00  0.00     0.015 A 
HETATM   13  C24 UNL     1     -16.086 -17.362  -8.600  1.00  0.00     0.055 A 
HETATM   14  C25 UNL     1     -14.892 -17.827  -8.033  1.00  0.00     0.048 A 
ENDROOT
BRANCH   1  15
HETATM   15  C8  UNL     1     -14.586 -17.816  -4.147  1.00  0.00     0.135 C 
BRANCH  15  16
HETATM   16  N2  UNL     1     -15.490 -18.395  -3.241  1.00  0.00    -0.278 NA
HETATM   17  C3  UNL     1     -15.567 -17.828  -1.926  1.00  0.00     0.112 C 
HETATM   18  C4  UNL     1     -16.821 -18.376  -1.298  1.00  0.00     0.254 C 
HETATM   19  N1  UNL     1     -16.633 -19.806  -1.000  1.00  0.00    -0.069 N 
HETATM   20  C5  UNL     1     -16.194 -20.519  -2.161  1.00  0.00     0.195 C 
ATOM     21  H12 UNL     1     -16.001 -19.946  -0.212  1.00  0.00     0.277 HD
ATOM     22  H11 UNL     1     -17.474 -20.220  -0.600  1.00  0.00     0.277 HD
HETATM   23  C6  UNL     1     -15.634 -21.877  -1.724  1.00  0.00     0.041 C 
HETATM   24  C7  UNL     1     -15.262 -19.807  -3.073  1.00  0.00     0.128 C 
BRANCH  17  25
HETATM   25  C2  UNL     1     -15.462 -16.379  -1.768  1.00  0.00     0.188 C 
BRANCH  25  26
HETATM   26  O1  UNL     1     -14.357 -15.782  -1.274  1.00  0.00    -0.394 OA
HETATM   27  C1  UNL     1     -13.661 -14.861  -1.953  1.00  0.00     0.201 C 
ENDBRANCH  25  26
ENDBRANCH  17  25
ENDBRANCH  15  16
ENDBRANCH   1  15
BRANCH  12  28
HETATM   28  C17 UNL     1     -17.498 -16.742 -10.564  1.00  0.00     0.095 C 
BRANCH  28  29
HETATM   29  C18 UNL     1     -18.290 -17.906 -11.009  1.00  0.00    -0.053 A 
HETATM   30  C19 UNL     1     -19.328 -17.722 -11.889  1.00  0.00     0.007 A 
HETATM   31  C20 UNL     1     -20.074 -18.826 -12.308  1.00  0.00     0.001 A 
HETATM   32  C21 UNL     1     -19.803 -20.093 -11.867  1.00  0.00     0.000 A 
HETATM   33  C22 UNL     1     -18.751 -20.277 -10.977  1.00  0.00     0.001 A 
HETATM   34  C23 UNL     1     -18.020 -19.180 -10.568  1.00  0.00     0.007 A 
ENDBRANCH  28  29
ENDBRANCH  12  28
TORSDOF 6
ENDMDL
