MODEL 1
REMARK VINA RESULT: -8.165596279      0.000      0.000
REMARK  6 active torsions:
REMARK  status: ('A' for Active; 'I' for Inactive)
REMARK    1  A    between atoms: O1_2  and  C2_3 
REMARK    2  A    between atoms: C2_3  and  C3_4 
REMARK    3  A    between atoms: N2_12  and  C8_13 
REMARK    4  A    between atoms: C8_13  and  C9_14 
REMARK       I    between atoms: C9_14  and  N3_16 
REMARK    5  A    between atoms: C16_25  and  C17_26 
REMARK    6  A    between atoms: C17_26  and  C18_27 
ROOT
HETATM    1  C9  UNL     1     -15.031 -18.069  -5.374  1.00  0.00     0.258 C 
HETATM    2  O2  UNL     1     -13.909 -18.370  -4.883  1.00  0.00    -0.267 OA
HETATM    3  N3  UNL     1     -15.137 -18.165  -6.796  1.00  0.00    -0.312 N 
HETATM    4  C10 UNL     1     -16.355 -17.854  -7.560  1.00  0.00     0.146 C 
HETATM    5  C11 UNL     1     -16.224 -18.767  -8.733  1.00  0.00    -0.000 C 
HETATM    6  C12 UNL     1     -16.819 -20.110  -8.342  1.00  0.00     0.021 C 
HETATM    7  C13 UNL     1     -16.880 -18.221  -9.980  1.00  0.00     0.021 C 
HETATM    8  C14 UNL     1     -14.763 -18.920  -8.891  1.00  0.00    -0.006 A 
HETATM    9  C15 UNL     1     -13.936 -19.338  -9.932  1.00  0.00     0.098 A 
HETATM   10  N4  UNL     1     -12.599 -19.389  -9.805  1.00  0.00    -0.368 N 
ATOM     11  H4  UNL     1     -12.047 -19.703 -10.603  1.00  0.00     0.165 HD
HETATM   12  C16 UNL     1     -11.953 -19.046  -8.676  1.00  0.00     0.015 A 
HETATM   13  C24 UNL     1     -12.733 -18.625  -7.619  1.00  0.00     0.055 A 
HETATM   14  C25 UNL     1     -14.129 -18.563  -7.725  1.00  0.00     0.048 A 
ENDROOT
BRANCH   1  15
HETATM   15  C8  UNL     1     -16.168 -17.644  -4.534  1.00  0.00     0.135 C 
BRANCH  15  16
HETATM   16  N2  UNL     1     -16.171 -18.081  -3.199  1.00  0.00    -0.278 NA
HETATM   17  C3  UNL     1     -15.182 -17.532  -2.318  1.00  0.00     0.112 C 
HETATM   18  C4  UNL     1     -15.619 -17.877  -0.919  1.00  0.00     0.254 C 
HETATM   19  N1  UNL     1     -15.453 -19.323  -0.697  1.00  0.00    -0.069 N 
HETATM   20  C5  UNL     1     -16.107 -20.078  -1.722  1.00  0.00     0.195 C 
ATOM     21  H12 UNL     1     -14.470 -19.580  -0.611  1.00  0.00     0.277 HD
ATOM     22  H11 UNL     1     -15.768 -19.599   0.232  1.00  0.00     0.277 HD
HETATM   23  C6  UNL     1     -15.582 -21.518  -1.686  1.00  0.00     0.041 C 
HETATM   24  C7  UNL     1     -16.072 -19.514  -3.097  1.00  0.00     0.128 C 
BRANCH  17  25
HETATM   25  C2  UNL     1     -14.815 -16.124  -2.447  1.00  0.00     0.188 C 
BRANCH  25  26
HETATM   26  O1  UNL     1     -13.531 -15.714  -2.538  1.00  0.00    -0.394 OA
HETATM   27  C1  UNL     1     -13.010 -15.197  -3.658  1.00  0.00     0.201 C 
ENDBRANCH  25  26
ENDBRANCH  17  25
ENDBRANCH  15  16
ENDBRANCH   1  15
BRANCH  12  28
HETATM   28  C17 UNL     1     -10.471 -19.111  -8.557  1.00  0.00     0.095 C 
BRANCH  28  29
HETATM   29  C18 UNL     1     -10.049 -20.515  -8.734  1.00  0.00    -0.053 A 
HETATM   30  C19 UNL     1     -10.115 -21.380  -7.670  1.00  0.00     0.007 A 
HETATM   31  C20 UNL     1      -9.716 -22.709  -7.842  1.00  0.00     0.001 A 
HETATM   32  C21 UNL     1      -9.257 -23.177  -9.043  1.00  0.00     0.000 A 
HETATM   33  C22 UNL     1      -9.191 -22.298 -10.119  1.00  0.00     0.001 A 
HETATM   34  C23 UNL     1      -9.588 -20.989  -9.940  1.00  0.00     0.007 A 
ENDBRANCH  28  29
ENDBRANCH  12  28
TORSDOF 6
ENDMDL
