MODEL 2
REMARK VINA RESULT: -8.077410584      0.528      1.092
REMARK  6 active torsions:
REMARK  status: ('A' for Active; 'I' for Inactive)
REMARK    1  A    between atoms: O1_2  and  C2_3 
REMARK    2  A    between atoms: C2_3  and  C3_4 
REMARK    3  A    between atoms: N2_12  and  C8_13 
REMARK    4  A    between atoms: C8_13  and  C9_14 
REMARK       I    between atoms: C9_14  and  N3_16 
REMARK    5  A    between atoms: C16_25  and  C17_26 
REMARK    6  A    between atoms: C17_26  and  C18_27 
ROOT
HETATM    1  C9  UNL     1     -15.008 -18.020  -5.375  1.00  0.00     0.258 C 
HETATM    2  O2  UNL     1     -13.879 -18.305  -4.892  1.00  0.00    -0.267 OA
HETATM    3  N3  UNL     1     -15.131 -18.145  -6.794  1.00  0.00    -0.312 N 
HETATM    4  C10 UNL     1     -16.360 -17.855  -7.549  1.00  0.00     0.146 C 
HETATM    5  C11 UNL     1     -16.239 -18.792  -8.705  1.00  0.00    -0.000 C 
HETATM    6  C12 UNL     1     -16.822 -20.129  -8.280  1.00  0.00     0.021 C 
HETATM    7  C13 UNL     1     -16.913 -18.274  -9.954  1.00  0.00     0.021 C 
HETATM    8  C14 UNL     1     -14.779 -18.940  -8.877  1.00  0.00    -0.006 A 
HETATM    9  C15 UNL     1     -13.963 -19.375  -9.920  1.00  0.00     0.098 A 
HETATM   10  N4  UNL     1     -12.624 -19.417  -9.809  1.00  0.00    -0.368 N 
ATOM     11  H4  UNL     1     -12.081 -19.745 -10.607  1.00  0.00     0.165 HD
HETATM   12  C16 UNL     1     -11.967 -19.049  -8.695  1.00  0.00     0.015 A 
HETATM   13  C24 UNL     1     -12.735 -18.611  -7.637  1.00  0.00     0.055 A 
HETATM   14  C25 UNL     1     -14.133 -18.556  -7.727  1.00  0.00     0.048 A 
ENDROOT
BRANCH   1  15
HETATM   15  C8  UNL     1     -16.137 -17.583  -4.530  1.00  0.00     0.135 C 
BRANCH  15  16
HETATM   16  N2  UNL     1     -16.152 -18.041  -3.202  1.00  0.00    -0.278 NA
HETATM   17  C3  UNL     1     -15.163 -17.514  -2.307  1.00  0.00     0.112 C 
HETATM   18  C4  UNL     1     -15.611 -17.877  -0.916  1.00  0.00     0.254 C 
HETATM   19  N1  UNL     1     -15.458 -19.327  -0.716  1.00  0.00    -0.069 N 
HETATM   20  C5  UNL     1     -16.113 -20.061  -1.756  1.00  0.00     0.195 C 
ATOM     21  H12 UNL     1     -14.478 -19.593  -0.628  1.00  0.00     0.277 HD
ATOM     22  H11 UNL     1     -15.781 -19.615   0.208  1.00  0.00     0.277 HD
HETATM   23  C6  UNL     1     -15.600 -21.505  -1.739  1.00  0.00     0.041 C 
HETATM   24  C7  UNL     1     -16.065 -19.475  -3.121  1.00  0.00     0.128 C 
BRANCH  17  25
HETATM   25  C2  UNL     1     -14.783 -16.107  -2.413  1.00  0.00     0.188 C 
BRANCH  25  26
HETATM   26  O1  UNL     1     -14.653 -15.307  -1.332  1.00  0.00    -0.394 OA
HETATM   27  C1  UNL     1     -15.173 -14.075  -1.271  1.00  0.00     0.201 C 
ENDBRANCH  25  26
ENDBRANCH  17  25
ENDBRANCH  15  16
ENDBRANCH   1  15
BRANCH  12  28
HETATM   28  C17 UNL     1     -10.482 -19.104  -8.593  1.00  0.00     0.095 C 
BRANCH  28  29
HETATM   29  C18 UNL     1     -10.056 -20.510  -8.743  1.00  0.00    -0.053 A 
HETATM   30  C19 UNL     1      -9.597 -20.951  -9.960  1.00  0.00     0.007 A 
HETATM   31  C20 UNL     1      -9.194 -22.282 -10.097  1.00  0.00     0.001 A 
HETATM   32  C21 UNL     1      -9.243 -23.165  -9.053  1.00  0.00     0.000 A 
HETATM   33  C22 UNL     1      -9.707 -22.715  -7.822  1.00  0.00     0.001 A 
HETATM   34  C23 UNL     1     -10.103 -21.399  -7.696  1.00  0.00     0.007 A 
ENDBRANCH  28  29
ENDBRANCH  12  28
TORSDOF 6
ENDMDL
