MODEL 2
REMARK VINA RESULT: -7.528289369      1.940      2.837
REMARK  8 active torsions:
REMARK  status: ('A' for Active; 'I' for Inactive)
REMARK    1  A    between atoms: O1_2  and  C2_3 
REMARK    2  A    between atoms: C2_3  and  C3_4 
REMARK    3  A    between atoms: C3_4  and  C4_5 
REMARK    4  A    between atoms: C4_5  and  N1_6 
REMARK    5  A    between atoms: N2_12  and  C7_13 
REMARK    6  A    between atoms: C10_18  and  N4_19 
REMARK    7  A    between atoms: N4_19  and  C11_21 
REMARK    8  A    between atoms: N7_32  and  C18_33 
ROOT
HETATM    1  C7  UNL     1     -52.986  -1.238 -25.618  1.00  0.00     0.681 A 
HETATM    2  N3  UNL     1     -54.217  -0.842 -26.039  1.00  0.00    -0.202 N 
ATOM      3  H3  UNL     1     -54.721  -1.374 -26.749  1.00  0.00     0.183 HD
HETATM    4  C8  UNL     1     -54.750   0.252 -25.506  1.00  0.00     0.110 A 
HETATM    5  C9  UNL     1     -54.060   0.975 -24.535  1.00  0.00     0.067 A 
HETATM    6  C10 UNL     1     -52.821   0.587 -24.104  1.00  0.00     0.123 A 
HETATM    7  N8  UNL     1     -52.321  -0.540 -24.682  1.00  0.00    -0.176 N 
ATOM      8  H8  UNL     1     -51.400  -0.869 -24.391  1.00  0.00     0.186 HD
ENDROOT
BRANCH   6   9
HETATM    9  N4  UNL     1     -52.057   1.243 -23.144  1.00  0.00    -0.328 N 
ATOM     10  H4  UNL     1     -51.158   1.606 -23.461  1.00  0.00     0.169 HD
BRANCH   9  11
HETATM   11  C11 UNL     1     -52.373   1.470 -21.780  1.00  0.00     0.108 A 
HETATM   12  C12 UNL     1     -51.680   0.795 -20.768  1.00  0.00     0.080 A 
HETATM   13  C13 UNL     1     -51.965   0.995 -19.439  1.00  0.00     0.068 A 
HETATM   14  C14 UNL     1     -52.945   1.871 -19.053  1.00  0.00     0.076 A 
HETATM   15  N7  UNL     1     -51.457   0.483 -18.273  1.00  0.00    -0.331 N 
HETATM   16  C15 UNL     1     -53.630   2.538 -20.077  1.00  0.00     0.121 A 
HETATM   17  N6  UNL     1     -53.010   1.872 -17.718  1.00  0.00    -0.343 N 
HETATM   18  N5  UNL     1     -53.314   2.308 -21.366  1.00  0.00    -0.350 N 
ATOM     19  H5  UNL     1     -53.838   2.817 -22.078  1.00  0.00     0.166 HD
HETATM   20  C16 UNL     1     -52.073   1.000 -17.227  1.00  0.00     0.080 A 
ATOM     21  H6  UNL     1     -53.651   2.431 -17.157  1.00  0.00     0.167 HD
HETATM   22  C17 UNL     1     -51.912   0.800 -15.763  1.00  0.00     0.089 C 
BRANCH  15  23
HETATM   23  C18 UNL     1     -50.404  -0.479 -18.303  1.00  0.00     0.083 C 
HETATM   24  C19 UNL     1     -49.513  -0.539 -17.099  1.00  0.00     0.032 C 
HETATM   25  C20 UNL     1     -50.960  -1.897 -18.503  1.00  0.00     0.032 C 
ENDBRANCH  15  23
ENDBRANCH   9  11
ENDBRANCH   6   9
BRANCH   1  26
HETATM   26  N2  UNL     1     -52.390  -2.398 -26.166  1.00  0.00    -0.217 N 
HETATM   27  C6  UNL     1     -52.223  -2.492 -27.597  1.00  0.00     0.144 C 
HETATM   28  C5  UNL     1     -51.555  -3.825 -27.875  1.00  0.00     0.058 C 
HETATM   29  C2  UNL     1     -50.252  -3.908 -27.067  1.00  0.00     0.065 C 
HETATM   30  C22 UNL     1     -50.486  -3.711 -25.596  1.00  0.00     0.058 C 
HETATM   31  C21 UNL     1     -51.957  -3.469 -25.307  1.00  0.00     0.144 C 
BRANCH  29  32
HETATM   32  O1  UNL     1     -49.420  -2.950 -27.591  1.00  0.00    -0.385 OA
HETATM   33  C1  UNL     1     -48.501  -2.410 -26.730  1.00  0.00     0.202 C 
ENDBRANCH  29  32
BRANCH  29  34
HETATM   34  C3  UNL     1     -49.649  -5.280 -27.313  1.00  0.00     0.065 C 
BRANCH  34  35
HETATM   35  C4  UNL     1     -49.434  -6.062 -26.057  1.00  0.00     0.232 C 
BRANCH  35  36
HETATM   36  N1  UNL     1     -49.969  -7.408 -26.318  1.00  0.00    -0.079 N 
ATOM     37  H13 UNL     1     -50.828  -7.610 -25.806  1.00  0.00     0.274 HD
ATOM     38  H12 UNL     1     -50.356  -7.517 -27.256  1.00  0.00     0.274 HD
ATOM     39  H11 UNL     1     -49.211  -8.059 -26.113  1.00  0.00     0.274 HD
ENDBRANCH  35  36
ENDBRANCH  34  35
ENDBRANCH  29  34
ENDBRANCH   1  26
TORSDOF 8
ENDMDL
