MODEL 4
REMARK VINA RESULT: -7.445952414      2.841      6.399
REMARK  8 active torsions:
REMARK  status: ('A' for Active; 'I' for Inactive)
REMARK    1  A    between atoms: O1_2  and  C2_3 
REMARK    2  A    between atoms: C2_3  and  C3_4 
REMARK    3  A    between atoms: C3_4  and  C4_5 
REMARK    4  A    between atoms: C4_5  and  N1_6 
REMARK    5  A    between atoms: N2_12  and  C7_13 
REMARK    6  A    between atoms: C10_18  and  N4_19 
REMARK    7  A    between atoms: N4_19  and  C11_21 
REMARK    8  A    between atoms: N7_32  and  C18_33 
ROOT
HETATM    1  C7  UNL     1     -54.050   0.854 -24.008  1.00  0.00     0.681 A 
HETATM    2  N3  UNL     1     -55.218   1.394 -24.450  1.00  0.00    -0.202 N 
ATOM      3  H3  UNL     1     -55.692   2.121 -23.912  1.00  0.00     0.183 HD
HETATM    4  C8  UNL     1     -55.728   0.956 -25.596  1.00  0.00     0.110 A 
HETATM    5  C9  UNL     1     -55.077  -0.035 -26.328  1.00  0.00     0.067 A 
HETATM    6  C10 UNL     1     -53.903  -0.586 -25.893  1.00  0.00     0.123 A 
HETATM    7  N8  UNL     1     -53.424  -0.102 -24.714  1.00  0.00    -0.176 N 
ATOM      8  H8  UNL     1     -52.550  -0.483 -24.351  1.00  0.00     0.186 HD
ENDROOT
BRANCH   6   9
HETATM    9  N4  UNL     1     -53.184  -1.578 -26.552  1.00  0.00    -0.328 N 
ATOM     10  H4  UNL     1     -53.677  -2.067 -27.299  1.00  0.00     0.169 HD
BRANCH   9  11
HETATM   11  C11 UNL     1     -51.849  -1.995 -26.313  1.00  0.00     0.108 A 
HETATM   12  C12 UNL     1     -51.578  -3.029 -25.408  1.00  0.00     0.080 A 
HETATM   13  C13 UNL     1     -50.296  -3.453 -25.157  1.00  0.00     0.068 A 
HETATM   14  C14 UNL     1     -49.227  -2.875 -25.789  1.00  0.00     0.076 A 
HETATM   15  N7  UNL     1     -49.759  -4.417 -24.344  1.00  0.00    -0.331 N 
HETATM   16  C15 UNL     1     -49.513  -1.843 -26.691  1.00  0.00     0.121 A 
HETATM   17  N6  UNL     1     -48.110  -3.474 -25.365  1.00  0.00    -0.343 N 
HETATM   18  N5  UNL     1     -50.788  -1.462 -26.903  1.00  0.00    -0.350 N 
ATOM     19  H5  UNL     1     -50.950  -0.706 -27.569  1.00  0.00     0.166 HD
HETATM   20  C16 UNL     1     -48.444  -4.445 -24.456  1.00  0.00     0.080 A 
ATOM     21  H6  UNL     1     -47.164  -3.247 -25.669  1.00  0.00     0.167 HD
HETATM   22  C17 UNL     1     -47.396  -5.284 -23.818  1.00  0.00     0.089 C 
BRANCH  15  23
HETATM   23  C18 UNL     1     -50.601  -5.224 -23.522  1.00  0.00     0.083 C 
HETATM   24  C19 UNL     1     -50.303  -6.693 -23.492  1.00  0.00     0.032 C 
HETATM   25  C20 UNL     1     -50.571  -4.744 -22.064  1.00  0.00     0.032 C 
ENDBRANCH  15  23
ENDBRANCH   9  11
ENDBRANCH   6   9
BRANCH   1  26
HETATM   26  N2  UNL     1     -53.482   1.297 -22.791  1.00  0.00    -0.217 N 
HETATM   27  C6  UNL     1     -54.354   1.724 -21.722  1.00  0.00     0.144 C 
HETATM   28  C5  UNL     1     -53.464   2.124 -20.562  1.00  0.00     0.058 C 
HETATM   29  C2  UNL     1     -52.543   0.947 -20.210  1.00  0.00     0.065 C 
HETATM   30  C22 UNL     1     -51.730   0.494 -21.390  1.00  0.00     0.058 C 
HETATM   31  C21 UNL     1     -52.052   1.321 -22.622  1.00  0.00     0.144 C 
BRANCH  29  32
HETATM   32  O1  UNL     1     -53.362  -0.046 -19.736  1.00  0.00    -0.385 OA
HETATM   33  C1  UNL     1     -53.118  -1.310 -20.206  1.00  0.00     0.202 C 
ENDBRANCH  29  32
BRANCH  29  34
HETATM   34  C3  UNL     1     -51.619   1.406 -19.095  1.00  0.00     0.065 C 
BRANCH  34  35
HETATM   35  C4  UNL     1     -52.035   0.914 -17.746  1.00  0.00     0.232 C 
BRANCH  35  36
HETATM   36  N1  UNL     1     -53.035   1.875 -17.252  1.00  0.00    -0.079 N 
ATOM     37  H13 UNL     1     -53.903   1.868 -17.787  1.00  0.00     0.274 HD
ATOM     38  H12 UNL     1     -53.441   1.613 -16.354  1.00  0.00     0.274 HD
ATOM     39  H11 UNL     1     -52.572   2.783 -17.240  1.00  0.00     0.274 HD
ENDBRANCH  35  36
ENDBRANCH  34  35
ENDBRANCH  29  34
ENDBRANCH   1  26
TORSDOF 8
ENDMDL
