MODEL 3
REMARK VINA RESULT: -7.498927552      1.751      2.478
REMARK  8 active torsions:
REMARK  status: ('A' for Active; 'I' for Inactive)
REMARK    1  A    between atoms: O1_2  and  C2_3 
REMARK    2  A    between atoms: C2_3  and  C3_4 
REMARK    3  A    between atoms: C3_4  and  C4_5 
REMARK    4  A    between atoms: C4_5  and  N1_6 
REMARK    5  A    between atoms: N2_12  and  C7_13 
REMARK    6  A    between atoms: C10_18  and  N4_19 
REMARK    7  A    between atoms: N4_19  and  C11_21 
REMARK    8  A    between atoms: N7_32  and  C18_33 
ROOT
HETATM    1  C7  UNL     1     -53.506  -0.337 -25.453  1.00  0.00     0.681 A 
HETATM    2  N3  UNL     1     -54.572  -0.417 -26.295  1.00  0.00    -0.202 N 
ATOM      3  H3  UNL     1     -54.536  -1.004 -27.128  1.00  0.00     0.183 HD
HETATM    4  C8  UNL     1     -55.661   0.288 -26.009  1.00  0.00     0.110 A 
HETATM    5  C9  UNL     1     -55.708   1.089 -24.870  1.00  0.00     0.067 A 
HETATM    6  C10 UNL     1     -54.643   1.177 -24.017  1.00  0.00     0.123 A 
HETATM    7  N8  UNL     1     -53.551   0.435 -24.355  1.00  0.00    -0.176 N 
ATOM      8  H8  UNL     1     -52.733   0.468 -23.748  1.00  0.00     0.186 HD
ENDROOT
BRANCH   6   9
HETATM    9  N4  UNL     1     -54.594   1.948 -22.859  1.00  0.00    -0.328 N 
ATOM     10  H4  UNL     1     -55.158   2.799 -22.866  1.00  0.00     0.169 HD
BRANCH   9  11
HETATM   11  C11 UNL     1     -53.859   1.699 -21.673  1.00  0.00     0.108 A 
HETATM   12  C12 UNL     1     -53.042   0.567 -21.567  1.00  0.00     0.080 A 
HETATM   13  C13 UNL     1     -52.319   0.300 -20.430  1.00  0.00     0.068 A 
HETATM   14  C14 UNL     1     -52.369   1.142 -19.350  1.00  0.00     0.076 A 
HETATM   15  N7  UNL     1     -51.462  -0.706 -20.066  1.00  0.00    -0.331 N 
HETATM   16  C15 UNL     1     -53.190   2.270 -19.471  1.00  0.00     0.121 A 
HETATM   17  N6  UNL     1     -51.576   0.650 -18.393  1.00  0.00    -0.343 N 
HETATM   18  N5  UNL     1     -53.881   2.488 -20.607  1.00  0.00    -0.350 N 
ATOM     19  H5  UNL     1     -54.465   3.322 -20.650  1.00  0.00     0.166 HD
HETATM   20  C16 UNL     1     -51.005  -0.513 -18.843  1.00  0.00     0.080 A 
ATOM     21  H6  UNL     1     -51.422   1.071 -17.477  1.00  0.00     0.167 HD
HETATM   22  C17 UNL     1     -50.065  -1.281 -17.986  1.00  0.00     0.089 C 
BRANCH  15  23
HETATM   23  C18 UNL     1     -51.176  -1.776 -20.966  1.00  0.00     0.083 C 
HETATM   24  C19 UNL     1     -49.738  -1.977 -21.336  1.00  0.00     0.032 C 
HETATM   25  C20 UNL     1     -51.672  -3.116 -20.404  1.00  0.00     0.032 C 
ENDBRANCH  15  23
ENDBRANCH   9  11
ENDBRANCH   6   9
BRANCH   1  26
HETATM   26  N2  UNL     1     -52.331  -1.074 -25.730  1.00  0.00    -0.217 N 
HETATM   27  C6  UNL     1     -51.192  -0.936 -24.853  1.00  0.00     0.144 C 
HETATM   28  C5  UNL     1     -50.106  -1.846 -25.395  1.00  0.00     0.058 C 
HETATM   29  C2  UNL     1     -50.662  -3.272 -25.511  1.00  0.00     0.065 C 
HETATM   30  C22 UNL     1     -51.899  -3.330 -26.363  1.00  0.00     0.058 C 
HETATM   31  C21 UNL     1     -52.272  -1.949 -26.872  1.00  0.00     0.144 C 
BRANCH  29  32
HETATM   32  O1  UNL     1     -50.901  -3.691 -24.226  1.00  0.00    -0.385 OA
HETATM   33  C1  UNL     1     -52.108  -4.298 -24.001  1.00  0.00     0.202 C 
ENDBRANCH  29  32
BRANCH  29  34
HETATM   34  C3  UNL     1     -49.574  -4.138 -26.123  1.00  0.00     0.065 C 
BRANCH  34  35
HETATM   35  C4  UNL     1     -50.109  -5.200 -27.030  1.00  0.00     0.232 C 
BRANCH  35  36
HETATM   36  N1  UNL     1     -50.254  -6.408 -26.202  1.00  0.00    -0.079 N 
ATOM     37  H13 UNL     1     -49.382  -6.922 -26.077  1.00  0.00     0.274 HD
ATOM     38  H12 UNL     1     -50.422  -6.207 -25.216  1.00  0.00     0.274 HD
ATOM     39  H11 UNL     1     -50.993  -6.961 -26.636  1.00  0.00     0.274 HD
ENDBRANCH  35  36
ENDBRANCH  34  35
ENDBRANCH  29  34
ENDBRANCH   1  26
TORSDOF 8
ENDMDL
