MODEL 5
REMARK VINA RESULT: -7.403313771      2.631      6.551
REMARK  8 active torsions:
REMARK  status: ('A' for Active; 'I' for Inactive)
REMARK    1  A    between atoms: O1_2  and  C2_3 
REMARK    2  A    between atoms: C2_3  and  C3_4 
REMARK    3  A    between atoms: C3_4  and  C4_5 
REMARK    4  A    between atoms: C4_5  and  N1_6 
REMARK    5  A    between atoms: N2_12  and  C7_13 
REMARK    6  A    between atoms: C10_18  and  N4_19 
REMARK    7  A    between atoms: N4_19  and  C11_21 
REMARK    8  A    between atoms: N7_32  and  C18_33 
ROOT
HETATM    1  C7  UNL     1     -53.867   0.803 -24.033  1.00  0.00     0.681 A 
HETATM    2  N3  UNL     1     -55.071   1.206 -24.521  1.00  0.00    -0.202 N 
ATOM      3  H3  UNL     1     -55.646   1.871 -24.004  1.00  0.00     0.183 HD
HETATM    4  C8  UNL     1     -55.481   0.715 -25.686  1.00  0.00     0.110 A 
HETATM    5  C9  UNL     1     -54.692  -0.192 -26.390  1.00  0.00     0.067 A 
HETATM    6  C10 UNL     1     -53.480  -0.605 -25.908  1.00  0.00     0.123 A 
HETATM    7  N8  UNL     1     -53.106  -0.072 -24.712  1.00  0.00    -0.176 N 
ATOM      8  H8  UNL     1     -52.210  -0.350 -24.314  1.00  0.00     0.186 HD
ENDROOT
BRANCH   6   9
HETATM    9  N4  UNL     1     -52.625  -1.506 -26.536  1.00  0.00    -0.328 N 
ATOM     10  H4  UNL     1     -52.293  -1.236 -27.463  1.00  0.00     0.169 HD
BRANCH   9  11
HETATM   11  C11 UNL     1     -52.157  -2.753 -26.048  1.00  0.00     0.108 A 
HETATM   12  C12 UNL     1     -51.701  -2.874 -24.730  1.00  0.00     0.080 A 
HETATM   13  C13 UNL     1     -51.243  -4.068 -24.230  1.00  0.00     0.068 A 
HETATM   14  C14 UNL     1     -51.217  -5.194 -25.010  1.00  0.00     0.076 A 
HETATM   15  N7  UNL     1     -50.753  -4.461 -23.011  1.00  0.00    -0.331 N 
HETATM   16  C15 UNL     1     -51.676  -5.058 -26.326  1.00  0.00     0.121 A 
HETATM   17  N6  UNL     1     -50.733  -6.204 -24.280  1.00  0.00    -0.343 N 
HETATM   18  N5  UNL     1     -52.116  -3.864 -26.770  1.00  0.00    -0.350 N 
ATOM     19  H5  UNL     1     -52.442  -3.811 -27.735  1.00  0.00     0.166 HD
HETATM   20  C16 UNL     1     -50.441  -5.743 -23.022  1.00  0.00     0.080 A 
ATOM     21  H6  UNL     1     -50.602  -7.161 -24.606  1.00  0.00     0.167 HD
HETATM   22  C17 UNL     1     -49.889  -6.654 -21.986  1.00  0.00     0.089 C 
BRANCH  15  23
HETATM   23  C18 UNL     1     -50.634  -3.523 -21.942  1.00  0.00     0.083 C 
HETATM   24  C19 UNL     1     -51.044  -3.999 -20.581  1.00  0.00     0.032 C 
HETATM   25  C20 UNL     1     -49.190  -3.019 -21.810  1.00  0.00     0.032 C 
ENDBRANCH  15  23
ENDBRANCH   9  11
ENDBRANCH   6   9
BRANCH   1  26
HETATM   26  N2  UNL     1     -53.402   1.305 -22.795  1.00  0.00    -0.217 N 
HETATM   27  C6  UNL     1     -54.360   1.777 -21.823  1.00  0.00     0.144 C 
HETATM   28  C5  UNL     1     -53.570   2.236 -20.613  1.00  0.00     0.058 C 
HETATM   29  C2  UNL     1     -52.679   1.081 -20.132  1.00  0.00     0.065 C 
HETATM   30  C22 UNL     1     -51.771   0.577 -21.218  1.00  0.00     0.058 C 
HETATM   31  C21 UNL     1     -51.991   1.344 -22.510  1.00  0.00     0.144 C 
BRANCH  29  32
HETATM   32  O1  UNL     1     -53.534   0.107 -19.681  1.00  0.00    -0.385 OA
HETATM   33  C1  UNL     1     -53.279  -1.169 -20.109  1.00  0.00     0.202 C 
ENDBRANCH  29  32
BRANCH  29  34
HETATM   34  C3  UNL     1     -51.852   1.597 -18.967  1.00  0.00     0.065 C 
BRANCH  34  35
HETATM   35  C4  UNL     1     -52.644   2.421 -18.002  1.00  0.00     0.232 C 
BRANCH  35  36
HETATM   36  N1  UNL     1     -53.068   1.501 -16.934  1.00  0.00    -0.079 N 
ATOM     37  H13 UNL     1     -52.701   1.750 -16.015  1.00  0.00     0.274 HD
ATOM     38  H12 UNL     1     -54.057   1.581 -16.698  1.00  0.00     0.274 HD
ATOM     39  H11 UNL     1     -52.797   0.567 -17.241  1.00  0.00     0.274 HD
ENDBRANCH  35  36
ENDBRANCH  34  35
ENDBRANCH  29  34
ENDBRANCH   1  26
TORSDOF 8
ENDMDL
