MODEL 6
REMARK VINA RESULT: -7.228034254      1.982      6.068
REMARK  8 active torsions:
REMARK  status: ('A' for Active; 'I' for Inactive)
REMARK    1  A    between atoms: O1_2  and  C2_3 
REMARK    2  A    between atoms: C2_3  and  C3_4 
REMARK    3  A    between atoms: C3_4  and  C4_5 
REMARK    4  A    between atoms: C4_5  and  N1_6 
REMARK    5  A    between atoms: N2_12  and  C7_13 
REMARK    6  A    between atoms: C10_18  and  N4_19 
REMARK    7  A    between atoms: N4_19  and  C11_21 
REMARK    8  A    between atoms: N7_32  and  C18_33 
ROOT
HETATM    1  C7  UNL     1     -50.292  -0.104 -20.193  1.00  0.00     0.681 A 
HETATM    2  N3  UNL     1     -50.566   0.075 -18.872  1.00  0.00    -0.202 N 
ATOM      3  H3  UNL     1     -49.979  -0.354 -18.156  1.00  0.00     0.183 HD
HETATM    4  C8  UNL     1     -51.613   0.820 -18.536  1.00  0.00     0.110 A 
HETATM    5  C9  UNL     1     -52.411   1.404 -19.517  1.00  0.00     0.067 A 
HETATM    6  C10 UNL     1     -52.146   1.231 -20.847  1.00  0.00     0.123 A 
HETATM    7  N8  UNL     1     -51.062   0.459 -21.138  1.00  0.00    -0.176 N 
ATOM      8  H8  UNL     1     -50.825   0.302 -22.118  1.00  0.00     0.186 HD
ENDROOT
BRANCH   6   9
HETATM    9  N4  UNL     1     -52.885   1.771 -21.896  1.00  0.00    -0.328 N 
ATOM     10  H4  UNL     1     -53.189   2.737 -21.777  1.00  0.00     0.169 HD
BRANCH   9  11
HETATM   11  C11 UNL     1     -53.266   1.144 -23.110  1.00  0.00     0.108 A 
HETATM   12  C12 UNL     1     -52.425   0.206 -23.721  1.00  0.00     0.080 A 
HETATM   13  C13 UNL     1     -52.769  -0.417 -24.895  1.00  0.00     0.068 A 
HETATM   14  C14 UNL     1     -53.958  -0.140 -25.517  1.00  0.00     0.076 A 
HETATM   15  N7  UNL     1     -52.154  -1.350 -25.689  1.00  0.00    -0.331 N 
HETATM   16  C15 UNL     1     -54.789   0.800 -24.895  1.00  0.00     0.121 A 
HETATM   17  N6  UNL     1     -54.037  -0.880 -26.628  1.00  0.00    -0.343 N 
HETATM   18  N5  UNL     1     -54.407   1.384 -23.742  1.00  0.00    -0.350 N 
ATOM     19  H5  UNL     1     -55.044   2.062 -23.324  1.00  0.00     0.166 HD
HETATM   20  C16 UNL     1     -52.902  -1.642 -26.736  1.00  0.00     0.080 A 
ATOM     21  H6  UNL     1     -54.815  -0.877 -27.287  1.00  0.00     0.167 HD
HETATM   22  C17 UNL     1     -52.716  -2.572 -27.880  1.00  0.00     0.089 C 
BRANCH  15  23
HETATM   23  C18 UNL     1     -50.872  -1.868 -25.338  1.00  0.00     0.083 C 
HETATM   24  C19 UNL     1     -50.787  -3.344 -25.088  1.00  0.00     0.032 C 
HETATM   25  C20 UNL     1     -49.833  -1.551 -26.423  1.00  0.00     0.032 C 
ENDBRANCH  15  23
ENDBRANCH   9  11
ENDBRANCH   6   9
BRANCH   1  26
HETATM   26  N2  UNL     1     -49.185  -0.893 -20.585  1.00  0.00    -0.217 N 
HETATM   27  C6  UNL     1     -48.868  -2.084 -19.832  1.00  0.00     0.144 C 
HETATM   28  C5  UNL     1     -47.656  -2.712 -20.492  1.00  0.00     0.058 C 
HETATM   29  C2  UNL     1     -47.964  -2.951 -21.977  1.00  0.00     0.065 C 
HETATM   30  C22 UNL     1     -48.375  -1.688 -22.680  1.00  0.00     0.058 C 
HETATM   31  C21 UNL     1     -48.386  -0.511 -21.720  1.00  0.00     0.144 C 
BRANCH  29  32
HETATM   32  O1  UNL     1     -48.951  -3.904 -22.010  1.00  0.00    -0.385 OA
HETATM   33  C1  UNL     1     -48.596  -5.128 -22.514  1.00  0.00     0.202 C 
ENDBRANCH  29  32
BRANCH  29  34
HETATM   34  C3  UNL     1     -46.708  -3.513 -22.620  1.00  0.00     0.065 C 
BRANCH  34  35
HETATM   35  C4  UNL     1     -45.464  -2.791 -22.210  1.00  0.00     0.232 C 
BRANCH  35  36
HETATM   36  N1  UNL     1     -44.391  -3.798 -22.203  1.00  0.00    -0.079 N 
ATOM     37  H13 UNL     1     -44.391  -4.397 -23.029  1.00  0.00     0.274 HD
ATOM     38  H12 UNL     1     -43.461  -3.402 -22.338  1.00  0.00     0.274 HD
ATOM     39  H11 UNL     1     -44.492  -4.312 -21.328  1.00  0.00     0.274 HD
ENDBRANCH  35  36
ENDBRANCH  34  35
ENDBRANCH  29  34
ENDBRANCH   1  26
TORSDOF 8
ENDMDL
