MODEL 4
REMARK VINA RESULT: -7.720806611      1.102      1.391
REMARK  7 active torsions:
REMARK  status: ('A' for Active; 'I' for Inactive)
REMARK    1  A    between atoms: C5_9  and  N3_10 
REMARK    2  A    between atoms: N3_10  and  C6_12 
REMARK    3  A    between atoms: C9_17  and  O1_18 
REMARK    4  A    between atoms: O1_18  and  C10_19 
REMARK    5  A    between atoms: C10_19  and  C11_20 
REMARK    6  A    between atoms: C11_20  and  S1_23 
REMARK    7  A    between atoms: N6_31  and  C17_32 
ROOT
HETATM    1  C6  UNL     1     -55.046   0.983 -25.880  1.00  0.00     0.110 A 
HETATM    2  C7  UNL     1     -56.320   1.316 -26.260  1.00  0.00     0.066 A 
HETATM    3  C8  UNL     1     -57.014   0.571 -27.224  1.00  0.00     0.095 A 
HETATM    4  N4  UNL     1     -56.400  -0.488 -27.776  1.00  0.00    -0.332 N 
ATOM      5  H4  UNL     1     -56.890  -1.039 -28.481  1.00  0.00     0.168 HD
HETATM    6  C9  UNL     1     -55.147  -0.835 -27.417  1.00  0.00     0.224 A 
HETATM    7  N5  UNL     1     -54.513  -0.102 -26.495  1.00  0.00    -0.308 N 
ATOM      8  H5  UNL     1     -53.565  -0.377 -26.236  1.00  0.00     0.171 HD
ENDROOT
BRANCH   1   9
HETATM    9  N3  UNL     1     -54.268   1.653 -24.933  1.00  0.00    -0.328 N 
ATOM     10  H3  UNL     1     -53.821   2.514 -25.248  1.00  0.00     0.169 HD
BRANCH   9  11
HETATM   11  C5  UNL     1     -54.022   1.283 -23.589  1.00  0.00     0.108 A 
HETATM   12  N2  UNL     1     -54.676   1.791 -22.534  1.00  0.00    -0.350 N 
HETATM   13  C4  UNL     1     -54.455   1.451 -21.258  1.00  0.00     0.121 A 
ATOM     14  H2  UNL     1     -55.395   2.491 -22.718  1.00  0.00     0.166 HD
HETATM   15  C3  UNL     1     -53.502   0.517 -20.923  1.00  0.00     0.076 A 
HETATM   16  N1  UNL     1     -53.045  -0.032 -19.788  1.00  0.00    -0.343 N 
HETATM   17  C16 UNL     1     -52.800  -0.036 -21.974  1.00  0.00     0.068 A 
HETATM   18  C2  UNL     1     -52.074  -0.920 -20.063  1.00  0.00     0.080 A 
ATOM     19  H1  UNL     1     -53.385   0.191 -18.853  1.00  0.00     0.167 HD
HETATM   20  C1  UNL     1     -51.337  -1.720 -19.050  1.00  0.00     0.089 C 
HETATM   21  N6  UNL     1     -51.936  -0.912 -21.396  1.00  0.00    -0.331 N 
HETATM   22  C15 UNL     1     -53.051   0.334 -23.273  1.00  0.00     0.080 A 
BRANCH  21  23
HETATM   23  C17 UNL     1     -50.996  -1.724 -22.115  1.00  0.00     0.083 C 
HETATM   24  C18 UNL     1     -50.165  -0.875 -23.083  1.00  0.00     0.032 C 
HETATM   25  C19 UNL     1     -51.685  -2.781 -22.947  1.00  0.00     0.032 C 
ENDBRANCH  21  23
ENDBRANCH   9  11
ENDBRANCH   1   9
BRANCH   6  26
HETATM   26  O1  UNL     1     -54.574  -1.941 -28.030  1.00  0.00    -0.320 OA
BRANCH  26  27
HETATM   27  C10 UNL     1     -53.932  -2.886 -27.193  1.00  0.00     0.203 C 
BRANCH  27  28
HETATM   28  C11 UNL     1     -52.633  -3.370 -27.759  1.00  0.00     0.078 C 
HETATM   29  C12 UNL     1     -52.642  -3.278 -29.267  1.00  0.00     0.034 C 
HETATM   30  C13 UNL     1     -52.434  -4.799 -27.318  1.00  0.00     0.034 C 
BRANCH  28  31
HETATM   31  S1  UNL     1     -51.327  -2.364 -27.103  1.00  0.00     0.150 S 
HETATM   32  C14 UNL     1     -50.435  -1.545 -28.400  1.00  0.00     0.162 C 
HETATM   33  O2  UNL     1     -51.914  -1.339 -26.174  1.00  0.00    -0.227 OA
HETATM   34  O3  UNL     1     -50.409  -3.254 -26.289  1.00  0.00    -0.227 OA
ENDBRANCH  28  31
ENDBRANCH  27  28
ENDBRANCH  26  27
ENDBRANCH   6  26
TORSDOF 7
ENDMDL
