MODEL 7
REMARK VINA RESULT: -7.357422131      2.827      5.069
REMARK  7 active torsions:
REMARK  status: ('A' for Active; 'I' for Inactive)
REMARK    1  A    between atoms: C5_9  and  N3_10 
REMARK    2  A    between atoms: N3_10  and  C6_12 
REMARK    3  A    between atoms: C9_17  and  O1_18 
REMARK    4  A    between atoms: O1_18  and  C10_19 
REMARK    5  A    between atoms: C10_19  and  C11_20 
REMARK    6  A    between atoms: C11_20  and  S1_23 
REMARK    7  A    between atoms: N6_31  and  C17_32 
ROOT
HETATM    1  C6  UNL     1     -51.934  -5.579 -25.176  1.00  0.00     0.110 A 
HETATM    2  C7  UNL     1     -50.885  -6.455 -25.270  1.00  0.00     0.066 A 
HETATM    3  C8  UNL     1     -50.111  -6.547 -26.436  1.00  0.00     0.095 A 
HETATM    4  N4  UNL     1     -50.421  -5.753 -27.472  1.00  0.00    -0.332 N 
ATOM      5  H4  UNL     1     -49.870  -5.809 -28.329  1.00  0.00     0.168 HD
HETATM    6  C9  UNL     1     -51.449  -4.882 -27.403  1.00  0.00     0.224 A 
HETATM    7  N5  UNL     1     -52.167  -4.819 -26.275  1.00  0.00    -0.308 N 
ATOM      8  H5  UNL     1     -52.941  -4.156 -26.240  1.00  0.00     0.171 HD
ENDROOT
BRANCH   1   9
HETATM    9  N3  UNL     1     -52.766  -5.405 -24.067  1.00  0.00    -0.328 N 
ATOM     10  H3  UNL     1     -53.628  -5.950 -24.065  1.00  0.00     0.169 HD
BRANCH   9  11
HETATM   11  C5  UNL     1     -52.558  -4.567 -22.946  1.00  0.00     0.108 A 
HETATM   12  N2  UNL     1     -51.870  -4.925 -21.852  1.00  0.00    -0.350 N 
HETATM   13  C4  UNL     1     -51.665  -4.142 -20.785  1.00  0.00     0.121 A 
ATOM     14  H2  UNL     1     -51.473  -5.864 -21.832  1.00  0.00     0.166 HD
HETATM   15  C3  UNL     1     -52.167  -2.863 -20.731  1.00  0.00     0.076 A 
HETATM   16  N1  UNL     1     -52.146  -1.854 -19.847  1.00  0.00    -0.343 N 
HETATM   17  C16 UNL     1     -52.884  -2.447 -21.832  1.00  0.00     0.068 A 
HETATM   18  C2  UNL     1     -52.822  -0.800 -20.335  1.00  0.00     0.080 A 
ATOM     19  H1  UNL     1     -51.684  -1.882 -18.938  1.00  0.00     0.167 HD
HETATM   20  C1  UNL     1     -53.009   0.496 -19.629  1.00  0.00     0.089 C 
HETATM   21  N6  UNL     1     -53.265  -1.174 -21.543  1.00  0.00    -0.331 N 
HETATM   22  C15 UNL     1     -53.076  -3.273 -22.914  1.00  0.00     0.080 A 
BRANCH  21  23
HETATM   23  C17 UNL     1     -54.041  -0.337 -22.413  1.00  0.00     0.083 C 
HETATM   24  C18 UNL     1     -53.257   0.919 -22.809  1.00  0.00     0.032 C 
HETATM   25  C19 UNL     1     -55.314   0.137 -21.752  1.00  0.00     0.032 C 
ENDBRANCH  21  23
ENDBRANCH   9  11
ENDBRANCH   1   9
BRANCH   6  26
HETATM   26  O1  UNL     1     -51.712  -4.092 -28.513  1.00  0.00    -0.320 OA
BRANCH  26  27
HETATM   27  C10 UNL     1     -53.046  -3.649 -28.692  1.00  0.00     0.203 C 
BRANCH  27  28
HETATM   28  C11 UNL     1     -53.152  -2.159 -28.789  1.00  0.00     0.078 C 
HETATM   29  C12 UNL     1     -53.982  -1.761 -29.988  1.00  0.00     0.034 C 
HETATM   30  C13 UNL     1     -51.756  -1.597 -28.903  1.00  0.00     0.034 C 
BRANCH  28  31
HETATM   31  S1  UNL     1     -53.911  -1.554 -27.304  1.00  0.00     0.150 S 
HETATM   32  C14 UNL     1     -52.950  -0.252 -26.576  1.00  0.00     0.162 C 
HETATM   33  O2  UNL     1     -55.287  -1.041 -27.628  1.00  0.00    -0.227 OA
HETATM   34  O3  UNL     1     -54.066  -2.717 -26.345  1.00  0.00    -0.227 OA
ENDBRANCH  28  31
ENDBRANCH  27  28
ENDBRANCH  26  27
ENDBRANCH   6  26
TORSDOF 7
ENDMDL
