MODEL 1
REMARK VINA RESULT: -7.864612079      0.000      0.000
REMARK  7 active torsions:
REMARK  status: ('A' for Active; 'I' for Inactive)
REMARK    1  A    between atoms: C5_9  and  N3_10 
REMARK    2  A    between atoms: N3_10  and  C6_12 
REMARK    3  A    between atoms: C9_17  and  O1_18 
REMARK    4  A    between atoms: O1_18  and  C10_19 
REMARK    5  A    between atoms: C10_19  and  C11_20 
REMARK    6  A    between atoms: C11_20  and  S1_23 
REMARK    7  A    between atoms: N6_31  and  C17_32 
ROOT
HETATM    1  C6  UNL     1     -54.908   0.905 -25.961  1.00  0.00     0.110 A 
HETATM    2  C7  UNL     1     -56.189   1.187 -26.353  1.00  0.00     0.066 A 
HETATM    3  C8  UNL     1     -56.866   0.381 -27.279  1.00  0.00     0.095 A 
HETATM    4  N4  UNL     1     -56.226  -0.687 -27.783  1.00  0.00    -0.332 N 
ATOM      5  H4  UNL     1     -56.702  -1.283 -28.460  1.00  0.00     0.168 HD
HETATM    6  C9  UNL     1     -54.964  -0.985 -27.411  1.00  0.00     0.224 A 
HETATM    7  N5  UNL     1     -54.348  -0.194 -26.525  1.00  0.00    -0.308 N 
ATOM      8  H5  UNL     1     -53.393  -0.434 -26.256  1.00  0.00     0.171 HD
ENDROOT
BRANCH   1   9
HETATM    9  N3  UNL     1     -54.145   1.637 -25.047  1.00  0.00    -0.328 N 
ATOM     10  H3  UNL     1     -53.523   2.341 -25.446  1.00  0.00     0.169 HD
BRANCH   9  11
HETATM   11  C5  UNL     1     -54.129   1.523 -23.637  1.00  0.00     0.108 A 
HETATM   12  N2  UNL     1     -54.998   2.137 -22.820  1.00  0.00    -0.350 N 
HETATM   13  C4  UNL     1     -54.995   2.038 -21.485  1.00  0.00     0.121 A 
ATOM     14  H2  UNL     1     -55.714   2.724 -23.249  1.00  0.00     0.166 HD
HETATM   15  C3  UNL     1     -54.064   1.269 -20.828  1.00  0.00     0.076 A 
HETATM   16  N1  UNL     1     -53.792   0.964 -19.550  1.00  0.00    -0.343 N 
HETATM   17  C16 UNL     1     -53.147   0.616 -21.624  1.00  0.00     0.068 A 
HETATM   18  C2  UNL     1     -52.733   0.138 -19.489  1.00  0.00     0.080 A 
ATOM     19  H1  UNL     1     -54.312   1.308 -18.743  1.00  0.00     0.167 HD
HETATM   20  C1  UNL     1     -52.147  -0.407 -18.235  1.00  0.00     0.089 C 
HETATM   21  N6  UNL     1     -52.351  -0.065 -20.757  1.00  0.00    -0.331 N 
HETATM   22  C15 UNL     1     -53.176   0.737 -22.992  1.00  0.00     0.080 A 
BRANCH  21  23
HETATM   23  C17 UNL     1     -51.246  -0.894 -21.144  1.00  0.00     0.083 C 
HETATM   24  C18 UNL     1     -50.540  -0.325 -22.381  1.00  0.00     0.032 C 
HETATM   25  C19 UNL     1     -51.688  -2.293 -21.503  1.00  0.00     0.032 C 
ENDBRANCH  21  23
ENDBRANCH   9  11
ENDBRANCH   1   9
BRANCH   6  26
HETATM   26  O1  UNL     1     -54.364  -2.104 -27.973  1.00  0.00    -0.320 OA
BRANCH  26  27
HETATM   27  C10 UNL     1     -52.951  -2.099 -28.076  1.00  0.00     0.203 C 
BRANCH  27  28
HETATM   28  C11 UNL     1     -52.316  -3.239 -27.343  1.00  0.00     0.078 C 
HETATM   29  C12 UNL     1     -50.967  -3.570 -27.939  1.00  0.00     0.034 C 
HETATM   30  C13 UNL     1     -53.240  -4.428 -27.434  1.00  0.00     0.034 C 
BRANCH  28  31
HETATM   31  S1  UNL     1     -52.123  -2.772 -25.642  1.00  0.00     0.150 S 
HETATM   32  C14 UNL     1     -50.846  -3.722 -24.857  1.00  0.00     0.162 C 
HETATM   33  O2  UNL     1     -51.777  -1.311 -25.569  1.00  0.00    -0.227 OA
HETATM   34  O3  UNL     1     -53.454  -2.969 -24.945  1.00  0.00    -0.227 OA
ENDBRANCH  28  31
ENDBRANCH  27  28
ENDBRANCH  26  27
ENDBRANCH   6  26
TORSDOF 7
ENDMDL
