MODEL 5
REMARK VINA RESULT: -7.612840133      3.557      8.215
REMARK  7 active torsions:
REMARK  status: ('A' for Active; 'I' for Inactive)
REMARK    1  A    between atoms: C5_9  and  N3_10 
REMARK    2  A    between atoms: N3_10  and  C6_12 
REMARK    3  A    between atoms: C9_17  and  O1_18 
REMARK    4  A    between atoms: O1_18  and  C10_19 
REMARK    5  A    between atoms: C10_19  and  C11_20 
REMARK    6  A    between atoms: C11_20  and  S1_23 
REMARK    7  A    between atoms: N6_31  and  C17_32 
ROOT
HETATM    1  C6  UNL     1     -52.569  -4.643 -22.496  1.00  0.00     0.110 A 
HETATM    2  C7  UNL     1     -51.602  -5.092 -21.634  1.00  0.00     0.066 A 
HETATM    3  C8  UNL     1     -51.275  -4.384 -20.469  1.00  0.00     0.095 A 
HETATM    4  N4  UNL     1     -51.934  -3.243 -20.210  1.00  0.00    -0.332 N 
ATOM      5  H4  UNL     1     -51.706  -2.715 -19.367  1.00  0.00     0.168 HD
HETATM    6  C9  UNL     1     -52.889  -2.783 -21.043  1.00  0.00     0.224 A 
HETATM    7  N5  UNL     1     -53.176  -3.482 -22.146  1.00  0.00    -0.308 N 
ATOM      8  H5  UNL     1     -53.901  -3.119 -22.766  1.00  0.00     0.171 HD
ENDROOT
BRANCH   1   9
HETATM    9  N3  UNL     1     -52.972  -5.268 -23.679  1.00  0.00    -0.328 N 
ATOM     10  H3  UNL     1     -53.979  -5.340 -23.826  1.00  0.00     0.169 HD
BRANCH   9  11
HETATM   11  C5  UNL     1     -52.156  -5.813 -24.698  1.00  0.00     0.108 A 
HETATM   12  N2  UNL     1     -51.640  -7.050 -24.673  1.00  0.00    -0.350 N 
HETATM   13  C4  UNL     1     -50.867  -7.579 -25.629  1.00  0.00     0.121 A 
ATOM     14  H2  UNL     1     -51.853  -7.633 -23.862  1.00  0.00     0.166 HD
HETATM   15  C3  UNL     1     -50.533  -6.862 -26.754  1.00  0.00     0.076 A 
HETATM   16  N1  UNL     1     -49.807  -7.084 -27.860  1.00  0.00    -0.343 N 
HETATM   17  C16 UNL     1     -51.038  -5.581 -26.829  1.00  0.00     0.068 A 
HETATM   18  C2  UNL     1     -49.823  -5.995 -28.648  1.00  0.00     0.080 A 
ATOM     19  H1  UNL     1     -49.315  -7.951 -28.072  1.00  0.00     0.167 HD
HETATM   20  C1  UNL     1     -49.126  -5.877 -29.957  1.00  0.00     0.089 C 
HETATM   21  N6  UNL     1     -50.576  -5.089 -28.009  1.00  0.00    -0.331 N 
HETATM   22  C15 UNL     1     -51.830  -5.067 -25.830  1.00  0.00     0.080 A 
BRANCH  21  23
HETATM   23  C17 UNL     1     -50.855  -3.773 -28.509  1.00  0.00     0.083 C 
HETATM   24  C18 UNL     1     -50.631  -2.715 -27.422  1.00  0.00     0.032 C 
HETATM   25  C19 UNL     1     -52.290  -3.633 -28.961  1.00  0.00     0.032 C 
ENDBRANCH  21  23
ENDBRANCH   9  11
ENDBRANCH   1   9
BRANCH   6  26
HETATM   26  O1  UNL     1     -53.528  -1.596 -20.711  1.00  0.00    -0.320 OA
BRANCH  26  27
HETATM   27  C10 UNL     1     -54.492  -1.102 -21.624  1.00  0.00     0.203 C 
BRANCH  27  28
HETATM   28  C11 UNL     1     -54.060   0.169 -22.288  1.00  0.00     0.078 C 
HETATM   29  C12 UNL     1     -53.031   0.887 -21.446  1.00  0.00     0.034 C 
HETATM   30  C13 UNL     1     -55.281   1.035 -22.481  1.00  0.00     0.034 C 
BRANCH  28  31
HETATM   31  S1  UNL     1     -53.368  -0.234 -23.871  1.00  0.00     0.150 S 
HETATM   32  C14 UNL     1     -53.917   0.902 -25.119  1.00  0.00     0.162 C 
HETATM   33  O2  UNL     1     -51.868  -0.189 -23.778  1.00  0.00    -0.227 OA
HETATM   34  O3  UNL     1     -53.768  -1.654 -24.214  1.00  0.00    -0.227 OA
ENDBRANCH  28  31
ENDBRANCH  27  28
ENDBRANCH  26  27
ENDBRANCH   6  26
TORSDOF 7
ENDMDL
