MODEL 3
REMARK VINA RESULT: -7.756320278      1.952      6.136
REMARK  7 active torsions:
REMARK  status: ('A' for Active; 'I' for Inactive)
REMARK    1  A    between atoms: C5_9  and  N3_10 
REMARK    2  A    between atoms: N3_10  and  C6_12 
REMARK    3  A    between atoms: C9_17  and  O1_18 
REMARK    4  A    between atoms: O1_18  and  C10_19 
REMARK    5  A    between atoms: C10_19  and  C11_20 
REMARK    6  A    between atoms: C11_20  and  S1_23 
REMARK    7  A    between atoms: N6_31  and  C17_32 
ROOT
HETATM    1  C6  UNL     1     -53.916   1.450 -22.790  1.00  0.00     0.110 A 
HETATM    2  C7  UNL     1     -54.678   1.663 -21.671  1.00  0.00     0.066 A 
HETATM    3  C8  UNL     1     -54.237   1.271 -20.399  1.00  0.00     0.095 A 
HETATM    4  N4  UNL     1     -53.039   0.673 -20.296  1.00  0.00    -0.332 N 
ATOM      5  H4  UNL     1     -52.704   0.379 -19.379  1.00  0.00     0.168 HD
HETATM    6  C9  UNL     1     -52.271   0.453 -21.383  1.00  0.00     0.224 A 
HETATM    7  N5  UNL     1     -52.722   0.840 -22.582  1.00  0.00    -0.308 N 
ATOM      8  H5  UNL     1     -52.130   0.665 -23.393  1.00  0.00     0.171 HD
ENDROOT
BRANCH   1   9
HETATM    9  N3  UNL     1     -54.257   1.801 -24.098  1.00  0.00    -0.328 N 
ATOM     10  H3  UNL     1     -54.390   2.797 -24.275  1.00  0.00     0.169 HD
BRANCH   9  11
HETATM   11  C5  UNL     1     -54.441   0.944 -25.210  1.00  0.00     0.108 A 
HETATM   12  N2  UNL     1     -55.591   0.827 -25.891  1.00  0.00    -0.350 N 
HETATM   13  C4  UNL     1     -55.779   0.021 -26.944  1.00  0.00     0.121 A 
ATOM     14  H2  UNL     1     -56.381   1.394 -25.583  1.00  0.00     0.166 HD
HETATM   15  C3  UNL     1     -54.766  -0.776 -27.423  1.00  0.00     0.076 A 
HETATM   16  N1  UNL     1     -54.625  -1.663 -28.419  1.00  0.00    -0.343 N 
HETATM   17  C16 UNL     1     -53.563  -0.693 -26.755  1.00  0.00     0.068 A 
HETATM   18  C2  UNL     1     -53.375  -2.158 -28.422  1.00  0.00     0.080 A 
ATOM     19  H1  UNL     1     -55.359  -1.925 -29.078  1.00  0.00     0.167 HD
HETATM   20  C1  UNL     1     -52.858  -3.166 -29.385  1.00  0.00     0.089 C 
HETATM   21  N6  UNL     1     -52.740  -1.559 -27.405  1.00  0.00    -0.331 N 
HETATM   22  C15 UNL     1     -53.400   0.144 -25.678  1.00  0.00     0.080 A 
BRANCH  21  23
HETATM   23  C17 UNL     1     -51.371  -1.803 -27.053  1.00  0.00     0.083 C 
HETATM   24  C18 UNL     1     -50.444  -1.557 -28.250  1.00  0.00     0.032 C 
HETATM   25  C19 UNL     1     -51.146  -3.232 -26.618  1.00  0.00     0.032 C 
ENDBRANCH  21  23
ENDBRANCH   9  11
ENDBRANCH   1   9
BRANCH   6  26
HETATM   26  O1  UNL     1     -51.044  -0.171 -21.201  1.00  0.00    -0.320 OA
BRANCH  26  27
HETATM   27  C10 UNL     1     -51.058  -1.491 -20.687  1.00  0.00     0.203 C 
BRANCH  27  28
HETATM   28  C11 UNL     1     -50.928  -2.528 -21.759  1.00  0.00     0.078 C 
HETATM   29  C12 UNL     1     -50.057  -3.671 -21.291  1.00  0.00     0.034 C 
HETATM   30  C13 UNL     1     -50.327  -1.871 -22.977  1.00  0.00     0.034 C 
BRANCH  28  31
HETATM   31  S1  UNL     1     -52.550  -3.130 -22.154  1.00  0.00     0.150 S 
HETATM   32  C14 UNL     1     -52.507  -4.849 -22.593  1.00  0.00     0.162 C 
HETATM   33  O2  UNL     1     -53.449  -2.940 -20.964  1.00  0.00    -0.227 OA
HETATM   34  O3  UNL     1     -53.101  -2.292 -23.289  1.00  0.00    -0.227 OA
ENDBRANCH  28  31
ENDBRANCH  27  28
ENDBRANCH  26  27
ENDBRANCH   6  26
TORSDOF 7
ENDMDL
