MODEL 2
REMARK VINA RESULT: -7.777131451      1.163      1.368
REMARK  7 active torsions:
REMARK  status: ('A' for Active; 'I' for Inactive)
REMARK    1  A    between atoms: C5_9  and  N3_10 
REMARK    2  A    between atoms: N3_10  and  C6_12 
REMARK    3  A    between atoms: C9_17  and  O1_18 
REMARK    4  A    between atoms: O1_18  and  C10_19 
REMARK    5  A    between atoms: C10_19  and  C11_20 
REMARK    6  A    between atoms: C11_20  and  S1_23 
REMARK    7  A    between atoms: N6_31  and  C17_32 
ROOT
HETATM    1  C6  UNL     1     -55.077   1.031 -25.906  1.00  0.00     0.110 A 
HETATM    2  C7  UNL     1     -56.361   1.390 -26.224  1.00  0.00     0.066 A 
HETATM    3  C8  UNL     1     -57.124   0.649 -27.136  1.00  0.00     0.095 A 
HETATM    4  N4  UNL     1     -56.566  -0.433 -27.703  1.00  0.00    -0.332 N 
ATOM      5  H4  UNL     1     -57.106  -0.983 -28.371  1.00  0.00     0.168 HD
HETATM    6  C9  UNL     1     -55.305  -0.806 -27.405  1.00  0.00     0.224 A 
HETATM    7  N5  UNL     1     -54.604  -0.076 -26.530  1.00  0.00    -0.308 N 
ATOM      8  H5  UNL     1     -53.651  -0.372 -26.317  1.00  0.00     0.171 HD
ENDROOT
BRANCH   1   9
HETATM    9  N3  UNL     1     -54.233   1.696 -25.013  1.00  0.00    -0.328 N 
ATOM     10  H3  UNL     1     -53.579   2.361 -25.426  1.00  0.00     0.169 HD
BRANCH   9  11
HETATM   11  C5  UNL     1     -54.173   1.559 -23.606  1.00  0.00     0.108 A 
HETATM   12  N2  UNL     1     -54.995   2.184 -22.750  1.00  0.00    -0.350 N 
HETATM   13  C4  UNL     1     -54.951   2.064 -21.418  1.00  0.00     0.121 A 
ATOM     14  H2  UNL     1     -55.708   2.798 -23.145  1.00  0.00     0.166 HD
HETATM   15  C3  UNL     1     -54.021   1.257 -20.804  1.00  0.00     0.076 A 
HETATM   16  N1  UNL     1     -53.714   0.924 -19.541  1.00  0.00    -0.343 N 
HETATM   17  C16 UNL     1     -53.150   0.592 -21.641  1.00  0.00     0.068 A 
HETATM   18  C2  UNL     1     -52.678   0.068 -19.529  1.00  0.00     0.080 A 
ATOM     19  H1  UNL     1     -54.197   1.270 -18.712  1.00  0.00     0.167 HD
HETATM   20  C1  UNL     1     -52.066  -0.514 -18.305  1.00  0.00     0.089 C 
HETATM   21  N6  UNL     1     -52.346  -0.125 -20.812  1.00  0.00    -0.331 N 
HETATM   22  C15 UNL     1     -53.221   0.735 -23.006  1.00  0.00     0.080 A 
BRANCH  21  23
HETATM   23  C17 UNL     1     -51.278  -0.979 -21.249  1.00  0.00     0.083 C 
HETATM   24  C18 UNL     1     -50.541  -0.367 -22.446  1.00  0.00     0.032 C 
HETATM   25  C19 UNL     1     -51.784  -2.331 -21.697  1.00  0.00     0.032 C 
ENDBRANCH  21  23
ENDBRANCH   9  11
ENDBRANCH   1   9
BRANCH   6  26
HETATM   26  O1  UNL     1     -54.793  -1.936 -28.029  1.00  0.00    -0.320 OA
BRANCH  26  27
HETATM   27  C10 UNL     1     -53.849  -2.705 -27.305  1.00  0.00     0.203 C 
BRANCH  27  28
HETATM   28  C11 UNL     1     -52.692  -3.142 -28.148  1.00  0.00     0.078 C 
HETATM   29  C12 UNL     1     -53.067  -3.136 -29.612  1.00  0.00     0.034 C 
HETATM   30  C13 UNL     1     -52.291  -4.530 -27.711  1.00  0.00     0.034 C 
BRANCH  28  31
HETATM   31  S1  UNL     1     -51.342  -2.024 -27.868  1.00  0.00     0.150 S 
HETATM   32  C14 UNL     1     -50.634  -2.262 -26.258  1.00  0.00     0.162 C 
HETATM   33  O2  UNL     1     -50.289  -2.253 -28.917  1.00  0.00    -0.227 OA
HETATM   34  O3  UNL     1     -51.859  -0.610 -28.031  1.00  0.00    -0.227 OA
ENDBRANCH  28  31
ENDBRANCH  27  28
ENDBRANCH  26  27
ENDBRANCH   6  26
TORSDOF 7
ENDMDL
