MODEL 7
REMARK VINA RESULT: -7.337905655      1.817      5.649
REMARK  5 active torsions:
REMARK  status: ('A' for Active; 'I' for Inactive)
REMARK    1  A    between atoms: O1_2  and  C2_3 
REMARK    2  A    between atoms: N1_6  and  C5_7 
REMARK    3  A    between atoms: C8_12  and  N3_13 
REMARK    4  A    between atoms: N3_13  and  C9_15 
REMARK    5  A    between atoms: N6_26  and  C16_27 
ROOT
HETATM    1  C5  UNL     1     -51.330  -0.478 -19.780  1.00  0.00     0.681 A 
HETATM    2  N2  UNL     1     -51.690   0.135 -18.626  1.00  0.00    -0.202 N 
ATOM      3  H2  UNL     1     -51.421  -0.290 -17.739  1.00  0.00     0.183 HD
HETATM    4  C6  UNL     1     -52.385   1.276 -18.609  1.00  0.00     0.110 A 
HETATM    5  C7  UNL     1     -52.741   1.837 -19.850  1.00  0.00     0.067 A 
HETATM    6  C8  UNL     1     -52.399   1.253 -21.029  1.00  0.00     0.123 A 
HETATM    7  N7  UNL     1     -51.687   0.089 -20.929  1.00  0.00    -0.176 N 
ATOM      8  H7  UNL     1     -51.413  -0.375 -21.794  1.00  0.00     0.186 HD
ENDROOT
BRANCH   6   9
HETATM    9  N3  UNL     1     -52.726   1.768 -22.298  1.00  0.00    -0.328 N 
ATOM     10  H3  UNL     1     -52.704   2.785 -22.379  1.00  0.00     0.169 HD
BRANCH   9  11
HETATM   11  C9  UNL     1     -53.076   1.077 -23.461  1.00  0.00     0.108 A 
HETATM   12  C10 UNL     1     -52.175   0.176 -24.058  1.00  0.00     0.080 A 
HETATM   13  C11 UNL     1     -52.498  -0.516 -25.204  1.00  0.00     0.068 A 
HETATM   14  C12 UNL     1     -53.727  -0.327 -25.784  1.00  0.00     0.076 A 
HETATM   15  N6  UNL     1     -51.808  -1.423 -25.952  1.00  0.00    -0.331 N 
HETATM   16  C13 UNL     1     -54.605   0.557 -25.194  1.00  0.00     0.121 A 
HETATM   17  N5  UNL     1     -53.744  -1.123 -26.862  1.00  0.00    -0.343 N 
HETATM   18  N4  UNL     1     -54.251   1.207 -24.082  1.00  0.00    -0.350 N 
ATOM     19  H4  UNL     1     -54.930   1.851 -23.677  1.00  0.00     0.166 HD
HETATM   20  C14 UNL     1     -52.586  -1.792 -26.974  1.00  0.00     0.080 A 
ATOM     21  H5  UNL     1     -54.528  -1.208 -27.509  1.00  0.00     0.167 HD
HETATM   22  C15 UNL     1     -52.288  -2.760 -28.071  1.00  0.00     0.089 C 
BRANCH  15  23
HETATM   23  C16 UNL     1     -50.467  -1.895 -25.677  1.00  0.00     0.083 C 
HETATM   24  C17 UNL     1     -50.404  -3.365 -25.412  1.00  0.00     0.032 C 
HETATM   25  C18 UNL     1     -49.495  -1.548 -26.772  1.00  0.00     0.032 C 
ENDBRANCH  15  23
ENDBRANCH   9  11
ENDBRANCH   6   9
BRANCH   1  26
HETATM   26  N1  UNL     1     -50.583  -1.704 -19.749  1.00  0.00    -0.215 N 
HETATM   27  C4  UNL     1     -51.312  -2.946 -19.692  1.00  0.00     0.144 C 
HETATM   28  C3  UNL     1     -51.004  -3.722 -20.952  1.00  0.00     0.055 C 
HETATM   29  C2  UNL     1     -49.635  -3.396 -21.500  1.00  0.00     0.158 C 
HETATM   30  C20 UNL     1     -48.647  -3.027 -20.415  1.00  0.00     0.217 C 
HETATM   31  C19 UNL     1     -49.142  -1.745 -19.774  1.00  0.00     0.181 C 
HETATM   32  F1  UNL     1     -48.439  -4.033 -19.521  1.00  0.00    -0.245 F 
BRANCH  29  33
HETATM   33  O1  UNL     1     -49.208  -4.505 -22.207  1.00  0.00    -0.388 OA
HETATM   34  C1  UNL     1     -50.180  -5.489 -22.136  1.00  0.00     0.202 C 
ENDBRANCH  29  33
ENDBRANCH   1  26
TORSDOF 5
ENDMDL
