MODEL 6
REMARK VINA RESULT: -7.418979319      2.680      6.412
REMARK  5 active torsions:
REMARK  status: ('A' for Active; 'I' for Inactive)
REMARK    1  A    between atoms: O1_2  and  C2_3 
REMARK    2  A    between atoms: N1_6  and  C5_7 
REMARK    3  A    between atoms: C8_12  and  N3_13 
REMARK    4  A    between atoms: N3_13  and  C9_15 
REMARK    5  A    between atoms: N6_26  and  C16_27 
ROOT
HETATM    1  C5  UNL     1     -54.028   0.859 -24.063  1.00  0.00     0.681 A 
HETATM    2  N2  UNL     1     -55.211   1.512 -24.175  1.00  0.00    -0.202 N 
ATOM      3  H2  UNL     1     -55.478   2.176 -23.448  1.00  0.00     0.183 HD
HETATM    4  C6  UNL     1     -56.039   1.318 -25.206  1.00  0.00     0.110 A 
HETATM    5  C7  UNL     1     -55.643   0.397 -26.193  1.00  0.00     0.067 A 
HETATM    6  C8  UNL     1     -54.465  -0.278 -26.115  1.00  0.00     0.123 A 
HETATM    7  N7  UNL     1     -53.694  -0.002 -25.020  1.00  0.00    -0.176 N 
ATOM      8  H7  UNL     1     -52.804  -0.490 -24.931  1.00  0.00     0.186 HD
ENDROOT
BRANCH   6   9
HETATM    9  N3  UNL     1     -54.016  -1.209 -27.071  1.00  0.00    -0.328 N 
ATOM     10  H3  UNL     1     -54.700  -1.479 -27.779  1.00  0.00     0.169 HD
BRANCH   9  11
HETATM   11  C9  UNL     1     -52.762  -1.815 -27.184  1.00  0.00     0.108 A 
HETATM   12  C10 UNL     1     -52.187  -2.482 -26.085  1.00  0.00     0.080 A 
HETATM   13  C11 UNL     1     -50.953  -3.086 -26.172  1.00  0.00     0.068 A 
HETATM   14  C12 UNL     1     -50.260  -3.041 -27.356  1.00  0.00     0.076 A 
HETATM   15  N6  UNL     1     -50.205  -3.776 -25.265  1.00  0.00    -0.331 N 
HETATM   16  C13 UNL     1     -50.829  -2.388 -28.427  1.00  0.00     0.121 A 
HETATM   17  N5  UNL     1     -49.117  -3.705 -27.130  1.00  0.00    -0.343 N 
HETATM   18  N4  UNL     1     -52.029  -1.816 -28.300  1.00  0.00    -0.350 N 
ATOM     19  H4  UNL     1     -52.414  -1.343 -29.117  1.00  0.00     0.166 HD
HETATM   20  C14 UNL     1     -49.073  -4.154 -25.866  1.00  0.00     0.080 A 
ATOM     21  H5  UNL     1     -48.382  -3.847 -27.823  1.00  0.00     0.167 HD
HETATM   22  C15 UNL     1     -47.930  -4.931 -25.301  1.00  0.00     0.089 C 
BRANCH  15  23
HETATM   23  C16 UNL     1     -50.582  -4.045 -23.894  1.00  0.00     0.083 C 
HETATM   24  C17 UNL     1     -50.498  -2.839 -23.013  1.00  0.00     0.032 C 
HETATM   25  C18 UNL     1     -51.957  -4.645 -23.778  1.00  0.00     0.032 C 
ENDBRANCH  15  23
ENDBRANCH   9  11
ENDBRANCH   6   9
BRANCH   1  26
HETATM   26  N1  UNL     1     -53.171   1.100 -22.937  1.00  0.00    -0.215 N 
HETATM   27  C4  UNL     1     -53.720   1.785 -21.794  1.00  0.00     0.144 C 
HETATM   28  C3  UNL     1     -53.667   0.837 -20.617  1.00  0.00     0.055 C 
HETATM   29  C2  UNL     1     -52.531  -0.152 -20.734  1.00  0.00     0.158 C 
HETATM   30  C20 UNL     1     -51.342   0.415 -21.478  1.00  0.00     0.217 C 
HETATM   31  C19 UNL     1     -51.789   0.686 -22.901  1.00  0.00     0.181 C 
HETATM   32  F1  UNL     1     -50.801   1.504 -20.864  1.00  0.00    -0.245 F 
BRANCH  29  33
HETATM   33  O1  UNL     1     -52.184  -0.522 -19.447  1.00  0.00    -0.388 OA
HETATM   34  C1  UNL     1     -51.414  -1.672 -19.499  1.00  0.00     0.202 C 
ENDBRANCH  29  33
ENDBRANCH   1  26
TORSDOF 5
ENDMDL
