MODEL 5
REMARK VINA RESULT: -7.445693557      3.181      7.384
REMARK  5 active torsions:
REMARK  status: ('A' for Active; 'I' for Inactive)
REMARK    1  A    between atoms: O1_2  and  C2_3 
REMARK    2  A    between atoms: N1_6  and  C5_7 
REMARK    3  A    between atoms: C8_12  and  N3_13 
REMARK    4  A    between atoms: N3_13  and  C9_15 
REMARK    5  A    between atoms: N6_26  and  C16_27 
ROOT
HETATM    1  C5  UNL     1     -49.950  -1.117 -19.786  1.00  0.00     0.681 A 
HETATM    2  N2  UNL     1     -48.775  -1.196 -19.113  1.00  0.00    -0.202 N 
ATOM      3  H2  UNL     1     -48.472  -0.396 -18.557  1.00  0.00     0.183 HD
HETATM    4  C6  UNL     1     -48.002  -2.285 -19.150  1.00  0.00     0.110 A 
HETATM    5  C7  UNL     1     -48.447  -3.371 -19.925  1.00  0.00     0.067 A 
HETATM    6  C8  UNL     1     -49.618  -3.331 -20.615  1.00  0.00     0.123 A 
HETATM    7  N7  UNL     1     -50.331  -2.169 -20.505  1.00  0.00    -0.176 N 
ATOM      8  H7  UNL     1     -51.215  -2.105 -21.009  1.00  0.00     0.186 HD
ENDROOT
BRANCH   6   9
HETATM    9  N3  UNL     1     -50.114  -4.386 -21.404  1.00  0.00    -0.328 N 
ATOM     10  H3  UNL     1     -49.937  -5.325 -21.047  1.00  0.00     0.169 HD
BRANCH   9  11
HETATM   11  C9  UNL     1     -50.817  -4.323 -22.611  1.00  0.00     0.108 A 
HETATM   12  C10 UNL     1     -50.388  -3.470 -23.646  1.00  0.00     0.080 A 
HETATM   13  C11 UNL     1     -51.064  -3.391 -24.843  1.00  0.00     0.068 A 
HETATM   14  C12 UNL     1     -52.184  -4.160 -25.039  1.00  0.00     0.076 A 
HETATM   15  N6  UNL     1     -50.848  -2.656 -25.970  1.00  0.00    -0.331 N 
HETATM   16  C13 UNL     1     -52.597  -4.993 -24.023  1.00  0.00     0.121 A 
HETATM   17  N5  UNL     1     -52.610  -3.867 -26.277  1.00  0.00    -0.343 N 
HETATM   18  N4  UNL     1     -51.912  -5.039 -22.877  1.00  0.00    -0.350 N 
ATOM     19  H4  UNL     1     -52.251  -5.669 -22.150  1.00  0.00     0.166 HD
HETATM   20  C14 UNL     1     -51.808  -2.957 -26.850  1.00  0.00     0.080 A 
ATOM     21  H5  UNL     1     -53.430  -4.279 -26.720  1.00  0.00     0.167 HD
HETATM   22  C15 UNL     1     -52.012  -2.421 -28.228  1.00  0.00     0.089 C 
BRANCH  15  23
HETATM   23  C16 UNL     1     -49.764  -1.716 -26.167  1.00  0.00     0.083 C 
HETATM   24  C17 UNL     1     -48.674  -2.250 -27.040  1.00  0.00     0.032 C 
HETATM   25  C18 UNL     1     -50.235  -0.397 -26.718  1.00  0.00     0.032 C 
ENDBRANCH  15  23
ENDBRANCH   9  11
ENDBRANCH   6   9
BRANCH   1  26
HETATM   26  N1  UNL     1     -50.748   0.074 -19.717  1.00  0.00    -0.215 N 
HETATM   27  C4  UNL     1     -50.691   0.999 -20.820  1.00  0.00     0.144 C 
HETATM   28  C3  UNL     1     -52.070   1.070 -21.436  1.00  0.00     0.055 C 
HETATM   29  C2  UNL     1     -53.159   0.789 -20.427  1.00  0.00     0.158 C 
HETATM   30  C20 UNL     1     -52.782   1.228 -19.029  1.00  0.00     0.217 C 
HETATM   31  C19 UNL     1     -51.601   0.383 -18.595  1.00  0.00     0.181 C 
HETATM   32  F1  UNL     1     -52.551   2.567 -18.937  1.00  0.00    -0.245 F 
BRANCH  29  33
HETATM   33  O1  UNL     1     -54.295   1.444 -20.866  1.00  0.00    -0.388 OA
HETATM   34  C1  UNL     1     -54.169   1.713 -22.219  1.00  0.00     0.202 C 
ENDBRANCH  29  33
ENDBRANCH   1  26
TORSDOF 5
ENDMDL
