MODEL 3
REMARK VINA RESULT: -7.515575134      1.954      3.168
REMARK  5 active torsions:
REMARK  status: ('A' for Active; 'I' for Inactive)
REMARK    1  A    between atoms: O1_2  and  C2_3 
REMARK    2  A    between atoms: N1_6  and  C5_7 
REMARK    3  A    between atoms: C8_12  and  N3_13 
REMARK    4  A    between atoms: N3_13  and  C9_15 
REMARK    5  A    between atoms: N6_26  and  C16_27 
ROOT
HETATM    1  C5  UNL     1     -53.564  -0.337 -25.600  1.00  0.00     0.681 A 
HETATM    2  N2  UNL     1     -54.696  -0.441 -26.341  1.00  0.00    -0.202 N 
ATOM      3  H2  UNL     1     -54.695  -1.052 -27.157  1.00  0.00     0.183 HD
HETATM    4  C6  UNL     1     -55.812   0.227 -26.038  1.00  0.00     0.110 A 
HETATM    5  C7  UNL     1     -55.783   1.061 -24.905  1.00  0.00     0.067 A 
HETATM    6  C8  UNL     1     -54.668   1.193 -24.138  1.00  0.00     0.123 A 
HETATM    7  N7  UNL     1     -53.583   0.463 -24.538  1.00  0.00    -0.176 N 
ATOM      8  H7  UNL     1     -52.730   0.537 -23.984  1.00  0.00     0.186 HD
ENDROOT
BRANCH   6   9
HETATM    9  N3  UNL     1     -54.580   2.011 -22.995  1.00  0.00    -0.328 N 
ATOM     10  H3  UNL     1     -55.132   2.868 -23.023  1.00  0.00     0.169 HD
BRANCH   9  11
HETATM   11  C9  UNL     1     -53.839   1.809 -21.827  1.00  0.00     0.108 A 
HETATM   12  C10 UNL     1     -52.916   0.749 -21.738  1.00  0.00     0.080 A 
HETATM   13  C11 UNL     1     -52.175   0.530 -20.599  1.00  0.00     0.068 A 
HETATM   14  C12 UNL     1     -52.335   1.361 -19.519  1.00  0.00     0.076 A 
HETATM   15  N6  UNL     1     -51.240  -0.410 -20.280  1.00  0.00    -0.331 N 
HETATM   16  C13 UNL     1     -53.239   2.396 -19.612  1.00  0.00     0.121 A 
HETATM   17  N5  UNL     1     -51.493   0.901 -18.582  1.00  0.00    -0.343 N 
HETATM   18  N4  UNL     1     -53.937   2.574 -20.737  1.00  0.00    -0.350 N 
ATOM     19  H4  UNL     1     -54.596   3.352 -20.765  1.00  0.00     0.166 HD
HETATM   20  C14 UNL     1     -50.825  -0.172 -19.032  1.00  0.00     0.080 A 
ATOM     21  H5  UNL     1     -51.378   1.309 -17.654  1.00  0.00     0.167 HD
HETATM   22  C15 UNL     1     -49.812  -0.918 -18.228  1.00  0.00     0.089 C 
BRANCH  15  23
HETATM   23  C16 UNL     1     -50.786  -1.473 -21.150  1.00  0.00     0.083 C 
HETATM   24  C17 UNL     1     -49.297  -1.530 -21.282  1.00  0.00     0.032 C 
HETATM   25  C18 UNL     1     -51.295  -2.825 -20.728  1.00  0.00     0.032 C 
ENDBRANCH  15  23
ENDBRANCH   9  11
ENDBRANCH   6   9
BRANCH   1  26
HETATM   26  N1  UNL     1     -52.388  -1.074 -25.965  1.00  0.00    -0.215 N 
HETATM   27  C4  UNL     1     -51.105  -0.442 -25.792  1.00  0.00     0.144 C 
HETATM   28  C3  UNL     1     -50.324  -1.246 -24.777  1.00  0.00     0.055 C 
HETATM   29  C2  UNL     1     -50.724  -2.703 -24.779  1.00  0.00     0.158 C 
HETATM   30  C20 UNL     1     -51.174  -3.181 -26.142  1.00  0.00     0.217 C 
HETATM   31  C19 UNL     1     -52.435  -2.416 -26.493  1.00  0.00     0.181 C 
HETATM   32  F1  UNL     1     -50.200  -3.080 -27.089  1.00  0.00    -0.245 F 
BRANCH  29  33
HETATM   33  O1  UNL     1     -49.629  -3.423 -24.334  1.00  0.00    -0.388 OA
HETATM   34  C1  UNL     1     -50.060  -4.641 -23.835  1.00  0.00     0.202 C 
ENDBRANCH  29  33
ENDBRANCH   1  26
TORSDOF 5
ENDMDL
