MODEL 4
REMARK VINA RESULT: -7.511098804      2.179      3.326
REMARK  5 active torsions:
REMARK  status: ('A' for Active; 'I' for Inactive)
REMARK    1  A    between atoms: O1_2  and  C2_3 
REMARK    2  A    between atoms: N1_6  and  C5_7 
REMARK    3  A    between atoms: C8_12  and  N3_13 
REMARK    4  A    between atoms: N3_13  and  C9_15 
REMARK    5  A    between atoms: N6_26  and  C16_27 
ROOT
HETATM    1  C5  UNL     1     -53.175  -0.967 -25.424  1.00  0.00     0.681 A 
HETATM    2  N2  UNL     1     -54.358  -0.773 -26.057  1.00  0.00    -0.202 N 
ATOM      3  H2  UNL     1     -54.658  -1.451 -26.757  1.00  0.00     0.183 HD
HETATM    4  C6  UNL     1     -55.144   0.276 -25.796  1.00  0.00     0.110 A 
HETATM    5  C7  UNL     1     -54.702   1.193 -24.826  1.00  0.00     0.067 A 
HETATM    6  C8  UNL     1     -53.522   1.033 -24.169  1.00  0.00     0.123 A 
HETATM    7  N7  UNL     1     -52.798  -0.074 -24.513  1.00  0.00    -0.176 N 
ATOM      8  H7  UNL     1     -51.908  -0.226 -24.039  1.00  0.00     0.186 HD
ENDROOT
BRANCH   6   9
HETATM    9  N3  UNL     1     -53.030   1.917 -23.189  1.00  0.00    -0.328 N 
ATOM     10  H3  UNL     1     -52.888   2.880 -23.495  1.00  0.00     0.169 HD
BRANCH   9  11
HETATM   11  C9  UNL     1     -52.709   1.655 -21.854  1.00  0.00     0.108 A 
HETATM   12  C10 UNL     1     -51.682   0.749 -21.529  1.00  0.00     0.080 A 
HETATM   13  C11 UNL     1     -51.348   0.475 -20.222  1.00  0.00     0.068 A 
HETATM   14  C12 UNL     1     -52.030   1.097 -19.205  1.00  0.00     0.076 A 
HETATM   15  N6  UNL     1     -50.412  -0.346 -19.668  1.00  0.00    -0.331 N 
HETATM   16  C13 UNL     1     -53.034   1.982 -19.531  1.00  0.00     0.121 A 
HETATM   17  N5  UNL     1     -51.486   0.634 -18.070  1.00  0.00    -0.343 N 
HETATM   18  N4  UNL     1     -53.325   2.220 -20.813  1.00  0.00    -0.350 N 
ATOM     19  H4  UNL     1     -54.074   2.882 -21.011  1.00  0.00     0.166 HD
HETATM   20  C14 UNL     1     -50.504  -0.241 -18.338  1.00  0.00     0.080 A 
ATOM     21  H5  UNL     1     -51.779   0.908 -17.133  1.00  0.00     0.167 HD
HETATM   22  C15 UNL     1     -49.702  -0.936 -17.289  1.00  0.00     0.089 C 
BRANCH  15  23
HETATM   23  C16 UNL     1     -49.485  -1.181 -20.402  1.00  0.00     0.083 C 
HETATM   24  C17 UNL     1     -50.148  -2.330 -21.092  1.00  0.00     0.032 C 
HETATM   25  C18 UNL     1     -48.675  -0.404 -21.405  1.00  0.00     0.032 C 
ENDBRANCH  15  23
ENDBRANCH   9  11
ENDBRANCH   6   9
BRANCH   1  26
HETATM   26  N1  UNL     1     -52.363  -2.108 -25.737  1.00  0.00    -0.215 N 
HETATM   27  C4  UNL     1     -52.726  -2.913 -26.876  1.00  0.00     0.144 C 
HETATM   28  C3  UNL     1     -51.596  -2.835 -27.878  1.00  0.00     0.055 C 
HETATM   29  C2  UNL     1     -50.261  -2.598 -27.211  1.00  0.00     0.158 C 
HETATM   30  C20 UNL     1     -50.187  -3.205 -25.827  1.00  0.00     0.217 C 
HETATM   31  C19 UNL     1     -51.203  -2.482 -24.964  1.00  0.00     0.181 C 
HETATM   32  F1  UNL     1     -50.345  -4.557 -25.831  1.00  0.00    -0.245 F 
BRANCH  29  33
HETATM   33  O1  UNL     1     -49.294  -3.132 -28.043  1.00  0.00    -0.388 OA
HETATM   34  C1  UNL     1     -48.069  -3.092 -27.398  1.00  0.00     0.202 C 
ENDBRANCH  29  33
ENDBRANCH   1  26
TORSDOF 5
ENDMDL
