MODEL 2
REMARK VINA RESULT: -8.182370731      1.290      1.592
REMARK  8 active torsions:
REMARK  status: ('A' for Active; 'I' for Inactive)
REMARK    1  A    between atoms: O1_2  and  C2_3 
REMARK    2  A    between atoms: N1_6  and  C5_7 
REMARK    3  A    between atoms: C8_12  and  N3_13 
REMARK    4  A    between atoms: N3_13  and  C9_15 
REMARK    5  A    between atoms: C14_24  and  C15_25 
REMARK    6  A    between atoms: C15_25  and  O2_27 
REMARK    7  A    between atoms: N6_29  and  C17_30 
REMARK    8  A    between atoms: C17_30  and  C19_32 
ROOT
HETATM    1  C9  UNL     1     -53.789   1.541 -21.815  1.00  0.00     0.108 A 
HETATM    2  C10 UNL     1     -52.817   0.533 -21.916  1.00  0.00     0.080 A 
HETATM    3  C11 UNL     1     -52.097   0.183 -20.801  1.00  0.00     0.068 A 
HETATM    4  C12 UNL     1     -52.306   0.792 -19.605  1.00  0.00     0.076 A 
HETATM    5  C13 UNL     1     -53.267   1.786 -19.513  1.00  0.00     0.121 A 
HETATM    6  N4  UNL     1     -53.949   2.100 -20.617  1.00  0.00    -0.350 N 
ATOM      7  H4  UNL     1     -54.653   2.832 -20.536  1.00  0.00     0.166 HD
HETATM    8  N5  UNL     1     -51.469   0.255 -18.740  1.00  0.00    -0.341 N 
ATOM      9  H5  UNL     1     -51.390   0.510 -17.755  1.00  0.00     0.167 HD
HETATM   10  C14 UNL     1     -50.721  -0.703 -19.377  1.00  0.00     0.114 A 
HETATM   11  N6  UNL     1     -51.099  -0.758 -20.649  1.00  0.00    -0.319 N 
ENDROOT
BRANCH   1  12
HETATM   12  N3  UNL     1     -54.526   1.901 -22.948  1.00  0.00    -0.328 N 
ATOM     13  H3  UNL     1     -54.976   2.816 -22.923  1.00  0.00     0.169 HD
BRANCH  12  14
HETATM   14  C8  UNL     1     -54.718   1.146 -24.116  1.00  0.00     0.123 A 
HETATM   15  C7  UNL     1     -55.912   1.098 -24.780  1.00  0.00     0.067 A 
HETATM   16  C6  UNL     1     -55.986   0.306 -25.941  1.00  0.00     0.110 A 
HETATM   17  N2  UNL     1     -54.912  -0.364 -26.359  1.00  0.00    -0.202 N 
HETATM   18  C5  UNL     1     -53.736  -0.319 -25.709  1.00  0.00     0.681 A 
ATOM     19  H2  UNL     1     -54.985  -0.932 -27.204  1.00  0.00     0.183 HD
HETATM   20  N7  UNL     1     -53.661   0.426 -24.614  1.00  0.00    -0.176 N 
ATOM     21  H7  UNL     1     -52.771   0.465 -24.116  1.00  0.00     0.186 HD
BRANCH  18  22
HETATM   22  N1  UNL     1     -52.628  -1.058 -26.207  1.00  0.00    -0.215 N 
HETATM   23  C4  UNL     1     -51.274  -0.621 -25.934  1.00  0.00     0.144 C 
HETATM   24  C3  UNL     1     -50.490  -1.867 -25.538  1.00  0.00     0.055 C 
HETATM   25  C2  UNL     1     -50.370  -2.755 -26.748  1.00  0.00     0.158 C 
HETATM   26  C21 UNL     1     -51.537  -2.589 -27.698  1.00  0.00     0.217 C 
HETATM   27  C20 UNL     1     -52.809  -2.256 -26.990  1.00  0.00     0.181 C 
HETATM   28  F4  UNL     1     -51.240  -1.579 -28.601  1.00  0.00    -0.245 F 
BRANCH  25  29
HETATM   29  O1  UNL     1     -49.203  -2.371 -27.422  1.00  0.00    -0.388 OA
HETATM   30  C1  UNL     1     -48.277  -3.424 -27.409  1.00  0.00     0.202 C 
ENDBRANCH  25  29
ENDBRANCH  18  22
ENDBRANCH  12  14
ENDBRANCH   1  12
BRANCH  11  31
HETATM   31  C17 UNL     1     -50.636  -1.585 -21.696  1.00  0.00     0.195 C 
HETATM   32  C18 UNL     1     -49.159  -1.635 -21.932  1.00  0.00     0.042 C 
BRANCH  31  33
HETATM   33  C19 UNL     1     -51.258  -2.980 -21.740  1.00  0.00     0.407 C 
HETATM   34  F1  UNL     1     -52.082  -3.232 -20.660  1.00  0.00    -0.169 F 
HETATM   35  F2  UNL     1     -52.093  -3.080 -22.855  1.00  0.00    -0.169 F 
HETATM   36  F3  UNL     1     -50.328  -3.993 -21.729  1.00  0.00    -0.169 F 
ENDBRANCH  31  33
ENDBRANCH  11  31
BRANCH  10  37
HETATM   37  C15 UNL     1     -49.686  -1.455 -18.674  1.00  0.00     0.181 C 
HETATM   38  C16 UNL     1     -49.611  -0.991 -17.192  1.00  0.00     0.047 C 
BRANCH  37  39
HETATM   39  O2  UNL     1     -49.842  -2.806 -18.575  1.00  0.00    -0.388 OA
ATOM     40  H2  UNL     1     -49.073  -3.324 -18.369  1.00  0.00     0.210 HD
ENDBRANCH  37  39
ENDBRANCH  10  37
TORSDOF 8
ENDMDL
